MODEL 1
REMARK VINA RESULT:      -5.9      0.000      0.000
REMARK  10 active torsions:
REMARK  status: ('A' for Active; 'I' for Inactive)
REMARK    1  A    between atoms: C_1  and  O_2 
REMARK    2  A    between atoms: O_2  and  C_3 
REMARK    3  A    between atoms: C_6  and  C_9 
REMARK    4  A    between atoms: C_9  and  C_11 
REMARK    5  A    between atoms: C_9  and  C_15 
REMARK    6  A    between atoms: C_11  and  C_12 
REMARK    7  A    between atoms: C_12  and  C_13 
REMARK    8  A    between atoms: C_15  and  C_17 
REMARK    9  A    between atoms: C_20  and  O_23 
REMARK   10  A    between atoms: O_23  and  C_24 
ROOT
ATOM      1  C   LIG d   1       4.870  -1.482  -4.200  0.00  0.00     0.048 C 
ATOM      2  H   LIG d   1       5.704  -1.040  -3.872  0.00  0.00     0.043 H 
ENDROOT
BRANCH   1   3
ATOM      3  C   LIG d   1       4.391  -0.787  -5.449  0.00  0.00    -0.037 A 
ATOM      4  C   LIG d   1       3.166  -0.145  -5.455  0.00  0.00    -0.054 A 
ATOM      5  C   LIG d   1       2.723   0.488  -6.600  0.00  0.00    -0.020 A 
ATOM      6  H   LIG d   1       2.553  -0.144  -4.566  0.00  0.00     0.062 H 
ATOM      7  C   LIG d   1       3.512   0.492  -7.740  0.00  0.00     0.120 A 
ATOM      8  H   LIG d   1       1.763   0.985  -6.605  0.00  0.00     0.065 H 
ATOM      9  C   LIG d   1       4.742  -0.152  -7.731  0.00  0.00    -0.020 A 
ATOM     10  C   LIG d   1       5.178  -0.789  -6.586  0.00  0.00    -0.054 A 
ATOM     11  H   LIG d   1       5.357  -0.155  -8.619  0.00  0.00     0.065 H 
ATOM     12  H   LIG d   1       6.135  -1.290  -6.578  0.00  0.00     0.062 H 
BRANCH   7  13
ATOM     13  O   LIG d   1       3.080   1.119  -8.866  0.00  0.00    -0.495 OA
BRANCH  13  14
ATOM     14  C   LIG d   1       3.694   2.368  -9.189  0.00  0.00     0.079 C 
ATOM     15  H   LIG d   1       2.933   3.148  -9.224  0.00  0.00     0.066 H 
ATOM     16  H   LIG d   1       4.433   2.617  -8.428  0.00  0.00     0.066 H 
ATOM     17  H   LIG d   1       4.183   2.293 -10.160  0.00  0.00     0.066 H 
ENDBRANCH  13  14
ENDBRANCH   7  13
ENDBRANCH   1   3
BRANCH   1  18
ATOM     18  C   LIG d   1       3.788  -1.395  -3.122  0.00  0.00    -0.034 C 
ATOM     19  H   LIG d   1       2.955  -0.795  -3.491  0.00  0.00     0.028 H 
ATOM     20  H   LIG d   1       3.434  -2.398  -2.881  0.00  0.00     0.028 H 
BRANCH  18  21
ATOM     21  C   LIG d   1       4.370  -0.744  -1.866  0.00  0.00    -0.012 C 
ATOM     22  H   LIG d   1       3.755  -1.002  -1.005  0.00  0.00     0.033 H 
ATOM     23  H   LIG d   1       5.387  -1.104  -1.708  0.00  0.00     0.033 H 
BRANCH  21  24
ATOM     24  C   LIG d   1       4.390   0.753  -2.040  0.00  0.00     0.042 C 
ATOM     25  O   LIG d   1       3.358   1.381  -1.986  0.00  0.00    -0.550 OA
ATOM     26  O   LIG d   1       5.552   1.389  -2.255  0.00  0.00    -0.550 OA
ENDBRANCH  21  24
ENDBRANCH  18  21
ENDBRANCH   1  18
BRANCH   1  27
ATOM     27  C   LIG d   1       5.156  -2.929  -4.510  0.00  0.00     0.171 C 
ATOM     28  O   LIG d   1       4.244  -3.686  -4.765  0.00  0.00    -0.291 OA
BRANCH  27  29
ATOM     29  C   LIG d   1       6.540  -3.422  -4.501  0.00  0.00     0.018 A 
ATOM     30  C   LIG d   1       6.892  -4.538  -5.269  0.00  0.00    -0.048 A 
ATOM     31  C   LIG d   1       8.186  -4.994  -5.257  0.00  0.00    -0.019 A 
ATOM     32  H   LIG d   1       6.148  -5.040  -5.868  0.00  0.00     0.063 H 
ATOM     33  C   LIG d   1       9.146  -4.349  -4.485  0.00  0.00     0.120 A 
ATOM     34  H   LIG d   1       8.459  -5.856  -5.848  0.00  0.00     0.065 H 
ATOM     35  C   LIG d   1       8.800  -3.240  -3.721  0.00  0.00    -0.019 A 
ATOM     36  C   LIG d   1       7.511  -2.772  -3.729  0.00  0.00    -0.048 A 
ATOM     37  H   LIG d   1       9.550  -2.743  -3.123  0.00  0.00     0.065 H 
ATOM     38  H   LIG d   1       7.246  -1.909  -3.139  0.00  0.00     0.063 H 
BRANCH  33  39
ATOM     39  O   LIG d   1      10.424  -4.804  -4.477  0.00  0.00    -0.495 OA
BRANCH  39  40
ATOM     40  C   LIG d   1      11.299  -4.264  -3.485  0.00  0.00     0.079 C 
ATOM     41  H   LIG d   1      11.675  -3.297  -3.820  0.00  0.00     0.066 H 
ATOM     42  H   LIG d   1      10.753  -4.138  -2.550  0.00  0.00     0.066 H 
ATOM     43  H   LIG d   1      12.135  -4.945  -3.328  0.00  0.00     0.066 H 
ENDBRANCH  39  40
ENDBRANCH  33  39
ENDBRANCH  27  29
ENDBRANCH   1  27
TORSDOF 10
ENDMDL
MODEL 2
REMARK VINA RESULT:      -5.8      0.265      1.551
REMARK  10 active torsions:
REMARK  status: ('A' for Active; 'I' for Inactive)
REMARK    1  A    between atoms: C_1  and  O_2 
REMARK    2  A    between atoms: O_2  and  C_3 
REMARK    3  A    between atoms: C_6  and  C_9 
REMARK    4  A    between atoms: C_9  and  C_11 
REMARK    5  A    between atoms: C_9  and  C_15 
REMARK    6  A    between atoms: C_11  and  C_12 
REMARK    7  A    between atoms: C_12  and  C_13 
REMARK    8  A    between atoms: C_15  and  C_17 
REMARK    9  A    between atoms: C_20  and  O_23 
REMARK   10  A    between atoms: O_23  and  C_24 
ROOT
ATOM      1  C   LIG d   1       4.872  -1.483  -4.157  0.00  0.00     0.048 C 
ATOM      2  H   LIG d   1       5.718  -1.045  -3.855  0.00  0.00     0.043 H 
ENDROOT
BRANCH   1   3
ATOM      3  C   LIG d   1       4.326  -0.749  -5.355  0.00  0.00    -0.037 A 
ATOM      4  C   LIG d   1       5.068  -0.683  -6.521  0.00  0.00    -0.054 A 
ATOM      5  C   LIG d   1       4.573  -0.006  -7.618  0.00  0.00    -0.020 A 
ATOM      6  H   LIG d   1       6.037  -1.157  -6.571  0.00  0.00     0.062 H 
ATOM      7  C   LIG d   1       3.325   0.598  -7.556  0.00  0.00     0.120 A 
ATOM      8  H   LIG d   1       5.155   0.049  -8.526  0.00  0.00     0.065 H 
ATOM      9  C   LIG d   1       2.583   0.530  -6.385  0.00  0.00    -0.020 A 
ATOM     10  C   LIG d   1       3.086  -0.143  -5.288  0.00  0.00    -0.054 A 
ATOM     11  H   LIG d   1       1.613   1.002  -6.332  0.00  0.00     0.065 H 
ATOM     12  H   LIG d   1       2.508  -0.197  -4.377  0.00  0.00     0.062 H 
BRANCH   7  13
ATOM     13  O   LIG d   1       2.834   1.260  -8.636  0.00  0.00    -0.495 OA
BRANCH  13  14
ATOM     14  C   LIG d   1       3.759   2.047  -9.390  0.00  0.00     0.079 C 
ATOM     15  H   LIG d   1       4.719   2.071  -8.875  0.00  0.00     0.066 H 
ATOM     16  H   LIG d   1       3.888   1.606 -10.379  0.00  0.00     0.066 H 
ATOM     17  H   LIG d   1       3.374   3.062  -9.493  0.00  0.00     0.066 H 
ENDBRANCH  13  14
ENDBRANCH   7  13
ENDBRANCH   1   3
BRANCH   1  18
ATOM     18  C   LIG d   1       3.844  -1.442  -3.024  0.00  0.00    -0.034 C 
ATOM     19  H   LIG d   1       2.968  -0.880  -3.348  0.00  0.00     0.028 H 
ATOM     20  H   LIG d   1       3.549  -2.459  -2.765  0.00  0.00     0.028 H 
BRANCH  18  21
ATOM     21  C   LIG d   1       4.462  -0.764  -1.800  0.00  0.00    -0.012 C 
ATOM     22  H   LIG d   1       3.877  -1.011  -0.914  0.00  0.00     0.033 H 
ATOM     23  H   LIG d   1       5.486  -1.114  -1.668  0.00  0.00     0.033 H 
BRANCH  21  24
ATOM     24  C   LIG d   1       4.464   0.730  -2.001  0.00  0.00     0.042 C 
ATOM     25  O   LIG d   1       5.510   1.319  -2.139  0.00  0.00    -0.550 OA
ATOM     26  O   LIG d   1       3.304   1.405  -2.027  0.00  0.00    -0.550 OA
ENDBRANCH  21  24
ENDBRANCH  18  21
ENDBRANCH   1  18
BRANCH   1  27
ATOM     27  C   LIG d   1       5.152  -2.915  -4.531  0.00  0.00     0.171 C 
ATOM     28  O   LIG d   1       4.236  -3.657  -4.818  0.00  0.00    -0.291 OA
BRANCH  27  29
ATOM     29  C   LIG d   1       6.533  -3.414  -4.546  0.00  0.00     0.018 A 
ATOM     30  C   LIG d   1       7.534  -2.731  -3.843  0.00  0.00    -0.048 A 
ATOM     31  C   LIG d   1       8.822  -3.201  -3.860  0.00  0.00    -0.019 A 
ATOM     32  H   LIG d   1       7.292  -1.836  -3.291  0.00  0.00     0.063 H 
ATOM     33  C   LIG d   1       9.135  -4.353  -4.572  0.00  0.00     0.120 A 
ATOM     34  H   LIG d   1       9.595  -2.674  -3.319  0.00  0.00     0.065 H 
ATOM     35  C   LIG d   1       8.144  -5.035  -5.271  0.00  0.00    -0.019 A 
ATOM     36  C   LIG d   1       6.852  -4.577  -5.257  0.00  0.00    -0.048 A 
ATOM     37  H   LIG d   1       8.394  -5.930  -5.823  0.00  0.00     0.065 H 
ATOM     38  H   LIG d   1       6.084  -5.109  -5.797  0.00  0.00     0.063 H 
BRANCH  33  39
ATOM     39  O   LIG d   1      10.411  -4.815  -4.586  0.00  0.00    -0.495 OA
BRANCH  39  40
ATOM     40  C   LIG d   1      10.978  -5.193  -3.330  0.00  0.00     0.079 C 
ATOM     41  H   LIG d   1      10.328  -5.919  -2.842  0.00  0.00     0.066 H 
ATOM     42  H   LIG d   1      11.960  -5.635  -3.493  0.00  0.00     0.066 H 
ATOM     43  H   LIG d   1      11.078  -4.311  -2.696  0.00  0.00     0.066 H 
ENDBRANCH  39  40
ENDBRANCH  33  39
ENDBRANCH  27  29
ENDBRANCH   1  27
TORSDOF 10
ENDMDL
MODEL 3
REMARK VINA RESULT:      -5.6      1.835      6.237
REMARK  10 active torsions:
REMARK  status: ('A' for Active; 'I' for Inactive)
REMARK    1  A    between atoms: C_1  and  O_2 
REMARK    2  A    between atoms: O_2  and  C_3 
REMARK    3  A    between atoms: C_6  and  C_9 
REMARK    4  A    between atoms: C_9  and  C_11 
REMARK    5  A    between atoms: C_9  and  C_15 
REMARK    6  A    between atoms: C_11  and  C_12 
REMARK    7  A    between atoms: C_12  and  C_13 
REMARK    8  A    between atoms: C_15  and  C_17 
REMARK    9  A    between atoms: C_20  and  O_23 
REMARK   10  A    between atoms: O_23  and  C_24 
ROOT
ATOM      1  C   LIG d   1       4.943  -1.631  -4.264  0.00  0.00     0.048 C 
ATOM      2  H   LIG d   1       3.949  -1.719  -4.208  0.00  0.00     0.043 H 
ENDROOT
BRANCH   1   3
ATOM      3  C   LIG d   1       5.538  -2.941  -4.715  0.00  0.00    -0.037 A 
ATOM      4  C   LIG d   1       6.900  -3.156  -4.600  0.00  0.00    -0.054 A 
ATOM      5  C   LIG d   1       7.448  -4.353  -5.017  0.00  0.00    -0.020 A 
ATOM      6  H   LIG d   1       7.535  -2.385  -4.189  0.00  0.00     0.062 H 
ATOM      7  C   LIG d   1       6.631  -5.345  -5.539  0.00  0.00     0.120 A 
ATOM      8  H   LIG d   1       8.512  -4.518  -4.933  0.00  0.00     0.065 H 
ATOM      9  C   LIG d   1       5.265  -5.127  -5.652  0.00  0.00    -0.020 A 
ATOM     10  C   LIG d   1       4.723  -3.925  -5.240  0.00  0.00    -0.054 A 
ATOM     11  H   LIG d   1       4.627  -5.896  -6.062  0.00  0.00     0.065 H 
ATOM     12  H   LIG d   1       3.659  -3.755  -5.327  0.00  0.00     0.062 H 
BRANCH   7  13
ATOM     13  O   LIG d   1       7.168  -6.526  -5.946  0.00  0.00    -0.495 OA
BRANCH  13  14
ATOM     14  C   LIG d   1       6.824  -7.689  -5.190  0.00  0.00     0.079 C 
ATOM     15  H   LIG d   1       7.480  -7.765  -4.322  0.00  0.00     0.066 H 
ATOM     16  H   LIG d   1       5.789  -7.613  -4.857  0.00  0.00     0.066 H 
ATOM     17  H   LIG d   1       6.942  -8.576  -5.813  0.00  0.00     0.066 H 
ENDBRANCH  13  14
ENDBRANCH   7  13
ENDBRANCH   1   3
BRANCH   1  18
ATOM     18  C   LIG d   1       5.502  -1.265  -2.887  0.00  0.00    -0.034 C 
ATOM     19  H   LIG d   1       5.968  -2.143  -2.439  0.00  0.00     0.028 H 
ATOM     20  H   LIG d   1       6.244  -0.474  -2.995  0.00  0.00     0.028 H 
BRANCH  18  21
ATOM     21  C   LIG d   1       4.363  -0.776  -1.989  0.00  0.00    -0.012 C 
ATOM     22  H   LIG d   1       3.419  -1.189  -2.343  0.00  0.00     0.033 H 
ATOM     23  H   LIG d   1       4.542  -1.103  -0.965  0.00  0.00     0.033 H 
BRANCH  21  24
ATOM     24  C   LIG d   1       4.301   0.729  -2.032  0.00  0.00     0.042 C 
ATOM     25  O   LIG d   1       3.230   1.289  -2.053  0.00  0.00    -0.550 OA
ATOM     26  O   LIG d   1       5.435   1.448  -2.045  0.00  0.00    -0.550 OA
ENDBRANCH  21  24
ENDBRANCH  18  21
ENDBRANCH   1  18
BRANCH   1  27
ATOM     27  C   LIG d   1       5.298  -0.552  -5.254  0.00  0.00     0.171 C 
ATOM     28  O   LIG d   1       6.143   0.273  -4.975  0.00  0.00    -0.291 OA
BRANCH  27  29
ATOM     29  C   LIG d   1       4.620  -0.497  -6.556  0.00  0.00     0.018 A 
ATOM     30  C   LIG d   1       3.273  -0.123  -6.630  0.00  0.00    -0.048 A 
ATOM     31  C   LIG d   1       2.645  -0.073  -7.849  0.00  0.00    -0.019 A 
ATOM     32  H   LIG d   1       2.730   0.126  -5.731  0.00  0.00     0.063 H 
ATOM     33  C   LIG d   1       3.343  -0.393  -9.008  0.00  0.00     0.120 A 
ATOM     34  H   LIG d   1       1.605   0.215  -7.907  0.00  0.00     0.065 H 
ATOM     35  C   LIG d   1       4.681  -0.766  -8.938  0.00  0.00    -0.019 A 
ATOM     36  C   LIG d   1       5.321  -0.814  -7.726  0.00  0.00    -0.048 A 
ATOM     37  H   LIG d   1       5.218  -1.014  -9.842  0.00  0.00     0.065 H 
ATOM     38  H   LIG d   1       6.360  -1.100  -7.674  0.00  0.00     0.063 H 
BRANCH  33  39
ATOM     39  O   LIG d   1       2.717  -0.342 -10.210  0.00  0.00    -0.495 OA
BRANCH  39  40
ATOM     40  C   LIG d   1       1.371  -0.818 -10.262  0.00  0.00     0.079 C 
ATOM     41  H   LIG d   1       1.297  -1.618 -10.998  0.00  0.00     0.066 H 
ATOM     42  H   LIG d   1       1.082  -1.198  -9.282  0.00  0.00     0.066 H 
ATOM     43  H   LIG d   1       0.707  -0.000 -10.545  0.00  0.00     0.066 H 
ENDBRANCH  39  40
ENDBRANCH  33  39
ENDBRANCH  27  29
ENDBRANCH   1  27
TORSDOF 10
ENDMDL
MODEL 4
REMARK VINA RESULT:      -5.4      3.119      4.758
REMARK  10 active torsions:
REMARK  status: ('A' for Active; 'I' for Inactive)
REMARK    1  A    between atoms: C_1  and  O_2 
REMARK    2  A    between atoms: O_2  and  C_3 
REMARK    3  A    between atoms: C_6  and  C_9 
REMARK    4  A    between atoms: C_9  and  C_11 
REMARK    5  A    between atoms: C_9  and  C_15 
REMARK    6  A    between atoms: C_11  and  C_12 
REMARK    7  A    between atoms: C_12  and  C_13 
REMARK    8  A    between atoms: C_15  and  C_17 
REMARK    9  A    between atoms: C_20  and  O_23 
REMARK   10  A    between atoms: O_23  and  C_24 
ROOT
ATOM      1  C   LIG d   1       5.038  -1.076  -4.123  0.00  0.00     0.048 C 
ATOM      2  H   LIG d   1       4.677  -0.255  -4.564  0.00  0.00     0.043 H 
ENDROOT
BRANCH   1   3
ATOM      3  C   LIG d   1       4.841  -2.263  -5.031  0.00  0.00    -0.037 A 
ATOM      4  C   LIG d   1       4.652  -2.070  -6.388  0.00  0.00    -0.054 A 
ATOM      5  C   LIG d   1       4.466  -3.155  -7.221  0.00  0.00    -0.020 A 
ATOM      6  H   LIG d   1       4.646  -1.069  -6.795  0.00  0.00     0.062 H 
ATOM      7  C   LIG d   1       4.480  -4.440  -6.700  0.00  0.00     0.120 A 
ATOM      8  H   LIG d   1       4.314  -3.003  -8.280  0.00  0.00     0.065 H 
ATOM      9  C   LIG d   1       4.671  -4.632  -5.339  0.00  0.00    -0.020 A 
ATOM     10  C   LIG d   1       4.850  -3.542  -4.509  0.00  0.00    -0.054 A 
ATOM     11  H   LIG d   1       4.678  -5.631  -4.929  0.00  0.00     0.065 H 
ATOM     12  H   LIG d   1       4.999  -3.690  -3.449  0.00  0.00     0.062 H 
BRANCH   7  13
ATOM     13  O   LIG d   1       4.302  -5.510  -7.520  0.00  0.00    -0.495 OA
BRANCH  13  14
ATOM     14  C   LIG d   1       3.445  -5.326  -8.649  0.00  0.00     0.079 C 
ATOM     15  H   LIG d   1       2.837  -4.434  -8.501  0.00  0.00     0.066 H 
ATOM     16  H   LIG d   1       4.050  -5.209  -9.548  0.00  0.00     0.066 H 
ATOM     17  H   LIG d   1       2.796  -6.196  -8.758  0.00  0.00     0.066 H 
ENDBRANCH  13  14
ENDBRANCH   7  13
ENDBRANCH   1   3
BRANCH   1  18
ATOM     18  C   LIG d   1       4.297  -1.315  -2.805  0.00  0.00    -0.034 C 
ATOM     19  H   LIG d   1       3.807  -2.288  -2.835  0.00  0.00     0.028 H 
ATOM     20  H   LIG d   1       5.009  -1.291  -1.979  0.00  0.00     0.028 H 
BRANCH  18  21
ATOM     21  C   LIG d   1       3.247  -0.220  -2.606  0.00  0.00    -0.012 C 
ATOM     22  H   LIG d   1       2.604  -0.170  -3.484  0.00  0.00     0.033 H 
ATOM     23  H   LIG d   1       2.645  -0.450  -1.726  0.00  0.00     0.033 H 
BRANCH  21  24
ATOM     24  C   LIG d   1       3.935   1.106  -2.410  0.00  0.00     0.042 C 
ATOM     25  O   LIG d   1       3.703   2.024  -3.161  0.00  0.00    -0.550 OA
ATOM     26  O   LIG d   1       4.805   1.269  -1.400  0.00  0.00    -0.550 OA
ENDBRANCH  21  24
ENDBRANCH  18  21
ENDBRANCH   1  18
BRANCH   1  27
ATOM     27  C   LIG d   1       6.508  -0.894  -3.847  0.00  0.00     0.171 C 
ATOM     28  O   LIG d   1       7.087  -1.665  -3.110  0.00  0.00    -0.291 OA
BRANCH  27  29
ATOM     29  C   LIG d   1       7.240   0.217  -4.469  0.00  0.00     0.018 A 
ATOM     30  C   LIG d   1       7.633   0.136  -5.810  0.00  0.00    -0.048 A 
ATOM     31  C   LIG d   1       8.315   1.178  -6.385  0.00  0.00    -0.019 A 
ATOM     32  H   LIG d   1       7.400  -0.744  -6.390  0.00  0.00     0.063 H 
ATOM     33  C   LIG d   1       8.616   2.312  -5.640  0.00  0.00     0.120 A 
ATOM     34  H   LIG d   1       8.620   1.116  -7.421  0.00  0.00     0.065 H 
ATOM     35  C   LIG d   1       8.228   2.397  -4.307  0.00  0.00    -0.019 A 
ATOM     36  C   LIG d   1       7.541   1.364  -3.723  0.00  0.00    -0.048 A 
ATOM     37  H   LIG d   1       8.465   3.280  -3.732  0.00  0.00     0.065 H 
ATOM     38  H   LIG d   1       7.237   1.433  -2.690  0.00  0.00     0.063 H 
BRANCH  33  39
ATOM     39  O   LIG d   1       9.292   3.339  -6.214  0.00  0.00    -0.495 OA
BRANCH  39  40
ATOM     40  C   LIG d   1       9.526   3.257  -7.621  0.00  0.00     0.079 C 
ATOM     41  H   LIG d   1       8.936   4.018  -8.132  0.00  0.00     0.066 H 
ATOM     42  H   LIG d   1      10.584   3.420  -7.823  0.00  0.00     0.066 H 
ATOM     43  H   LIG d   1       9.235   2.269  -7.980  0.00  0.00     0.066 H 
ENDBRANCH  39  40
ENDBRANCH  33  39
ENDBRANCH  27  29
ENDBRANCH   1  27
TORSDOF 10
ENDMDL
MODEL 5
REMARK VINA RESULT:      -5.3      3.057      4.171
REMARK  10 active torsions:
REMARK  status: ('A' for Active; 'I' for Inactive)
REMARK    1  A    between atoms: C_1  and  O_2 
REMARK    2  A    between atoms: O_2  and  C_3 
REMARK    3  A    between atoms: C_6  and  C_9 
REMARK    4  A    between atoms: C_9  and  C_11 
REMARK    5  A    between atoms: C_9  and  C_15 
REMARK    6  A    between atoms: C_11  and  C_12 
REMARK    7  A    between atoms: C_12  and  C_13 
REMARK    8  A    between atoms: C_15  and  C_17 
REMARK    9  A    between atoms: C_20  and  O_23 
REMARK   10  A    between atoms: O_23  and  C_24 
ROOT
ATOM      1  C   LIG d   1       4.521  -0.359  -4.737  0.00  0.00     0.048 C 
ATOM      2  H   LIG d   1       4.360   0.609  -4.542  0.00  0.00     0.043 H 
ENDROOT
BRANCH   1   3
ATOM      3  C   LIG d   1       4.006  -0.686  -6.115  0.00  0.00    -0.037 A 
ATOM      4  C   LIG d   1       4.474  -1.805  -6.780  0.00  0.00    -0.054 A 
ATOM      5  C   LIG d   1       4.008  -2.104  -8.044  0.00  0.00    -0.020 A 
ATOM      6  H   LIG d   1       5.209  -2.443  -6.310  0.00  0.00     0.062 H 
ATOM      7  C   LIG d   1       3.059  -1.289  -8.645  0.00  0.00     0.120 A 
ATOM      8  H   LIG d   1       4.378  -2.975  -8.565  0.00  0.00     0.065 H 
ATOM      9  C   LIG d   1       2.590  -0.167  -7.976  0.00  0.00    -0.020 A 
ATOM     10  C   LIG d   1       3.065   0.131  -6.713  0.00  0.00    -0.054 A 
ATOM     11  H   LIG d   1       1.856   0.473  -8.442  0.00  0.00     0.065 H 
ATOM     12  H   LIG d   1       2.700   1.004  -6.192  0.00  0.00     0.062 H 
BRANCH   7  13
ATOM     13  O   LIG d   1       2.596  -1.584  -9.887  0.00  0.00    -0.495 OA
BRANCH  13  14
ATOM     14  C   LIG d   1       1.417  -0.901 -10.319  0.00  0.00     0.079 C 
ATOM     15  H   LIG d   1       0.540  -1.502 -10.077  0.00  0.00     0.066 H 
ATOM     16  H   LIG d   1       1.349   0.061  -9.812  0.00  0.00     0.066 H 
ATOM     17  H   LIG d   1       1.463  -0.742 -11.397  0.00  0.00     0.066 H 
ENDBRANCH  13  14
ENDBRANCH   7  13
ENDBRANCH   1   3
BRANCH   1  18
ATOM     18  C   LIG d   1       3.788  -1.216  -3.703  0.00  0.00    -0.034 C 
ATOM     19  H   LIG d   1       3.138  -1.926  -4.214  0.00  0.00     0.028 H 
ATOM     20  H   LIG d   1       4.517  -1.759  -3.100  0.00  0.00     0.028 H 
BRANCH  18  21
ATOM     21  C   LIG d   1       2.948  -0.314  -2.796  0.00  0.00    -0.012 C 
ATOM     22  H   LIG d   1       2.043  -0.012  -3.322  0.00  0.00     0.033 H 
ATOM     23  H   LIG d   1       2.678  -0.859  -1.891  0.00  0.00     0.033 H 
BRANCH  21  24
ATOM     24  C   LIG d   1       3.746   0.909  -2.426  0.00  0.00     0.042 C 
ATOM     25  O   LIG d   1       4.513   0.870  -1.491  0.00  0.00    -0.550 OA
ATOM     26  O   LIG d   1       3.606   2.042  -3.132  0.00  0.00    -0.550 OA
ENDBRANCH  21  24
ENDBRANCH  18  21
ENDBRANCH   1  18
BRANCH   1  27
ATOM     27  C   LIG d   1       5.999  -0.646  -4.672  0.00  0.00     0.171 C 
ATOM     28  O   LIG d   1       6.388  -1.766  -4.416  0.00  0.00    -0.291 OA
BRANCH  27  29
ATOM     29  C   LIG d   1       6.967   0.431  -4.917  0.00  0.00     0.018 A 
ATOM     30  C   LIG d   1       7.477   0.638  -6.204  0.00  0.00    -0.048 A 
ATOM     31  C   LIG d   1       8.381   1.645  -6.427  0.00  0.00    -0.019 A 
ATOM     32  H   LIG d   1       7.160   0.005  -7.019  0.00  0.00     0.063 H 
ATOM     33  C   LIG d   1       8.790   2.460  -5.378  0.00  0.00     0.120 A 
ATOM     34  H   LIG d   1       8.776   1.805  -7.420  0.00  0.00     0.065 H 
ATOM     35  C   LIG d   1       8.286   2.259  -4.097  0.00  0.00    -0.019 A 
ATOM     36  C   LIG d   1       7.378   1.258  -3.864  0.00  0.00    -0.048 A 
ATOM     37  H   LIG d   1       8.608   2.895  -3.286  0.00  0.00     0.065 H 
ATOM     38  H   LIG d   1       6.985   1.105  -2.870  0.00  0.00     0.063 H 
BRANCH  33  39
ATOM     39  O   LIG d   1       9.684   3.455  -5.603  0.00  0.00    -0.495 OA
BRANCH  39  40
ATOM     40  C   LIG d   1       9.750   4.501  -4.632  0.00  0.00     0.079 C 
ATOM     41  H   LIG d   1       9.510   5.452  -5.106  0.00  0.00     0.066 H 
ATOM     42  H   LIG d   1       9.036   4.301  -3.834  0.00  0.00     0.066 H 
ATOM     43  H   LIG d   1      10.757   4.547  -4.215  0.00  0.00     0.066 H 
ENDBRANCH  39  40
ENDBRANCH  33  39
ENDBRANCH  27  29
ENDBRANCH   1  27
TORSDOF 10
ENDMDL
MODEL 6
REMARK VINA RESULT:      -5.3      3.497      6.278
REMARK  10 active torsions:
REMARK  status: ('A' for Active; 'I' for Inactive)
REMARK    1  A    between atoms: C_1  and  O_2 
REMARK    2  A    between atoms: O_2  and  C_3 
REMARK    3  A    between atoms: C_6  and  C_9 
REMARK    4  A    between atoms: C_9  and  C_11 
REMARK    5  A    between atoms: C_9  and  C_15 
REMARK    6  A    between atoms: C_11  and  C_12 
REMARK    7  A    between atoms: C_12  and  C_13 
REMARK    8  A    between atoms: C_15  and  C_17 
REMARK    9  A    between atoms: C_20  and  O_23 
REMARK   10  A    between atoms: O_23  and  C_24 
ROOT
ATOM      1  C   LIG d   1       4.057  -0.086  -9.051  0.00  0.00     0.048 C 
ATOM      2  H   LIG d   1       4.709  -0.739  -8.668  0.00  0.00     0.043 H 
ENDROOT
BRANCH   1   3
ATOM      3  C   LIG d   1       3.042  -0.822  -9.888  0.00  0.00    -0.037 A 
ATOM      4  C   LIG d   1       2.400  -1.934  -9.375  0.00  0.00    -0.054 A 
ATOM      5  C   LIG d   1       1.474  -2.613 -10.141  0.00  0.00    -0.020 A 
ATOM      6  H   LIG d   1       2.628  -2.275  -8.375  0.00  0.00     0.062 H 
ATOM      7  C   LIG d   1       1.177  -2.172 -11.423  0.00  0.00     0.120 A 
ATOM      8  H   LIG d   1       0.977  -3.485  -9.742  0.00  0.00     0.065 H 
ATOM      9  C   LIG d   1       1.822  -1.055 -11.935  0.00  0.00    -0.020 A 
ATOM     10  C   LIG d   1       2.752  -0.383 -11.166  0.00  0.00    -0.054 A 
ATOM     11  H   LIG d   1       1.596  -0.712 -12.934  0.00  0.00     0.065 H 
ATOM     12  H   LIG d   1       3.254   0.487 -11.564  0.00  0.00     0.062 H 
BRANCH   7  13
ATOM     13  O   LIG d   1       0.262  -2.836 -12.177  0.00  0.00    -0.495 OA
BRANCH  13  14
ATOM     14  C   LIG d   1      -0.132  -4.134 -11.726  0.00  0.00     0.079 C 
ATOM     15  H   LIG d   1       0.115  -4.873 -12.488  0.00  0.00     0.066 H 
ATOM     16  H   LIG d   1       0.396  -4.373 -10.803  0.00  0.00     0.066 H 
ATOM     17  H   LIG d   1      -1.207  -4.144 -11.543  0.00  0.00     0.066 H 
ENDBRANCH  13  14
ENDBRANCH   7  13
ENDBRANCH   1   3
BRANCH   1  18
ATOM     18  C   LIG d   1       4.802   0.925  -9.926  0.00  0.00    -0.034 C 
ATOM     19  H   LIG d   1       4.531   0.770 -10.971  0.00  0.00     0.028 H 
ATOM     20  H   LIG d   1       4.528   1.937  -9.626  0.00  0.00     0.028 H 
BRANCH  18  21
ATOM     21  C   LIG d   1       6.310   0.733  -9.755  0.00  0.00    -0.012 C 
ATOM     22  H   LIG d   1       6.507  -0.262  -9.357  0.00  0.00     0.033 H 
ATOM     23  H   LIG d   1       6.802   0.843 -10.721  0.00  0.00     0.033 H 
BRANCH  21  24
ATOM     24  C   LIG d   1       6.843   1.771  -8.800  0.00  0.00     0.042 C 
ATOM     25  O   LIG d   1       7.250   2.828  -9.222  0.00  0.00    -0.550 OA
ATOM     26  O   LIG d   1       6.865   1.521  -7.481  0.00  0.00    -0.550 OA
ENDBRANCH  21  24
ENDBRANCH  18  21
ENDBRANCH   1  18
BRANCH   1  27
ATOM     27  C   LIG d   1       3.355   0.639  -7.932  0.00  0.00     0.171 C 
ATOM     28  O   LIG d   1       2.770   1.678  -8.156  0.00  0.00    -0.291 OA
BRANCH  27  29
ATOM     29  C   LIG d   1       3.379   0.088  -6.571  0.00  0.00     0.018 A 
ATOM     30  C   LIG d   1       4.320  -0.891  -6.226  0.00  0.00    -0.048 A 
ATOM     31  C   LIG d   1       4.338  -1.401  -4.954  0.00  0.00    -0.019 A 
ATOM     32  H   LIG d   1       5.028  -1.243  -6.961  0.00  0.00     0.063 H 
ATOM     33  C   LIG d   1       3.426  -0.949  -4.006  0.00  0.00     0.120 A 
ATOM     34  H   LIG d   1       5.063  -2.157  -4.687  0.00  0.00     0.065 H 
ATOM     35  C   LIG d   1       2.490   0.024  -4.344  0.00  0.00    -0.019 A 
ATOM     36  C   LIG d   1       2.466   0.544  -5.613  0.00  0.00    -0.048 A 
ATOM     37  H   LIG d   1       1.784   0.371  -3.605  0.00  0.00     0.065 H 
ATOM     38  H   LIG d   1       1.742   1.301  -5.872  0.00  0.00     0.063 H 
BRANCH  33  39
ATOM     39  O   LIG d   1       3.449  -1.457  -2.749  0.00  0.00    -0.495 OA
BRANCH  39  40
ATOM     40  C   LIG d   1       4.408  -0.907  -1.843  0.00  0.00     0.079 C 
ATOM     41  H   LIG d   1       3.891  -0.363  -1.053  0.00  0.00     0.066 H 
ATOM     42  H   LIG d   1       4.997  -1.712  -1.406  0.00  0.00     0.066 H 
ATOM     43  H   LIG d   1       5.068  -0.226  -2.383  0.00  0.00     0.066 H 
ENDBRANCH  39  40
ENDBRANCH  33  39
ENDBRANCH  27  29
ENDBRANCH   1  27
TORSDOF 10
ENDMDL
MODEL 7
REMARK VINA RESULT:      -5.1      2.741      5.388
REMARK  10 active torsions:
REMARK  status: ('A' for Active; 'I' for Inactive)
REMARK    1  A    between atoms: C_1  and  O_2 
REMARK    2  A    between atoms: O_2  and  C_3 
REMARK    3  A    between atoms: C_6  and  C_9 
REMARK    4  A    between atoms: C_9  and  C_11 
REMARK    5  A    between atoms: C_9  and  C_15 
REMARK    6  A    between atoms: C_11  and  C_12 
REMARK    7  A    between atoms: C_12  and  C_13 
REMARK    8  A    between atoms: C_15  and  C_17 
REMARK    9  A    between atoms: C_20  and  O_23 
REMARK   10  A    between atoms: O_23  and  C_24 
ROOT
ATOM      1  C   LIG d   1       5.323  -1.611  -4.117  0.00  0.00     0.048 C 
ATOM      2  H   LIG d   1       4.458  -2.026  -4.398  0.00  0.00     0.043 H 
ENDROOT
BRANCH   1   3
ATOM      3  C   LIG d   1       6.433  -2.622  -4.255  0.00  0.00    -0.037 A 
ATOM      4  C   LIG d   1       6.387  -3.564  -5.267  0.00  0.00    -0.054 A 
ATOM      5  C   LIG d   1       7.400  -4.494  -5.392  0.00  0.00    -0.020 A 
ATOM      6  H   LIG d   1       5.555  -3.576  -5.955  0.00  0.00     0.062 H 
ATOM      7  C   LIG d   1       8.471  -4.475  -4.511  0.00  0.00     0.120 A 
ATOM      8  H   LIG d   1       7.360  -5.233  -6.178  0.00  0.00     0.065 H 
ATOM      9  C   LIG d   1       8.516  -3.528  -3.498  0.00  0.00    -0.020 A 
ATOM     10  C   LIG d   1       7.497  -2.604  -3.373  0.00  0.00    -0.054 A 
ATOM     11  H   LIG d   1       9.346  -3.513  -2.808  0.00  0.00     0.065 H 
ATOM     12  H   LIG d   1       7.531  -1.866  -2.585  0.00  0.00     0.062 H 
BRANCH   7  13
ATOM     13  O   LIG d   1       9.472  -5.387  -4.636  0.00  0.00    -0.495 OA
BRANCH  13  14
ATOM     14  C   LIG d   1      10.374  -5.514  -3.535  0.00  0.00     0.079 C 
ATOM     15  H   LIG d   1      10.172  -4.728  -2.807  0.00  0.00     0.066 H 
ATOM     16  H   LIG d   1      10.237  -6.488  -3.064  0.00  0.00     0.066 H 
ATOM     17  H   LIG d   1      11.400  -5.425  -3.893  0.00  0.00     0.066 H 
ENDBRANCH  13  14
ENDBRANCH   7  13
ENDBRANCH   1   3
BRANCH   1  18
ATOM     18  C   LIG d   1       5.222  -1.162  -2.658  0.00  0.00    -0.034 C 
ATOM     19  H   LIG d   1       5.283  -2.032  -2.005  0.00  0.00     0.028 H 
ATOM     20  H   LIG d   1       6.041  -0.479  -2.431  0.00  0.00     0.028 H 
BRANCH  18  21
ATOM     21  C   LIG d   1       3.887  -0.448  -2.436  0.00  0.00    -0.012 C 
ATOM     22  H   LIG d   1       3.255  -0.578  -3.314  0.00  0.00     0.033 H 
ATOM     23  H   LIG d   1       3.389  -0.872  -1.563  0.00  0.00     0.033 H 
BRANCH  21  24
ATOM     24  C   LIG d   1       4.135   1.021  -2.208  0.00  0.00     0.042 C 
ATOM     25  O   LIG d   1       4.743   1.386  -1.229  0.00  0.00    -0.550 OA
ATOM     26  O   LIG d   1       3.680   1.924  -3.091  0.00  0.00    -0.550 OA
ENDBRANCH  21  24
ENDBRANCH  18  21
ENDBRANCH   1  18
BRANCH   1  27
ATOM     27  C   LIG d   1       5.617  -0.420  -4.992  0.00  0.00     0.171 C 
ATOM     28  O   LIG d   1       4.767   0.002  -5.747  0.00  0.00    -0.291 OA
BRANCH  27  29
ATOM     29  C   LIG d   1       6.933   0.230  -4.930  0.00  0.00     0.018 A 
ATOM     30  C   LIG d   1       7.882  -0.012  -5.930  0.00  0.00    -0.048 A 
ATOM     31  C   LIG d   1       9.109   0.598  -5.868  0.00  0.00    -0.019 A 
ATOM     32  H   LIG d   1       7.649  -0.676  -6.748  0.00  0.00     0.063 H 
ATOM     33  C   LIG d   1       9.411   1.454  -4.815  0.00  0.00     0.120 A 
ATOM     34  H   LIG d   1       9.843   0.412  -6.639  0.00  0.00     0.065 H 
ATOM     35  C   LIG d   1       8.470   1.697  -3.818  0.00  0.00    -0.019 A 
ATOM     36  C   LIG d   1       7.239   1.096  -3.873  0.00  0.00    -0.048 A 
ATOM     37  H   LIG d   1       8.710   2.362  -3.002  0.00  0.00     0.065 H 
ATOM     38  H   LIG d   1       6.509   1.289  -3.102  0.00  0.00     0.063 H 
BRANCH  33  39
ATOM     39  O   LIG d   1      10.626   2.055  -4.757  0.00  0.00    -0.495 OA
BRANCH  39  40
ATOM     40  C   LIG d   1      11.729   1.344  -5.323  0.00  0.00     0.079 C 
ATOM     41  H   LIG d   1      12.530   2.044  -5.557  0.00  0.00     0.066 H 
ATOM     42  H   LIG d   1      12.088   0.604  -4.609  0.00  0.00     0.066 H 
ATOM     43  H   LIG d   1      11.407   0.841  -6.236  0.00  0.00     0.066 H 
ENDBRANCH  39  40
ENDBRANCH  33  39
ENDBRANCH  27  29
ENDBRANCH   1  27
TORSDOF 10
ENDMDL
MODEL 8
REMARK VINA RESULT:      -5.1      7.895      9.639
REMARK  10 active torsions:
REMARK  status: ('A' for Active; 'I' for Inactive)
REMARK    1  A    between atoms: C_1  and  O_2 
REMARK    2  A    between atoms: O_2  and  C_3 
REMARK    3  A    between atoms: C_6  and  C_9 
REMARK    4  A    between atoms: C_9  and  C_11 
REMARK    5  A    between atoms: C_9  and  C_15 
REMARK    6  A    between atoms: C_11  and  C_12 
REMARK    7  A    between atoms: C_12  and  C_13 
REMARK    8  A    between atoms: C_15  and  C_17 
REMARK    9  A    between atoms: C_20  and  O_23 
REMARK   10  A    between atoms: O_23  and  C_24 
ROOT
ATOM      1  C   LIG d   1       9.594   5.079  -4.466  0.00  0.00     0.048 C 
ATOM      2  H   LIG d   1       8.882   5.326  -3.809  0.00  0.00     0.043 H 
ENDROOT
BRANCH   1   3
ATOM      3  C   LIG d   1       9.573   6.052  -5.617  0.00  0.00    -0.037 A 
ATOM      4  C   LIG d   1       9.319   7.391  -5.385  0.00  0.00    -0.054 A 
ATOM      5  C   LIG d   1       9.294   8.283  -6.439  0.00  0.00    -0.020 A 
ATOM      6  H   LIG d   1       9.135   7.739  -4.379  0.00  0.00     0.062 H 
ATOM      7  C   LIG d   1       9.537   7.838  -7.730  0.00  0.00     0.120 A 
ATOM      8  H   LIG d   1       9.091   9.328  -6.257  0.00  0.00     0.065 H 
ATOM      9  C   LIG d   1       9.793   6.494  -7.960  0.00  0.00    -0.020 A 
ATOM     10  C   LIG d   1       9.810   5.604  -6.903  0.00  0.00    -0.054 A 
ATOM     11  H   LIG d   1       9.978   6.143  -8.965  0.00  0.00     0.065 H 
ATOM     12  H   LIG d   1      10.009   4.558  -7.082  0.00  0.00     0.062 H 
BRANCH   7  13
ATOM     13  O   LIG d   1       9.518   8.715  -8.768  0.00  0.00    -0.495 OA
BRANCH  13  14
ATOM     14  C   LIG d   1      10.174   8.311  -9.971  0.00  0.00     0.079 C 
ATOM     15  H   LIG d   1       9.429   8.001 -10.704  0.00  0.00     0.066 H 
ATOM     16  H   LIG d   1      10.750   9.146 -10.369  0.00  0.00     0.066 H 
ATOM     17  H   LIG d   1      10.844   7.477  -9.758  0.00  0.00     0.066 H 
ENDBRANCH  13  14
ENDBRANCH   7  13
ENDBRANCH   1   3
BRANCH   1  18
ATOM     18  C   LIG d   1       9.336   3.665  -4.989  0.00  0.00    -0.034 C 
ATOM     19  H   LIG d   1       8.540   3.692  -5.734  0.00  0.00     0.028 H 
ATOM     20  H   LIG d   1      10.246   3.274  -5.445  0.00  0.00     0.028 H 
BRANCH  18  21
ATOM     21  C   LIG d   1       8.918   2.760  -3.829  0.00  0.00    -0.012 C 
ATOM     22  H   LIG d   1       9.736   2.082  -3.584  0.00  0.00     0.033 H 
ATOM     23  H   LIG d   1       8.680   3.372  -2.958  0.00  0.00     0.033 H 
BRANCH  21  24
ATOM     24  C   LIG d   1       7.704   1.960  -4.227  0.00  0.00     0.042 C 
ATOM     25  O   LIG d   1       7.594   1.553  -5.360  0.00  0.00    -0.550 OA
ATOM     26  O   LIG d   1       6.746   1.700  -3.324  0.00  0.00    -0.550 OA
ENDBRANCH  21  24
ENDBRANCH  18  21
ENDBRANCH   1  18
BRANCH   1  27
ATOM     27  C   LIG d   1      10.940   5.128  -3.791  0.00  0.00     0.171 C 
ATOM     28  O   LIG d   1      11.931   4.760  -4.387  0.00  0.00    -0.291 OA
BRANCH  27  29
ATOM     29  C   LIG d   1      11.053   5.619  -2.412  0.00  0.00     0.018 A 
ATOM     30  C   LIG d   1      10.093   6.500  -1.899  0.00  0.00    -0.048 A 
ATOM     31  C   LIG d   1      10.204   6.954  -0.610  0.00  0.00    -0.019 A 
ATOM     32  H   LIG d   1       9.269   6.822  -2.517  0.00  0.00     0.063 H 
ATOM     33  C   LIG d   1      11.265   6.542   0.188  0.00  0.00     0.120 A 
ATOM     34  H   LIG d   1       9.464   7.636  -0.214  0.00  0.00     0.065 H 
ATOM     35  C   LIG d   1      12.221   5.666  -0.317  0.00  0.00    -0.019 A 
ATOM     36  C   LIG d   1      12.118   5.201  -1.603  0.00  0.00    -0.048 A 
ATOM     37  H   LIG d   1      13.043   5.349   0.307  0.00  0.00     0.065 H 
ATOM     38  H   LIG d   1      12.858   4.519  -1.992  0.00  0.00     0.063 H 
BRANCH  33  39
ATOM     39  O   LIG d   1      11.369   6.994   1.462  0.00  0.00    -0.495 OA
BRANCH  39  40
ATOM     40  C   LIG d   1      11.472   8.408   1.643  0.00  0.00     0.079 C 
ATOM     41  H   LIG d   1      10.977   8.692   2.571  0.00  0.00     0.066 H 
ATOM     42  H   LIG d   1      12.523   8.693   1.689  0.00  0.00     0.066 H 
ATOM     43  H   LIG d   1      10.994   8.917   0.805  0.00  0.00     0.066 H 
ENDBRANCH  39  40
ENDBRANCH  33  39
ENDBRANCH  27  29
ENDBRANCH   1  27
TORSDOF 10
ENDMDL
MODEL 9
REMARK VINA RESULT:      -4.9      5.258      7.597
REMARK  10 active torsions:
REMARK  status: ('A' for Active; 'I' for Inactive)
REMARK    1  A    between atoms: C_1  and  O_2 
REMARK    2  A    between atoms: O_2  and  C_3 
REMARK    3  A    between atoms: C_6  and  C_9 
REMARK    4  A    between atoms: C_9  and  C_11 
REMARK    5  A    between atoms: C_9  and  C_15 
REMARK    6  A    between atoms: C_11  and  C_12 
REMARK    7  A    between atoms: C_12  and  C_13 
REMARK    8  A    between atoms: C_15  and  C_17 
REMARK    9  A    between atoms: C_20  and  O_23 
REMARK   10  A    between atoms: O_23  and  C_24 
ROOT
ATOM      1  C   LIG d   1       8.510   2.385  -5.379  0.00  0.00     0.048 C 
ATOM      2  H   LIG d   1       7.588   2.752  -5.255  0.00  0.00     0.043 H 
ENDROOT
BRANCH   1   3
ATOM      3  C   LIG d   1       9.507   3.296  -4.711  0.00  0.00    -0.037 A 
ATOM      4  C   LIG d   1      10.433   3.984  -5.474  0.00  0.00    -0.054 A 
ATOM      5  C   LIG d   1      11.351   4.816  -4.864  0.00  0.00    -0.020 A 
ATOM      6  H   LIG d   1      10.441   3.867  -6.548  0.00  0.00     0.062 H 
ATOM      7  C   LIG d   1      11.337   4.971  -3.485  0.00  0.00     0.120 A 
ATOM      8  H   LIG d   1      12.078   5.348  -5.460  0.00  0.00     0.065 H 
ATOM      9  C   LIG d   1      10.407   4.281  -2.722  0.00  0.00    -0.020 A 
ATOM     10  C   LIG d   1       9.495   3.445  -3.337  0.00  0.00    -0.054 A 
ATOM     11  H   LIG d   1      10.396   4.396  -1.648  0.00  0.00     0.065 H 
ATOM     12  H   LIG d   1       8.769   2.908  -2.743  0.00  0.00     0.062 H 
BRANCH   7  13
ATOM     13  O   LIG d   1      12.237   5.793  -2.883  0.00  0.00    -0.495 OA
BRANCH  13  14
ATOM     14  C   LIG d   1      13.284   5.172  -2.135  0.00  0.00     0.079 C 
ATOM     15  H   LIG d   1      13.459   5.736  -1.219  0.00  0.00     0.066 H 
ATOM     16  H   LIG d   1      12.993   4.152  -1.883  0.00  0.00     0.066 H 
ATOM     17  H   LIG d   1      14.196   5.153  -2.731  0.00  0.00     0.066 H 
ENDBRANCH  13  14
ENDBRANCH   7  13
ENDBRANCH   1   3
BRANCH   1  18
ATOM     18  C   LIG d   1       8.826   2.292  -6.873  0.00  0.00    -0.034 C 
ATOM     19  H   LIG d   1       8.954   3.296  -7.280  0.00  0.00     0.028 H 
ATOM     20  H   LIG d   1       9.744   1.722  -7.016  0.00  0.00     0.028 H 
BRANCH  18  21
ATOM     21  C   LIG d   1       7.673   1.592  -7.596  0.00  0.00    -0.012 C 
ATOM     22  H   LIG d   1       7.948   0.557  -7.799  0.00  0.00     0.033 H 
ATOM     23  H   LIG d   1       6.783   1.614  -6.967  0.00  0.00     0.033 H 
BRANCH  21  24
ATOM     24  C   LIG d   1       7.389   2.302  -8.894  0.00  0.00     0.042 C 
ATOM     25  O   LIG d   1       6.247   2.461  -9.258  0.00  0.00    -0.550 OA
ATOM     26  O   LIG d   1       8.402   2.758  -9.647  0.00  0.00    -0.550 OA
ENDBRANCH  21  24
ENDBRANCH  18  21
ENDBRANCH   1  18
BRANCH   1  27
ATOM     27  C   LIG d   1       8.592   1.013  -4.762  0.00  0.00     0.171 C 
ATOM     28  O   LIG d   1       9.600   0.350  -4.889  0.00  0.00    -0.291 OA
BRANCH  27  29
ATOM     29  C   LIG d   1       7.451   0.477  -4.008  0.00  0.00     0.018 A 
ATOM     30  C   LIG d   1       6.536   1.349  -3.406  0.00  0.00    -0.048 A 
ATOM     31  C   LIG d   1       5.472   0.843  -2.703  0.00  0.00    -0.019 A 
ATOM     32  H   LIG d   1       6.668   2.417  -3.493  0.00  0.00     0.063 H 
ATOM     33  C   LIG d   1       5.301  -0.531  -2.589  0.00  0.00     0.120 A 
ATOM     34  H   LIG d   1       4.765   1.516  -2.237  0.00  0.00     0.065 H 
ATOM     35  C   LIG d   1       6.208  -1.402  -3.186  0.00  0.00    -0.019 A 
ATOM     36  C   LIG d   1       7.272  -0.907  -3.894  0.00  0.00    -0.048 A 
ATOM     37  H   LIG d   1       6.070  -2.469  -3.093  0.00  0.00     0.065 H 
ATOM     38  H   LIG d   1       7.972  -1.583  -4.360  0.00  0.00     0.063 H 
BRANCH  33  39
ATOM     39  O   LIG d   1       4.247  -1.027  -1.893  0.00  0.00    -0.495 OA
BRANCH  39  40
ATOM     40  C   LIG d   1       3.685  -2.257  -2.354  0.00  0.00     0.079 C 
ATOM     41  H   LIG d   1       3.089  -2.704  -1.559  0.00  0.00     0.066 H 
ATOM     42  H   LIG d   1       3.051  -2.064  -3.220  0.00  0.00     0.066 H 
ATOM     43  H   LIG d   1       4.487  -2.939  -2.636  0.00  0.00     0.066 H 
ENDBRANCH  39  40
ENDBRANCH  33  39
ENDBRANCH  27  29
ENDBRANCH   1  27
TORSDOF 10
ENDMDL
MODEL 10
REMARK VINA RESULT:      -4.9      9.974     11.665
REMARK  10 active torsions:
REMARK  status: ('A' for Active; 'I' for Inactive)
REMARK    1  A    between atoms: C_1  and  O_2 
REMARK    2  A    between atoms: O_2  and  C_3 
REMARK    3  A    between atoms: C_6  and  C_9 
REMARK    4  A    between atoms: C_9  and  C_11 
REMARK    5  A    between atoms: C_9  and  C_15 
REMARK    6  A    between atoms: C_11  and  C_12 
REMARK    7  A    between atoms: C_12  and  C_13 
REMARK    8  A    between atoms: C_15  and  C_17 
REMARK    9  A    between atoms: C_20  and  O_23 
REMARK   10  A    between atoms: O_23  and  C_24 
ROOT
ATOM      1  C   LIG d   1      10.358   9.151  -1.214  0.00  0.00     0.048 C 
ATOM      2  H   LIG d   1      11.303   8.825  -1.245  0.00  0.00     0.043 H 
ENDROOT
BRANCH   1   3
ATOM      3  C   LIG d   1      10.079   9.996  -2.430  0.00  0.00    -0.037 A 
ATOM      4  C   LIG d   1       9.154  11.022  -2.361  0.00  0.00    -0.054 A 
ATOM      5  C   LIG d   1       8.892  11.793  -3.476  0.00  0.00    -0.020 A 
ATOM      6  H   LIG d   1       8.633  11.217  -1.435  0.00  0.00     0.062 H 
ATOM      7  C   LIG d   1       9.565  11.547  -4.664  0.00  0.00     0.120 A 
ATOM      8  H   LIG d   1       8.166  12.591  -3.422  0.00  0.00     0.065 H 
ATOM      9  C   LIG d   1      10.493  10.517  -4.731  0.00  0.00    -0.020 A 
ATOM     10  C   LIG d   1      10.747   9.744  -3.614  0.00  0.00    -0.054 A 
ATOM     11  H   LIG d   1      11.016  10.320  -5.655  0.00  0.00     0.065 H 
ATOM     12  H   LIG d   1      11.469   8.943  -3.665  0.00  0.00     0.062 H 
BRANCH   7  13
ATOM     13  O   LIG d   1       9.313  12.308  -5.761  0.00  0.00    -0.495 OA
BRANCH  13  14
ATOM     14  C   LIG d   1       9.729  13.674  -5.712  0.00  0.00     0.079 C 
ATOM     15  H   LIG d   1       9.749  14.083  -6.723  0.00  0.00     0.066 H 
ATOM     16  H   LIG d   1       9.029  14.246  -5.103  0.00  0.00     0.066 H 
ATOM     17  H   LIG d   1      10.726  13.736  -5.275  0.00  0.00     0.066 H 
ENDBRANCH  13  14
ENDBRANCH   7  13
ENDBRANCH   1   3
BRANCH   1  18
ATOM     18  C   LIG d   1      10.151   9.992   0.048  0.00  0.00    -0.034 C 
ATOM     19  H   LIG d   1       9.703  10.949  -0.222  0.00  0.00     0.028 H 
ATOM     20  H   LIG d   1       9.489   9.462   0.733  0.00  0.00     0.028 H 
BRANCH  18  21
ATOM     21  C   LIG d   1      11.500  10.233   0.727  0.00  0.00    -0.012 C 
ATOM     22  H   LIG d   1      12.172  10.736   0.032  0.00  0.00     0.033 H 
ATOM     23  H   LIG d   1      11.357  10.858   1.609  0.00  0.00     0.033 H 
BRANCH  21  24
ATOM     24  C   LIG d   1      12.099   8.913   1.140  0.00  0.00     0.042 C 
ATOM     25  O   LIG d   1      13.171   8.571   0.698  0.00  0.00    -0.550 OA
ATOM     26  O   LIG d   1      11.442   8.117   1.998  0.00  0.00    -0.550 OA
ENDBRANCH  21  24
ENDBRANCH  18  21
ENDBRANCH   1  18
BRANCH   1  27
ATOM     27  C   LIG d   1       9.419   7.973  -1.193  0.00  0.00     0.171 C 
ATOM     28  O   LIG d   1       8.298   8.099  -0.745  0.00  0.00    -0.291 OA
BRANCH  27  29
ATOM     29  C   LIG d   1       9.860   6.673  -1.713  0.00  0.00     0.018 A 
ATOM     30  C   LIG d   1      10.680   5.847  -0.935  0.00  0.00    -0.048 A 
ATOM     31  C   LIG d   1      11.089   4.633  -1.426  0.00  0.00    -0.019 A 
ATOM     32  H   LIG d   1      10.990   6.165   0.049  0.00  0.00     0.063 H 
ATOM     33  C   LIG d   1      10.691   4.223  -2.693  0.00  0.00     0.120 A 
ATOM     34  H   LIG d   1      11.722   3.995  -0.826  0.00  0.00     0.065 H 
ATOM     35  C   LIG d   1       9.876   5.040  -3.470  0.00  0.00    -0.019 A 
ATOM     36  C   LIG d   1       9.457   6.253  -2.987  0.00  0.00    -0.048 A 
ATOM     37  H   LIG d   1       9.570   4.716  -4.454  0.00  0.00     0.065 H 
ATOM     38  H   LIG d   1       8.822   6.884  -3.589  0.00  0.00     0.063 H 
BRANCH  33  39
ATOM     39  O   LIG d   1      11.098   3.021  -3.174  0.00  0.00    -0.495 OA
BRANCH  39  40
ATOM     40  C   LIG d   1      10.087   2.151  -3.686  0.00  0.00     0.079 C 
ATOM     41  H   LIG d   1      10.504   1.542  -4.487  0.00  0.00     0.066 H 
ATOM     42  H   LIG d   1       9.726   1.504  -2.887  0.00  0.00     0.066 H 
ATOM     43  H   LIG d   1       9.259   2.744  -4.074  0.00  0.00     0.066 H 
ENDBRANCH  39  40
ENDBRANCH  33  39
ENDBRANCH  27  29
ENDBRANCH   1  27
TORSDOF 10
ENDMDL
