MODEL 1
REMARK VINA RESULT:      -5.4      0.000      0.000
REMARK  8 active torsions:
REMARK  status: ('A' for Active; 'I' for Inactive)
REMARK    1  A    between atoms: C_1  and  N_2 
REMARK    2  A    between atoms: N_2  and  C_3 
REMARK    3  A    between atoms: N_2  and  C_4 
REMARK    4  A    between atoms: N_2  and  C_5 
REMARK    5  A    between atoms: C_5  and  C_6 
REMARK    6  A    between atoms: C_6  and  O_7 
REMARK    7  A    between atoms: O_7  and  C_8 
REMARK    8  A    between atoms: C_8  and  C_10 
ROOT
ATOM      1  C   LIG d   1       3.835  -0.037  -6.574  0.00  0.00     0.341 C 
ATOM      2  O   LIG d   1       4.914   0.359  -6.946  0.00  0.00    -0.247 OA
ENDROOT
BRANCH   1   3
ATOM      3  O   LIG d   1       2.715   0.432  -7.146  0.00  0.00    -0.457 OA
BRANCH   3   4
ATOM      4  C   LIG d   1       2.835   0.968  -8.490  0.00  0.00     0.132 C 
ATOM      5  H   LIG d   1       2.243   1.880  -8.572  0.00  0.00     0.075 H 
ATOM      6  H   LIG d   1       3.881   1.195  -8.698  0.00  0.00     0.075 H 
BRANCH   4   7
ATOM      7  C   LIG d   1       2.326  -0.063  -9.499  0.00  0.00     0.004 C 
ATOM      8  H   LIG d   1       2.177  -1.019  -8.996  0.00  0.00     0.085 H 
ATOM      9  H   LIG d   1       1.380   0.277  -9.920  0.00  0.00     0.085 H 
BRANCH   7  10
ATOM     10  N   LIG d   1       3.313  -0.225 -10.574  0.00  0.00     0.239 N 
BRANCH  10  11
ATOM     11  C   LIG d   1       2.652  -0.770 -11.768  0.00  0.00    -0.042 C 
ATOM     12  H   LIG d   1       1.636  -0.381 -11.829  0.00  0.00     0.078 H 
ATOM     13  H   LIG d   1       3.208  -0.474 -12.658  0.00  0.00     0.078 H 
ATOM     14  H   LIG d   1       2.622  -1.857 -11.703  0.00  0.00     0.078 H 
ENDBRANCH  10  11
BRANCH  10  15
ATOM     15  C   LIG d   1       3.905   1.080 -10.896  0.00  0.00    -0.042 C 
ATOM     16  H   LIG d   1       4.840   1.199 -10.347  0.00  0.00     0.078 H 
ATOM     17  H   LIG d   1       4.103   1.136 -11.967  0.00  0.00     0.078 H 
ATOM     18  H   LIG d   1       3.214   1.873 -10.612  0.00  0.00     0.078 H 
ENDBRANCH  10  15
BRANCH  10  19
ATOM     19  C   LIG d   1       4.369  -1.147 -10.135  0.00  0.00    -0.042 C 
ATOM     20  H   LIG d   1       5.298  -0.907 -10.651  0.00  0.00     0.078 H 
ATOM     21  H   LIG d   1       4.514  -1.047  -9.060  0.00  0.00     0.078 H 
ATOM     22  H   LIG d   1       4.077  -2.171 -10.370  0.00  0.00     0.078 H 
ENDBRANCH  10  19
ENDBRANCH   7  10
ENDBRANCH   4   7
ENDBRANCH   3   4
ENDBRANCH   1   3
BRANCH   1  23
ATOM     23  C   LIG d   1       3.746  -1.058  -5.469  0.00  0.00     0.180 C 
ATOM     24  H   LIG d   1       2.757  -1.517  -5.479  0.00  0.00     0.076 H 
ATOM     25  O   LIG d   1       4.734  -2.067  -5.678  0.00  0.00    -0.360 OA
ATOM     26  C   LIG d   1       4.846  -2.981  -4.581  0.00  0.00     0.053 C 
ATOM     27  C   LIG d   1       5.482  -2.245  -3.400  0.00  0.00    -0.004 C 
ATOM     28  H   LIG d   1       5.473  -3.824  -4.869  0.00  0.00     0.056 H 
ATOM     29  H   LIG d   1       3.855  -3.337  -4.299  0.00  0.00     0.056 H 
ATOM     30  C   LIG d   1       4.774  -0.936  -3.173  0.00  0.00    -0.039 A 
ATOM     31  H   LIG d   1       5.403  -2.861  -2.504  0.00  0.00     0.034 H 
ATOM     32  H   LIG d   1       6.534  -2.057  -3.616  0.00  0.00     0.034 H 
ATOM     33  C   LIG d   1       3.967  -0.378  -4.143  0.00  0.00    -0.005 A 
ATOM     34  C   LIG d   1       4.944  -0.286  -1.961  0.00  0.00    -0.058 A 
ATOM     35  C   LIG d   1       3.335   0.832  -3.901  0.00  0.00    -0.055 A 
ATOM     36  C   LIG d   1       3.507   1.479  -2.694  0.00  0.00    -0.061 A 
ATOM     37  H   LIG d   1       2.706   1.271  -4.662  0.00  0.00     0.062 H 
ATOM     38  C   LIG d   1       4.312   0.918  -1.720  0.00  0.00    -0.061 A 
ATOM     39  H   LIG d   1       3.012   2.421  -2.510  0.00  0.00     0.062 H 
ATOM     40  H   LIG d   1       4.447   1.421  -0.774  0.00  0.00     0.062 H 
ATOM     41  H   LIG d   1       5.574  -0.724  -1.199  0.00  0.00     0.062 H 
ENDBRANCH   1  23
TORSDOF 8
ENDMDL
MODEL 2
REMARK VINA RESULT:      -5.3      1.701      2.634
REMARK  8 active torsions:
REMARK  status: ('A' for Active; 'I' for Inactive)
REMARK    1  A    between atoms: C_1  and  N_2 
REMARK    2  A    between atoms: N_2  and  C_3 
REMARK    3  A    between atoms: N_2  and  C_4 
REMARK    4  A    between atoms: N_2  and  C_5 
REMARK    5  A    between atoms: C_5  and  C_6 
REMARK    6  A    between atoms: C_6  and  O_7 
REMARK    7  A    between atoms: O_7  and  C_8 
REMARK    8  A    between atoms: C_8  and  C_10 
ROOT
ATOM      1  C   LIG d   1       5.773  -0.581  -6.551  0.00  0.00     0.341 C 
ATOM      2  O   LIG d   1       6.162  -1.475  -7.264  0.00  0.00    -0.247 OA
ENDROOT
BRANCH   1   3
ATOM      3  O   LIG d   1       4.766   0.209  -6.955  0.00  0.00    -0.457 OA
BRANCH   3   4
ATOM      4  C   LIG d   1       3.482  -0.428  -7.190  0.00  0.00     0.132 C 
ATOM      5  H   LIG d   1       3.633  -1.490  -7.385  0.00  0.00     0.075 H 
ATOM      6  H   LIG d   1       2.849  -0.307  -6.310  0.00  0.00     0.075 H 
BRANCH   4   7
ATOM      7  C   LIG d   1       2.804   0.221  -8.399  0.00  0.00     0.004 C 
ATOM      8  H   LIG d   1       1.786   0.509  -8.133  0.00  0.00     0.085 H 
ATOM      9  H   LIG d   1       3.365   1.106  -8.698  0.00  0.00     0.085 H 
BRANCH   7  10
ATOM     10  N   LIG d   1       2.767  -0.736  -9.512  0.00  0.00     0.239 N 
BRANCH  10  11
ATOM     11  C   LIG d   1       1.430  -0.727 -10.122  0.00  0.00    -0.042 C 
ATOM     12  H   LIG d   1       0.704  -1.117  -9.409  0.00  0.00     0.078 H 
ATOM     13  H   LIG d   1       1.161   0.294 -10.392  0.00  0.00     0.078 H 
ATOM     14  H   LIG d   1       1.434  -1.351 -11.015  0.00  0.00     0.078 H 
ENDBRANCH  10  11
BRANCH  10  15
ATOM     15  C   LIG d   1       3.766  -0.356 -10.519  0.00  0.00    -0.042 C 
ATOM     16  H   LIG d   1       4.444  -1.193 -10.691  0.00  0.00     0.078 H 
ATOM     17  H   LIG d   1       3.263  -0.097 -11.451  0.00  0.00     0.078 H 
ATOM     18  H   LIG d   1       4.333   0.503 -10.161  0.00  0.00     0.078 H 
ENDBRANCH  10  15
BRANCH  10  19
ATOM     19  C   LIG d   1       3.067  -2.084  -9.009  0.00  0.00    -0.042 C 
ATOM     20  H   LIG d   1       2.202  -2.470  -8.469  0.00  0.00     0.078 H 
ATOM     21  H   LIG d   1       3.295  -2.742  -9.847  0.00  0.00     0.078 H 
ATOM     22  H   LIG d   1       3.924  -2.038  -8.338  0.00  0.00     0.078 H 
ENDBRANCH  10  19
ENDBRANCH   7  10
ENDBRANCH   4   7
ENDBRANCH   3   4
ENDBRANCH   1   3
BRANCH   1  23
ATOM     23  C   LIG d   1       6.416  -0.354  -5.208  0.00  0.00     0.180 C 
ATOM     24  H   LIG d   1       7.379  -0.864  -5.177  0.00  0.00     0.076 H 
ATOM     25  O   LIG d   1       6.620   1.046  -5.012  0.00  0.00    -0.360 OA
ATOM     26  C   LIG d   1       7.059   1.370  -3.688  0.00  0.00     0.053 C 
ATOM     27  C   LIG d   1       5.894   1.147  -2.722  0.00  0.00    -0.004 C 
ATOM     28  H   LIG d   1       7.371   2.414  -3.651  0.00  0.00     0.056 H 
ATOM     29  H   LIG d   1       7.893   0.726  -3.410  0.00  0.00     0.056 H 
ATOM     30  C   LIG d   1       5.284  -0.209  -2.963  0.00  0.00    -0.039 A 
ATOM     31  H   LIG d   1       6.257   1.205  -1.696  0.00  0.00     0.034 H 
ATOM     32  H   LIG d   1       5.139   1.918  -2.881  0.00  0.00     0.034 H 
ATOM     33  C   LIG d   1       5.524  -0.908  -4.127  0.00  0.00    -0.005 A 
ATOM     34  C   LIG d   1       4.467  -0.756  -1.987  0.00  0.00    -0.058 A 
ATOM     35  C   LIG d   1       4.941  -2.151  -4.317  0.00  0.00    -0.055 A 
ATOM     36  C   LIG d   1       4.126  -2.694  -3.345  0.00  0.00    -0.061 A 
ATOM     37  H   LIG d   1       5.126  -2.697  -5.231  0.00  0.00     0.062 H 
ATOM     38  C   LIG d   1       3.888  -1.996  -2.175  0.00  0.00    -0.061 A 
ATOM     39  H   LIG d   1       3.674  -3.663  -3.497  0.00  0.00     0.062 H 
ATOM     40  H   LIG d   1       3.253  -2.419  -1.412  0.00  0.00     0.062 H 
ATOM     41  H   LIG d   1       4.281  -0.210  -1.072  0.00  0.00     0.062 H 
ENDBRANCH   1  23
TORSDOF 8
ENDMDL
MODEL 3
REMARK VINA RESULT:      -5.3      1.480      2.037
REMARK  8 active torsions:
REMARK  status: ('A' for Active; 'I' for Inactive)
REMARK    1  A    between atoms: C_1  and  N_2 
REMARK    2  A    between atoms: N_2  and  C_3 
REMARK    3  A    between atoms: N_2  and  C_4 
REMARK    4  A    between atoms: N_2  and  C_5 
REMARK    5  A    between atoms: C_5  and  C_6 
REMARK    6  A    between atoms: C_6  and  O_7 
REMARK    7  A    between atoms: O_7  and  C_8 
REMARK    8  A    between atoms: C_8  and  C_10 
ROOT
ATOM      1  C   LIG d   1       3.260   0.201  -6.842  0.00  0.00     0.341 C 
ATOM      2  O   LIG d   1       2.954   1.330  -6.539  0.00  0.00    -0.247 OA
ENDROOT
BRANCH   1   3
ATOM      3  O   LIG d   1       2.513  -0.482  -7.723  0.00  0.00    -0.457 OA
BRANCH   3   4
ATOM      4  C   LIG d   1       2.452   0.036  -9.078  0.00  0.00     0.132 C 
ATOM      5  H   LIG d   1       1.448  -0.107  -9.477  0.00  0.00     0.075 H 
ATOM      6  H   LIG d   1       2.691   1.101  -9.071  0.00  0.00     0.075 H 
BRANCH   4   7
ATOM      7  C   LIG d   1       3.461  -0.707  -9.956  0.00  0.00     0.004 C 
ATOM      8  H   LIG d   1       4.087  -1.344  -9.329  0.00  0.00     0.085 H 
ATOM      9  H   LIG d   1       2.928  -1.323 -10.680  0.00  0.00     0.085 H 
BRANCH   7  10
ATOM     10  N   LIG d   1       4.305   0.264 -10.663  0.00  0.00     0.239 N 
BRANCH  10  11
ATOM     11  C   LIG d   1       5.682   0.177 -10.157  0.00  0.00    -0.042 C 
ATOM     12  H   LIG d   1       6.150  -0.732 -10.535  0.00  0.00     0.078 H 
ATOM     13  H   LIG d   1       6.249   1.045 -10.496  0.00  0.00     0.078 H 
ATOM     14  H   LIG d   1       5.668   0.154  -9.068  0.00  0.00     0.078 H 
ENDBRANCH  10  11
BRANCH  10  15
ATOM     15  C   LIG d   1       4.292  -0.031 -12.101  0.00  0.00    -0.042 C 
ATOM     16  H   LIG d   1       4.013  -1.074 -12.255  0.00  0.00     0.078 H 
ATOM     17  H   LIG d   1       3.569   0.616 -12.599  0.00  0.00     0.078 H 
ATOM     18  H   LIG d   1       5.284   0.144 -12.517  0.00  0.00     0.078 H 
ENDBRANCH  10  15
BRANCH  10  19
ATOM     19  C   LIG d   1       3.786   1.620 -10.436  0.00  0.00    -0.042 C 
ATOM     20  H   LIG d   1       4.525   2.205  -9.888  0.00  0.00     0.078 H 
ATOM     21  H   LIG d   1       3.584   2.097 -11.396  0.00  0.00     0.078 H 
ATOM     22  H   LIG d   1       2.864   1.564  -9.857  0.00  0.00     0.078 H 
ENDBRANCH  10  19
ENDBRANCH   7  10
ENDBRANCH   4   7
ENDBRANCH   3   4
ENDBRANCH   1   3
BRANCH   1  23
ATOM     23  C   LIG d   1       4.480  -0.439  -6.232  0.00  0.00     0.180 C 
ATOM     24  H   LIG d   1       4.540  -1.480  -6.551  0.00  0.00     0.076 H 
ATOM     25  O   LIG d   1       5.647   0.256  -6.671  0.00  0.00    -0.360 OA
ATOM     26  C   LIG d   1       6.839  -0.168  -6.000  0.00  0.00     0.053 C 
ATOM     27  C   LIG d   1       6.782   0.325  -4.552  0.00  0.00    -0.004 C 
ATOM     28  H   LIG d   1       7.711   0.257  -6.497  0.00  0.00     0.056 H 
ATOM     29  H   LIG d   1       6.901  -1.256  -6.013  0.00  0.00     0.056 H 
ATOM     30  C   LIG d   1       5.451  -0.032  -3.944  0.00  0.00    -0.039 A 
ATOM     31  H   LIG d   1       7.582  -0.143  -3.978  0.00  0.00     0.034 H 
ATOM     32  H   LIG d   1       6.911   1.408  -4.533  0.00  0.00     0.034 H 
ATOM     33  C   LIG d   1       4.374  -0.384  -4.730  0.00  0.00    -0.005 A 
ATOM     34  C   LIG d   1       5.318  -0.003  -2.565  0.00  0.00    -0.058 A 
ATOM     35  C   LIG d   1       3.162  -0.701  -4.135  0.00  0.00    -0.055 A 
ATOM     36  C   LIG d   1       3.031  -0.670  -2.762  0.00  0.00    -0.061 A 
ATOM     37  H   LIG d   1       2.317  -0.973  -4.751  0.00  0.00     0.062 H 
ATOM     38  C   LIG d   1       4.112  -0.322  -1.973  0.00  0.00    -0.061 A 
ATOM     39  H   LIG d   1       2.085  -0.919  -2.303  0.00  0.00     0.062 H 
ATOM     40  H   LIG d   1       4.013  -0.299  -0.899  0.00  0.00     0.062 H 
ATOM     41  H   LIG d   1       6.164   0.269  -1.948  0.00  0.00     0.062 H 
ENDBRANCH   1  23
TORSDOF 8
ENDMDL
MODEL 4
REMARK VINA RESULT:      -5.2      4.993      7.199
REMARK  8 active torsions:
REMARK  status: ('A' for Active; 'I' for Inactive)
REMARK    1  A    between atoms: C_1  and  N_2 
REMARK    2  A    between atoms: N_2  and  C_3 
REMARK    3  A    between atoms: N_2  and  C_4 
REMARK    4  A    between atoms: N_2  and  C_5 
REMARK    5  A    between atoms: C_5  and  C_6 
REMARK    6  A    between atoms: C_6  and  O_7 
REMARK    7  A    between atoms: O_7  and  C_8 
REMARK    8  A    between atoms: C_8  and  C_10 
ROOT
ATOM      1  C   LIG d   1       7.410   1.055  -4.127  0.00  0.00     0.341 C 
ATOM      2  O   LIG d   1       6.894   1.243  -5.203  0.00  0.00    -0.247 OA
ENDROOT
BRANCH   1   3
ATOM      3  O   LIG d   1       8.716   1.313  -3.954  0.00  0.00    -0.457 OA
BRANCH   3   4
ATOM      4  C   LIG d   1       9.079   2.679  -3.619  0.00  0.00     0.132 C 
ATOM      5  H   LIG d   1       9.112   3.280  -4.527  0.00  0.00     0.075 H 
ATOM      6  H   LIG d   1       8.338   3.095  -2.935  0.00  0.00     0.075 H 
BRANCH   4   7
ATOM      7  C   LIG d   1      10.455   2.691  -2.949  0.00  0.00     0.004 C 
ATOM      8  H   LIG d   1      10.341   2.491  -1.883  0.00  0.00     0.085 H 
ATOM      9  H   LIG d   1      11.084   1.923  -3.398  0.00  0.00     0.085 H 
BRANCH   7  10
ATOM     10  N   LIG d   1      11.078   4.008  -3.135  0.00  0.00     0.239 N 
BRANCH  10  11
ATOM     11  C   LIG d   1      10.900   4.811  -1.918  0.00  0.00    -0.042 C 
ATOM     12  H   LIG d   1       9.991   5.405  -2.006  0.00  0.00     0.078 H 
ATOM     13  H   LIG d   1      10.819   4.150  -1.055  0.00  0.00     0.078 H 
ATOM     14  H   LIG d   1      11.757   5.472  -1.791  0.00  0.00     0.078 H 
ENDBRANCH  10  11
BRANCH  10  15
ATOM     15  C   LIG d   1      12.512   3.837  -3.404  0.00  0.00    -0.042 C 
ATOM     16  H   LIG d   1      12.860   4.647  -4.046  0.00  0.00     0.078 H 
ATOM     17  H   LIG d   1      13.063   3.857  -2.463  0.00  0.00     0.078 H 
ATOM     18  H   LIG d   1      12.677   2.882  -3.901  0.00  0.00     0.078 H 
ENDBRANCH  10  15
BRANCH  10  19
ATOM     19  C   LIG d   1      10.446   4.692  -4.271  0.00  0.00    -0.042 C 
ATOM     20  H   LIG d   1       9.409   4.921  -4.025  0.00  0.00     0.078 H 
ATOM     21  H   LIG d   1      10.981   5.618  -4.481  0.00  0.00     0.078 H 
ATOM     22  H   LIG d   1      10.477   4.047  -5.148  0.00  0.00     0.078 H 
ENDBRANCH  10  19
ENDBRANCH   7  10
ENDBRANCH   4   7
ENDBRANCH   3   4
ENDBRANCH   1   3
BRANCH   1  23
ATOM     23  C   LIG d   1       6.587   0.533  -2.978  0.00  0.00     0.180 C 
ATOM     24  H   LIG d   1       7.231   0.378  -2.112  0.00  0.00     0.076 H 
ATOM     25  O   LIG d   1       5.577   1.486  -2.648  0.00  0.00    -0.360 OA
ATOM     26  C   LIG d   1       4.634   0.997  -1.688  0.00  0.00     0.053 C 
ATOM     27  C   LIG d   1       3.765  -0.067  -2.362  0.00  0.00    -0.004 C 
ATOM     28  H   LIG d   1       4.005   1.817  -1.341  0.00  0.00     0.056 H 
ATOM     29  H   LIG d   1       5.164   0.556  -0.844  0.00  0.00     0.056 H 
ATOM     30  C   LIG d   1       4.640  -1.062  -3.078  0.00  0.00    -0.039 A 
ATOM     31  H   LIG d   1       3.172  -0.582  -1.606  0.00  0.00     0.034 H 
ATOM     32  H   LIG d   1       3.097   0.411  -3.079  0.00  0.00     0.034 H 
ATOM     33  C   LIG d   1       5.958  -0.779  -3.371  0.00  0.00    -0.005 A 
ATOM     34  C   LIG d   1       4.099  -2.284  -3.446  0.00  0.00    -0.058 A 
ATOM     35  C   LIG d   1       6.732  -1.716  -4.037  0.00  0.00    -0.055 A 
ATOM     36  C   LIG d   1       6.192  -2.932  -4.404  0.00  0.00    -0.061 A 
ATOM     37  H   LIG d   1       7.764  -1.493  -4.270  0.00  0.00     0.062 H 
ATOM     38  C   LIG d   1       4.872  -3.218  -4.107  0.00  0.00    -0.061 A 
ATOM     39  H   LIG d   1       6.799  -3.660  -4.922  0.00  0.00     0.062 H 
ATOM     40  H   LIG d   1       4.447  -4.169  -4.391  0.00  0.00     0.062 H 
ATOM     41  H   LIG d   1       3.067  -2.507  -3.214  0.00  0.00     0.062 H 
ENDBRANCH   1  23
TORSDOF 8
ENDMDL
MODEL 5
REMARK VINA RESULT:      -5.1      2.267      6.926
REMARK  8 active torsions:
REMARK  status: ('A' for Active; 'I' for Inactive)
REMARK    1  A    between atoms: C_1  and  N_2 
REMARK    2  A    between atoms: N_2  and  C_3 
REMARK    3  A    between atoms: N_2  and  C_4 
REMARK    4  A    between atoms: N_2  and  C_5 
REMARK    5  A    between atoms: C_5  and  C_6 
REMARK    6  A    between atoms: C_6  and  O_7 
REMARK    7  A    between atoms: O_7  and  C_8 
REMARK    8  A    between atoms: C_8  and  C_10 
ROOT
ATOM      1  C   LIG d   1       3.445   0.044  -6.880  0.00  0.00     0.341 C 
ATOM      2  O   LIG d   1       4.385  -0.707  -6.981  0.00  0.00    -0.247 OA
ENDROOT
BRANCH   1   3
ATOM      3  O   LIG d   1       2.747   0.096  -5.735  0.00  0.00    -0.457 OA
BRANCH   3   4
ATOM      4  C   LIG d   1       3.248  -0.689  -4.621  0.00  0.00     0.132 C 
ATOM      5  H   LIG d   1       2.626  -1.574  -4.490  0.00  0.00     0.075 H 
ATOM      6  H   LIG d   1       4.276  -0.995  -4.825  0.00  0.00     0.075 H 
BRANCH   4   7
ATOM      7  C   LIG d   1       3.211   0.154  -3.344  0.00  0.00     0.004 C 
ATOM      8  H   LIG d   1       3.121   1.208  -3.609  0.00  0.00     0.085 H 
ATOM      9  H   LIG d   1       2.355  -0.144  -2.738  0.00  0.00     0.085 H 
BRANCH   7  10
ATOM     10  N   LIG d   1       4.448  -0.056  -2.582  0.00  0.00     0.239 N 
BRANCH  10  11
ATOM     11  C   LIG d   1       4.390  -1.356  -1.900  0.00  0.00    -0.042 C 
ATOM     12  H   LIG d   1       4.644  -1.225  -0.849  0.00  0.00     0.078 H 
ATOM     13  H   LIG d   1       3.383  -1.765  -1.983  0.00  0.00     0.078 H 
ATOM     14  H   LIG d   1       5.100  -2.041  -2.363  0.00  0.00     0.078 H 
ENDBRANCH  10  11
BRANCH  10  15
ATOM     15  C   LIG d   1       5.597  -0.034  -3.498  0.00  0.00    -0.042 C 
ATOM     16  H   LIG d   1       5.401  -0.697  -4.341  0.00  0.00     0.078 H 
ATOM     17  H   LIG d   1       5.752   0.982  -3.862  0.00  0.00     0.078 H 
ATOM     18  H   LIG d   1       6.488  -0.371  -2.970  0.00  0.00     0.078 H 
ENDBRANCH  10  15
BRANCH  10  19
ATOM     19  C   LIG d   1       4.596   1.014  -1.585  0.00  0.00    -0.042 C 
ATOM     20  H   LIG d   1       5.033   1.893  -2.059  0.00  0.00     0.078 H 
ATOM     21  H   LIG d   1       3.618   1.269  -1.178  0.00  0.00     0.078 H 
ATOM     22  H   LIG d   1       5.248   0.673  -0.781  0.00  0.00     0.078 H 
ENDBRANCH  10  19
ENDBRANCH   7  10
ENDBRANCH   4   7
ENDBRANCH   3   4
ENDBRANCH   1   3
BRANCH   1  23
ATOM     23  C   LIG d   1       3.056   0.925  -8.039  0.00  0.00     0.180 C 
ATOM     24  H   LIG d   1       2.194   1.531  -7.760  0.00  0.00     0.076 H 
ATOM     25  O   LIG d   1       4.148   1.784  -8.367  0.00  0.00    -0.360 OA
ATOM     26  C   LIG d   1       3.936   2.530  -9.571  0.00  0.00     0.053 C 
ATOM     27  C   LIG d   1       4.009   1.566 -10.757  0.00  0.00    -0.004 C 
ATOM     28  H   LIG d   1       4.707   3.293  -9.671  0.00  0.00     0.056 H 
ATOM     29  H   LIG d   1       2.953   3.000  -9.542  0.00  0.00     0.056 H 
ATOM     30  C   LIG d   1       3.137   0.366 -10.493  0.00  0.00    -0.039 A 
ATOM     31  H   LIG d   1       3.665   2.073 -11.658  0.00  0.00     0.034 H 
ATOM     32  H   LIG d   1       5.040   1.242 -10.897  0.00  0.00     0.034 H 
ATOM     33  C   LIG d   1       2.697   0.063  -9.222  0.00  0.00    -0.005 A 
ATOM     34  C   LIG d   1       2.778  -0.445 -11.558  0.00  0.00    -0.058 A 
ATOM     35  C   LIG d   1       1.901  -1.053  -9.016  0.00  0.00    -0.055 A 
ATOM     36  C   LIG d   1       1.545  -1.860 -10.077  0.00  0.00    -0.061 A 
ATOM     37  H   LIG d   1       1.559  -1.292  -8.019  0.00  0.00     0.062 H 
ATOM     38  C   LIG d   1       1.983  -1.555 -11.353  0.00  0.00    -0.061 A 
ATOM     39  H   LIG d   1       0.924  -2.728  -9.912  0.00  0.00     0.062 H 
ATOM     40  H   LIG d   1       1.704  -2.183 -12.185  0.00  0.00     0.062 H 
ATOM     41  H   LIG d   1       3.120  -0.206 -12.556  0.00  0.00     0.062 H 
ENDBRANCH   1  23
TORSDOF 8
ENDMDL
MODEL 6
REMARK VINA RESULT:      -5.1      1.741      2.307
REMARK  8 active torsions:
REMARK  status: ('A' for Active; 'I' for Inactive)
REMARK    1  A    between atoms: C_1  and  N_2 
REMARK    2  A    between atoms: N_2  and  C_3 
REMARK    3  A    between atoms: N_2  and  C_4 
REMARK    4  A    between atoms: N_2  and  C_5 
REMARK    5  A    between atoms: C_5  and  C_6 
REMARK    6  A    between atoms: C_6  and  O_7 
REMARK    7  A    between atoms: O_7  and  C_8 
REMARK    8  A    between atoms: C_8  and  C_10 
ROOT
ATOM      1  C   LIG d   1       6.672   0.028  -6.012  0.00  0.00     0.341 C 
ATOM      2  O   LIG d   1       7.729  -0.201  -5.472  0.00  0.00    -0.247 OA
ENDROOT
BRANCH   1   3
ATOM      3  O   LIG d   1       6.589   0.986  -6.947  0.00  0.00    -0.457 OA
BRANCH   3   4
ATOM      4  C   LIG d   1       6.219   0.568  -8.288  0.00  0.00     0.132 C 
ATOM      5  H   LIG d   1       7.120   0.340  -8.859  0.00  0.00     0.075 H 
ATOM      6  H   LIG d   1       5.591  -0.322  -8.231  0.00  0.00     0.075 H 
BRANCH   4   7
ATOM      7  C   LIG d   1       5.448   1.694  -8.980  0.00  0.00     0.004 C 
ATOM      8  H   LIG d   1       5.361   2.543  -8.301  0.00  0.00     0.085 H 
ATOM      9  H   LIG d   1       5.981   2.001  -9.879  0.00  0.00     0.085 H 
BRANCH   7  10
ATOM     10  N   LIG d   1       4.107   1.218  -9.342  0.00  0.00     0.239 N 
BRANCH  10  11
ATOM     11  C   LIG d   1       3.972  -0.198  -8.971  0.00  0.00    -0.042 C 
ATOM     12  H   LIG d   1       3.643  -0.770  -9.838  0.00  0.00     0.078 H 
ATOM     13  H   LIG d   1       4.936  -0.577  -8.630  0.00  0.00     0.078 H 
ATOM     14  H   LIG d   1       3.239  -0.295  -8.171  0.00  0.00     0.078 H 
ENDBRANCH  10  11
BRANCH  10  15
ATOM     15  C   LIG d   1       3.096   2.010  -8.628  0.00  0.00    -0.042 C 
ATOM     16  H   LIG d   1       2.206   2.106  -9.250  0.00  0.00     0.078 H 
ATOM     17  H   LIG d   1       2.835   1.509  -7.695  0.00  0.00     0.078 H 
ATOM     18  H   LIG d   1       3.497   2.999  -8.411  0.00  0.00     0.078 H 
ENDBRANCH  10  15
BRANCH  10  19
ATOM     19  C   LIG d   1       3.910   1.365 -10.791  0.00  0.00    -0.042 C 
ATOM     20  H   LIG d   1       3.668   2.403 -11.021  0.00  0.00     0.078 H 
ATOM     21  H   LIG d   1       4.825   1.082 -11.312  0.00  0.00     0.078 H 
ATOM     22  H   LIG d   1       3.093   0.721 -11.114  0.00  0.00     0.078 H 
ENDBRANCH  10  19
ENDBRANCH   7  10
ENDBRANCH   4   7
ENDBRANCH   3   4
ENDBRANCH   1   3
BRANCH   1  23
ATOM     23  C   LIG d   1       5.447  -0.765  -5.635  0.00  0.00     0.180 C 
ATOM     24  H   LIG d   1       4.614  -0.468  -6.272  0.00  0.00     0.076 H 
ATOM     25  O   LIG d   1       5.708  -2.156  -5.823  0.00  0.00    -0.360 OA
ATOM     26  C   LIG d   1       4.665  -2.997  -5.319  0.00  0.00     0.053 C 
ATOM     27  C   LIG d   1       4.692  -2.940  -3.790  0.00  0.00    -0.004 C 
ATOM     28  H   LIG d   1       4.829  -4.023  -5.649  0.00  0.00     0.056 H 
ATOM     29  H   LIG d   1       3.700  -2.642  -5.681  0.00  0.00     0.056 H 
ATOM     30  C   LIG d   1       4.739  -1.505  -3.334  0.00  0.00    -0.039 A 
ATOM     31  H   LIG d   1       3.796  -3.418  -3.393  0.00  0.00     0.034 H 
ATOM     32  H   LIG d   1       5.573  -3.466  -3.423  0.00  0.00     0.034 H 
ATOM     33  C   LIG d   1       5.098  -0.489  -4.196  0.00  0.00    -0.005 A 
ATOM     34  C   LIG d   1       4.413  -1.211  -2.020  0.00  0.00    -0.058 A 
ATOM     35  C   LIG d   1       5.136   0.820  -3.740  0.00  0.00    -0.055 A 
ATOM     36  C   LIG d   1       4.813   1.111  -2.430  0.00  0.00    -0.061 A 
ATOM     37  H   LIG d   1       5.421   1.615  -4.414  0.00  0.00     0.062 H 
ATOM     38  C   LIG d   1       4.449   0.093  -1.567  0.00  0.00    -0.061 A 
ATOM     39  H   LIG d   1       4.843   2.132  -2.080  0.00  0.00     0.062 H 
ATOM     40  H   LIG d   1       4.194   0.319  -0.542  0.00  0.00     0.062 H 
ATOM     41  H   LIG d   1       4.129  -2.006  -1.345  0.00  0.00     0.062 H 
ENDBRANCH   1  23
TORSDOF 8
ENDMDL
MODEL 7
REMARK VINA RESULT:      -5.1      2.140      3.428
REMARK  8 active torsions:
REMARK  status: ('A' for Active; 'I' for Inactive)
REMARK    1  A    between atoms: C_1  and  N_2 
REMARK    2  A    between atoms: N_2  and  C_3 
REMARK    3  A    between atoms: N_2  and  C_4 
REMARK    4  A    between atoms: N_2  and  C_5 
REMARK    5  A    between atoms: C_5  and  C_6 
REMARK    6  A    between atoms: C_6  and  O_7 
REMARK    7  A    between atoms: O_7  and  C_8 
REMARK    8  A    between atoms: C_8  and  C_10 
ROOT
ATOM      1  C   LIG d   1       6.626  -2.529  -5.071  0.00  0.00     0.341 C 
ATOM      2  O   LIG d   1       6.542  -3.667  -4.675  0.00  0.00    -0.247 OA
ENDROOT
BRANCH   1   3
ATOM      3  O   LIG d   1       6.141  -2.201  -6.278  0.00  0.00    -0.457 OA
BRANCH   3   4
ATOM      4  C   LIG d   1       4.703  -2.022  -6.385  0.00  0.00     0.132 C 
ATOM      5  H   LIG d   1       4.329  -2.587  -7.239  0.00  0.00     0.075 H 
ATOM      6  H   LIG d   1       4.224  -2.383  -5.474  0.00  0.00     0.075 H 
BRANCH   4   7
ATOM      7  C   LIG d   1       4.385  -0.538  -6.575  0.00  0.00     0.004 C 
ATOM      8  H   LIG d   1       3.583  -0.249  -5.896  0.00  0.00     0.085 H 
ATOM      9  H   LIG d   1       5.275   0.054  -6.360  0.00  0.00     0.085 H 
BRANCH   7  10
ATOM     10  N   LIG d   1       3.962  -0.302  -7.962  0.00  0.00     0.239 N 
BRANCH  10  11
ATOM     11  C   LIG d   1       3.436  -1.550  -8.533  0.00  0.00    -0.042 C 
ATOM     12  H   LIG d   1       2.434  -1.732  -8.144  0.00  0.00     0.078 H 
ATOM     13  H   LIG d   1       3.393  -1.462  -9.619  0.00  0.00     0.078 H 
ATOM     14  H   LIG d   1       4.089  -2.378  -8.260  0.00  0.00     0.078 H 
ENDBRANCH  10  11
BRANCH  10  15
ATOM     15  C   LIG d   1       2.914   0.727  -7.985  0.00  0.00    -0.042 C 
ATOM     16  H   LIG d   1       3.106   1.458  -7.199  0.00  0.00     0.078 H 
ATOM     17  H   LIG d   1       2.917   1.227  -8.955  0.00  0.00     0.078 H 
ATOM     18  H   LIG d   1       1.944   0.261  -7.819  0.00  0.00     0.078 H 
ENDBRANCH  10  15
BRANCH  10  19
ATOM     19  C   LIG d   1       5.112   0.152  -8.755  0.00  0.00    -0.042 C 
ATOM     20  H   LIG d   1       4.815   0.257  -9.798  0.00  0.00     0.078 H 
ATOM     21  H   LIG d   1       5.457   1.115  -8.377  0.00  0.00     0.078 H 
ATOM     22  H   LIG d   1       5.917  -0.578  -8.678  0.00  0.00     0.078 H 
ENDBRANCH  10  19
ENDBRANCH   7  10
ENDBRANCH   4   7
ENDBRANCH   3   4
ENDBRANCH   1   3
BRANCH   1  23
ATOM     23  C   LIG d   1       7.275  -1.476  -4.209  0.00  0.00     0.180 C 
ATOM     24  H   LIG d   1       8.015  -1.946  -3.561  0.00  0.00     0.076 H 
ATOM     25  O   LIG d   1       7.923  -0.516  -5.043  0.00  0.00    -0.360 OA
ATOM     26  C   LIG d   1       8.412   0.619  -4.319  0.00  0.00     0.053 C 
ATOM     27  C   LIG d   1       7.214   1.452  -3.859  0.00  0.00    -0.004 C 
ATOM     28  H   LIG d   1       9.049   1.220  -4.967  0.00  0.00     0.056 H 
ATOM     29  H   LIG d   1       8.980   0.284  -3.451  0.00  0.00     0.056 H 
ATOM     30  C   LIG d   1       6.198   0.561  -3.194  0.00  0.00    -0.039 A 
ATOM     31  H   LIG d   1       7.551   2.210  -3.151  0.00  0.00     0.034 H 
ATOM     32  H   LIG d   1       6.760   1.941  -4.721  0.00  0.00     0.034 H 
ATOM     33  C   LIG d   1       6.223  -0.807  -3.363  0.00  0.00    -0.005 A 
ATOM     34  C   LIG d   1       5.222   1.139  -2.399  0.00  0.00    -0.058 A 
ATOM     35  C   LIG d   1       5.268  -1.596  -2.740  0.00  0.00    -0.055 A 
ATOM     36  C   LIG d   1       4.295  -1.019  -1.950  0.00  0.00    -0.061 A 
ATOM     37  H   LIG d   1       5.286  -2.668  -2.875  0.00  0.00     0.062 H 
ATOM     38  C   LIG d   1       4.272   0.353  -1.777  0.00  0.00    -0.061 A 
ATOM     39  H   LIG d   1       3.554  -1.637  -1.466  0.00  0.00     0.062 H 
ATOM     40  H   LIG d   1       3.513   0.807  -1.157  0.00  0.00     0.062 H 
ATOM     41  H   LIG d   1       5.203   2.212  -2.263  0.00  0.00     0.062 H 
ENDBRANCH   1  23
TORSDOF 8
ENDMDL
MODEL 8
REMARK VINA RESULT:      -5.1      4.626      6.582
REMARK  8 active torsions:
REMARK  status: ('A' for Active; 'I' for Inactive)
REMARK    1  A    between atoms: C_1  and  N_2 
REMARK    2  A    between atoms: N_2  and  C_3 
REMARK    3  A    between atoms: N_2  and  C_4 
REMARK    4  A    between atoms: N_2  and  C_5 
REMARK    5  A    between atoms: C_5  and  C_6 
REMARK    6  A    between atoms: C_6  and  O_7 
REMARK    7  A    between atoms: O_7  and  C_8 
REMARK    8  A    between atoms: C_8  and  C_10 
ROOT
ATOM      1  C   LIG d   1       7.237   0.618  -4.176  0.00  0.00     0.341 C 
ATOM      2  O   LIG d   1       8.126  -0.153  -4.451  0.00  0.00    -0.247 OA
ENDROOT
BRANCH   1   3
ATOM      3  O   LIG d   1       7.317   1.901  -4.562  0.00  0.00    -0.457 OA
BRANCH   3   4
ATOM      4  C   LIG d   1       8.645   2.432  -4.814  0.00  0.00     0.132 C 
ATOM      5  H   LIG d   1       9.266   1.658  -5.266  0.00  0.00     0.075 H 
ATOM      6  H   LIG d   1       8.573   3.282  -5.494  0.00  0.00     0.075 H 
BRANCH   4   7
ATOM      7  C   LIG d   1       9.274   2.885  -3.494  0.00  0.00     0.004 C 
ATOM      8  H   LIG d   1       8.486   3.077  -2.765  0.00  0.00     0.085 H 
ATOM      9  H   LIG d   1       9.933   2.102  -3.119  0.00  0.00     0.085 H 
BRANCH   7  10
ATOM     10  N   LIG d   1      10.046   4.114  -3.716  0.00  0.00     0.239 N 
BRANCH  10  11
ATOM     11  C   LIG d   1      11.420   3.766  -4.102  0.00  0.00    -0.042 C 
ATOM     12  H   LIG d   1      11.953   4.669  -4.399  0.00  0.00     0.078 H 
ATOM     13  H   LIG d   1      11.930   3.305  -3.256  0.00  0.00     0.078 H 
ATOM     14  H   LIG d   1      11.397   3.067  -4.938  0.00  0.00     0.078 H 
ENDBRANCH  10  11
BRANCH  10  15
ATOM     15  C   LIG d   1       9.420   4.899  -4.788  0.00  0.00    -0.042 C 
ATOM     16  H   LIG d   1      10.157   5.102  -5.566  0.00  0.00     0.078 H 
ATOM     17  H   LIG d   1       8.588   4.337  -5.212  0.00  0.00     0.078 H 
ATOM     18  H   LIG d   1       9.053   5.841  -4.381  0.00  0.00     0.078 H 
ENDBRANCH  10  15
BRANCH  10  19
ATOM     19  C   LIG d   1      10.071   4.906  -2.479  0.00  0.00    -0.042 C 
ATOM     20  H   LIG d   1      11.098   4.990  -2.122  0.00  0.00     0.078 H 
ATOM     21  H   LIG d   1       9.673   5.901  -2.676  0.00  0.00     0.078 H 
ATOM     22  H   LIG d   1       9.463   4.414  -1.720  0.00  0.00     0.078 H 
ENDBRANCH  10  19
ENDBRANCH   7  10
ENDBRANCH   4   7
ENDBRANCH   3   4
ENDBRANCH   1   3
BRANCH   1  23
ATOM     23  C   LIG d   1       6.037   0.139  -3.401  0.00  0.00     0.180 C 
ATOM     24  H   LIG d   1       6.220  -0.874  -3.040  0.00  0.00     0.076 H 
ATOM     25  O   LIG d   1       5.819   1.003  -2.286  0.00  0.00    -0.360 OA
ATOM     26  C   LIG d   1       4.593   0.732  -1.596  0.00  0.00     0.053 C 
ATOM     27  C   LIG d   1       3.429   1.171  -2.486  0.00  0.00    -0.004 C 
ATOM     28  H   LIG d   1       4.569   1.289  -0.660  0.00  0.00     0.056 H 
ATOM     29  H   LIG d   1       4.515  -0.336  -1.392  0.00  0.00     0.056 H 
ATOM     30  C   LIG d   1       3.609   0.612  -3.873  0.00  0.00    -0.039 A 
ATOM     31  H   LIG d   1       2.492   0.803  -2.065  0.00  0.00     0.034 H 
ATOM     32  H   LIG d   1       3.400   2.259  -2.534  0.00  0.00     0.034 H 
ATOM     33  C   LIG d   1       4.829   0.135  -4.303  0.00  0.00    -0.005 A 
ATOM     34  C   LIG d   1       2.518   0.583  -4.728  0.00  0.00    -0.058 A 
ATOM     35  C   LIG d   1       4.960  -0.366  -5.589  0.00  0.00    -0.055 A 
ATOM     36  C   LIG d   1       3.874  -0.393  -6.439  0.00  0.00    -0.061 A 
ATOM     37  H   LIG d   1       5.917  -0.736  -5.926  0.00  0.00     0.062 H 
ATOM     38  C   LIG d   1       2.648   0.081  -6.008  0.00  0.00    -0.061 A 
ATOM     39  H   LIG d   1       3.979  -0.785  -7.440  0.00  0.00     0.062 H 
ATOM     40  H   LIG d   1       1.796   0.059  -6.670  0.00  0.00     0.062 H 
ATOM     41  H   LIG d   1       1.560   0.953  -4.391  0.00  0.00     0.062 H 
ENDBRANCH   1  23
TORSDOF 8
ENDMDL
MODEL 9
REMARK VINA RESULT:      -5.0      2.709      4.802
REMARK  8 active torsions:
REMARK  status: ('A' for Active; 'I' for Inactive)
REMARK    1  A    between atoms: C_1  and  N_2 
REMARK    2  A    between atoms: N_2  and  C_3 
REMARK    3  A    between atoms: N_2  and  C_4 
REMARK    4  A    between atoms: N_2  and  C_5 
REMARK    5  A    between atoms: C_5  and  C_6 
REMARK    6  A    between atoms: C_6  and  O_7 
REMARK    7  A    between atoms: O_7  and  C_8 
REMARK    8  A    between atoms: C_8  and  C_10 
ROOT
ATOM      1  C   LIG d   1       5.300  -2.938  -4.576  0.00  0.00     0.341 C 
ATOM      2  O   LIG d   1       4.377  -3.500  -4.034  0.00  0.00    -0.247 OA
ENDROOT
BRANCH   1   3
ATOM      3  O   LIG d   1       6.503  -3.529  -4.638  0.00  0.00    -0.457 OA
BRANCH   3   4
ATOM      4  C   LIG d   1       6.564  -4.834  -5.273  0.00  0.00     0.132 C 
ATOM      5  H   LIG d   1       7.590  -5.203  -5.245  0.00  0.00     0.075 H 
ATOM      6  H   LIG d   1       5.914  -5.528  -4.740  0.00  0.00     0.075 H 
BRANCH   4   7
ATOM      7  C   LIG d   1       6.104  -4.717  -6.727  0.00  0.00     0.004 C 
ATOM      8  H   LIG d   1       5.706  -3.716  -6.902  0.00  0.00     0.085 H 
ATOM      9  H   LIG d   1       6.950  -4.893  -7.392  0.00  0.00     0.085 H 
BRANCH   7  10
ATOM     10  N   LIG d   1       5.057  -5.712  -6.991  0.00  0.00     0.239 N 
BRANCH  10  11
ATOM     11  C   LIG d   1       4.877  -6.560  -5.805  0.00  0.00    -0.042 C 
ATOM     12  H   LIG d   1       3.950  -7.125  -5.901  0.00  0.00     0.078 H 
ATOM     13  H   LIG d   1       5.716  -7.251  -5.722  0.00  0.00     0.078 H 
ATOM     14  H   LIG d   1       4.831  -5.934  -4.914  0.00  0.00     0.078 H 
ENDBRANCH  10  11
BRANCH  10  15
ATOM     15  C   LIG d   1       3.795  -5.026  -7.298  0.00  0.00    -0.042 C 
ATOM     16  H   LIG d   1       3.534  -5.198  -8.343  0.00  0.00     0.078 H 
ATOM     17  H   LIG d   1       3.004  -5.416  -6.657  0.00  0.00     0.078 H 
ATOM     18  H   LIG d   1       3.911  -3.957  -7.124  0.00  0.00     0.078 H 
ENDBRANCH  10  15
BRANCH  10  19
ATOM     19  C   LIG d   1       5.451  -6.547  -8.134  0.00  0.00    -0.042 C 
ATOM     20  H   LIG d   1       4.672  -7.282  -8.333  0.00  0.00     0.078 H 
ATOM     21  H   LIG d   1       5.588  -5.917  -9.013  0.00  0.00     0.078 H 
ATOM     22  H   LIG d   1       6.385  -7.059  -7.905  0.00  0.00     0.078 H 
ENDBRANCH  10  19
ENDBRANCH   7  10
ENDBRANCH   4   7
ENDBRANCH   3   4
ENDBRANCH   1   3
BRANCH   1  23
ATOM     23  C   LIG d   1       5.099  -1.573  -5.183  0.00  0.00     0.180 C 
ATOM     24  H   LIG d   1       6.048  -1.208  -5.575  0.00  0.00     0.076 H 
ATOM     25  O   LIG d   1       4.154  -1.665  -6.249  0.00  0.00    -0.360 OA
ATOM     26  C   LIG d   1       3.764  -0.388  -6.766  0.00  0.00     0.053 C 
ATOM     27  C   LIG d   1       2.895   0.314  -5.720  0.00  0.00    -0.004 C 
ATOM     28  H   LIG d   1       3.193  -0.523  -7.685  0.00  0.00     0.056 H 
ATOM     29  H   LIG d   1       4.651   0.213  -6.968  0.00  0.00     0.056 H 
ATOM     30  C   LIG d   1       3.574   0.262  -4.376  0.00  0.00    -0.039 A 
ATOM     31  H   LIG d   1       2.746   1.354  -6.011  0.00  0.00     0.034 H 
ATOM     32  H   LIG d   1       1.928  -0.185  -5.658  0.00  0.00     0.034 H 
ATOM     33  C   LIG d   1       4.600  -0.625  -4.123  0.00  0.00    -0.005 A 
ATOM     34  C   LIG d   1       3.150   1.126  -3.380  0.00  0.00    -0.058 A 
ATOM     35  C   LIG d   1       5.197  -0.650  -2.873  0.00  0.00    -0.055 A 
ATOM     36  C   LIG d   1       4.773   0.211  -1.881  0.00  0.00    -0.061 A 
ATOM     37  H   LIG d   1       5.999  -1.346  -2.674  0.00  0.00     0.062 H 
ATOM     38  C   LIG d   1       3.747   1.103  -2.135  0.00  0.00    -0.061 A 
ATOM     39  H   LIG d   1       5.241   0.189  -0.908  0.00  0.00     0.062 H 
ATOM     40  H   LIG d   1       3.414   1.779  -1.361  0.00  0.00     0.062 H 
ATOM     41  H   LIG d   1       2.348   1.824  -3.578  0.00  0.00     0.062 H 
ENDBRANCH   1  23
TORSDOF 8
ENDMDL
MODEL 10
REMARK VINA RESULT:      -4.9      4.901      6.943
REMARK  8 active torsions:
REMARK  status: ('A' for Active; 'I' for Inactive)
REMARK    1  A    between atoms: C_1  and  N_2 
REMARK    2  A    between atoms: N_2  and  C_3 
REMARK    3  A    between atoms: N_2  and  C_4 
REMARK    4  A    between atoms: N_2  and  C_5 
REMARK    5  A    between atoms: C_5  and  C_6 
REMARK    6  A    between atoms: C_6  and  O_7 
REMARK    7  A    between atoms: O_7  and  C_8 
REMARK    8  A    between atoms: C_8  and  C_10 
ROOT
ATOM      1  C   LIG d   1       6.896  -2.443  -4.935  0.00  0.00     0.341 C 
ATOM      2  O   LIG d   1       6.087  -2.217  -5.803  0.00  0.00    -0.247 OA
ENDROOT
BRANCH   1   3
ATOM      3  O   LIG d   1       7.332  -3.696  -4.733  0.00  0.00    -0.457 OA
BRANCH   3   4
ATOM      4  C   LIG d   1       8.573  -3.852  -3.995  0.00  0.00     0.132 C 
ATOM      5  H   LIG d   1       9.366  -3.296  -4.495  0.00  0.00     0.075 H 
ATOM      6  H   LIG d   1       8.443  -3.468  -2.982  0.00  0.00     0.075 H 
BRANCH   4   7
ATOM      7  C   LIG d   1       8.948  -5.334  -3.934  0.00  0.00     0.004 C 
ATOM      8  H   LIG d   1       8.129  -5.898  -3.487  0.00  0.00     0.085 H 
ATOM      9  H   LIG d   1       9.135  -5.703  -4.943  0.00  0.00     0.085 H 
BRANCH   7  10
ATOM     10  N   LIG d   1      10.158  -5.500  -3.119  0.00  0.00     0.239 N 
BRANCH  10  11
ATOM     11  C   LIG d   1      11.049  -6.479  -3.757  0.00  0.00    -0.042 C 
ATOM     12  H   LIG d   1      10.683  -6.704  -4.758  0.00  0.00     0.078 H 
ATOM     13  H   LIG d   1      12.056  -6.065  -3.823  0.00  0.00     0.078 H 
ATOM     14  H   LIG d   1      11.070  -7.392  -3.163  0.00  0.00     0.078 H 
ENDBRANCH  10  11
BRANCH  10  15
ATOM     15  C   LIG d   1      10.852  -4.210  -3.003  0.00  0.00    -0.042 C 
ATOM     16  H   LIG d   1      10.372  -3.481  -3.657  0.00  0.00     0.078 H 
ATOM     17  H   LIG d   1      10.801  -3.862  -1.971  0.00  0.00     0.078 H 
ATOM     18  H   LIG d   1      11.894  -4.330  -3.296  0.00  0.00     0.078 H 
ENDBRANCH  10  15
BRANCH  10  19
ATOM     19  C   LIG d   1       9.785  -5.977  -1.780  0.00  0.00    -0.042 C 
ATOM     20  H   LIG d   1       8.879  -6.580  -1.849  0.00  0.00     0.078 H 
ATOM     21  H   LIG d   1      10.594  -6.583  -1.372  0.00  0.00     0.078 H 
ATOM     22  H   LIG d   1       9.605  -5.123  -1.127  0.00  0.00     0.078 H 
ENDBRANCH  10  19
ENDBRANCH   7  10
ENDBRANCH   4   7
ENDBRANCH   3   4
ENDBRANCH   1   3
BRANCH   1  23
ATOM     23  C   LIG d   1       7.419  -1.317  -4.080  0.00  0.00     0.180 C 
ATOM     24  H   LIG d   1       8.164  -1.706  -3.386  0.00  0.00     0.076 H 
ATOM     25  O   LIG d   1       8.025  -0.332  -4.916  0.00  0.00    -0.360 OA
ATOM     26  C   LIG d   1       8.388   0.860  -4.209  0.00  0.00     0.053 C 
ATOM     27  C   LIG d   1       7.107   1.606  -3.827  0.00  0.00    -0.004 C 
ATOM     28  H   LIG d   1       9.003   1.493  -4.848  0.00  0.00     0.056 H 
ATOM     29  H   LIG d   1       8.941   0.597  -3.307  0.00  0.00     0.056 H 
ATOM     30  C   LIG d   1       6.137   0.653  -3.178  0.00  0.00    -0.039 A 
ATOM     31  H   LIG d   1       7.350   2.408  -3.130  0.00  0.00     0.034 H 
ATOM     32  H   LIG d   1       6.655   2.030  -4.723  0.00  0.00     0.034 H 
ATOM     33  C   LIG d   1       6.279  -0.713  -3.301  0.00  0.00    -0.005 A 
ATOM     34  C   LIG d   1       5.082   1.173  -2.444  0.00  0.00    -0.058 A 
ATOM     35  C   LIG d   1       5.364  -1.559  -2.696  0.00  0.00    -0.055 A 
ATOM     36  C   LIG d   1       4.313  -1.040  -1.967  0.00  0.00    -0.061 A 
ATOM     37  H   LIG d   1       5.473  -2.629  -2.795  0.00  0.00     0.062 H 
ATOM     38  C   LIG d   1       4.171   0.329  -1.839  0.00  0.00    -0.061 A 
ATOM     39  H   LIG d   1       3.602  -1.703  -1.496  0.00  0.00     0.062 H 
ATOM     40  H   LIG d   1       3.351   0.738  -1.267  0.00  0.00     0.062 H 
ATOM     41  H   LIG d   1       4.972   2.243  -2.344  0.00  0.00     0.062 H 
ENDBRANCH   1  23
TORSDOF 8
ENDMDL
