MODEL 1
REMARK VINA RESULT:      -7.4      0.000      0.000
REMARK  10 active torsions:
REMARK  status: ('A' for Active; 'I' for Inactive)
REMARK    1  A    between atoms: C_1  and  N_2 
REMARK    2  A    between atoms: C_4  and  C_11 
REMARK    3  A    between atoms: C_12  and  C_13 
REMARK    4  A    between atoms: C_12  and  N_28 
REMARK       I    between atoms: C_13  and  N_15 
REMARK    5  A    between atoms: N_15  and  C_16 
REMARK    6  A    between atoms: C_16  and  C_17 
REMARK    7  A    between atoms: C_17  and  C_18 
REMARK       I    between atoms: N_28  and  C_29 
REMARK    8  A    between atoms: C_29  and  C_31 
REMARK    9  A    between atoms: C_34  and  O_37 
REMARK   10  A    between atoms: O_37  and  C_38 
ROOT
ATOM      1  C   LIG d   1       7.384   1.710  -7.939  0.00  0.00    -0.026 C 
ATOM      2  C   LIG d   1       8.265   1.345  -6.974  0.00  0.00     0.097 C 
ATOM      3  H   LIG d   1       7.137   2.752  -8.081  0.00  0.00     0.064 H 
ENDROOT
BRANCH   2   4
ATOM      4  C   LIG d   1       8.499  -0.072  -6.692  0.00  0.00     0.258 C 
ATOM      5  O   LIG d   1       9.345  -0.686  -7.316  0.00  0.00    -0.269 OA
ATOM      6  N   LIG d   1       7.776  -0.698  -5.742  0.00  0.00    -0.310 N 
ATOM      7  H   LIG d   1       7.051  -0.231  -5.297  0.00  0.00     0.149 HD
BRANCH   6   8
ATOM      8  C   LIG d   1       8.084  -2.083  -5.380  0.00  0.00     0.016 C 
ATOM      9  H   LIG d   1       7.616  -2.758  -6.098  0.00  0.00     0.046 H 
ATOM     10  H   LIG d   1       9.164  -2.231  -5.393  0.00  0.00     0.046 H 
BRANCH   8  11
ATOM     11  C   LIG d   1       7.546  -2.377  -3.979  0.00  0.00    -0.010 C 
ATOM     12  H   LIG d   1       7.831  -3.387  -3.685  0.00  0.00     0.033 H 
ATOM     13  H   LIG d   1       7.964  -1.661  -3.271  0.00  0.00     0.033 H 
BRANCH  11  14
ATOM     14  C   LIG d   1       6.043  -2.259  -3.983  0.00  0.00    -0.021 A 
ATOM     15  C   LIG d   1       5.252  -1.187  -3.372  0.00  0.00     0.003 A 
ATOM     16  C   LIG d   1       3.905  -1.503  -3.631  0.00  0.00     0.047 A 
ATOM     17  C   LIG d   1       5.571  -0.034  -2.653  0.00  0.00    -0.052 A 
ATOM     18  N   LIG d   1       3.895  -2.680  -4.347  0.00  0.00    -0.360 N 
ATOM     19  C   LIG d   1       2.905  -0.656  -3.166  0.00  0.00    -0.038 A 
ATOM     20  C   LIG d   1       5.177  -3.111  -4.551  0.00  0.00     0.006 A 
ATOM     21  H   LIG d   1       3.096  -3.132  -4.664  0.00  0.00     0.165 HD
ATOM     22  H   LIG d   1       5.451  -4.008  -5.088  0.00  0.00     0.081 H 
ATOM     23  C   LIG d   1       3.243   0.478  -2.459  0.00  0.00    -0.060 A 
ATOM     24  H   LIG d   1       1.868  -0.886  -3.358  0.00  0.00     0.064 H 
ATOM     25  C   LIG d   1       4.572   0.784  -2.206  0.00  0.00    -0.061 A 
ATOM     26  H   LIG d   1       2.465   1.134  -2.099  0.00  0.00     0.062 H 
ATOM     27  H   LIG d   1       4.820   1.676  -1.649  0.00  0.00     0.062 H 
ATOM     28  H   LIG d   1       6.604   0.211  -2.452  0.00  0.00     0.062 H 
ENDBRANCH  11  14
ENDBRANCH   8  11
ENDBRANCH   6   8
ENDBRANCH   2   4
BRANCH   2  29
ATOM     29  N   LIG d   1       8.954   2.327  -6.246  0.00  0.00    -0.277 N 
ATOM     30  C   LIG d   1       8.526   2.681  -5.019  0.00  0.00     0.248 C 
ATOM     31  O   LIG d   1       7.488   2.222  -4.582  0.00  0.00    -0.270 OA
ATOM     32  H   LIG d   1       9.739   2.752  -6.627  0.00  0.00     0.155 HD
BRANCH  30  33
ATOM     33  C   LIG d   1       9.315   3.625  -4.205  0.00  0.00     0.037 A 
ATOM     34  C   LIG d   1       9.367   4.978  -4.554  0.00  0.00    -0.046 A 
ATOM     35  C   LIG d   1      10.104   5.856  -3.793  0.00  0.00    -0.019 A 
ATOM     36  H   LIG d   1       8.829   5.332  -5.421  0.00  0.00     0.063 H 
ATOM     37  C   LIG d   1      10.797   5.399  -2.677  0.00  0.00     0.120 A 
ATOM     38  H   LIG d   1      10.145   6.901  -4.062  0.00  0.00     0.065 H 
ATOM     39  C   LIG d   1      10.748   4.055  -2.327  0.00  0.00    -0.019 A 
ATOM     40  C   LIG d   1      10.012   3.170  -3.083  0.00  0.00    -0.046 A 
ATOM     41  H   LIG d   1      11.283   3.705  -1.456  0.00  0.00     0.065 H 
ATOM     42  H   LIG d   1       9.976   2.126  -2.809  0.00  0.00     0.063 H 
BRANCH  37  43
ATOM     43  O   LIG d   1      11.522   6.268  -1.929  0.00  0.00    -0.495 OA
BRANCH  43  44
ATOM     44  C   LIG d   1      10.835   6.953  -0.880  0.00  0.00     0.079 C 
ATOM     45  H   LIG d   1       9.767   6.749  -0.952  0.00  0.00     0.066 H 
ATOM     46  H   LIG d   1      11.206   6.608   0.085  0.00  0.00     0.066 H 
ATOM     47  H   LIG d   1      11.006   8.025  -0.974  0.00  0.00     0.066 H 
ENDBRANCH  43  44
ENDBRANCH  37  43
ENDBRANCH  30  33
ENDBRANCH   2  29
BRANCH   1  48
ATOM     48  C   LIG d   1       6.767   0.689  -8.791  0.00  0.00     0.002 A 
ATOM     49  C   LIG d   1       7.218   0.256 -10.004  0.00  0.00     0.013 A 
ATOM     50  N   LIG d   1       6.382  -0.700 -10.489  0.00  0.00    -0.349 N 
ATOM     51  H   LIG d   1       8.105   0.617 -10.503  0.00  0.00     0.082 H 
ATOM     52  C   LIG d   1       5.347  -0.927  -9.604  0.00  0.00     0.049 A 
ATOM     53  C   LIG d   1       5.540  -0.078  -8.502  0.00  0.00     0.007 A 
ATOM     54  C   LIG d   1       4.251  -1.783  -9.621  0.00  0.00    -0.038 A 
ATOM     55  C   LIG d   1       4.634  -0.089  -7.445  0.00  0.00    -0.052 A 
ATOM     56  C   LIG d   1       3.553  -0.944  -7.482  0.00  0.00    -0.061 A 
ATOM     57  H   LIG d   1       4.779   0.567  -6.599  0.00  0.00     0.062 H 
ATOM     58  C   LIG d   1       3.365  -1.787  -8.567  0.00  0.00    -0.060 A 
ATOM     59  H   LIG d   1       2.851  -0.957  -6.661  0.00  0.00     0.062 H 
ATOM     60  H   LIG d   1       2.516  -2.453  -8.585  0.00  0.00     0.062 H 
ATOM     61  H   LIG d   1       4.095  -2.443 -10.462  0.00  0.00     0.064 H 
BRANCH  50  62
ATOM     62  C   LIG d   1       6.554  -1.391 -11.769  0.00  0.00     0.012 C 
ATOM     63  H   LIG d   1       6.571  -0.661 -12.577  0.00  0.00     0.046 H 
ATOM     64  H   LIG d   1       7.495  -1.943 -11.759  0.00  0.00     0.046 H 
ATOM     65  H   LIG d   1       5.727  -2.084 -11.922  0.00  0.00     0.046 H 
ENDBRANCH  50  62
ENDBRANCH   1  48
TORSDOF 10
ENDMDL
MODEL 2
REMARK VINA RESULT:      -7.1      5.510     10.452
REMARK  10 active torsions:
REMARK  status: ('A' for Active; 'I' for Inactive)
REMARK    1  A    between atoms: C_1  and  N_2 
REMARK    2  A    between atoms: C_4  and  C_11 
REMARK    3  A    between atoms: C_12  and  C_13 
REMARK    4  A    between atoms: C_12  and  N_28 
REMARK       I    between atoms: C_13  and  N_15 
REMARK    5  A    between atoms: N_15  and  C_16 
REMARK    6  A    between atoms: C_16  and  C_17 
REMARK    7  A    between atoms: C_17  and  C_18 
REMARK       I    between atoms: N_28  and  C_29 
REMARK    8  A    between atoms: C_29  and  C_31 
REMARK    9  A    between atoms: C_34  and  O_37 
REMARK   10  A    between atoms: O_37  and  C_38 
ROOT
ATOM      1  C   LIG d   1       1.700  -1.870 -10.989  0.00  0.00    -0.026 C 
ATOM      2  C   LIG d   1       1.553  -3.015 -10.275  0.00  0.00     0.097 C 
ATOM      3  H   LIG d   1       0.893  -1.515 -11.612  0.00  0.00     0.064 H 
ENDROOT
BRANCH   2   4
ATOM      4  C   LIG d   1       2.689  -3.569  -9.536  0.00  0.00     0.258 C 
ATOM      5  O   LIG d   1       3.323  -4.499 -10.001  0.00  0.00    -0.269 OA
ATOM      6  N   LIG d   1       3.032  -3.051  -8.340  0.00  0.00    -0.310 N 
ATOM      7  H   LIG d   1       2.482  -2.362  -7.934  0.00  0.00     0.149 HD
BRANCH   6   8
ATOM      8  C   LIG d   1       4.233  -3.528  -7.652  0.00  0.00     0.016 C 
ATOM      9  H   LIG d   1       3.950  -3.993  -6.708  0.00  0.00     0.046 H 
ATOM     10  H   LIG d   1       4.745  -4.260  -8.278  0.00  0.00     0.046 H 
BRANCH   8  11
ATOM     11  C   LIG d   1       5.168  -2.348  -7.380  0.00  0.00    -0.010 C 
ATOM     12  H   LIG d   1       6.104  -2.716  -6.958  0.00  0.00     0.033 H 
ATOM     13  H   LIG d   1       5.371  -1.822  -8.313  0.00  0.00     0.033 H 
BRANCH  11  14
ATOM     14  C   LIG d   1       4.514  -1.404  -6.404  0.00  0.00    -0.021 A 
ATOM     15  C   LIG d   1       4.299  -1.641  -4.973  0.00  0.00     0.003 A 
ATOM     16  C   LIG d   1       3.660  -0.488  -4.480  0.00  0.00     0.047 A 
ATOM     17  C   LIG d   1       4.588  -2.700  -4.111  0.00  0.00    -0.052 A 
ATOM     18  N   LIG d   1       3.505   0.375  -5.543  0.00  0.00    -0.360 N 
ATOM     19  C   LIG d   1       3.324  -0.419  -3.133  0.00  0.00    -0.038 A 
ATOM     20  C   LIG d   1       4.024  -0.185  -6.677  0.00  0.00     0.006 A 
ATOM     21  H   LIG d   1       3.093   1.252  -5.491  0.00  0.00     0.165 HD
ATOM     22  H   LIG d   1       4.035   0.283  -7.651  0.00  0.00     0.081 H 
ATOM     23  C   LIG d   1       3.618  -1.477  -2.299  0.00  0.00    -0.060 A 
ATOM     24  H   LIG d   1       2.832   0.459  -2.741  0.00  0.00     0.064 H 
ATOM     25  C   LIG d   1       4.249  -2.610  -2.790  0.00  0.00    -0.061 A 
ATOM     26  H   LIG d   1       3.356  -1.421  -1.253  0.00  0.00     0.062 H 
ATOM     27  H   LIG d   1       4.472  -3.431  -2.123  0.00  0.00     0.062 H 
ATOM     28  H   LIG d   1       5.079  -3.586  -4.486  0.00  0.00     0.062 H 
ENDBRANCH  11  14
ENDBRANCH   8  11
ENDBRANCH   6   8
ENDBRANCH   2   4
BRANCH   2  29
ATOM     29  N   LIG d   1       0.312  -3.667 -10.243  0.00  0.00    -0.277 N 
ATOM     30  C   LIG d   1      -0.001  -4.569 -11.194  0.00  0.00     0.248 C 
ATOM     31  O   LIG d   1       0.751  -4.746 -12.134  0.00  0.00    -0.270 OA
ATOM     32  H   LIG d   1      -0.323  -3.469  -9.537  0.00  0.00     0.155 HD
BRANCH  30  33
ATOM     33  C   LIG d   1      -1.254  -5.341 -11.097  0.00  0.00     0.037 A 
ATOM     34  C   LIG d   1      -2.006  -5.312  -9.919  0.00  0.00    -0.046 A 
ATOM     35  C   LIG d   1      -3.175  -6.033  -9.831  0.00  0.00    -0.019 A 
ATOM     36  H   LIG d   1      -1.669  -4.723  -9.079  0.00  0.00     0.063 H 
ATOM     37  C   LIG d   1      -3.607  -6.792 -10.913  0.00  0.00     0.120 A 
ATOM     38  H   LIG d   1      -3.755  -6.011  -8.921  0.00  0.00     0.065 H 
ATOM     39  C   LIG d   1      -2.863  -6.824 -12.086  0.00  0.00    -0.019 A 
ATOM     40  C   LIG d   1      -1.693  -6.104 -12.182  0.00  0.00    -0.046 A 
ATOM     41  H   LIG d   1      -3.206  -7.410 -12.926  0.00  0.00     0.065 H 
ATOM     42  H   LIG d   1      -1.116  -6.131 -13.094  0.00  0.00     0.063 H 
BRANCH  37  43
ATOM     43  O   LIG d   1      -4.761  -7.501 -10.823  0.00  0.00    -0.495 OA
BRANCH  43  44
ATOM     44  C   LIG d   1      -5.832  -7.113 -11.686  0.00  0.00     0.079 C 
ATOM     45  H   LIG d   1      -5.447  -6.464 -12.472  0.00  0.00     0.066 H 
ATOM     46  H   LIG d   1      -6.278  -8.001 -12.133  0.00  0.00     0.066 H 
ATOM     47  H   LIG d   1      -6.586  -6.578 -11.110  0.00  0.00     0.066 H 
ENDBRANCH  43  44
ENDBRANCH  37  43
ENDBRANCH  30  33
ENDBRANCH   2  29
BRANCH   1  48
ATOM     48  C   LIG d   1       2.954  -1.116 -10.913  0.00  0.00     0.002 A 
ATOM     49  C   LIG d   1       4.152  -1.465 -11.466  0.00  0.00     0.013 A 
ATOM     50  N   LIG d   1       5.082  -0.516 -11.182  0.00  0.00    -0.349 N 
ATOM     51  H   LIG d   1       4.334  -2.361 -12.042  0.00  0.00     0.082 H 
ATOM     52  C   LIG d   1       4.522   0.495 -10.429  0.00  0.00     0.049 A 
ATOM     53  C   LIG d   1       3.169   0.173 -10.229  0.00  0.00     0.007 A 
ATOM     54  C   LIG d   1       5.028   1.673  -9.889  0.00  0.00    -0.038 A 
ATOM     55  C   LIG d   1       2.351   1.022  -9.489  0.00  0.00    -0.052 A 
ATOM     56  C   LIG d   1       2.872   2.184  -8.962  0.00  0.00    -0.061 A 
ATOM     57  H   LIG d   1       1.312   0.774  -9.331  0.00  0.00     0.062 H 
ATOM     58  C   LIG d   1       4.207   2.506  -9.163  0.00  0.00    -0.060 A 
ATOM     59  H   LIG d   1       2.239   2.847  -8.391  0.00  0.00     0.062 H 
ATOM     60  H   LIG d   1       4.605   3.420  -8.747  0.00  0.00     0.062 H 
ATOM     61  H   LIG d   1       6.066   1.933 -10.040  0.00  0.00     0.064 H 
BRANCH  50  62
ATOM     62  C   LIG d   1       6.481  -0.559 -11.616  0.00  0.00     0.012 C 
ATOM     63  H   LIG d   1       6.762  -1.588 -11.836  0.00  0.00     0.046 H 
ATOM     64  H   LIG d   1       6.601   0.050 -12.513  0.00  0.00     0.046 H 
ATOM     65  H   LIG d   1       7.119  -0.168 -10.823  0.00  0.00     0.046 H 
ENDBRANCH  50  62
ENDBRANCH   1  48
TORSDOF 10
ENDMDL
MODEL 3
REMARK VINA RESULT:      -7.0      1.684      2.408
REMARK  10 active torsions:
REMARK  status: ('A' for Active; 'I' for Inactive)
REMARK    1  A    between atoms: C_1  and  N_2 
REMARK    2  A    between atoms: C_4  and  C_11 
REMARK    3  A    between atoms: C_12  and  C_13 
REMARK    4  A    between atoms: C_12  and  N_28 
REMARK       I    between atoms: C_13  and  N_15 
REMARK    5  A    between atoms: N_15  and  C_16 
REMARK    6  A    between atoms: C_16  and  C_17 
REMARK    7  A    between atoms: C_17  and  C_18 
REMARK       I    between atoms: N_28  and  C_29 
REMARK    8  A    between atoms: C_29  and  C_31 
REMARK    9  A    between atoms: C_34  and  O_37 
REMARK   10  A    between atoms: O_37  and  C_38 
ROOT
ATOM      1  C   LIG d   1       5.685   1.062  -8.690  0.00  0.00    -0.026 C 
ATOM      2  C   LIG d   1       6.198   0.398  -7.623  0.00  0.00     0.097 C 
ATOM      3  H   LIG d   1       5.669   2.142  -8.698  0.00  0.00     0.064 H 
ENDROOT
BRANCH   2   4
ATOM      4  C   LIG d   1       6.099  -1.061  -7.552  0.00  0.00     0.258 C 
ATOM      5  O   LIG d   1       6.909  -1.756  -8.138  0.00  0.00    -0.269 OA
ATOM      6  N   LIG d   1       5.111  -1.634  -6.837  0.00  0.00    -0.310 N 
ATOM      7  H   LIG d   1       4.422  -1.084  -6.432  0.00  0.00     0.149 HD
BRANCH   6   8
ATOM      8  C   LIG d   1       5.076  -3.089  -6.671  0.00  0.00     0.016 C 
ATOM      9  H   LIG d   1       4.243  -3.499  -7.242  0.00  0.00     0.046 H 
ATOM     10  H   LIG d   1       6.010  -3.519  -7.032  0.00  0.00     0.046 H 
BRANCH   8  11
ATOM     11  C   LIG d   1       4.896  -3.430  -5.191  0.00  0.00    -0.010 C 
ATOM     12  H   LIG d   1       3.834  -3.529  -4.967  0.00  0.00     0.033 H 
ATOM     13  H   LIG d   1       5.404  -4.369  -4.970  0.00  0.00     0.033 H 
BRANCH  11  14
ATOM     14  C   LIG d   1       5.487  -2.330  -4.347  0.00  0.00    -0.021 A 
ATOM     15  C   LIG d   1       4.747  -1.273  -3.651  0.00  0.00     0.003 A 
ATOM     16  C   LIG d   1       5.714  -0.486  -2.998  0.00  0.00     0.047 A 
ATOM     17  C   LIG d   1       3.394  -0.947  -3.540  0.00  0.00    -0.052 A 
ATOM     18  N   LIG d   1       6.945  -1.037  -3.284  0.00  0.00    -0.360 N 
ATOM     19  C   LIG d   1       5.307   0.610  -2.246  0.00  0.00    -0.038 A 
ATOM     20  C   LIG d   1       6.788  -2.136  -4.083  0.00  0.00     0.006 A 
ATOM     21  H   LIG d   1       7.795  -0.697  -2.962  0.00  0.00     0.165 HD
ATOM     22  H   LIG d   1       7.594  -2.755  -4.450  0.00  0.00     0.081 H 
ATOM     23  C   LIG d   1       3.966   0.913  -2.149  0.00  0.00    -0.060 A 
ATOM     24  H   LIG d   1       6.038   1.222  -1.740  0.00  0.00     0.064 H 
ATOM     25  C   LIG d   1       3.016   0.134  -2.795  0.00  0.00    -0.061 A 
ATOM     26  H   LIG d   1       3.652   1.764  -1.565  0.00  0.00     0.062 H 
ATOM     27  H   LIG d   1       1.969   0.386  -2.710  0.00  0.00     0.062 H 
ATOM     28  H   LIG d   1       2.650  -1.549  -4.039  0.00  0.00     0.062 H 
ENDBRANCH  11  14
ENDBRANCH   8  11
ENDBRANCH   6   8
ENDBRANCH   2   4
BRANCH   2  29
ATOM     29  N   LIG d   1       6.824   1.110  -6.590  0.00  0.00    -0.277 N 
ATOM     30  C   LIG d   1       8.115   1.476  -6.709  0.00  0.00     0.248 C 
ATOM     31  O   LIG d   1       8.766   1.107  -7.668  0.00  0.00    -0.270 OA
ATOM     32  H   LIG d   1       6.328   1.338  -5.788  0.00  0.00     0.155 HD
BRANCH  30  33
ATOM     33  C   LIG d   1       8.740   2.327  -5.678  0.00  0.00     0.037 A 
ATOM     34  C   LIG d   1       9.453   3.470  -6.050  0.00  0.00    -0.046 A 
ATOM     35  C   LIG d   1      10.034   4.261  -5.086  0.00  0.00    -0.019 A 
ATOM     36  H   LIG d   1       9.546   3.732  -7.094  0.00  0.00     0.063 H 
ATOM     37  C   LIG d   1       9.914   3.923  -3.742  0.00  0.00     0.120 A 
ATOM     38  H   LIG d   1      10.585   5.145  -5.373  0.00  0.00     0.065 H 
ATOM     39  C   LIG d   1       9.207   2.787  -3.368  0.00  0.00    -0.019 A 
ATOM     40  C   LIG d   1       8.622   1.991  -4.327  0.00  0.00    -0.046 A 
ATOM     41  H   LIG d   1       9.112   2.532  -2.323  0.00  0.00     0.065 H 
ATOM     42  H   LIG d   1       8.073   1.108  -4.034  0.00  0.00     0.063 H 
BRANCH  37  43
ATOM     43  O   LIG d   1      10.489   4.706  -2.795  0.00  0.00    -0.495 OA
BRANCH  43  44
ATOM     44  C   LIG d   1       9.837   5.941  -2.488  0.00  0.00     0.079 C 
ATOM     45  H   LIG d   1       9.812   6.079  -1.408  0.00  0.00     0.066 H 
ATOM     46  H   LIG d   1      10.383   6.764  -2.948  0.00  0.00     0.066 H 
ATOM     47  H   LIG d   1       8.818   5.919  -2.875  0.00  0.00     0.066 H 
ENDBRANCH  43  44
ENDBRANCH  37  43
ENDBRANCH  30  33
ENDBRANCH   2  29
BRANCH   1  48
ATOM     48  C   LIG d   1       5.154   0.313  -9.832  0.00  0.00     0.002 A 
ATOM     49  C   LIG d   1       5.856  -0.132 -10.915  0.00  0.00     0.013 A 
ATOM     50  N   LIG d   1       5.021  -0.787 -11.764  0.00  0.00    -0.349 N 
ATOM     51  H   LIG d   1       6.914   0.013 -11.073  0.00  0.00     0.082 H 
ATOM     52  C   LIG d   1       3.734  -0.793 -11.264  0.00  0.00     0.049 A 
ATOM     53  C   LIG d   1       3.756  -0.113 -10.035  0.00  0.00     0.007 A 
ATOM     54  C   LIG d   1       2.534  -1.317 -11.732  0.00  0.00    -0.038 A 
ATOM     55  C   LIG d   1       2.583   0.041  -9.302  0.00  0.00    -0.052 A 
ATOM     56  C   LIG d   1       1.403  -0.485  -9.783  0.00  0.00    -0.061 A 
ATOM     57  H   LIG d   1       2.598   0.567  -8.359  0.00  0.00     0.062 H 
ATOM     58  C   LIG d   1       1.381  -1.161 -10.994  0.00  0.00    -0.060 A 
ATOM     59  H   LIG d   1       0.492  -0.370  -9.214  0.00  0.00     0.062 H 
ATOM     60  H   LIG d   1       0.452  -1.570 -11.361  0.00  0.00     0.062 H 
ATOM     61  H   LIG d   1       2.506  -1.845 -12.674  0.00  0.00     0.064 H 
BRANCH  50  62
ATOM     62  C   LIG d   1       5.428  -1.400 -13.031  0.00  0.00     0.012 C 
ATOM     63  H   LIG d   1       5.921  -0.655 -13.654  0.00  0.00     0.046 H 
ATOM     64  H   LIG d   1       6.119  -2.220 -12.831  0.00  0.00     0.046 H 
ATOM     65  H   LIG d   1       4.549  -1.784 -13.548  0.00  0.00     0.046 H 
ENDBRANCH  50  62
ENDBRANCH   1  48
TORSDOF 10
ENDMDL
MODEL 4
REMARK VINA RESULT:      -6.9      4.060      9.515
REMARK  10 active torsions:
REMARK  status: ('A' for Active; 'I' for Inactive)
REMARK    1  A    between atoms: C_1  and  N_2 
REMARK    2  A    between atoms: C_4  and  C_11 
REMARK    3  A    between atoms: C_12  and  C_13 
REMARK    4  A    between atoms: C_12  and  N_28 
REMARK       I    between atoms: C_13  and  N_15 
REMARK    5  A    between atoms: N_15  and  C_16 
REMARK    6  A    between atoms: C_16  and  C_17 
REMARK    7  A    between atoms: C_17  and  C_18 
REMARK       I    between atoms: N_28  and  C_29 
REMARK    8  A    between atoms: C_29  and  C_31 
REMARK    9  A    between atoms: C_34  and  O_37 
REMARK   10  A    between atoms: O_37  and  C_38 
ROOT
ATOM      1  C   LIG d   1       6.151  -3.525  -4.189  0.00  0.00    -0.026 C 
ATOM      2  C   LIG d   1       5.863  -3.974  -5.437  0.00  0.00     0.097 C 
ATOM      3  H   LIG d   1       6.325  -4.227  -3.388  0.00  0.00     0.064 H 
ENDROOT
BRANCH   2   4
ATOM      4  C   LIG d   1       5.496  -3.028  -6.491  0.00  0.00     0.258 C 
ATOM      5  O   LIG d   1       6.350  -2.584  -7.237  0.00  0.00    -0.269 OA
ATOM      6  N   LIG d   1       4.211  -2.646  -6.636  0.00  0.00    -0.310 N 
ATOM      7  H   LIG d   1       3.542  -2.940  -5.997  0.00  0.00     0.149 HD
BRANCH   6   8
ATOM      8  C   LIG d   1       3.823  -1.788  -7.758  0.00  0.00     0.016 C 
ATOM      9  H   LIG d   1       4.647  -1.727  -8.469  0.00  0.00     0.046 H 
ATOM     10  H   LIG d   1       2.948  -2.210  -8.252  0.00  0.00     0.046 H 
BRANCH   8  11
ATOM     11  C   LIG d   1       3.491  -0.389  -7.239  0.00  0.00    -0.010 C 
ATOM     12  H   LIG d   1       2.416  -0.223  -7.303  0.00  0.00     0.033 H 
ATOM     13  H   LIG d   1       3.812  -0.300  -6.201  0.00  0.00     0.033 H 
BRANCH  11  14
ATOM     14  C   LIG d   1       4.208   0.640  -8.075  0.00  0.00    -0.021 A 
ATOM     15  C   LIG d   1       5.638   0.959  -8.029  0.00  0.00     0.003 A 
ATOM     16  C   LIG d   1       5.841   1.974  -8.982  0.00  0.00     0.047 A 
ATOM     17  C   LIG d   1       6.714   0.481  -7.280  0.00  0.00    -0.052 A 
ATOM     18  N   LIG d   1       4.618   2.241  -9.558  0.00  0.00    -0.360 N 
ATOM     19  C   LIG d   1       7.120   2.489  -9.167  0.00  0.00    -0.038 A 
ATOM     20  C   LIG d   1       3.660   1.433  -9.009  0.00  0.00     0.006 A 
ATOM     21  H   LIG d   1       4.462   2.900 -10.252  0.00  0.00     0.165 HD
ATOM     22  H   LIG d   1       2.615   1.436  -9.284  0.00  0.00     0.081 H 
ATOM     23  C   LIG d   1       8.168   2.002  -8.417  0.00  0.00    -0.060 A 
ATOM     24  H   LIG d   1       7.290   3.268  -9.895  0.00  0.00     0.064 H 
ATOM     25  C   LIG d   1       7.962   1.001  -7.478  0.00  0.00    -0.061 A 
ATOM     26  H   LIG d   1       9.160   2.403  -8.562  0.00  0.00     0.062 H 
ATOM     27  H   LIG d   1       8.795   0.631  -6.898  0.00  0.00     0.062 H 
ATOM     28  H   LIG d   1       6.562  -0.298  -6.548  0.00  0.00     0.062 H 
ENDBRANCH  11  14
ENDBRANCH   8  11
ENDBRANCH   6   8
ENDBRANCH   2   4
BRANCH   2  29
ATOM     29  N   LIG d   1       5.919  -5.348  -5.717  0.00  0.00    -0.277 N 
ATOM     30  C   LIG d   1       4.799  -6.094  -5.657  0.00  0.00     0.248 C 
ATOM     31  O   LIG d   1       3.759  -5.599  -5.267  0.00  0.00    -0.270 OA
ATOM     32  H   LIG d   1       6.765  -5.761  -5.953  0.00  0.00     0.155 HD
BRANCH  30  33
ATOM     33  C   LIG d   1       4.833  -7.512  -6.066  0.00  0.00     0.037 A 
ATOM     34  C   LIG d   1       4.716  -7.854  -7.416  0.00  0.00    -0.046 A 
ATOM     35  C   LIG d   1       4.748  -9.177  -7.794  0.00  0.00    -0.019 A 
ATOM     36  H   LIG d   1       4.600  -7.081  -8.161  0.00  0.00     0.063 H 
ATOM     37  C   LIG d   1       4.897 -10.172  -6.835  0.00  0.00     0.120 A 
ATOM     38  H   LIG d   1       4.657  -9.443  -8.837  0.00  0.00     0.065 H 
ATOM     39  C   LIG d   1       5.014  -9.836  -5.492  0.00  0.00    -0.019 A 
ATOM     40  C   LIG d   1       4.983  -8.515  -5.106  0.00  0.00    -0.046 A 
ATOM     41  H   LIG d   1       5.135 -10.612  -4.750  0.00  0.00     0.065 H 
ATOM     42  H   LIG d   1       5.074  -8.255  -4.061  0.00  0.00     0.063 H 
BRANCH  37  43
ATOM     43  O   LIG d   1       4.929 -11.476  -7.212  0.00  0.00    -0.495 OA
BRANCH  43  44
ATOM     44  C   LIG d   1       3.747 -12.008  -7.813  0.00  0.00     0.079 C 
ATOM     45  H   LIG d   1       3.706 -11.709  -8.861  0.00  0.00     0.066 H 
ATOM     46  H   LIG d   1       3.762 -13.095  -7.746  0.00  0.00     0.066 H 
ATOM     47  H   LIG d   1       2.870 -11.623  -7.292  0.00  0.00     0.066 H 
ENDBRANCH  43  44
ENDBRANCH  37  43
ENDBRANCH  30  33
ENDBRANCH   2  29
BRANCH   1  48
ATOM     48  C   LIG d   1       6.226  -2.084  -3.930  0.00  0.00     0.002 A 
ATOM     49  C   LIG d   1       7.314  -1.278  -4.104  0.00  0.00     0.013 A 
ATOM     50  N   LIG d   1       6.999  -0.002  -3.759  0.00  0.00    -0.349 N 
ATOM     51  H   LIG d   1       8.279  -1.605  -4.461  0.00  0.00     0.082 H 
ATOM     52  C   LIG d   1       5.684   0.073  -3.345  0.00  0.00     0.049 A 
ATOM     53  C   LIG d   1       5.138  -1.218  -3.437  0.00  0.00     0.007 A 
ATOM     54  C   LIG d   1       4.885   1.120  -2.898  0.00  0.00    -0.038 A 
ATOM     55  C   LIG d   1       3.814  -1.443  -3.073  0.00  0.00    -0.052 A 
ATOM     56  C   LIG d   1       3.038  -0.392  -2.632  0.00  0.00    -0.061 A 
ATOM     57  H   LIG d   1       3.394  -2.436  -3.139  0.00  0.00     0.062 H 
ATOM     58  C   LIG d   1       3.575   0.884  -2.546  0.00  0.00    -0.060 A 
ATOM     59  H   LIG d   1       2.009  -0.563  -2.353  0.00  0.00     0.062 H 
ATOM     60  H   LIG d   1       2.959   1.701  -2.201  0.00  0.00     0.062 H 
ATOM     61  H   LIG d   1       5.293   2.118  -2.828  0.00  0.00     0.064 H 
BRANCH  50  62
ATOM     62  C   LIG d   1       7.923   1.133  -3.818  0.00  0.00     0.012 C 
ATOM     63  H   LIG d   1       7.434   1.973  -4.310  0.00  0.00     0.046 H 
ATOM     64  H   LIG d   1       8.209   1.421  -2.807  0.00  0.00     0.046 H 
ATOM     65  H   LIG d   1       8.812   0.848  -4.381  0.00  0.00     0.046 H 
ENDBRANCH  50  62
ENDBRANCH   1  48
TORSDOF 10
ENDMDL
MODEL 5
REMARK VINA RESULT:      -6.8      3.474      8.010
REMARK  10 active torsions:
REMARK  status: ('A' for Active; 'I' for Inactive)
REMARK    1  A    between atoms: C_1  and  N_2 
REMARK    2  A    between atoms: C_4  and  C_11 
REMARK    3  A    between atoms: C_12  and  C_13 
REMARK    4  A    between atoms: C_12  and  N_28 
REMARK       I    between atoms: C_13  and  N_15 
REMARK    5  A    between atoms: N_15  and  C_16 
REMARK    6  A    between atoms: C_16  and  C_17 
REMARK    7  A    between atoms: C_17  and  C_18 
REMARK       I    between atoms: N_28  and  C_29 
REMARK    8  A    between atoms: C_29  and  C_31 
REMARK    9  A    between atoms: C_34  and  O_37 
REMARK   10  A    between atoms: O_37  and  C_38 
ROOT
ATOM      1  C   LIG d   1       6.327  -2.988  -4.579  0.00  0.00    -0.026 C 
ATOM      2  C   LIG d   1       7.653  -2.756  -4.750  0.00  0.00     0.097 C 
ATOM      3  H   LIG d   1       5.981  -3.975  -4.306  0.00  0.00     0.064 H 
ENDROOT
BRANCH   2   4
ATOM      4  C   LIG d   1       8.112  -1.459  -5.249  0.00  0.00     0.258 C 
ATOM      5  O   LIG d   1       8.184  -1.258  -6.447  0.00  0.00    -0.269 OA
ATOM      6  N   LIG d   1       8.456  -0.487  -4.380  0.00  0.00    -0.310 N 
ATOM      7  H   LIG d   1       8.471  -0.671  -3.428  0.00  0.00     0.149 HD
BRANCH   6   8
ATOM      8  C   LIG d   1       8.807   0.846  -4.874  0.00  0.00     0.016 C 
ATOM      9  H   LIG d   1       9.883   0.898  -5.044  0.00  0.00     0.046 H 
ATOM     10  H   LIG d   1       8.283   1.037  -5.811  0.00  0.00     0.046 H 
BRANCH   8  11
ATOM     11  C   LIG d   1       8.402   1.897  -3.839  0.00  0.00    -0.010 C 
ATOM     12  H   LIG d   1       7.592   2.506  -4.238  0.00  0.00     0.033 H 
ATOM     13  H   LIG d   1       8.069   1.400  -2.928  0.00  0.00     0.033 H 
BRANCH  11  14
ATOM     14  C   LIG d   1       9.586   2.777  -3.527  0.00  0.00    -0.021 A 
ATOM     15  C   LIG d   1       9.743   4.188  -3.893  0.00  0.00     0.003 A 
ATOM     16  C   LIG d   1      10.997   4.582  -3.392  0.00  0.00     0.047 A 
ATOM     17  C   LIG d   1       8.948   5.106  -4.581  0.00  0.00    -0.052 A 
ATOM     18  N   LIG d   1      11.549   3.483  -2.770  0.00  0.00    -0.360 N 
ATOM     19  C   LIG d   1      11.429   5.889  -3.589  0.00  0.00    -0.038 A 
ATOM     20  C   LIG d   1      10.691   2.421  -2.856  0.00  0.00     0.006 A 
ATOM     21  H   LIG d   1      12.415   3.468  -2.332  0.00  0.00     0.165 HD
ATOM     22  H   LIG d   1      10.879   1.439  -2.447  0.00  0.00     0.081 H 
ATOM     23  C   LIG d   1      10.628   6.779  -4.271  0.00  0.00    -0.060 A 
ATOM     24  H   LIG d   1      12.389   6.204  -3.210  0.00  0.00     0.064 H 
ATOM     25  C   LIG d   1       9.392   6.385  -4.763  0.00  0.00    -0.061 A 
ATOM     26  H   LIG d   1      10.966   7.793  -4.422  0.00  0.00     0.062 H 
ATOM     27  H   LIG d   1       8.777   7.095  -5.296  0.00  0.00     0.062 H 
ATOM     28  H   LIG d   1       7.984   4.806  -4.967  0.00  0.00     0.062 H 
ENDBRANCH  11  14
ENDBRANCH   8  11
ENDBRANCH   6   8
ENDBRANCH   2   4
BRANCH   2  29
ATOM     29  N   LIG d   1       8.585  -3.760  -4.447  0.00  0.00    -0.277 N 
ATOM     30  C   LIG d   1       9.062  -3.882  -3.193  0.00  0.00     0.248 C 
ATOM     31  O   LIG d   1       8.761  -3.061  -2.347  0.00  0.00    -0.270 OA
ATOM     32  H   LIG d   1       8.886  -4.368  -5.141  0.00  0.00     0.155 HD
BRANCH  30  33
ATOM     33  C   LIG d   1       9.949  -5.008  -2.846  0.00  0.00     0.037 A 
ATOM     34  C   LIG d   1       9.609  -5.871  -1.800  0.00  0.00    -0.046 A 
ATOM     35  C   LIG d   1      10.438  -6.921  -1.479  0.00  0.00    -0.019 A 
ATOM     36  H   LIG d   1       8.696  -5.713  -1.245  0.00  0.00     0.063 H 
ATOM     37  C   LIG d   1      11.613  -7.125  -2.193  0.00  0.00     0.120 A 
ATOM     38  H   LIG d   1      10.176  -7.588  -0.671  0.00  0.00     0.065 H 
ATOM     39  C   LIG d   1      11.955  -6.270  -3.234  0.00  0.00    -0.019 A 
ATOM     40  C   LIG d   1      11.130  -5.217  -3.561  0.00  0.00    -0.046 A 
ATOM     41  H   LIG d   1      12.866  -6.434  -3.789  0.00  0.00     0.065 H 
ATOM     42  H   LIG d   1      11.398  -4.553  -4.370  0.00  0.00     0.063 H 
BRANCH  37  43
ATOM     43  O   LIG d   1      12.428  -8.162  -1.873  0.00  0.00    -0.495 OA
BRANCH  43  44
ATOM     44  C   LIG d   1      11.946  -9.091  -0.900  0.00  0.00     0.079 C 
ATOM     45  H   LIG d   1      11.221  -9.759  -1.364  0.00  0.00     0.066 H 
ATOM     46  H   LIG d   1      12.779  -9.674  -0.509  0.00  0.00     0.066 H 
ATOM     47  H   LIG d   1      11.468  -8.547  -0.085  0.00  0.00     0.066 H 
ENDBRANCH  43  44
ENDBRANCH  37  43
ENDBRANCH  30  33
ENDBRANCH   2  29
BRANCH   1  48
ATOM     48  C   LIG d   1       5.364  -1.899  -4.763  0.00  0.00     0.002 A 
ATOM     49  C   LIG d   1       4.709  -1.574  -5.916  0.00  0.00     0.013 A 
ATOM     50  N   LIG d   1       3.898  -0.507  -5.697  0.00  0.00    -0.349 N 
ATOM     51  H   LIG d   1       4.820  -2.087  -6.860  0.00  0.00     0.082 H 
ATOM     52  C   LIG d   1       3.992  -0.093  -4.384  0.00  0.00     0.049 A 
ATOM     53  C   LIG d   1       4.905  -0.943  -3.738  0.00  0.00     0.007 A 
ATOM     54  C   LIG d   1       3.385   0.929  -3.662  0.00  0.00    -0.038 A 
ATOM     55  C   LIG d   1       5.203  -0.754  -2.391  0.00  0.00    -0.052 A 
ATOM     56  C   LIG d   1       4.591   0.265  -1.694  0.00  0.00    -0.061 A 
ATOM     57  H   LIG d   1       5.908  -1.404  -1.895  0.00  0.00     0.062 H 
ATOM     58  C   LIG d   1       3.685   1.102  -2.329  0.00  0.00    -0.060 A 
ATOM     59  H   LIG d   1       4.818   0.412  -0.648  0.00  0.00     0.062 H 
ATOM     60  H   LIG d   1       3.211   1.897  -1.772  0.00  0.00     0.062 H 
ATOM     61  H   LIG d   1       2.678   1.586  -4.147  0.00  0.00     0.064 H 
BRANCH  50  62
ATOM     62  C   LIG d   1       3.042   0.116  -6.710  0.00  0.00     0.012 C 
ATOM     63  H   LIG d   1       2.086   0.384  -6.264  0.00  0.00     0.046 H 
ATOM     64  H   LIG d   1       3.528   1.015  -7.093  0.00  0.00     0.046 H 
ATOM     65  H   LIG d   1       2.879  -0.585  -7.529  0.00  0.00     0.046 H 
ENDBRANCH  50  62
ENDBRANCH   1  48
TORSDOF 10
ENDMDL
MODEL 6
REMARK VINA RESULT:      -6.8      5.077     10.068
REMARK  10 active torsions:
REMARK  status: ('A' for Active; 'I' for Inactive)
REMARK    1  A    between atoms: C_1  and  N_2 
REMARK    2  A    between atoms: C_4  and  C_11 
REMARK    3  A    between atoms: C_12  and  C_13 
REMARK    4  A    between atoms: C_12  and  N_28 
REMARK       I    between atoms: C_13  and  N_15 
REMARK    5  A    between atoms: N_15  and  C_16 
REMARK    6  A    between atoms: C_16  and  C_17 
REMARK    7  A    between atoms: C_17  and  C_18 
REMARK       I    between atoms: N_28  and  C_29 
REMARK    8  A    between atoms: C_29  and  C_31 
REMARK    9  A    between atoms: C_34  and  O_37 
REMARK   10  A    between atoms: O_37  and  C_38 
ROOT
ATOM      1  C   LIG d   1       2.469  -2.540 -10.640  0.00  0.00    -0.026 C 
ATOM      2  C   LIG d   1       2.472  -3.602  -9.795  0.00  0.00     0.097 C 
ATOM      3  H   LIG d   1       1.666  -2.417 -11.352  0.00  0.00     0.064 H 
ENDROOT
BRANCH   2   4
ATOM      4  C   LIG d   1       3.623  -3.843  -8.925  0.00  0.00     0.258 C 
ATOM      5  O   LIG d   1       4.491  -4.627  -9.265  0.00  0.00    -0.269 OA
ATOM      6  N   LIG d   1       3.723  -3.198  -7.745  0.00  0.00    -0.310 N 
ATOM      7  H   LIG d   1       2.997  -2.632  -7.439  0.00  0.00     0.149 HD
BRANCH   6   8
ATOM      8  C   LIG d   1       4.926  -3.352  -6.925  0.00  0.00     0.016 C 
ATOM      9  H   LIG d   1       5.535  -4.163  -7.323  0.00  0.00     0.046 H 
ATOM     10  H   LIG d   1       5.500  -2.425  -6.943  0.00  0.00     0.046 H 
BRANCH   8  11
ATOM     11  C   LIG d   1       4.525  -3.675  -5.485  0.00  0.00    -0.010 C 
ATOM     12  H   LIG d   1       3.441  -3.606  -5.386  0.00  0.00     0.033 H 
ATOM     13  H   LIG d   1       4.848  -4.686  -5.235  0.00  0.00     0.033 H 
BRANCH  11  14
ATOM     14  C   LIG d   1       5.179  -2.693  -4.548  0.00  0.00    -0.021 A 
ATOM     15  C   LIG d   1       4.509  -1.629  -3.794  0.00  0.00     0.003 A 
ATOM     16  C   LIG d   1       5.518  -0.977  -3.063  0.00  0.00     0.047 A 
ATOM     17  C   LIG d   1       3.185  -1.198  -3.691  0.00  0.00    -0.052 A 
ATOM     18  N   LIG d   1       6.707  -1.607  -3.359  0.00  0.00    -0.360 N 
ATOM     19  C   LIG d   1       5.181   0.094  -2.241  0.00  0.00    -0.038 A 
ATOM     20  C   LIG d   1       6.483  -2.629  -4.241  0.00  0.00     0.006 A 
ATOM     21  H   LIG d   1       7.572  -1.365  -2.993  0.00  0.00     0.165 HD
ATOM     22  H   LIG d   1       7.246  -3.287  -4.633  0.00  0.00     0.081 H 
ATOM     23  C   LIG d   1       3.867   0.502  -2.154  0.00  0.00    -0.060 A 
ATOM     24  H   LIG d   1       5.945   0.604  -1.675  0.00  0.00     0.064 H 
ATOM     25  C   LIG d   1       2.876  -0.145  -2.878  0.00  0.00    -0.061 A 
ATOM     26  H   LIG d   1       3.608   1.333  -1.516  0.00  0.00     0.062 H 
ATOM     27  H   LIG d   1       1.851   0.188  -2.799  0.00  0.00     0.062 H 
ATOM     28  H   LIG d   1       2.408  -1.697  -4.251  0.00  0.00     0.062 H 
ENDBRANCH  11  14
ENDBRANCH   8  11
ENDBRANCH   6   8
ENDBRANCH   2   4
BRANCH   2  29
ATOM     29  N   LIG d   1       1.370  -4.469  -9.756  0.00  0.00    -0.277 N 
ATOM     30  C   LIG d   1       1.349  -5.569 -10.533  0.00  0.00     0.248 C 
ATOM     31  O   LIG d   1       2.239  -5.760 -11.339  0.00  0.00    -0.270 OA
ATOM     32  H   LIG d   1       0.621  -4.275  -9.169  0.00  0.00     0.155 HD
BRANCH  30  33
ATOM     33  C   LIG d   1       0.247  -6.542 -10.405  0.00  0.00     0.037 A 
ATOM     34  C   LIG d   1      -0.936  -6.180  -9.755  0.00  0.00    -0.046 A 
ATOM     35  C   LIG d   1      -1.962  -7.091  -9.639  0.00  0.00    -0.019 A 
ATOM     36  H   LIG d   1      -1.045  -5.187  -9.345  0.00  0.00     0.063 H 
ATOM     37  C   LIG d   1      -1.822  -8.369 -10.167  0.00  0.00     0.120 A 
ATOM     38  H   LIG d   1      -2.876  -6.812  -9.136  0.00  0.00     0.065 H 
ATOM     39  C   LIG d   1      -0.647  -8.733 -10.814  0.00  0.00    -0.019 A 
ATOM     40  C   LIG d   1       0.383  -7.828 -10.935  0.00  0.00    -0.046 A 
ATOM     41  H   LIG d   1      -0.544  -9.726 -11.227  0.00  0.00     0.065 H 
ATOM     42  H   LIG d   1       1.296  -8.113 -11.438  0.00  0.00     0.063 H 
BRANCH  37  43
ATOM     43  O   LIG d   1      -2.836  -9.264 -10.050  0.00  0.00    -0.495 OA
BRANCH  43  44
ATOM     44  C   LIG d   1      -2.538 -10.627 -10.357  0.00  0.00     0.079 C 
ATOM     45  H   LIG d   1      -1.837 -10.667 -11.190  0.00  0.00     0.066 H 
ATOM     46  H   LIG d   1      -2.095 -11.108  -9.486  0.00  0.00     0.066 H 
ATOM     47  H   LIG d   1      -3.457 -11.146 -10.631  0.00  0.00     0.066 H 
ENDBRANCH  43  44
ENDBRANCH  37  43
ENDBRANCH  30  33
ENDBRANCH   2  29
BRANCH   1  48
ATOM     48  C   LIG d   1       3.557  -1.559 -10.586  0.00  0.00     0.002 A 
ATOM     49  C   LIG d   1       4.826  -1.719 -11.061  0.00  0.00     0.013 A 
ATOM     50  N   LIG d   1       5.548  -0.591 -10.830  0.00  0.00    -0.349 N 
ATOM     51  H   LIG d   1       5.200  -2.608 -11.547  0.00  0.00     0.082 H 
ATOM     52  C   LIG d   1       4.771   0.354 -10.191  0.00  0.00     0.049 A 
ATOM     53  C   LIG d   1       3.493  -0.201 -10.014  0.00  0.00     0.007 A 
ATOM     54  C   LIG d   1       5.022   1.645  -9.741  0.00  0.00    -0.038 A 
ATOM     55  C   LIG d   1       2.494   0.536  -9.382  0.00  0.00    -0.052 A 
ATOM     56  C   LIG d   1       2.763   1.814  -8.943  0.00  0.00    -0.061 A 
ATOM     57  H   LIG d   1       1.512   0.109  -9.241  0.00  0.00     0.062 H 
ATOM     58  C   LIG d   1       4.023   2.365  -9.123  0.00  0.00    -0.060 A 
ATOM     59  H   LIG d   1       1.988   2.390  -8.457  0.00  0.00     0.062 H 
ATOM     60  H   LIG d   1       4.223   3.368  -8.776  0.00  0.00     0.062 H 
ATOM     61  H   LIG d   1       6.000   2.084  -9.876  0.00  0.00     0.064 H 
BRANCH  50  62
ATOM     62  C   LIG d   1       6.951  -0.404 -11.206  0.00  0.00     0.012 C 
ATOM     63  H   LIG d   1       7.084  -0.664 -12.255  0.00  0.00     0.046 H 
ATOM     64  H   LIG d   1       7.233   0.638 -11.051  0.00  0.00     0.046 H 
ATOM     65  H   LIG d   1       7.581  -1.046 -10.590  0.00  0.00     0.046 H 
ENDBRANCH  50  62
ENDBRANCH   1  48
TORSDOF 10
ENDMDL
MODEL 7
REMARK VINA RESULT:      -6.6      4.033      9.946
REMARK  10 active torsions:
REMARK  status: ('A' for Active; 'I' for Inactive)
REMARK    1  A    between atoms: C_1  and  N_2 
REMARK    2  A    between atoms: C_4  and  C_11 
REMARK    3  A    between atoms: C_12  and  C_13 
REMARK    4  A    between atoms: C_12  and  N_28 
REMARK       I    between atoms: C_13  and  N_15 
REMARK    5  A    between atoms: N_15  and  C_16 
REMARK    6  A    between atoms: C_16  and  C_17 
REMARK    7  A    between atoms: C_17  and  C_18 
REMARK       I    between atoms: N_28  and  C_29 
REMARK    8  A    between atoms: C_29  and  C_31 
REMARK    9  A    between atoms: C_34  and  O_37 
REMARK   10  A    between atoms: O_37  and  C_38 
ROOT
ATOM      1  C   LIG d   1       5.815  -2.758  -5.444  0.00  0.00    -0.026 C 
ATOM      2  C   LIG d   1       5.246  -2.776  -6.676  0.00  0.00     0.097 C 
ATOM      3  H   LIG d   1       6.109  -3.683  -4.970  0.00  0.00     0.064 H 
ENDROOT
BRANCH   2   4
ATOM      4  C   LIG d   1       4.726  -1.539  -7.262  0.00  0.00     0.258 C 
ATOM      5  O   LIG d   1       5.466  -0.804  -7.889  0.00  0.00    -0.269 OA
ATOM      6  N   LIG d   1       3.427  -1.215  -7.106  0.00  0.00    -0.310 N 
ATOM      7  H   LIG d   1       2.854  -1.761  -6.544  0.00  0.00     0.149 HD
BRANCH   6   8
ATOM      8  C   LIG d   1       2.879  -0.038  -7.784  0.00  0.00     0.016 C 
ATOM      9  H   LIG d   1       2.227   0.505  -7.100  0.00  0.00     0.046 H 
ATOM     10  H   LIG d   1       3.695   0.612  -8.101  0.00  0.00     0.046 H 
BRANCH   8  11
ATOM     11  C   LIG d   1       2.077  -0.482  -9.008  0.00  0.00    -0.010 C 
ATOM     12  H   LIG d   1       1.860  -1.547  -8.934  0.00  0.00     0.033 H 
ATOM     13  H   LIG d   1       1.143   0.078  -9.053  0.00  0.00     0.033 H 
BRANCH  11  14
ATOM     14  C   LIG d   1       2.879  -0.219 -10.257  0.00  0.00    -0.021 A 
ATOM     15  C   LIG d   1       2.782  -0.949 -11.525  0.00  0.00     0.003 A 
ATOM     16  C   LIG d   1       3.717  -0.351 -12.390  0.00  0.00     0.047 A 
ATOM     17  C   LIG d   1       2.006  -2.020 -11.971  0.00  0.00    -0.052 A 
ATOM     18  N   LIG d   1       4.328   0.664 -11.687  0.00  0.00    -0.360 N 
ATOM     19  C   LIG d   1       3.855  -0.838 -13.685  0.00  0.00    -0.038 A 
ATOM     20  C   LIG d   1       3.812   0.731 -10.422  0.00  0.00     0.006 A 
ATOM     21  H   LIG d   1       5.019   1.248 -12.040  0.00  0.00     0.165 HD
ATOM     22  H   LIG d   1       4.114   1.441  -9.667  0.00  0.00     0.081 H 
ATOM     23  C   LIG d   1       3.078  -1.896 -14.105  0.00  0.00    -0.060 A 
ATOM     24  H   LIG d   1       4.569  -0.389 -14.359  0.00  0.00     0.064 H 
ATOM     25  C   LIG d   1       2.158  -2.482 -13.248  0.00  0.00    -0.061 A 
ATOM     26  H   LIG d   1       3.187  -2.273 -15.111  0.00  0.00     0.062 H 
ATOM     27  H   LIG d   1       1.557  -3.311 -13.592  0.00  0.00     0.062 H 
ATOM     28  H   LIG d   1       1.287  -2.481 -11.309  0.00  0.00     0.062 H 
ENDBRANCH  11  14
ENDBRANCH   8  11
ENDBRANCH   6   8
ENDBRANCH   2   4
BRANCH   2  29
ATOM     29  N   LIG d   1       5.158  -3.980  -7.389  0.00  0.00    -0.277 N 
ATOM     30  C   LIG d   1       4.235  -4.900  -7.048  0.00  0.00     0.248 C 
ATOM     31  O   LIG d   1       3.543  -4.730  -6.062  0.00  0.00    -0.270 OA
ATOM     32  H   LIG d   1       5.762  -4.152  -8.129  0.00  0.00     0.155 HD
BRANCH  30  33
ATOM     33  C   LIG d   1       4.061  -6.113  -7.870  0.00  0.00     0.037 A 
ATOM     34  C   LIG d   1       3.347  -6.051  -9.069  0.00  0.00    -0.046 A 
ATOM     35  C   LIG d   1       3.187  -7.185  -9.833  0.00  0.00    -0.019 A 
ATOM     36  H   LIG d   1       2.921  -5.114  -9.395  0.00  0.00     0.063 H 
ATOM     37  C   LIG d   1       3.736  -8.391  -9.413  0.00  0.00     0.120 A 
ATOM     38  H   LIG d   1       2.635  -7.137 -10.760  0.00  0.00     0.065 H 
ATOM     39  C   LIG d   1       4.447  -8.457  -8.221  0.00  0.00    -0.019 A 
ATOM     40  C   LIG d   1       4.611  -7.327  -7.451  0.00  0.00    -0.046 A 
ATOM     41  H   LIG d   1       4.876  -9.395  -7.900  0.00  0.00     0.065 H 
ATOM     42  H   LIG d   1       5.164  -7.381  -6.525  0.00  0.00     0.063 H 
BRANCH  37  43
ATOM     43  O   LIG d   1       3.576  -9.506 -10.170  0.00  0.00    -0.495 OA
BRANCH  43  44
ATOM     44  C   LIG d   1       3.544 -10.759  -9.482  0.00  0.00     0.079 C 
ATOM     45  H   LIG d   1       2.694 -11.343  -9.833  0.00  0.00     0.066 H 
ATOM     46  H   LIG d   1       4.466 -11.305  -9.678  0.00  0.00     0.066 H 
ATOM     47  H   LIG d   1       3.446 -10.583  -8.411  0.00  0.00     0.066 H 
ENDBRANCH  43  44
ENDBRANCH  37  43
ENDBRANCH  30  33
ENDBRANCH   2  29
BRANCH   1  48
ATOM     48  C   LIG d   1       6.031  -1.482  -4.756  0.00  0.00     0.002 A 
ATOM     49  C   LIG d   1       7.167  -0.725  -4.775  0.00  0.00     0.013 A 
ATOM     50  N   LIG d   1       6.987   0.390  -4.020  0.00  0.00    -0.349 N 
ATOM     51  H   LIG d   1       8.071  -0.975  -5.309  0.00  0.00     0.082 H 
ATOM     52  C   LIG d   1       5.719   0.404  -3.476  0.00  0.00     0.049 A 
ATOM     53  C   LIG d   1       5.060  -0.758  -3.913  0.00  0.00     0.007 A 
ATOM     54  C   LIG d   1       5.047   1.297  -2.649  0.00  0.00    -0.038 A 
ATOM     55  C   LIG d   1       3.752  -1.012  -3.510  0.00  0.00    -0.052 A 
ATOM     56  C   LIG d   1       3.104  -0.114  -2.689  0.00  0.00    -0.061 A 
ATOM     57  H   LIG d   1       3.246  -1.907  -3.841  0.00  0.00     0.062 H 
ATOM     58  C   LIG d   1       3.751   1.036  -2.262  0.00  0.00    -0.060 A 
ATOM     59  H   LIG d   1       2.088  -0.307  -2.378  0.00  0.00     0.062 H 
ATOM     60  H   LIG d   1       3.234   1.733  -1.620  0.00  0.00     0.062 H 
ATOM     61  H   LIG d   1       5.542   2.196  -2.311  0.00  0.00     0.064 H 
BRANCH  50  62
ATOM     62  C   LIG d   1       7.997   1.431  -3.812  0.00  0.00     0.012 C 
ATOM     63  H   LIG d   1       8.958   0.967  -3.596  0.00  0.00     0.046 H 
ATOM     64  H   LIG d   1       8.081   2.039  -4.713  0.00  0.00     0.046 H 
ATOM     65  H   LIG d   1       7.700   2.062  -2.974  0.00  0.00     0.046 H 
ENDBRANCH  50  62
ENDBRANCH   1  48
TORSDOF 10
ENDMDL
MODEL 8
REMARK VINA RESULT:      -6.5      3.017      4.676
REMARK  10 active torsions:
REMARK  status: ('A' for Active; 'I' for Inactive)
REMARK    1  A    between atoms: C_1  and  N_2 
REMARK    2  A    between atoms: C_4  and  C_11 
REMARK    3  A    between atoms: C_12  and  C_13 
REMARK    4  A    between atoms: C_12  and  N_28 
REMARK       I    between atoms: C_13  and  N_15 
REMARK    5  A    between atoms: N_15  and  C_16 
REMARK    6  A    between atoms: C_16  and  C_17 
REMARK    7  A    between atoms: C_17  and  C_18 
REMARK       I    between atoms: N_28  and  C_29 
REMARK    8  A    between atoms: C_29  and  C_31 
REMARK    9  A    between atoms: C_34  and  O_37 
REMARK   10  A    between atoms: O_37  and  C_38 
ROOT
ATOM      1  C   LIG d   1      12.145   0.755  -4.764  0.00  0.00    -0.026 C 
ATOM      2  C   LIG d   1      10.902   1.204  -4.456  0.00  0.00     0.097 C 
ATOM      3  H   LIG d   1      13.016   1.271  -4.388  0.00  0.00     0.064 H 
ENDROOT
BRANCH   2   4
ATOM      4  C   LIG d   1       9.726   0.588  -5.071  0.00  0.00     0.258 C 
ATOM      5  O   LIG d   1       9.310   1.001  -6.139  0.00  0.00    -0.269 OA
ATOM      6  N   LIG d   1       9.102  -0.436  -4.456  0.00  0.00    -0.310 N 
ATOM      7  H   LIG d   1       9.386  -0.716  -3.571  0.00  0.00     0.149 HD
BRANCH   6   8
ATOM      8  C   LIG d   1       7.996  -1.127  -5.121  0.00  0.00     0.016 C 
ATOM      9  H   LIG d   1       7.195  -0.416  -5.325  0.00  0.00     0.046 H 
ATOM     10  H   LIG d   1       8.347  -1.557  -6.060  0.00  0.00     0.046 H 
BRANCH   8  11
ATOM     11  C   LIG d   1       7.470  -2.240  -4.215  0.00  0.00    -0.010 C 
ATOM     12  H   LIG d   1       7.686  -3.209  -4.667  0.00  0.00     0.033 H 
ATOM     13  H   LIG d   1       7.957  -2.178  -3.241  0.00  0.00     0.033 H 
BRANCH  11  14
ATOM     14  C   LIG d   1       5.981  -2.087  -4.042  0.00  0.00    -0.021 A 
ATOM     15  C   LIG d   1       5.290  -0.975  -3.381  0.00  0.00     0.003 A 
ATOM     16  C   LIG d   1       3.916  -1.267  -3.464  0.00  0.00     0.047 A 
ATOM     17  C   LIG d   1       5.717   0.194  -2.750  0.00  0.00    -0.052 A 
ATOM     18  N   LIG d   1       3.796  -2.468  -4.129  0.00  0.00    -0.360 N 
ATOM     19  C   LIG d   1       2.997  -0.380  -2.915  0.00  0.00    -0.038 A 
ATOM     20  C   LIG d   1       5.035  -2.937  -4.469  0.00  0.00     0.006 A 
ATOM     21  H   LIG d   1       2.957  -2.912  -4.330  0.00  0.00     0.165 HD
ATOM     22  H   LIG d   1       5.224  -3.858  -5.001  0.00  0.00     0.081 H 
ATOM     23  C   LIG d   1       3.440   0.769  -2.297  0.00  0.00    -0.060 A 
ATOM     24  H   LIG d   1       1.940  -0.592  -2.971  0.00  0.00     0.064 H 
ATOM     25  C   LIG d   1       4.796   1.052  -2.217  0.00  0.00    -0.061 A 
ATOM     26  H   LIG d   1       2.725   1.456  -1.871  0.00  0.00     0.062 H 
ATOM     27  H   LIG d   1       5.127   1.957  -1.728  0.00  0.00     0.062 H 
ATOM     28  H   LIG d   1       6.771   0.421  -2.685  0.00  0.00     0.062 H 
ENDBRANCH  11  14
ENDBRANCH   8  11
ENDBRANCH   6   8
ENDBRANCH   2   4
BRANCH   2  29
ATOM     29  N   LIG d   1      10.745   2.259  -3.545  0.00  0.00    -0.277 N 
ATOM     30  C   LIG d   1      10.770   3.535  -3.979  0.00  0.00     0.248 C 
ATOM     31  O   LIG d   1      11.027   3.775  -5.143  0.00  0.00    -0.270 OA
ATOM     32  H   LIG d   1      10.618   2.071  -2.602  0.00  0.00     0.155 HD
BRANCH  30  33
ATOM     33  C   LIG d   1      10.487   4.640  -3.043  0.00  0.00     0.037 A 
ATOM     34  C   LIG d   1      11.011   4.613  -1.748  0.00  0.00    -0.046 A 
ATOM     35  C   LIG d   1      10.745   5.645  -0.878  0.00  0.00    -0.019 A 
ATOM     36  H   LIG d   1      11.624   3.782  -1.431  0.00  0.00     0.063 H 
ATOM     37  C   LIG d   1       9.955   6.714  -1.286  0.00  0.00     0.120 A 
ATOM     38  H   LIG d   1      11.149   5.625   0.123  0.00  0.00     0.065 H 
ATOM     39  C   LIG d   1       9.431   6.745  -2.573  0.00  0.00    -0.019 A 
ATOM     40  C   LIG d   1       9.694   5.716  -3.449  0.00  0.00    -0.046 A 
ATOM     41  H   LIG d   1       8.822   7.579  -2.888  0.00  0.00     0.065 H 
ATOM     42  H   LIG d   1       9.286   5.741  -4.449  0.00  0.00     0.063 H 
BRANCH  37  43
ATOM     43  O   LIG d   1       9.695   7.730  -0.425  0.00  0.00    -0.495 OA
BRANCH  43  44
ATOM     44  C   LIG d   1      10.795   8.560  -0.048  0.00  0.00     0.079 C 
ATOM     45  H   LIG d   1      11.608   8.433  -0.763  0.00  0.00     0.066 H 
ATOM     46  H   LIG d   1      10.479   9.602  -0.039  0.00  0.00     0.066 H 
ATOM     47  H   LIG d   1      11.140   8.276   0.947  0.00  0.00     0.066 H 
ENDBRANCH  43  44
ENDBRANCH  37  43
ENDBRANCH  30  33
ENDBRANCH   2  29
BRANCH   1  48
ATOM     48  C   LIG d   1      12.306  -0.433  -5.608  0.00  0.00     0.002 A 
ATOM     49  C   LIG d   1      12.487  -0.456  -6.960  0.00  0.00     0.013 A 
ATOM     50  N   LIG d   1      12.596  -1.741  -7.386  0.00  0.00    -0.349 N 
ATOM     51  H   LIG d   1      12.537   0.416  -7.596  0.00  0.00     0.082 H 
ATOM     52  C   LIG d   1      12.490  -2.612  -6.320  0.00  0.00     0.049 A 
ATOM     53  C   LIG d   1      12.309  -1.839  -5.161  0.00  0.00     0.007 A 
ATOM     54  C   LIG d   1      12.533  -3.998  -6.215  0.00  0.00    -0.038 A 
ATOM     55  C   LIG d   1      12.164  -2.460  -3.924  0.00  0.00    -0.052 A 
ATOM     56  C   LIG d   1      12.209  -3.835  -3.841  0.00  0.00    -0.061 A 
ATOM     57  H   LIG d   1      12.021  -1.867  -3.032  0.00  0.00     0.062 H 
ATOM     58  C   LIG d   1      12.393  -4.599  -4.984  0.00  0.00    -0.060 A 
ATOM     59  H   LIG d   1      12.101  -4.319  -2.881  0.00  0.00     0.062 H 
ATOM     60  H   LIG d   1      12.427  -5.675  -4.907  0.00  0.00     0.062 H 
ATOM     61  H   LIG d   1      12.676  -4.602  -7.099  0.00  0.00     0.064 H 
BRANCH  50  62
ATOM     62  C   LIG d   1      12.800  -2.147  -8.779  0.00  0.00     0.012 C 
ATOM     63  H   LIG d   1      13.552  -1.507  -9.238  0.00  0.00     0.046 H 
ATOM     64  H   LIG d   1      13.137  -3.184  -8.810  0.00  0.00     0.046 H 
ATOM     65  H   LIG d   1      11.861  -2.054  -9.325  0.00  0.00     0.046 H 
ENDBRANCH  50  62
ENDBRANCH   1  48
TORSDOF 10
ENDMDL
MODEL 9
REMARK VINA RESULT:      -6.4      2.295      5.208
REMARK  10 active torsions:
REMARK  status: ('A' for Active; 'I' for Inactive)
REMARK    1  A    between atoms: C_1  and  N_2 
REMARK    2  A    between atoms: C_4  and  C_11 
REMARK    3  A    between atoms: C_12  and  C_13 
REMARK    4  A    between atoms: C_12  and  N_28 
REMARK       I    between atoms: C_13  and  N_15 
REMARK    5  A    between atoms: N_15  and  C_16 
REMARK    6  A    between atoms: C_16  and  C_17 
REMARK    7  A    between atoms: C_17  and  C_18 
REMARK       I    between atoms: N_28  and  C_29 
REMARK    8  A    between atoms: C_29  and  C_31 
REMARK    9  A    between atoms: C_34  and  O_37 
REMARK   10  A    between atoms: O_37  and  C_38 
ROOT
ATOM      1  C   LIG d   1       7.100  -1.881  -5.939  0.00  0.00    -0.026 C 
ATOM      2  C   LIG d   1       6.599  -0.723  -5.439  0.00  0.00     0.097 C 
ATOM      3  H   LIG d   1       8.166  -2.000  -6.061  0.00  0.00     0.064 H 
ENDROOT
BRANCH   2   4
ATOM      4  C   LIG d   1       5.151  -0.508  -5.397  0.00  0.00     0.258 C 
ATOM      5  O   LIG d   1       4.527  -0.759  -4.383  0.00  0.00    -0.269 OA
ATOM      6  N   LIG d   1       4.510  -0.032  -6.483  0.00  0.00    -0.310 N 
ATOM      7  H   LIG d   1       4.993   0.098  -7.315  0.00  0.00     0.149 HD
BRANCH   6   8
ATOM      8  C   LIG d   1       3.083   0.290  -6.409  0.00  0.00     0.016 C 
ATOM      9  H   LIG d   1       2.501  -0.554  -6.779  0.00  0.00     0.046 H 
ATOM     10  H   LIG d   1       2.810   0.494  -5.374  0.00  0.00     0.046 H 
BRANCH   8  11
ATOM     11  C   LIG d   1       2.793   1.523  -7.266  0.00  0.00    -0.010 C 
ATOM     12  H   LIG d   1       1.724   1.738  -7.244  0.00  0.00     0.033 H 
ATOM     13  H   LIG d   1       3.343   2.378  -6.872  0.00  0.00     0.033 H 
BRANCH  11  14
ATOM     14  C   LIG d   1       3.223   1.261  -8.686  0.00  0.00    -0.021 A 
ATOM     15  C   LIG d   1       2.669   0.250  -9.592  0.00  0.00     0.003 A 
ATOM     16  C   LIG d   1       3.380   0.380 -10.800  0.00  0.00     0.047 A 
ATOM     17  C   LIG d   1       1.668  -0.715  -9.473  0.00  0.00    -0.052 A 
ATOM     18  N   LIG d   1       4.293   1.397 -10.626  0.00  0.00    -0.360 N 
ATOM     19  C   LIG d   1       3.072  -0.460 -11.865  0.00  0.00    -0.038 A 
ATOM     20  C   LIG d   1       4.181   1.912  -9.364  0.00  0.00     0.006 A 
ATOM     21  H   LIG d   1       4.919   1.704 -11.301  0.00  0.00     0.165 HD
ATOM     22  H   LIG d   1       4.777   2.722  -8.970  0.00  0.00     0.081 H 
ATOM     23  C   LIG d   1       2.079  -1.405 -11.726  0.00  0.00    -0.060 A 
ATOM     24  H   LIG d   1       3.609  -0.372 -12.797  0.00  0.00     0.064 H 
ATOM     25  C   LIG d   1       1.381  -1.529 -10.533  0.00  0.00    -0.061 A 
ATOM     26  H   LIG d   1       1.842  -2.056 -12.554  0.00  0.00     0.062 H 
ATOM     27  H   LIG d   1       0.606  -2.276 -10.440  0.00  0.00     0.062 H 
ATOM     28  H   LIG d   1       1.120  -0.816  -8.548  0.00  0.00     0.062 H 
ENDBRANCH  11  14
ENDBRANCH   8  11
ENDBRANCH   6   8
ENDBRANCH   2   4
BRANCH   2  29
ATOM     29  N   LIG d   1       7.468   0.268  -4.960  0.00  0.00    -0.277 N 
ATOM     30  C   LIG d   1       7.773   1.329  -5.732  0.00  0.00     0.248 C 
ATOM     31  O   LIG d   1       7.372   1.380  -6.880  0.00  0.00    -0.270 OA
ATOM     32  H   LIG d   1       7.852   0.190  -4.072  0.00  0.00     0.155 HD
BRANCH  30  33
ATOM     33  C   LIG d   1       8.590   2.430  -5.188  0.00  0.00     0.037 A 
ATOM     34  C   LIG d   1       9.167   3.367  -6.049  0.00  0.00    -0.046 A 
ATOM     35  C   LIG d   1       9.929   4.393  -5.538  0.00  0.00    -0.019 A 
ATOM     36  H   LIG d   1       9.015   3.286  -7.115  0.00  0.00     0.063 H 
ATOM     37  C   LIG d   1      10.126   4.497  -4.165  0.00  0.00     0.120 A 
ATOM     38  H   LIG d   1      10.376   5.117  -6.203  0.00  0.00     0.065 H 
ATOM     39  C   LIG d   1       9.554   3.567  -3.305  0.00  0.00    -0.019 A 
ATOM     40  C   LIG d   1       8.790   2.539  -3.809  0.00  0.00    -0.046 A 
ATOM     41  H   LIG d   1       9.705   3.655  -2.239  0.00  0.00     0.065 H 
ATOM     42  H   LIG d   1       8.347   1.817  -3.139  0.00  0.00     0.063 H 
BRANCH  37  43
ATOM     43  O   LIG d   1      10.877   5.510  -3.665  0.00  0.00    -0.495 OA
BRANCH  43  44
ATOM     44  C   LIG d   1      10.353   6.833  -3.793  0.00  0.00     0.079 C 
ATOM     45  H   LIG d   1       9.396   6.896  -3.276  0.00  0.00     0.066 H 
ATOM     46  H   LIG d   1      11.051   7.545  -3.354  0.00  0.00     0.066 H 
ATOM     47  H   LIG d   1      10.211   7.066  -4.849  0.00  0.00     0.066 H 
ENDBRANCH  43  44
ENDBRANCH  37  43
ENDBRANCH  30  33
ENDBRANCH   2  29
BRANCH   1  48
ATOM     48  C   LIG d   1       6.193  -2.970  -6.312  0.00  0.00     0.002 A 
ATOM     49  C   LIG d   1       5.782  -3.999  -5.517  0.00  0.00     0.013 A 
ATOM     50  N   LIG d   1       4.943  -4.810  -6.214  0.00  0.00    -0.349 N 
ATOM     51  H   LIG d   1       6.078  -4.148  -4.489  0.00  0.00     0.082 H 
ATOM     52  C   LIG d   1       4.774  -4.336  -7.499  0.00  0.00     0.049 A 
ATOM     53  C   LIG d   1       5.539  -3.164  -7.620  0.00  0.00     0.007 A 
ATOM     54  C   LIG d   1       4.035  -4.783  -8.589  0.00  0.00    -0.038 A 
ATOM     55  C   LIG d   1       5.564  -2.468  -8.826  0.00  0.00    -0.052 A 
ATOM     56  C   LIG d   1       4.825  -2.929  -9.895  0.00  0.00    -0.061 A 
ATOM     57  H   LIG d   1       6.155  -1.570  -8.922  0.00  0.00     0.062 H 
ATOM     58  C   LIG d   1       4.064  -4.082  -9.774  0.00  0.00    -0.060 A 
ATOM     59  H   LIG d   1       4.838  -2.388 -10.830  0.00  0.00     0.062 H 
ATOM     60  H   LIG d   1       3.488  -4.434 -10.617  0.00  0.00     0.062 H 
ATOM     61  H   LIG d   1       3.439  -5.681  -8.505  0.00  0.00     0.064 H 
BRANCH  50  62
ATOM     62  C   LIG d   1       4.307  -6.016  -5.677  0.00  0.00     0.012 C 
ATOM     63  H   LIG d   1       4.291  -6.790  -6.443  0.00  0.00     0.046 H 
ATOM     64  H   LIG d   1       4.872  -6.370  -4.814  0.00  0.00     0.046 H 
ATOM     65  H   LIG d   1       3.286  -5.784  -5.373  0.00  0.00     0.046 H 
ENDBRANCH  50  62
ENDBRANCH   1  48
TORSDOF 10
ENDMDL
