MODEL 1
REMARK VINA RESULT:      -8.1      0.000      0.000
REMARK  3 active torsions:
REMARK  status: ('A' for Active; 'I' for Inactive)
REMARK    1  A    between atoms: C_1  and  C_2 
REMARK    2  A    between atoms: C_5  and  C_8 
REMARK    3  A    between atoms: C_25  and  C_26 
ROOT
ATOM      1  C   LIG d   1      10.125   2.775  -4.313  0.00  0.00     0.028 A 
ATOM      2  C   LIG d   1      11.179   2.280  -4.998  0.00  0.00     0.101 A 
ATOM      3  O   LIG d   1      10.916   1.026  -5.404  0.00  0.00    -0.462 OA
ATOM      4  C   LIG d   1       9.687   0.634  -5.012  0.00  0.00     0.142 A 
ATOM      5  C   LIG d   1       9.111   1.703  -4.302  0.00  0.00     0.029 A 
ATOM      6  C   LIG d   1       7.834   1.585  -3.771  0.00  0.00    -0.039 A 
ATOM      7  C   LIG d   1       7.125   0.403  -3.947  0.00  0.00     0.026 A 
ATOM      8  C   LIG d   1       5.764   0.255  -3.393  0.00  0.00    -0.000 A 
ATOM      9  C   LIG d   1       5.144   1.275  -2.683  0.00  0.00    -0.053 A 
ATOM     10  C   LIG d   1       3.871   1.083  -2.186  0.00  0.00    -0.061 A 
ATOM     11  C   LIG d   1       3.207  -0.118  -2.390  0.00  0.00    -0.061 A 
ATOM     12  C   LIG d   1       3.807  -1.142  -3.092  0.00  0.00    -0.047 A 
ATOM     13  C   LIG d   1       5.092  -0.967  -3.601  0.00  0.00     0.067 A 
ATOM     14  C   LIG d   1       5.778  -2.026  -4.356  0.00  0.00     0.345 A 
ATOM     15  O   LIG d   1       5.220  -3.088  -4.549  0.00  0.00    -0.244 OA
ATOM     16  O   LIG d   1       7.016  -1.826  -4.834  0.00  0.00    -0.421 OA
ATOM     17  C   LIG d   1       7.695  -0.669  -4.656  0.00  0.00     0.146 A 
ATOM     18  C   LIG d   1       8.973  -0.543  -5.181  0.00  0.00     0.035 A 
ATOM     19  H   LIG d   1      12.099   2.813  -5.191  0.00  0.00     0.104 H 
ATOM     20  H   LIG d   1       7.393   2.407  -3.226  0.00  0.00     0.063 H 
ATOM     21  H   LIG d   1       5.656   2.213  -2.521  0.00  0.00     0.062 H 
ATOM     22  H   LIG d   1       3.387   1.875  -1.634  0.00  0.00     0.062 H 
ATOM     23  H   LIG d   1       2.212  -0.252  -1.994  0.00  0.00     0.062 H 
ATOM     24  H   LIG d   1       3.283  -2.075  -3.246  0.00  0.00     0.063 H 
ENDROOT
BRANCH   1  25
ATOM     25  C   LIG d   1      10.009   4.119  -3.697  0.00  0.00    -0.014 A 
ATOM     26  C   LIG d   1      10.428   4.325  -2.383  0.00  0.00    -0.054 A 
ATOM     27  C   LIG d   1      10.318   5.577  -1.815  0.00  0.00    -0.058 A 
ATOM     28  H   LIG d   1      10.836   3.505  -1.811  0.00  0.00     0.062 H 
ATOM     29  C   LIG d   1       9.795   6.628  -2.548  0.00  0.00    -0.050 A 
ATOM     30  H   LIG d   1      10.641   5.737  -0.798  0.00  0.00     0.062 H 
ATOM     31  C   LIG d   1       9.380   6.430  -3.852  0.00  0.00    -0.058 A 
ATOM     32  C   LIG d   1       9.489   5.182  -4.432  0.00  0.00    -0.054 A 
ATOM     33  H   LIG d   1       8.972   7.254  -4.419  0.00  0.00     0.062 H 
ATOM     34  H   LIG d   1       9.168   5.030  -5.452  0.00  0.00     0.062 H 
BRANCH  29  35
ATOM     35  C   LIG d   1       9.679   7.995  -1.922  0.00  0.00    -0.040 C 
ATOM     36  H   LIG d   1      10.411   8.664  -2.374  0.00  0.00     0.028 H 
ATOM     37  H   LIG d   1       8.676   8.386  -2.089  0.00  0.00     0.028 H 
ATOM     38  H   LIG d   1       9.867   7.921  -0.851  0.00  0.00     0.028 H 
ENDBRANCH  29  35
ENDBRANCH   1  25
BRANCH  18  39
ATOM     39  C   LIG d   1       9.587  -1.690  -5.941  0.00  0.00    -0.033 C 
ATOM     40  H   LIG d   1       9.259  -1.653  -6.980  0.00  0.00     0.028 H 
ATOM     41  H   LIG d   1      10.674  -1.612  -5.901  0.00  0.00     0.028 H 
ATOM     42  H   LIG d   1       9.273  -2.633  -5.495  0.00  0.00     0.028 H 
ENDBRANCH  18  39
TORSDOF 3
ENDMDL
MODEL 2
REMARK VINA RESULT:      -7.7      3.664      8.321
REMARK  3 active torsions:
REMARK  status: ('A' for Active; 'I' for Inactive)
REMARK    1  A    between atoms: C_1  and  C_2 
REMARK    2  A    between atoms: C_5  and  C_8 
REMARK    3  A    between atoms: C_25  and  C_26 
ROOT
ATOM      1  C   LIG d   1       8.018  -5.320  -5.699  0.00  0.00     0.028 A 
ATOM      2  C   LIG d   1       9.155  -5.332  -6.429  0.00  0.00     0.101 A 
ATOM      3  O   LIG d   1       9.693  -4.101  -6.465  0.00  0.00    -0.462 OA
ATOM      4  C   LIG d   1       8.945  -3.222  -5.766  0.00  0.00     0.142 A 
ATOM      5  C   LIG d   1       7.848  -3.928  -5.241  0.00  0.00     0.029 A 
ATOM      6  C   LIG d   1       6.897  -3.273  -4.470  0.00  0.00    -0.039 A 
ATOM      7  C   LIG d   1       7.037  -1.914  -4.218  0.00  0.00     0.026 A 
ATOM      8  C   LIG d   1       6.040  -1.196  -3.399  0.00  0.00    -0.000 A 
ATOM      9  C   LIG d   1       4.935  -1.839  -2.855  0.00  0.00    -0.053 A 
ATOM     10  C   LIG d   1       4.033  -1.119  -2.097  0.00  0.00    -0.061 A 
ATOM     11  C   LIG d   1       4.220   0.237  -1.876  0.00  0.00    -0.061 A 
ATOM     12  C   LIG d   1       5.311   0.892  -2.408  0.00  0.00    -0.047 A 
ATOM     13  C   LIG d   1       6.232   0.182  -3.175  0.00  0.00     0.067 A 
ATOM     14  C   LIG d   1       7.412   0.831  -3.767  0.00  0.00     0.345 A 
ATOM     15  O   LIG d   1       7.600   2.020  -3.589  0.00  0.00    -0.244 OA
ATOM     16  O   LIG d   1       8.281   0.121  -4.501  0.00  0.00    -0.421 OA
ATOM     17  C   LIG d   1       8.133  -1.203  -4.739  0.00  0.00     0.146 A 
ATOM     18  C   LIG d   1       9.076  -1.865  -5.510  0.00  0.00     0.035 A 
ATOM     19  H   LIG d   1       9.571  -6.203  -6.914  0.00  0.00     0.104 H 
ATOM     20  H   LIG d   1       6.054  -3.816  -4.068  0.00  0.00     0.063 H 
ATOM     21  H   LIG d   1       4.784  -2.895  -3.023  0.00  0.00     0.062 H 
ATOM     22  H   LIG d   1       3.174  -1.617  -1.673  0.00  0.00     0.062 H 
ATOM     23  H   LIG d   1       3.505   0.785  -1.281  0.00  0.00     0.062 H 
ATOM     24  H   LIG d   1       5.449   1.949  -2.231  0.00  0.00     0.063 H 
ENDROOT
BRANCH   1  25
ATOM     25  C   LIG d   1       7.125  -6.468  -5.415  0.00  0.00    -0.014 A 
ATOM     26  C   LIG d   1       7.628  -7.606  -4.785  0.00  0.00    -0.054 A 
ATOM     27  C   LIG d   1       6.792  -8.673  -4.522  0.00  0.00    -0.058 A 
ATOM     28  H   LIG d   1       8.669  -7.652  -4.502  0.00  0.00     0.062 H 
ATOM     29  C   LIG d   1       5.458  -8.614  -4.884  0.00  0.00    -0.050 A 
ATOM     30  H   LIG d   1       7.181  -9.554  -4.035  0.00  0.00     0.062 H 
ATOM     31  C   LIG d   1       4.953  -7.488  -5.508  0.00  0.00    -0.058 A 
ATOM     32  C   LIG d   1       5.779  -6.413  -5.771  0.00  0.00    -0.054 A 
ATOM     33  H   LIG d   1       3.911  -7.449  -5.788  0.00  0.00     0.062 H 
ATOM     34  H   LIG d   1       5.383  -5.533  -6.256  0.00  0.00     0.062 H 
BRANCH  29  35
ATOM     35  C   LIG d   1       4.550  -9.782  -4.594  0.00  0.00    -0.040 C 
ATOM     36  H   LIG d   1       3.609  -9.652  -5.130  0.00  0.00     0.028 H 
ATOM     37  H   LIG d   1       5.030 -10.704  -4.920  0.00  0.00     0.028 H 
ATOM     38  H   LIG d   1       4.354  -9.833  -3.523  0.00  0.00     0.028 H 
ENDBRANCH  29  35
ENDBRANCH   1  25
BRANCH  18  39
ATOM     39  C   LIG d   1      10.252  -1.107  -6.071  0.00  0.00    -0.033 C 
ATOM     40  H   LIG d   1      11.072  -1.800  -6.263  0.00  0.00     0.028 H 
ATOM     41  H   LIG d   1       9.960  -0.622  -7.003  0.00  0.00     0.028 H 
ATOM     42  H   LIG d   1      10.575  -0.353  -5.354  0.00  0.00     0.028 H 
ENDBRANCH  18  39
TORSDOF 3
ENDMDL
MODEL 3
REMARK VINA RESULT:      -7.3      5.424      7.470
REMARK  3 active torsions:
REMARK  status: ('A' for Active; 'I' for Inactive)
REMARK    1  A    between atoms: C_1  and  C_2 
REMARK    2  A    between atoms: C_5  and  C_8 
REMARK    3  A    between atoms: C_25  and  C_26 
ROOT
ATOM      1  C   LIG d   1       7.896  -4.922  -5.621  0.00  0.00     0.028 A 
ATOM      2  C   LIG d   1       8.048  -5.317  -6.904  0.00  0.00     0.101 A 
ATOM      3  O   LIG d   1       7.271  -4.574  -7.710  0.00  0.00    -0.462 OA
ATOM      4  C   LIG d   1       6.573  -3.658  -7.006  0.00  0.00     0.142 A 
ATOM      5  C   LIG d   1       6.919  -3.817  -5.652  0.00  0.00     0.029 A 
ATOM      6  C   LIG d   1       6.348  -3.003  -4.683  0.00  0.00    -0.039 A 
ATOM      7  C   LIG d   1       5.434  -2.027  -5.060  0.00  0.00     0.026 A 
ATOM      8  C   LIG d   1       4.816  -1.148  -4.047  0.00  0.00    -0.000 A 
ATOM      9  C   LIG d   1       5.117  -1.258  -2.695  0.00  0.00    -0.053 A 
ATOM     10  C   LIG d   1       4.508  -0.410  -1.791  0.00  0.00    -0.061 A 
ATOM     11  C   LIG d   1       3.602   0.547  -2.220  0.00  0.00    -0.061 A 
ATOM     12  C   LIG d   1       3.291   0.671  -3.558  0.00  0.00    -0.047 A 
ATOM     13  C   LIG d   1       3.895  -0.175  -4.486  0.00  0.00     0.067 A 
ATOM     14  C   LIG d   1       3.598  -0.087  -5.923  0.00  0.00     0.345 A 
ATOM     15  O   LIG d   1       2.807   0.743  -6.327  0.00  0.00    -0.244 OA
ATOM     16  O   LIG d   1       4.196  -0.917  -6.792  0.00  0.00    -0.421 OA
ATOM     17  C   LIG d   1       5.086  -1.863  -6.412  0.00  0.00     0.146 A 
ATOM     18  C   LIG d   1       5.658  -2.682  -7.373  0.00  0.00     0.035 A 
ATOM     19  H   LIG d   1       8.698  -6.114  -7.235  0.00  0.00     0.104 H 
ATOM     20  H   LIG d   1       6.614  -3.127  -3.644  0.00  0.00     0.063 H 
ATOM     21  H   LIG d   1       5.822  -2.002  -2.355  0.00  0.00     0.062 H 
ATOM     22  H   LIG d   1       4.741  -0.494  -0.740  0.00  0.00     0.062 H 
ATOM     23  H   LIG d   1       3.135   1.202  -1.500  0.00  0.00     0.062 H 
ATOM     24  H   LIG d   1       2.583   1.420  -3.884  0.00  0.00     0.063 H 
ENDROOT
BRANCH   1  25
ATOM     25  C   LIG d   1       8.571  -5.483  -4.427  0.00  0.00    -0.014 A 
ATOM     26  C   LIG d   1       8.580  -6.861  -4.210  0.00  0.00    -0.054 A 
ATOM     27  C   LIG d   1       9.210  -7.378  -3.097  0.00  0.00    -0.058 A 
ATOM     28  H   LIG d   1       8.094  -7.521  -4.913  0.00  0.00     0.062 H 
ATOM     29  C   LIG d   1       9.833  -6.532  -2.197  0.00  0.00    -0.050 A 
ATOM     30  H   LIG d   1       9.217  -8.444  -2.929  0.00  0.00     0.062 H 
ATOM     31  C   LIG d   1       9.829  -5.165  -2.407  0.00  0.00    -0.058 A 
ATOM     32  C   LIG d   1       9.206  -4.637  -3.519  0.00  0.00    -0.054 A 
ATOM     33  H   LIG d   1      10.317  -4.510  -1.700  0.00  0.00     0.062 H 
ATOM     34  H   LIG d   1       9.207  -3.569  -3.684  0.00  0.00     0.062 H 
BRANCH  29  35
ATOM     35  C   LIG d   1      10.521  -7.103  -0.983  0.00  0.00    -0.040 C 
ATOM     36  H   LIG d   1      10.042  -8.042  -0.702  0.00  0.00     0.028 H 
ATOM     37  H   LIG d   1      11.570  -7.284  -1.211  0.00  0.00     0.028 H 
ATOM     38  H   LIG d   1      10.445  -6.396  -0.157  0.00  0.00     0.028 H 
ENDBRANCH  29  35
ENDBRANCH   1  25
BRANCH  18  39
ATOM     39  C   LIG d   1       5.287  -2.510  -8.823  0.00  0.00    -0.033 C 
ATOM     40  H   LIG d   1       4.887  -3.448  -9.209  0.00  0.00     0.028 H 
ATOM     41  H   LIG d   1       4.532  -1.729  -8.915  0.00  0.00     0.028 H 
ATOM     42  H   LIG d   1       6.171  -2.230  -9.394  0.00  0.00     0.028 H 
ENDBRANCH  18  39
TORSDOF 3
ENDMDL
MODEL 4
REMARK VINA RESULT:      -7.1      5.832      9.150
REMARK  3 active torsions:
REMARK  status: ('A' for Active; 'I' for Inactive)
REMARK    1  A    between atoms: C_1  and  C_2 
REMARK    2  A    between atoms: C_5  and  C_8 
REMARK    3  A    between atoms: C_25  and  C_26 
ROOT
ATOM      1  C   LIG d   1       5.763  -6.166  -6.807  0.00  0.00     0.028 A 
ATOM      2  C   LIG d   1       5.735  -6.333  -8.147  0.00  0.00     0.101 A 
ATOM      3  O   LIG d   1       5.281  -5.217  -8.741  0.00  0.00    -0.462 OA
ATOM      4  C   LIG d   1       4.988  -4.265  -7.832  0.00  0.00     0.142 A 
ATOM      5  C   LIG d   1       5.270  -4.797  -6.561  0.00  0.00     0.029 A 
ATOM      6  C   LIG d   1       5.062  -4.035  -5.419  0.00  0.00    -0.039 A 
ATOM      7  C   LIG d   1       4.574  -2.739  -5.540  0.00  0.00     0.026 A 
ATOM      8  C   LIG d   1       4.346  -1.908  -4.341  0.00  0.00    -0.000 A 
ATOM      9  C   LIG d   1       4.606  -2.380  -3.060  0.00  0.00    -0.053 A 
ATOM     10  C   LIG d   1       4.373  -1.561  -1.973  0.00  0.00    -0.061 A 
ATOM     11  C   LIG d   1       3.885  -0.275  -2.150  0.00  0.00    -0.061 A 
ATOM     12  C   LIG d   1       3.621   0.210  -3.414  0.00  0.00    -0.047 A 
ATOM     13  C   LIG d   1       3.849  -0.602  -4.523  0.00  0.00     0.067 A 
ATOM     14  C   LIG d   1       3.585  -0.136  -5.892  0.00  0.00     0.345 A 
ATOM     15  O   LIG d   1       3.155   0.987  -6.076  0.00  0.00    -0.244 OA
ATOM     16  O   LIG d   1       3.814  -0.942  -6.940  0.00  0.00    -0.421 OA
ATOM     17  C   LIG d   1       4.290  -2.202  -6.809  0.00  0.00     0.146 A 
ATOM     18  C   LIG d   1       4.499  -2.971  -7.943  0.00  0.00     0.035 A 
ATOM     19  H   LIG d   1       6.035  -7.233  -8.666  0.00  0.00     0.104 H 
ATOM     20  H   LIG d   1       5.279  -4.445  -4.444  0.00  0.00     0.063 H 
ATOM     21  H   LIG d   1       4.986  -3.380  -2.916  0.00  0.00     0.062 H 
ATOM     22  H   LIG d   1       4.575  -1.925  -0.977  0.00  0.00     0.062 H 
ATOM     23  H   LIG d   1       3.708   0.353  -1.289  0.00  0.00     0.062 H 
ATOM     24  H   LIG d   1       3.240   1.213  -3.542  0.00  0.00     0.063 H 
ENDROOT
BRANCH   1  25
ATOM     25  C   LIG d   1       6.198  -7.154  -5.791  0.00  0.00    -0.014 A 
ATOM     26  C   LIG d   1       7.488  -7.094  -5.265  0.00  0.00    -0.054 A 
ATOM     27  C   LIG d   1       7.889  -8.015  -4.319  0.00  0.00    -0.058 A 
ATOM     28  H   LIG d   1       8.173  -6.327  -5.597  0.00  0.00     0.062 H 
ATOM     29  C   LIG d   1       7.013  -8.997  -3.893  0.00  0.00    -0.050 A 
ATOM     30  H   LIG d   1       8.887  -7.970  -3.912  0.00  0.00     0.062 H 
ATOM     31  C   LIG d   1       5.731  -9.061  -4.410  0.00  0.00    -0.058 A 
ATOM     32  C   LIG d   1       5.318  -8.141  -5.353  0.00  0.00    -0.054 A 
ATOM     33  H   LIG d   1       5.052  -9.830  -4.073  0.00  0.00     0.062 H 
ATOM     34  H   LIG d   1       4.316  -8.190  -5.753  0.00  0.00     0.062 H 
BRANCH  29  35
ATOM     35  C   LIG d   1       7.456 -10.001  -2.859  0.00  0.00    -0.040 C 
ATOM     36  H   LIG d   1       6.720 -10.803  -2.793  0.00  0.00     0.028 H 
ATOM     37  H   LIG d   1       8.421 -10.415  -3.146  0.00  0.00     0.028 H 
ATOM     38  H   LIG d   1       7.544  -9.510  -1.890  0.00  0.00     0.028 H 
ENDBRANCH  29  35
ENDBRANCH   1  25
BRANCH  18  39
ATOM     39  C   LIG d   1       4.196  -2.399  -9.304  0.00  0.00    -0.033 C 
ATOM     40  H   LIG d   1       3.476  -3.039  -9.814  0.00  0.00     0.028 H 
ATOM     41  H   LIG d   1       3.777  -1.398  -9.192  0.00  0.00     0.028 H 
ATOM     42  H   LIG d   1       5.114  -2.346  -9.888  0.00  0.00     0.028 H 
ENDBRANCH  18  39
TORSDOF 3
ENDMDL
MODEL 5
REMARK VINA RESULT:      -6.9      4.998      7.801
REMARK  3 active torsions:
REMARK  status: ('A' for Active; 'I' for Inactive)
REMARK    1  A    between atoms: C_1  and  C_2 
REMARK    2  A    between atoms: C_5  and  C_8 
REMARK    3  A    between atoms: C_25  and  C_26 
ROOT
ATOM      1  C   LIG d   1       5.533  -3.386  -5.184  0.00  0.00     0.028 A 
ATOM      2  C   LIG d   1       6.308  -4.473  -4.974  0.00  0.00     0.101 A 
ATOM      3  O   LIG d   1       6.297  -5.262  -6.062  0.00  0.00    -0.462 OA
ATOM      4  C   LIG d   1       5.523  -4.741  -7.036  0.00  0.00     0.142 A 
ATOM      5  C   LIG d   1       4.993  -3.532  -6.550  0.00  0.00     0.029 A 
ATOM      6  C   LIG d   1       4.148  -2.767  -7.342  0.00  0.00    -0.039 A 
ATOM      7  C   LIG d   1       3.830  -3.203  -8.623  0.00  0.00     0.026 A 
ATOM      8  C   LIG d   1       2.935  -2.406  -9.485  0.00  0.00    -0.000 A 
ATOM      9  C   LIG d   1       2.381  -1.204  -9.060  0.00  0.00    -0.053 A 
ATOM     10  C   LIG d   1       1.550  -0.500  -9.907  0.00  0.00    -0.061 A 
ATOM     11  C   LIG d   1       1.264  -0.980 -11.176  0.00  0.00    -0.061 A 
ATOM     12  C   LIG d   1       1.804  -2.171 -11.616  0.00  0.00    -0.047 A 
ATOM     13  C   LIG d   1       2.645  -2.896 -10.775  0.00  0.00     0.067 A 
ATOM     14  C   LIG d   1       3.247  -4.171 -11.192  0.00  0.00     0.345 A 
ATOM     15  O   LIG d   1       3.013  -4.615 -12.299  0.00  0.00    -0.244 OA
ATOM     16  O   LIG d   1       4.053  -4.847 -10.359  0.00  0.00    -0.421 OA
ATOM     17  C   LIG d   1       4.356  -4.410  -9.114  0.00  0.00     0.146 A 
ATOM     18  C   LIG d   1       5.197  -5.169  -8.314  0.00  0.00     0.035 A 
ATOM     19  H   LIG d   1       6.856  -4.678  -4.066  0.00  0.00     0.104 H 
ATOM     20  H   LIG d   1       3.743  -1.839  -6.967  0.00  0.00     0.063 H 
ATOM     21  H   LIG d   1       2.600  -0.825  -8.072  0.00  0.00     0.062 H 
ATOM     22  H   LIG d   1       1.119   0.434  -9.578  0.00  0.00     0.062 H 
ATOM     23  H   LIG d   1       0.611  -0.417 -11.826  0.00  0.00     0.062 H 
ATOM     24  H   LIG d   1       1.576  -2.538 -12.606  0.00  0.00     0.063 H 
ENDROOT
BRANCH   1  25
ATOM     25  C   LIG d   1       5.278  -2.274  -4.238  0.00  0.00    -0.014 A 
ATOM     26  C   LIG d   1       5.983  -1.076  -4.359  0.00  0.00    -0.054 A 
ATOM     27  C   LIG d   1       5.741  -0.044  -3.476  0.00  0.00    -0.058 A 
ATOM     28  H   LIG d   1       6.716  -0.958  -5.143  0.00  0.00     0.062 H 
ATOM     29  C   LIG d   1       4.802  -0.196  -2.472  0.00  0.00    -0.050 A 
ATOM     30  H   LIG d   1       6.287   0.883  -3.569  0.00  0.00     0.062 H 
ATOM     31  C   LIG d   1       4.099  -1.380  -2.347  0.00  0.00    -0.058 A 
ATOM     32  C   LIG d   1       4.329  -2.418  -3.228  0.00  0.00    -0.054 A 
ATOM     33  H   LIG d   1       3.367  -1.492  -1.561  0.00  0.00     0.062 H 
ATOM     34  H   LIG d   1       3.776  -3.341  -3.132  0.00  0.00     0.062 H 
BRANCH  29  35
ATOM     35  C   LIG d   1       4.542   0.936  -1.510  0.00  0.00    -0.040 C 
ATOM     36  H   LIG d   1       3.722   0.666  -0.844  0.00  0.00     0.028 H 
ATOM     37  H   LIG d   1       5.440   1.127  -0.923  0.00  0.00     0.028 H 
ATOM     38  H   LIG d   1       4.275   1.833  -2.068  0.00  0.00     0.028 H 
ENDBRANCH  29  35
ENDBRANCH   1  25
BRANCH  18  39
ATOM     39  C   LIG d   1       5.764  -6.464  -8.838  0.00  0.00    -0.033 C 
ATOM     40  H   LIG d   1       5.879  -7.168  -8.014  0.00  0.00     0.028 H 
ATOM     41  H   LIG d   1       5.085  -6.883  -9.582  0.00  0.00     0.028 H 
ATOM     42  H   LIG d   1       6.735  -6.278  -9.295  0.00  0.00     0.028 H 
ENDBRANCH  18  39
TORSDOF 3
ENDMDL
MODEL 6
REMARK VINA RESULT:      -6.7      2.376      3.166
REMARK  3 active torsions:
REMARK  status: ('A' for Active; 'I' for Inactive)
REMARK    1  A    between atoms: C_1  and  C_2 
REMARK    2  A    between atoms: C_5  and  C_8 
REMARK    3  A    between atoms: C_25  and  C_26 
ROOT
ATOM      1  C   LIG d   1       8.822   1.477  -7.651  0.00  0.00     0.028 A 
ATOM      2  C   LIG d   1       9.199   0.757  -8.730  0.00  0.00     0.101 A 
ATOM      3  O   LIG d   1       8.644  -0.466  -8.684  0.00  0.00    -0.462 OA
ATOM      4  C   LIG d   1       7.879  -0.614  -7.582  0.00  0.00     0.142 A 
ATOM      5  C   LIG d   1       7.941   0.594  -6.863  0.00  0.00     0.029 A 
ATOM      6  C   LIG d   1       7.246   0.737  -5.670  0.00  0.00    -0.039 A 
ATOM      7  C   LIG d   1       6.484  -0.322  -5.191  0.00  0.00     0.026 A 
ATOM      8  C   LIG d   1       5.733  -0.193  -3.926  0.00  0.00    -0.000 A 
ATOM      9  C   LIG d   1       5.757   0.974  -3.172  0.00  0.00    -0.053 A 
ATOM     10  C   LIG d   1       5.037   1.040  -1.996  0.00  0.00    -0.061 A 
ATOM     11  C   LIG d   1       4.293  -0.047  -1.562  0.00  0.00    -0.061 A 
ATOM     12  C   LIG d   1       4.257  -1.214  -2.297  0.00  0.00    -0.047 A 
ATOM     13  C   LIG d   1       4.978  -1.299  -3.487  0.00  0.00     0.067 A 
ATOM     14  C   LIG d   1       4.976  -2.519  -4.308  0.00  0.00     0.345 A 
ATOM     15  O   LIG d   1       4.332  -3.486  -3.951  0.00  0.00    -0.244 OA
ATOM     16  O   LIG d   1       5.680  -2.570  -5.449  0.00  0.00    -0.421 OA
ATOM     17  C   LIG d   1       6.418  -1.531  -5.906  0.00  0.00     0.146 A 
ATOM     18  C   LIG d   1       7.118  -1.665  -7.095  0.00  0.00     0.035 A 
ATOM     19  H   LIG d   1       9.851   1.110  -9.516  0.00  0.00     0.104 H 
ATOM     20  H   LIG d   1       7.294   1.664  -5.120  0.00  0.00     0.063 H 
ATOM     21  H   LIG d   1       6.335   1.824  -3.505  0.00  0.00     0.062 H 
ATOM     22  H   LIG d   1       5.054   1.946  -1.409  0.00  0.00     0.062 H 
ATOM     23  H   LIG d   1       3.735   0.021  -0.640  0.00  0.00     0.062 H 
ATOM     24  H   LIG d   1       3.675  -2.056  -1.951  0.00  0.00     0.063 H 
ENDROOT
BRANCH   1  25
ATOM     25  C   LIG d   1       9.213   2.870  -7.325  0.00  0.00    -0.014 A 
ATOM     26  C   LIG d   1       9.239   3.841  -8.325  0.00  0.00    -0.054 A 
ATOM     27  C   LIG d   1       9.603   5.136  -8.017  0.00  0.00    -0.058 A 
ATOM     28  H   LIG d   1       8.975   3.580  -9.340  0.00  0.00     0.062 H 
ATOM     29  C   LIG d   1       9.941   5.471  -6.718  0.00  0.00    -0.050 A 
ATOM     30  H   LIG d   1       9.624   5.888  -8.790  0.00  0.00     0.062 H 
ATOM     31  C   LIG d   1       9.915   4.512  -5.721  0.00  0.00    -0.058 A 
ATOM     32  C   LIG d   1       9.548   3.215  -6.017  0.00  0.00    -0.054 A 
ATOM     33  H   LIG d   1      10.180   4.780  -4.709  0.00  0.00     0.062 H 
ATOM     34  H   LIG d   1       9.525   2.468  -5.237  0.00  0.00     0.062 H 
BRANCH  29  35
ATOM     35  C   LIG d   1      10.337   6.887  -6.386  0.00  0.00    -0.040 C 
ATOM     36  H   LIG d   1       9.920   7.565  -7.132  0.00  0.00     0.028 H 
ATOM     37  H   LIG d   1       9.955   7.150  -5.401  0.00  0.00     0.028 H 
ATOM     38  H   LIG d   1      11.424   6.970  -6.389  0.00  0.00     0.028 H 
ENDBRANCH  29  35
ENDBRANCH   1  25
BRANCH  18  39
ATOM     39  C   LIG d   1       7.049  -2.960  -7.863  0.00  0.00    -0.033 C 
ATOM     40  H   LIG d   1       6.882  -3.785  -7.170  0.00  0.00     0.028 H 
ATOM     41  H   LIG d   1       6.227  -2.915  -8.578  0.00  0.00     0.028 H 
ATOM     42  H   LIG d   1       7.986  -3.117  -8.395  0.00  0.00     0.028 H 
ENDBRANCH  18  39
TORSDOF 3
ENDMDL
MODEL 7
REMARK VINA RESULT:      -6.6      5.538      9.032
REMARK  3 active torsions:
REMARK  status: ('A' for Active; 'I' for Inactive)
REMARK    1  A    between atoms: C_1  and  C_2 
REMARK    2  A    between atoms: C_5  and  C_8 
REMARK    3  A    between atoms: C_25  and  C_26 
ROOT
ATOM      1  C   LIG d   1       9.735   8.520  -5.208  0.00  0.00     0.028 A 
ATOM      2  C   LIG d   1       9.416   7.389  -5.875  0.00  0.00     0.101 A 
ATOM      3  O   LIG d   1       9.504   6.330  -5.053  0.00  0.00    -0.462 OA
ATOM      4  C   LIG d   1       9.881   6.704  -3.813  0.00  0.00     0.142 A 
ATOM      5  C   LIG d   1      10.050   8.100  -3.829  0.00  0.00     0.029 A 
ATOM      6  C   LIG d   1      10.442   8.773  -2.679  0.00  0.00    -0.039 A 
ATOM      7  C   LIG d   1      10.664   8.056  -1.509  0.00  0.00     0.026 A 
ATOM      8  C   LIG d   1      11.079   8.749  -0.273  0.00  0.00    -0.000 A 
ATOM      9  C   LIG d   1      11.263  10.126  -0.228  0.00  0.00    -0.053 A 
ATOM     10  C   LIG d   1      11.653  10.723   0.954  0.00  0.00    -0.061 A 
ATOM     11  C   LIG d   1      11.861   9.961   2.094  0.00  0.00    -0.061 A 
ATOM     12  C   LIG d   1      11.683   8.593   2.069  0.00  0.00    -0.047 A 
ATOM     13  C   LIG d   1      11.290   7.973   0.884  0.00  0.00     0.067 A 
ATOM     14  C   LIG d   1      11.087   6.519   0.801  0.00  0.00     0.345 A 
ATOM     15  O   LIG d   1      11.264   5.828   1.786  0.00  0.00    -0.244 OA
ATOM     16  O   LIG d   1      10.709   5.951  -0.354  0.00  0.00    -0.421 OA
ATOM     17  C   LIG d   1      10.495   6.661  -1.487  0.00  0.00     0.146 A 
ATOM     18  C   LIG d   1      10.106   5.997  -2.641  0.00  0.00     0.035 A 
ATOM     19  H   LIG d   1       9.133   7.342  -6.916  0.00  0.00     0.104 H 
ATOM     20  H   LIG d   1      10.572   9.844  -2.693  0.00  0.00     0.063 H 
ATOM     21  H   LIG d   1      11.102  10.725  -1.113  0.00  0.00     0.062 H 
ATOM     22  H   LIG d   1      11.796  11.792   0.991  0.00  0.00     0.062 H 
ATOM     23  H   LIG d   1      12.166  10.443   3.011  0.00  0.00     0.062 H 
ATOM     24  H   LIG d   1      11.849   8.007   2.961  0.00  0.00     0.063 H 
ENDROOT
BRANCH   1  25
ATOM     25  C   LIG d   1       9.761   9.900  -5.749  0.00  0.00    -0.014 A 
ATOM     26  C   LIG d   1      10.199  10.132  -7.052  0.00  0.00    -0.054 A 
ATOM     27  C   LIG d   1      10.222  11.418  -7.551  0.00  0.00    -0.058 A 
ATOM     28  H   LIG d   1      10.520   9.305  -7.670  0.00  0.00     0.062 H 
ATOM     29  C   LIG d   1       9.811  12.476  -6.761  0.00  0.00    -0.050 A 
ATOM     30  H   LIG d   1      10.562  11.598  -8.560  0.00  0.00     0.062 H 
ATOM     31  C   LIG d   1       9.374  12.252  -5.468  0.00  0.00    -0.058 A 
ATOM     32  C   LIG d   1       9.343  10.969  -4.960  0.00  0.00    -0.054 A 
ATOM     33  H   LIG d   1       9.055  13.083  -4.856  0.00  0.00     0.062 H 
ATOM     34  H   LIG d   1       8.998  10.796  -3.951  0.00  0.00     0.062 H 
BRANCH  29  35
ATOM     35  C   LIG d   1       9.837  13.879  -7.312  0.00  0.00    -0.040 C 
ATOM     36  H   LIG d   1       9.048  13.992  -8.056  0.00  0.00     0.028 H 
ATOM     37  H   LIG d   1       9.678  14.590  -6.502  0.00  0.00     0.028 H 
ATOM     38  H   LIG d   1      10.805  14.068  -7.777  0.00  0.00     0.028 H 
ENDBRANCH  29  35
ENDBRANCH   1  25
BRANCH  18  39
ATOM     39  C   LIG d   1       9.925   4.501  -2.621  0.00  0.00    -0.033 C 
ATOM     40  H   LIG d   1      10.460   4.060  -3.461  0.00  0.00     0.028 H 
ATOM     41  H   LIG d   1      10.321   4.100  -1.687  0.00  0.00     0.028 H 
ATOM     42  H   LIG d   1       8.865   4.262  -2.699  0.00  0.00     0.028 H 
ENDBRANCH  18  39
TORSDOF 3
ENDMDL
MODEL 8
REMARK VINA RESULT:      -6.6      5.685     10.991
REMARK  3 active torsions:
REMARK  status: ('A' for Active; 'I' for Inactive)
REMARK    1  A    between atoms: C_1  and  C_2 
REMARK    2  A    between atoms: C_5  and  C_8 
REMARK    3  A    between atoms: C_25  and  C_26 
ROOT
ATOM      1  C   LIG d   1      10.905   6.406  -0.447  0.00  0.00     0.028 A 
ATOM      2  C   LIG d   1      11.367   5.806   0.672  0.00  0.00     0.101 A 
ATOM      3  O   LIG d   1      11.659   6.731   1.602  0.00  0.00    -0.462 OA
ATOM      4  C   LIG d   1      11.406   7.976   1.149  0.00  0.00     0.142 A 
ATOM      5  C   LIG d   1      10.917   7.854  -0.165  0.00  0.00     0.029 A 
ATOM      6  C   LIG d   1      10.571   8.984  -0.892  0.00  0.00    -0.039 A 
ATOM      7  C   LIG d   1      10.707  10.240  -0.313  0.00  0.00     0.026 A 
ATOM      8  C   LIG d   1      10.342  11.457  -1.066  0.00  0.00    -0.000 A 
ATOM      9  C   LIG d   1       9.855  11.399  -2.366  0.00  0.00    -0.053 A 
ATOM     10  C   LIG d   1       9.531  12.568  -3.025  0.00  0.00    -0.061 A 
ATOM     11  C   LIG d   1       9.686  13.796  -2.400  0.00  0.00    -0.061 A 
ATOM     12  C   LIG d   1      10.168  13.874  -1.110  0.00  0.00    -0.047 A 
ATOM     13  C   LIG d   1      10.501  12.704  -0.429  0.00  0.00     0.067 A 
ATOM     14  C   LIG d   1      11.019  12.729   0.946  0.00  0.00     0.345 A 
ATOM     15  O   LIG d   1      11.166  13.793   1.517  0.00  0.00    -0.244 OA
ATOM     16  O   LIG d   1      11.332  11.586   1.575  0.00  0.00    -0.421 OA
ATOM     17  C   LIG d   1      11.194  10.368   1.000  0.00  0.00     0.146 A 
ATOM     18  C   LIG d   1      11.540   9.234   1.718  0.00  0.00     0.035 A 
ATOM     19  H   LIG d   1      11.485   4.740   0.801  0.00  0.00     0.104 H 
ATOM     20  H   LIG d   1      10.196   8.889  -1.900  0.00  0.00     0.063 H 
ATOM     21  H   LIG d   1       9.732  10.445  -2.858  0.00  0.00     0.062 H 
ATOM     22  H   LIG d   1       9.152  12.525  -4.035  0.00  0.00     0.062 H 
ATOM     23  H   LIG d   1       9.428  14.702  -2.929  0.00  0.00     0.062 H 
ATOM     24  H   LIG d   1      10.287  14.835  -0.631  0.00  0.00     0.063 H 
ENDROOT
BRANCH   1  25
ATOM     25  C   LIG d   1      10.472   5.745  -1.702  0.00  0.00    -0.014 A 
ATOM     26  C   LIG d   1       9.747   6.460  -2.655  0.00  0.00    -0.054 A 
ATOM     27  C   LIG d   1       9.347   5.840  -3.821  0.00  0.00    -0.058 A 
ATOM     28  H   LIG d   1       9.498   7.496  -2.480  0.00  0.00     0.062 H 
ATOM     29  C   LIG d   1       9.666   4.513  -4.046  0.00  0.00    -0.050 A 
ATOM     30  H   LIG d   1       8.785   6.393  -4.559  0.00  0.00     0.062 H 
ATOM     31  C   LIG d   1      10.386   3.799  -3.106  0.00  0.00    -0.058 A 
ATOM     32  C   LIG d   1      10.795   4.410  -1.937  0.00  0.00    -0.054 A 
ATOM     33  H   LIG d   1      10.631   2.763  -3.287  0.00  0.00     0.062 H 
ATOM     34  H   LIG d   1      11.361   3.853  -1.205  0.00  0.00     0.062 H 
BRANCH  29  35
ATOM     35  C   LIG d   1       9.227   3.842  -5.323  0.00  0.00    -0.040 C 
ATOM     36  H   LIG d   1      10.061   3.815  -6.024  0.00  0.00     0.028 H 
ATOM     37  H   LIG d   1       8.901   2.826  -5.105  0.00  0.00     0.028 H 
ATOM     38  H   LIG d   1       8.402   4.402  -5.763  0.00  0.00     0.028 H 
ENDBRANCH  29  35
ENDBRANCH   1  25
BRANCH  18  39
ATOM     39  C   LIG d   1      12.063   9.368   3.125  0.00  0.00    -0.033 C 
ATOM     40  H   LIG d   1      12.109   8.383   3.590  0.00  0.00     0.028 H 
ATOM     41  H   LIG d   1      13.061   9.806   3.102  0.00  0.00     0.028 H 
ATOM     42  H   LIG d   1      11.397  10.010   3.701  0.00  0.00     0.028 H 
ENDBRANCH  18  39
TORSDOF 3
ENDMDL
MODEL 9
REMARK VINA RESULT:      -6.6      5.040      9.970
REMARK  3 active torsions:
REMARK  status: ('A' for Active; 'I' for Inactive)
REMARK    1  A    between atoms: C_1  and  C_2 
REMARK    2  A    between atoms: C_5  and  C_8 
REMARK    3  A    between atoms: C_25  and  C_26 
ROOT
ATOM      1  C   LIG d   1       4.845  -7.346  -6.362  0.00  0.00     0.028 A 
ATOM      2  C   LIG d   1       4.232  -7.779  -7.485  0.00  0.00     0.101 A 
ATOM      3  O   LIG d   1       3.795  -6.732  -8.205  0.00  0.00    -0.462 OA
ATOM      4  C   LIG d   1       4.095  -5.564  -7.599  0.00  0.00     0.142 A 
ATOM      5  C   LIG d   1       4.773  -5.873  -6.405  0.00  0.00     0.029 A 
ATOM      6  C   LIG d   1       5.207  -4.858  -5.563  0.00  0.00    -0.039 A 
ATOM      7  C   LIG d   1       4.971  -3.533  -5.909  0.00  0.00     0.026 A 
ATOM      8  C   LIG d   1       5.426  -2.436  -5.031  0.00  0.00    -0.000 A 
ATOM      9  C   LIG d   1       6.099  -2.679  -3.840  0.00  0.00    -0.053 A 
ATOM     10  C   LIG d   1       6.501  -1.616  -3.056  0.00  0.00    -0.061 A 
ATOM     11  C   LIG d   1       6.239  -0.312  -3.447  0.00  0.00    -0.061 A 
ATOM     12  C   LIG d   1       5.573  -0.051  -4.627  0.00  0.00    -0.047 A 
ATOM     13  C   LIG d   1       5.159  -1.111  -5.431  0.00  0.00     0.067 A 
ATOM     14  C   LIG d   1       4.445  -0.891  -6.697  0.00  0.00     0.345 A 
ATOM     15  O   LIG d   1       4.202   0.243  -7.064  0.00  0.00    -0.244 OA
ATOM     16  O   LIG d   1       4.059  -1.932  -7.450  0.00  0.00    -0.421 OA
ATOM     17  C   LIG d   1       4.296  -3.219  -7.102  0.00  0.00     0.146 A 
ATOM     18  C   LIG d   1       3.863  -4.239  -7.935  0.00  0.00     0.035 A 
ATOM     19  H   LIG d   1       4.110  -8.816  -7.765  0.00  0.00     0.104 H 
ATOM     20  H   LIG d   1       5.726  -5.096  -4.647  0.00  0.00     0.063 H 
ATOM     21  H   LIG d   1       6.305  -3.693  -3.529  0.00  0.00     0.062 H 
ATOM     22  H   LIG d   1       7.024  -1.803  -2.130  0.00  0.00     0.062 H 
ATOM     23  H   LIG d   1       6.561   0.509  -2.823  0.00  0.00     0.062 H 
ATOM     24  H   LIG d   1       5.373   0.968  -4.924  0.00  0.00     0.063 H 
ENDROOT
BRANCH   1  25
ATOM     25  C   LIG d   1       5.465  -8.178  -5.303  0.00  0.00    -0.014 A 
ATOM     26  C   LIG d   1       4.696  -9.107  -4.604  0.00  0.00    -0.054 A 
ATOM     27  C   LIG d   1       5.277  -9.880  -3.620  0.00  0.00    -0.058 A 
ATOM     28  H   LIG d   1       3.646  -9.222  -4.833  0.00  0.00     0.062 H 
ATOM     29  C   LIG d   1       6.621  -9.734  -3.327  0.00  0.00    -0.050 A 
ATOM     30  H   LIG d   1       4.682 -10.599  -3.077  0.00  0.00     0.062 H 
ATOM     31  C   LIG d   1       7.390  -8.815  -4.018  0.00  0.00    -0.058 A 
ATOM     32  C   LIG d   1       6.820  -8.040  -5.008  0.00  0.00    -0.054 A 
ATOM     33  H   LIG d   1       8.439  -8.706  -3.784  0.00  0.00     0.062 H 
ATOM     34  H   LIG d   1       7.422  -7.326  -5.549  0.00  0.00     0.062 H 
BRANCH  29  35
ATOM     35  C   LIG d   1       7.251 -10.581  -2.250  0.00  0.00    -0.040 C 
ATOM     36  H   LIG d   1       7.432  -9.969  -1.366  0.00  0.00     0.028 H 
ATOM     37  H   LIG d   1       6.581 -11.401  -1.995  0.00  0.00     0.028 H 
ATOM     38  H   LIG d   1       8.197 -10.984  -2.613  0.00  0.00     0.028 H 
ENDBRANCH  29  35
ENDBRANCH   1  25
BRANCH  18  39
ATOM     39  C   LIG d   1       3.138  -3.906  -9.214  0.00  0.00    -0.033 C 
ATOM     40  H   LIG d   1       2.099  -3.665  -8.989  0.00  0.00     0.028 H 
ATOM     41  H   LIG d   1       3.615  -3.048  -9.688  0.00  0.00     0.028 H 
ATOM     42  H   LIG d   1       3.176  -4.762  -9.886  0.00  0.00     0.028 H 
ENDBRANCH  18  39
TORSDOF 3
ENDMDL
MODEL 10
REMARK VINA RESULT:      -6.6      5.843      8.947
REMARK  3 active torsions:
REMARK  status: ('A' for Active; 'I' for Inactive)
REMARK    1  A    between atoms: C_1  and  C_2 
REMARK    2  A    between atoms: C_5  and  C_8 
REMARK    3  A    between atoms: C_25  and  C_26 
ROOT
ATOM      1  C   LIG d   1       4.578  -3.668  -8.807  0.00  0.00     0.028 A 
ATOM      2  C   LIG d   1       4.187  -3.256 -10.032  0.00  0.00     0.101 A 
ATOM      3  O   LIG d   1       3.632  -2.035  -9.952  0.00  0.00    -0.462 OA
ATOM      4  C   LIG d   1       3.629  -1.583  -8.680  0.00  0.00     0.142 A 
ATOM      5  C   LIG d   1       4.221  -2.577  -7.880  0.00  0.00     0.029 A 
ATOM      6  C   LIG d   1       4.355  -2.388  -6.512  0.00  0.00    -0.039 A 
ATOM      7  C   LIG d   1       3.901  -1.207  -5.935  0.00  0.00     0.026 A 
ATOM      8  C   LIG d   1       4.034  -0.983  -4.482  0.00  0.00    -0.000 A 
ATOM      9  C   LIG d   1       4.609  -1.927  -3.641  0.00  0.00    -0.053 A 
ATOM     10  C   LIG d   1       4.707  -1.666  -2.289  0.00  0.00    -0.061 A 
ATOM     11  C   LIG d   1       4.238  -0.471  -1.765  0.00  0.00    -0.061 A 
ATOM     12  C   LIG d   1       3.664   0.479  -2.585  0.00  0.00    -0.047 A 
ATOM     13  C   LIG d   1       3.556   0.233  -3.952  0.00  0.00     0.067 A 
ATOM     14  C   LIG d   1       2.953   1.210  -4.870  0.00  0.00     0.345 A 
ATOM     15  O   LIG d   1       2.533   2.266  -4.437  0.00  0.00    -0.244 OA
ATOM     16  O   LIG d   1       2.863   0.944  -6.182  0.00  0.00    -0.421 OA
ATOM     17  C   LIG d   1       3.309  -0.210  -6.731  0.00  0.00     0.146 A 
ATOM     18  C   LIG d   1       3.178  -0.409  -8.096  0.00  0.00     0.035 A 
ATOM     19  H   LIG d   1       4.302  -3.824 -10.944  0.00  0.00     0.104 H 
ATOM     20  H   LIG d   1       4.809  -3.152  -5.899  0.00  0.00     0.063 H 
ATOM     21  H   LIG d   1       4.976  -2.860  -4.043  0.00  0.00     0.062 H 
ATOM     22  H   LIG d   1       5.154  -2.399  -1.635  0.00  0.00     0.062 H 
ATOM     23  H   LIG d   1       4.322  -0.282  -0.706  0.00  0.00     0.062 H 
ATOM     24  H   LIG d   1       3.301   1.407  -2.168  0.00  0.00     0.063 H 
ENDROOT
BRANCH   1  25
ATOM     25  C   LIG d   1       5.232  -4.953  -8.462  0.00  0.00    -0.014 A 
ATOM     26  C   LIG d   1       4.509  -5.955  -7.816  0.00  0.00    -0.054 A 
ATOM     27  C   LIG d   1       5.122  -7.150  -7.497  0.00  0.00    -0.058 A 
ATOM     28  H   LIG d   1       3.470  -5.796  -7.565  0.00  0.00     0.062 H 
ATOM     29  C   LIG d   1       6.451  -7.354  -7.819  0.00  0.00    -0.050 A 
ATOM     30  H   LIG d   1       4.562  -7.925  -6.997  0.00  0.00     0.062 H 
ATOM     31  C   LIG d   1       7.174  -6.365  -8.462  0.00  0.00    -0.058 A 
ATOM     32  C   LIG d   1       6.569  -5.168  -8.789  0.00  0.00    -0.054 A 
ATOM     33  H   LIG d   1       8.212  -6.531  -8.710  0.00  0.00     0.062 H 
ATOM     34  H   LIG d   1       7.134  -4.398  -9.294  0.00  0.00     0.062 H 
BRANCH  29  35
ATOM     35  C   LIG d   1       7.116  -8.662  -7.469  0.00  0.00    -0.040 C 
ATOM     36  H   LIG d   1       7.029  -8.837  -6.397  0.00  0.00     0.028 H 
ATOM     37  H   LIG d   1       6.630  -9.472  -8.011  0.00  0.00     0.028 H 
ATOM     38  H   LIG d   1       8.169  -8.619  -7.746  0.00  0.00     0.028 H 
ENDBRANCH  29  35
ENDBRANCH   1  25
BRANCH  18  39
ATOM     39  C   LIG d   1       2.544   0.658  -8.952  0.00  0.00    -0.033 C 
ATOM     40  H   LIG d   1       1.614   0.989  -8.489  0.00  0.00     0.028 H 
ATOM     41  H   LIG d   1       3.225   1.504  -9.041  0.00  0.00     0.028 H 
ATOM     42  H   LIG d   1       2.333   0.254  -9.941  0.00  0.00     0.028 H 
ENDBRANCH  18  39
TORSDOF 3
ENDMDL
