MODEL 1
REMARK VINA RESULT:      -7.4      0.000      0.000
REMARK  7 active torsions:
REMARK  status: ('A' for Active; 'I' for Inactive)
REMARK    1  A    between atoms: C_1  and  C_2 
REMARK    2  A    between atoms: C_4  and  N_10 
REMARK    3  A    between atoms: C_6  and  C_9 
REMARK    4  A    between atoms: C_7  and  C_8 
REMARK       I    between atoms: N_10  and  C_11 
REMARK    5  A    between atoms: C_11  and  C_13 
REMARK    6  A    between atoms: C_13  and  C_14 
REMARK    7  A    between atoms: C_13  and  C_18 
ROOT
ATOM      1  C   LIG d   1       3.450   1.504  -8.907  0.00  0.00    -0.045 A 
ATOM      2  C   LIG d   1       3.190   1.285  -7.569  0.00  0.00    -0.037 A 
ATOM      3  C   LIG d   1       3.114  -0.013  -7.081  0.00  0.00     0.034 A 
ATOM      4  C   LIG d   1       3.302  -1.087  -7.942  0.00  0.00    -0.037 A 
ATOM      5  C   LIG d   1       3.562  -0.862  -9.279  0.00  0.00    -0.045 A 
ATOM      6  C   LIG d   1       3.631   0.433  -9.762  0.00  0.00    -0.044 A 
ATOM      7  H   LIG d   1       3.045   2.123  -6.902  0.00  0.00     0.064 H 
ATOM      8  H   LIG d   1       3.244  -2.098  -7.566  0.00  0.00     0.064 H 
ENDROOT
BRANCH   3   9
ATOM      9  N   LIG d   1       2.852  -0.239  -5.726  0.00  0.00    -0.285 N 
ATOM     10  C   LIG d   1       3.868  -0.296  -4.842  0.00  0.00     0.238 C 
ATOM     11  O   LIG d   1       5.002  -0.069  -5.209  0.00  0.00    -0.275 OA
ATOM     12  H   LIG d   1       1.937  -0.354  -5.421  0.00  0.00     0.155 HD
BRANCH  10  13
ATOM     13  C   LIG d   1       3.595  -0.640  -3.400  0.00  0.00     0.224 C 
ATOM     14  H   LIG d   1       2.521  -0.716  -3.243  0.00  0.00     0.057 H 
BRANCH  13  15
ATOM     15  C   LIG d   1       4.258  -1.976  -3.061  0.00  0.00     0.409 C 
ATOM     16  F   LIG d   1       3.568  -2.585  -2.007  0.00  0.00    -0.170 F 
ATOM     17  F   LIG d   1       4.225  -2.811  -4.184  0.00  0.00    -0.170 F 
ATOM     18  F   LIG d   1       5.586  -1.756  -2.683  0.00  0.00    -0.170 F 
ENDBRANCH  13  15
BRANCH  13  19
ATOM     19  C   LIG d   1       4.167   0.456  -2.499  0.00  0.00     0.409 C 
ATOM     20  F   LIG d   1       5.366   0.929  -3.041  0.00  0.00    -0.170 F 
ATOM     21  F   LIG d   1       3.250   1.509  -2.406  0.00  0.00    -0.170 F 
ATOM     22  F   LIG d   1       4.406  -0.066  -1.223  0.00  0.00    -0.170 F 
ENDBRANCH  13  19
ENDBRANCH  10  13
ENDBRANCH   3   9
BRANCH   1  23
ATOM     23  C   LIG d   1       3.532   2.913  -9.437  0.00  0.00    -0.039 C 
ATOM     24  H   LIG d   1       3.519   2.891 -10.528  0.00  0.00     0.028 H 
ATOM     25  H   LIG d   1       2.680   3.488  -9.076  0.00  0.00     0.028 H 
ATOM     26  H   LIG d   1       4.457   3.377  -9.094  0.00  0.00     0.028 H 
ENDBRANCH   1  23
BRANCH   5  27
ATOM     27  C   LIG d   1       3.766  -2.026 -10.213  0.00  0.00    -0.039 C 
ATOM     28  H   LIG d   1       4.048  -2.908  -9.637  0.00  0.00     0.028 H 
ATOM     29  H   LIG d   1       2.840  -2.226 -10.753  0.00  0.00     0.028 H 
ATOM     30  H   LIG d   1       4.557  -1.788 -10.924  0.00  0.00     0.028 H 
ENDBRANCH   5  27
BRANCH   6  31
ATOM     31  C   LIG d   1       3.908   0.676 -11.224  0.00  0.00    -0.039 C 
ATOM     32  H   LIG d   1       4.669  -0.023 -11.570  0.00  0.00     0.028 H 
ATOM     33  H   LIG d   1       2.992   0.529 -11.796  0.00  0.00     0.028 H 
ATOM     34  H   LIG d   1       4.263   1.697 -11.362  0.00  0.00     0.028 H 
ENDBRANCH   6  31
TORSDOF 7
ENDMDL
MODEL 2
REMARK VINA RESULT:      -7.4      0.043      2.059
REMARK  7 active torsions:
REMARK  status: ('A' for Active; 'I' for Inactive)
REMARK    1  A    between atoms: C_1  and  C_2 
REMARK    2  A    between atoms: C_4  and  N_10 
REMARK    3  A    between atoms: C_6  and  C_9 
REMARK    4  A    between atoms: C_7  and  C_8 
REMARK       I    between atoms: N_10  and  C_11 
REMARK    5  A    between atoms: C_11  and  C_13 
REMARK    6  A    between atoms: C_13  and  C_14 
REMARK    7  A    between atoms: C_13  and  C_18 
ROOT
ATOM      1  C   LIG d   1       3.522  -0.858  -9.251  0.00  0.00    -0.045 A 
ATOM      2  C   LIG d   1       3.267  -1.073  -7.911  0.00  0.00    -0.037 A 
ATOM      3  C   LIG d   1       3.102   0.009  -7.055  0.00  0.00     0.034 A 
ATOM      4  C   LIG d   1       3.192   1.303  -7.551  0.00  0.00    -0.037 A 
ATOM      5  C   LIG d   1       3.447   1.511  -8.892  0.00  0.00    -0.045 A 
ATOM      6  C   LIG d   1       3.617   0.432  -9.740  0.00  0.00    -0.044 A 
ATOM      7  H   LIG d   1       3.197  -2.081  -7.529  0.00  0.00     0.064 H 
ATOM      8  H   LIG d   1       3.065   2.146  -6.888  0.00  0.00     0.064 H 
ENDROOT
BRANCH   3   9
ATOM      9  N   LIG d   1       2.844  -0.206  -5.697  0.00  0.00    -0.285 N 
ATOM     10  C   LIG d   1       3.865  -0.292  -4.822  0.00  0.00     0.238 C 
ATOM     11  O   LIG d   1       5.003  -0.100  -5.198  0.00  0.00    -0.275 OA
ATOM     12  H   LIG d   1       1.929  -0.293  -5.384  0.00  0.00     0.155 HD
BRANCH  10  13
ATOM     13  C   LIG d   1       3.595  -0.624  -3.377  0.00  0.00     0.224 C 
ATOM     14  H   LIG d   1       2.521  -0.708  -3.219  0.00  0.00     0.057 H 
BRANCH  13  15
ATOM     15  C   LIG d   1       4.269  -1.951  -3.024  0.00  0.00     0.409 C 
ATOM     16  F   LIG d   1       5.602  -1.719  -2.671  0.00  0.00    -0.170 F 
ATOM     17  F   LIG d   1       3.597  -2.543  -1.949  0.00  0.00    -0.170 F 
ATOM     18  F   LIG d   1       4.222  -2.806  -4.131  0.00  0.00    -0.170 F 
ENDBRANCH  13  15
BRANCH  13  19
ATOM     19  C   LIG d   1       4.156   0.486  -2.485  0.00  0.00     0.409 C 
ATOM     20  F   LIG d   1       5.365   0.945  -3.017  0.00  0.00    -0.170 F 
ATOM     21  F   LIG d   1       3.241   1.543  -2.426  0.00  0.00    -0.170 F 
ATOM     22  F   LIG d   1       4.373  -0.016  -1.197  0.00  0.00    -0.170 F 
ENDBRANCH  13  19
ENDBRANCH  10  13
ENDBRANCH   3   9
BRANCH   1  23
ATOM     23  C   LIG d   1       3.701  -2.031 -10.181  0.00  0.00    -0.039 C 
ATOM     24  H   LIG d   1       3.327  -2.935  -9.700  0.00  0.00     0.028 H 
ATOM     25  H   LIG d   1       3.147  -1.853 -11.102  0.00  0.00     0.028 H 
ATOM     26  H   LIG d   1       4.760  -2.154 -10.411  0.00  0.00     0.028 H 
ENDBRANCH   1  23
BRANCH   5  27
ATOM     27  C   LIG d   1       3.545   2.915  -9.430  0.00  0.00    -0.039 C 
ATOM     28  H   LIG d   1       2.547   3.278  -9.680  0.00  0.00     0.028 H 
ATOM     29  H   LIG d   1       3.990   3.564  -8.675  0.00  0.00     0.028 H 
ATOM     30  H   LIG d   1       4.166   2.919 -10.325  0.00  0.00     0.028 H 
ENDBRANCH   5  27
BRANCH   6  31
ATOM     31  C   LIG d   1       3.901   0.662 -11.203  0.00  0.00    -0.039 C 
ATOM     32  H   LIG d   1       4.252   1.684 -11.348  0.00  0.00     0.028 H 
ATOM     33  H   LIG d   1       4.667  -0.037 -11.538  0.00  0.00     0.028 H 
ATOM     34  H   LIG d   1       2.989   0.507 -11.779  0.00  0.00     0.028 H 
ENDBRANCH   6  31
TORSDOF 7
ENDMDL
MODEL 3
REMARK VINA RESULT:      -7.2      1.013      2.300
REMARK  7 active torsions:
REMARK  status: ('A' for Active; 'I' for Inactive)
REMARK    1  A    between atoms: C_1  and  C_2 
REMARK    2  A    between atoms: C_4  and  N_10 
REMARK    3  A    between atoms: C_6  and  C_9 
REMARK    4  A    between atoms: C_7  and  C_8 
REMARK       I    between atoms: N_10  and  C_11 
REMARK    5  A    between atoms: C_11  and  C_13 
REMARK    6  A    between atoms: C_13  and  C_14 
REMARK    7  A    between atoms: C_13  and  C_18 
ROOT
ATOM      1  C   LIG d   1       3.112   0.863  -8.554  0.00  0.00    -0.045 A 
ATOM      2  C   LIG d   1       3.176   0.804  -7.175  0.00  0.00    -0.037 A 
ATOM      3  C   LIG d   1       3.554  -0.377  -6.549  0.00  0.00     0.034 A 
ATOM      4  C   LIG d   1       3.870  -1.494  -7.312  0.00  0.00    -0.037 A 
ATOM      5  C   LIG d   1       3.805  -1.429  -8.690  0.00  0.00    -0.045 A 
ATOM      6  C   LIG d   1       3.422  -0.253  -9.310  0.00  0.00    -0.044 A 
ATOM      7  H   LIG d   1       2.930   1.674  -6.585  0.00  0.00     0.064 H 
ATOM      8  H   LIG d   1       4.165  -2.413  -6.828  0.00  0.00     0.064 H 
ENDROOT
BRANCH   3   9
ATOM      9  N   LIG d   1       3.619  -0.440  -5.153  0.00  0.00    -0.285 N 
ATOM     10  C   LIG d   1       4.777  -0.169  -4.519  0.00  0.00     0.238 C 
ATOM     11  O   LIG d   1       5.739   0.211  -5.153  0.00  0.00    -0.275 OA
ATOM     12  H   LIG d   1       2.831  -0.680  -4.640  0.00  0.00     0.155 HD
BRANCH  10  13
ATOM     13  C   LIG d   1       4.876  -0.335  -3.025  0.00  0.00     0.224 C 
ATOM     14  H   LIG d   1       5.924  -0.333  -2.728  0.00  0.00     0.057 H 
BRANCH  13  15
ATOM     15  C   LIG d   1       4.147   0.819  -2.334  0.00  0.00     0.409 C 
ATOM     16  F   LIG d   1       4.665   0.995  -1.047  0.00  0.00    -0.170 F 
ATOM     17  F   LIG d   1       4.327   1.993  -3.074  0.00  0.00    -0.170 F 
ATOM     18  F   LIG d   1       2.782   0.525  -2.251  0.00  0.00    -0.170 F 
ENDBRANCH  13  15
BRANCH  13  19
ATOM     19  C   LIG d   1       4.234  -1.662  -2.616  0.00  0.00     0.409 C 
ATOM     20  F   LIG d   1       4.436  -1.877  -1.248  0.00  0.00    -0.170 F 
ATOM     21  F   LIG d   1       2.861  -1.617  -2.882  0.00  0.00    -0.170 F 
ATOM     22  F   LIG d   1       4.816  -2.706  -3.343  0.00  0.00    -0.170 F 
ENDBRANCH  13  19
ENDBRANCH  10  13
ENDBRANCH   3   9
BRANCH   1  23
ATOM     23  C   LIG d   1       2.701   2.143  -9.234  0.00  0.00    -0.039 C 
ATOM     24  H   LIG d   1       3.061   2.139 -10.263  0.00  0.00     0.028 H 
ATOM     25  H   LIG d   1       1.615   2.225  -9.229  0.00  0.00     0.028 H 
ATOM     26  H   LIG d   1       3.133   2.992  -8.702  0.00  0.00     0.028 H 
ENDBRANCH   1  23
BRANCH   5  27
ATOM     27  C   LIG d   1       4.147  -2.640  -9.518  0.00  0.00    -0.039 C 
ATOM     28  H   LIG d   1       3.684  -3.523  -9.077  0.00  0.00     0.028 H 
ATOM     29  H   LIG d   1       3.775  -2.503 -10.534  0.00  0.00     0.028 H 
ATOM     30  H   LIG d   1       5.228  -2.770  -9.541  0.00  0.00     0.028 H 
ENDBRANCH   5  27
BRANCH   6  31
ATOM     31  C   LIG d   1       3.346  -0.186 -10.814  0.00  0.00    -0.039 C 
ATOM     32  H   LIG d   1       3.828   0.727 -11.161  0.00  0.00     0.028 H 
ATOM     33  H   LIG d   1       3.854  -1.050 -11.241  0.00  0.00     0.028 H 
ATOM     34  H   LIG d   1       2.302  -0.187 -11.125  0.00  0.00     0.028 H 
ENDBRANCH   6  31
TORSDOF 7
ENDMDL
MODEL 4
REMARK VINA RESULT:      -7.0      1.226      3.042
REMARK  7 active torsions:
REMARK  status: ('A' for Active; 'I' for Inactive)
REMARK    1  A    between atoms: C_1  and  C_2 
REMARK    2  A    between atoms: C_4  and  N_10 
REMARK    3  A    between atoms: C_6  and  C_9 
REMARK    4  A    between atoms: C_7  and  C_8 
REMARK       I    between atoms: N_10  and  C_11 
REMARK    5  A    between atoms: C_11  and  C_13 
REMARK    6  A    between atoms: C_13  and  C_14 
REMARK    7  A    between atoms: C_13  and  C_18 
ROOT
ATOM      1  C   LIG d   1       3.291  -1.398  -8.881  0.00  0.00    -0.045 A 
ATOM      2  C   LIG d   1       3.826  -1.443  -7.609  0.00  0.00    -0.037 A 
ATOM      3  C   LIG d   1       4.272  -0.276  -7.003  0.00  0.00     0.034 A 
ATOM      4  C   LIG d   1       4.178   0.934  -7.679  0.00  0.00    -0.037 A 
ATOM      5  C   LIG d   1       3.642   0.972  -8.951  0.00  0.00    -0.045 A 
ATOM      6  C   LIG d   1       3.204  -0.193  -9.553  0.00  0.00    -0.044 A 
ATOM      7  H   LIG d   1       3.897  -2.386  -7.086  0.00  0.00     0.064 H 
ATOM      8  H   LIG d   1       4.524   1.843  -7.210  0.00  0.00     0.064 H 
ENDROOT
BRANCH   3   9
ATOM      9  N   LIG d   1       4.814  -0.318  -5.714  0.00  0.00    -0.285 N 
ATOM     10  C   LIG d   1       4.017  -0.146  -4.641  0.00  0.00     0.238 C 
ATOM     11  O   LIG d   1       2.818  -0.039  -4.789  0.00  0.00    -0.275 OA
ATOM     12  H   LIG d   1       5.765  -0.470  -5.591  0.00  0.00     0.155 HD
BRANCH  10  13
ATOM     13  C   LIG d   1       4.614  -0.090  -3.258  0.00  0.00     0.224 C 
ATOM     14  H   LIG d   1       5.676   0.141  -3.331  0.00  0.00     0.057 H 
BRANCH  13  15
ATOM     15  C   LIG d   1       3.909   0.996  -2.443  0.00  0.00     0.409 C 
ATOM     16  F   LIG d   1       4.597   1.198  -1.242  0.00  0.00    -0.170 F 
ATOM     17  F   LIG d   1       3.887   2.188  -3.175  0.00  0.00    -0.170 F 
ATOM     18  F   LIG d   1       2.597   0.594  -2.167  0.00  0.00    -0.170 F 
ENDBRANCH  13  15
BRANCH  13  19
ATOM     19  C   LIG d   1       4.433  -1.444  -2.570  0.00  0.00     0.409 C 
ATOM     20  F   LIG d   1       3.146  -1.929  -2.824  0.00  0.00    -0.170 F 
ATOM     21  F   LIG d   1       5.378  -2.349  -3.065  0.00  0.00    -0.170 F 
ATOM     22  F   LIG d   1       4.611  -1.293  -1.190  0.00  0.00    -0.170 F 
ENDBRANCH  13  19
ENDBRANCH  10  13
ENDBRANCH   3   9
BRANCH   1  23
ATOM     23  C   LIG d   1       2.807  -2.665  -9.539  0.00  0.00    -0.039 C 
ATOM     24  H   LIG d   1       3.547  -3.453  -9.398  0.00  0.00     0.028 H 
ATOM     25  H   LIG d   1       1.862  -2.969  -9.091  0.00  0.00     0.028 H 
ATOM     26  H   LIG d   1       2.664  -2.488 -10.606  0.00  0.00     0.028 H 
ENDBRANCH   1  23
BRANCH   5  27
ATOM     27  C   LIG d   1       3.539   2.284  -9.685  0.00  0.00    -0.039 C 
ATOM     28  H   LIG d   1       3.557   2.102 -10.760  0.00  0.00     0.028 H 
ATOM     29  H   LIG d   1       2.605   2.779  -9.416  0.00  0.00     0.028 H 
ATOM     30  H   LIG d   1       4.379   2.921  -9.411  0.00  0.00     0.028 H 
ENDBRANCH   5  27
BRANCH   6  31
ATOM     31  C   LIG d   1       2.625  -0.149 -10.945  0.00  0.00    -0.039 C 
ATOM     32  H   LIG d   1       3.215  -0.786 -11.604  0.00  0.00     0.028 H 
ATOM     33  H   LIG d   1       1.596  -0.506 -10.921  0.00  0.00     0.028 H 
ATOM     34  H   LIG d   1       2.647   0.876 -11.315  0.00  0.00     0.028 H 
ENDBRANCH   6  31
TORSDOF 7
ENDMDL
MODEL 5
REMARK VINA RESULT:      -6.5      3.870      6.570
REMARK  7 active torsions:
REMARK  status: ('A' for Active; 'I' for Inactive)
REMARK    1  A    between atoms: C_1  and  C_2 
REMARK    2  A    between atoms: C_4  and  N_10 
REMARK    3  A    between atoms: C_6  and  C_9 
REMARK    4  A    between atoms: C_7  and  C_8 
REMARK       I    between atoms: N_10  and  C_11 
REMARK    5  A    between atoms: C_11  and  C_13 
REMARK    6  A    between atoms: C_13  and  C_14 
REMARK    7  A    between atoms: C_13  and  C_18 
ROOT
ATOM      1  C   LIG d   1       4.414  -1.987  -4.333  0.00  0.00    -0.045 A 
ATOM      2  C   LIG d   1       4.203  -1.606  -5.644  0.00  0.00    -0.037 A 
ATOM      3  C   LIG d   1       3.734  -0.330  -5.927  0.00  0.00     0.034 A 
ATOM      4  C   LIG d   1       3.481   0.560  -4.892  0.00  0.00    -0.037 A 
ATOM      5  C   LIG d   1       3.694   0.174  -3.583  0.00  0.00    -0.045 A 
ATOM      6  C   LIG d   1       4.155  -1.100  -3.304  0.00  0.00    -0.044 A 
ATOM      7  H   LIG d   1       4.402  -2.300  -6.447  0.00  0.00     0.064 H 
ATOM      8  H   LIG d   1       3.117   1.554  -5.109  0.00  0.00     0.064 H 
ENDROOT
BRANCH   3   9
ATOM      9  N   LIG d   1       3.520   0.059  -7.254  0.00  0.00    -0.285 N 
ATOM     10  C   LIG d   1       4.542   0.539  -7.990  0.00  0.00     0.238 C 
ATOM     11  O   LIG d   1       5.664   0.555  -7.529  0.00  0.00    -0.275 OA
ATOM     12  H   LIG d   1       2.635  -0.016  -7.645  0.00  0.00     0.155 HD
BRANCH  10  13
ATOM     13  C   LIG d   1       4.292   1.053  -9.384  0.00  0.00     0.224 C 
ATOM     14  H   LIG d   1       5.199   0.948  -9.978  0.00  0.00     0.057 H 
BRANCH  13  15
ATOM     15  C   LIG d   1       3.163   0.246 -10.030  0.00  0.00     0.409 C 
ATOM     16  F   LIG d   1       3.342  -1.113  -9.751  0.00  0.00    -0.170 F 
ATOM     17  F   LIG d   1       1.933   0.671  -9.514  0.00  0.00    -0.170 F 
ATOM     18  F   LIG d   1       3.182   0.444 -11.415  0.00  0.00    -0.170 F 
ENDBRANCH  13  15
BRANCH  13  19
ATOM     19  C   LIG d   1       3.892   2.528  -9.320  0.00  0.00     0.409 C 
ATOM     20  F   LIG d   1       3.235   2.886 -10.502  0.00  0.00    -0.170 F 
ATOM     21  F   LIG d   1       3.038   2.732  -8.231  0.00  0.00    -0.170 F 
ATOM     22  F   LIG d   1       5.038   3.316  -9.167  0.00  0.00    -0.170 F 
ENDBRANCH  13  19
ENDBRANCH  10  13
ENDBRANCH   3   9
BRANCH   1  23
ATOM     23  C   LIG d   1       4.922  -3.372  -4.024  0.00  0.00    -0.039 C 
ATOM     24  H   LIG d   1       4.273  -3.839  -3.283  0.00  0.00     0.028 H 
ATOM     25  H   LIG d   1       4.923  -3.970  -4.934  0.00  0.00     0.028 H 
ATOM     26  H   LIG d   1       5.937  -3.307  -3.630  0.00  0.00     0.028 H 
ENDBRANCH   1  23
BRANCH   5  27
ATOM     27  C   LIG d   1       3.420   1.139  -2.459  0.00  0.00    -0.039 C 
ATOM     28  H   LIG d   1       3.247   2.134  -2.869  0.00  0.00     0.028 H 
ATOM     29  H   LIG d   1       2.537   0.814  -1.909  0.00  0.00     0.028 H 
ATOM     30  H   LIG d   1       4.277   1.167  -1.787  0.00  0.00     0.028 H 
ENDBRANCH   5  27
BRANCH   6  31
ATOM     31  C   LIG d   1       4.381  -1.522  -1.875  0.00  0.00    -0.039 C 
ATOM     32  H   LIG d   1       3.425  -1.767  -1.413  0.00  0.00     0.028 H 
ATOM     33  H   LIG d   1       5.031  -2.396  -1.852  0.00  0.00     0.028 H 
ATOM     34  H   LIG d   1       4.851  -0.706  -1.325  0.00  0.00     0.028 H 
ENDBRANCH   6  31
TORSDOF 7
ENDMDL
MODEL 6
REMARK VINA RESULT:      -6.4      3.969      6.660
REMARK  7 active torsions:
REMARK  status: ('A' for Active; 'I' for Inactive)
REMARK    1  A    between atoms: C_1  and  C_2 
REMARK    2  A    between atoms: C_4  and  N_10 
REMARK    3  A    between atoms: C_6  and  C_9 
REMARK    4  A    between atoms: C_7  and  C_8 
REMARK       I    between atoms: N_10  and  C_11 
REMARK    5  A    between atoms: C_11  and  C_13 
REMARK    6  A    between atoms: C_13  and  C_14 
REMARK    7  A    between atoms: C_13  and  C_18 
ROOT
ATOM      1  C   LIG d   1       3.577   0.368  -3.288  0.00  0.00    -0.045 A 
ATOM      2  C   LIG d   1       3.091   0.711  -4.534  0.00  0.00    -0.037 A 
ATOM      3  C   LIG d   1       3.163  -0.199  -5.581  0.00  0.00     0.034 A 
ATOM      4  C   LIG d   1       3.723  -1.452  -5.370  0.00  0.00    -0.037 A 
ATOM      5  C   LIG d   1       4.208  -1.789  -4.121  0.00  0.00    -0.045 A 
ATOM      6  C   LIG d   1       4.140  -0.878  -3.083  0.00  0.00    -0.044 A 
ATOM      7  H   LIG d   1       2.655   1.686  -4.695  0.00  0.00     0.064 H 
ATOM      8  H   LIG d   1       3.781  -2.163  -6.181  0.00  0.00     0.064 H 
ENDROOT
BRANCH   3   9
ATOM      9  N   LIG d   1       2.671   0.145  -6.844  0.00  0.00    -0.285 N 
ATOM     10  C   LIG d   1       3.506   0.633  -7.783  0.00  0.00     0.238 C 
ATOM     11  O   LIG d   1       4.696   0.696  -7.560  0.00  0.00    -0.275 OA
ATOM     12  H   LIG d   1       1.728   0.033  -7.045  0.00  0.00     0.155 HD
BRANCH  10  13
ATOM     13  C   LIG d   1       2.961   1.099  -9.108  0.00  0.00     0.224 C 
ATOM     14  H   LIG d   1       2.054   1.679  -8.944  0.00  0.00     0.057 H 
BRANCH  13  15
ATOM     15  C   LIG d   1       4.004   1.971  -9.810  0.00  0.00     0.409 C 
ATOM     16  F   LIG d   1       5.072   1.173 -10.232  0.00  0.00    -0.170 F 
ATOM     17  F   LIG d   1       3.420   2.594 -10.919  0.00  0.00    -0.170 F 
ATOM     18  F   LIG d   1       4.472   2.945  -8.922  0.00  0.00    -0.170 F 
ENDBRANCH  13  15
BRANCH  13  19
ATOM     19  C   LIG d   1       2.638  -0.114  -9.982  0.00  0.00     0.409 C 
ATOM     20  F   LIG d   1       3.510  -1.161  -9.667  0.00  0.00    -0.170 F 
ATOM     21  F   LIG d   1       1.320  -0.519  -9.749  0.00  0.00    -0.170 F 
ATOM     22  F   LIG d   1       2.789   0.228 -11.331  0.00  0.00    -0.170 F 
ENDBRANCH  13  19
ENDBRANCH  10  13
ENDBRANCH   3   9
BRANCH   1  23
ATOM     23  C   LIG d   1       3.500   1.356  -2.152  0.00  0.00    -0.039 C 
ATOM     24  H   LIG d   1       3.326   0.821  -1.218  0.00  0.00     0.028 H 
ATOM     25  H   LIG d   1       4.436   1.909  -2.086  0.00  0.00     0.028 H 
ATOM     26  H   LIG d   1       2.678   2.051  -2.330  0.00  0.00     0.028 H 
ENDBRANCH   1  23
BRANCH   5  27
ATOM     27  C   LIG d   1       4.815  -3.149  -3.891  0.00  0.00    -0.039 C 
ATOM     28  H   LIG d   1       4.029  -3.904  -3.899  0.00  0.00     0.028 H 
ATOM     29  H   LIG d   1       5.534  -3.364  -4.682  0.00  0.00     0.028 H 
ATOM     30  H   LIG d   1       5.322  -3.163  -2.927  0.00  0.00     0.028 H 
ENDBRANCH   5  27
BRANCH   6  31
ATOM     31  C   LIG d   1       4.675  -1.246  -1.723  0.00  0.00    -0.039 C 
ATOM     32  H   LIG d   1       3.851  -1.551  -1.078  0.00  0.00     0.028 H 
ATOM     33  H   LIG d   1       5.382  -2.070  -1.822  0.00  0.00     0.028 H 
ATOM     34  H   LIG d   1       5.179  -0.385  -1.285  0.00  0.00     0.028 H 
ENDBRANCH   6  31
TORSDOF 7
ENDMDL
MODEL 7
REMARK VINA RESULT:      -6.2      4.417      5.829
REMARK  7 active torsions:
REMARK  status: ('A' for Active; 'I' for Inactive)
REMARK    1  A    between atoms: C_1  and  C_2 
REMARK    2  A    between atoms: C_4  and  N_10 
REMARK    3  A    between atoms: C_6  and  C_9 
REMARK    4  A    between atoms: C_7  and  C_8 
REMARK       I    between atoms: N_10  and  C_11 
REMARK    5  A    between atoms: C_11  and  C_13 
REMARK    6  A    between atoms: C_13  and  C_14 
REMARK    7  A    between atoms: C_13  and  C_18 
ROOT
ATOM      1  C   LIG d   1       9.072   2.759  -6.227  0.00  0.00    -0.045 A 
ATOM      2  C   LIG d   1       8.507   1.603  -5.723  0.00  0.00    -0.037 A 
ATOM      3  C   LIG d   1       8.395   1.429  -4.349  0.00  0.00     0.034 A 
ATOM      4  C   LIG d   1       8.850   2.418  -3.487  0.00  0.00    -0.037 A 
ATOM      5  C   LIG d   1       9.414   3.571  -3.997  0.00  0.00    -0.045 A 
ATOM      6  C   LIG d   1       9.529   3.739  -5.366  0.00  0.00    -0.044 A 
ATOM      7  H   LIG d   1       8.153   0.837  -6.396  0.00  0.00     0.064 H 
ATOM      8  H   LIG d   1       8.764   2.286  -2.419  0.00  0.00     0.064 H 
ENDROOT
BRANCH   3   9
ATOM      9  N   LIG d   1       7.823   0.260  -3.836  0.00  0.00    -0.285 N 
ATOM     10  C   LIG d   1       6.502   0.217  -3.570  0.00  0.00     0.238 C 
ATOM     11  O   LIG d   1       5.796   1.161  -3.854  0.00  0.00    -0.275 OA
ATOM     12  H   LIG d   1       8.376  -0.519  -3.670  0.00  0.00     0.155 HD
BRANCH  10  13
ATOM     13  C   LIG d   1       5.903  -1.006  -2.922  0.00  0.00     0.224 C 
ATOM     14  H   LIG d   1       6.626  -1.443  -2.234  0.00  0.00     0.057 H 
BRANCH  13  15
ATOM     15  C   LIG d   1       4.642  -0.608  -2.152  0.00  0.00     0.409 C 
ATOM     16  F   LIG d   1       3.591  -0.405  -3.052  0.00  0.00    -0.170 F 
ATOM     17  F   LIG d   1       4.301  -1.629  -1.258  0.00  0.00    -0.170 F 
ATOM     18  F   LIG d   1       4.882   0.573  -1.442  0.00  0.00    -0.170 F 
ENDBRANCH  13  15
BRANCH  13  19
ATOM     19  C   LIG d   1       5.542  -2.029  -4.000  0.00  0.00     0.409 C 
ATOM     20  F   LIG d   1       4.563  -2.899  -3.509  0.00  0.00    -0.170 F 
ATOM     21  F   LIG d   1       5.050  -1.363  -5.128  0.00  0.00    -0.170 F 
ATOM     22  F   LIG d   1       6.682  -2.760  -4.351  0.00  0.00    -0.170 F 
ENDBRANCH  13  19
ENDBRANCH  10  13
ENDBRANCH   3   9
BRANCH   1  23
ATOM     23  C   LIG d   1       9.194   2.948  -7.717  0.00  0.00    -0.039 C 
ATOM     24  H   LIG d   1       9.362   4.003  -7.936  0.00  0.00     0.028 H 
ATOM     25  H   LIG d   1      10.032   2.361  -8.091  0.00  0.00     0.028 H 
ATOM     26  H   LIG d   1       8.274   2.619  -8.202  0.00  0.00     0.028 H 
ENDBRANCH   1  23
BRANCH   5  27
ATOM     27  C   LIG d   1       9.907   4.645  -3.063  0.00  0.00    -0.039 C 
ATOM     28  H   LIG d   1      10.997   4.648  -3.057  0.00  0.00     0.028 H 
ATOM     29  H   LIG d   1       9.543   5.616  -3.400  0.00  0.00     0.028 H 
ATOM     30  H   LIG d   1       9.540   4.448  -2.057  0.00  0.00     0.028 H 
ENDBRANCH   5  27
BRANCH   6  31
ATOM     31  C   LIG d   1      10.150   4.995  -5.919  0.00  0.00    -0.039 C 
ATOM     32  H   LIG d   1      11.050   5.236  -5.353  0.00  0.00     0.028 H 
ATOM     33  H   LIG d   1      10.411   4.840  -6.966  0.00  0.00     0.028 H 
ATOM     34  H   LIG d   1       9.440   5.818  -5.839  0.00  0.00     0.028 H 
ENDBRANCH   6  31
TORSDOF 7
ENDMDL
MODEL 8
REMARK VINA RESULT:      -6.2      4.023      6.349
REMARK  7 active torsions:
REMARK  status: ('A' for Active; 'I' for Inactive)
REMARK    1  A    between atoms: C_1  and  C_2 
REMARK    2  A    between atoms: C_4  and  N_10 
REMARK    3  A    between atoms: C_6  and  C_9 
REMARK    4  A    between atoms: C_7  and  C_8 
REMARK       I    between atoms: N_10  and  C_11 
REMARK    5  A    between atoms: C_11  and  C_13 
REMARK    6  A    between atoms: C_13  and  C_14 
REMARK    7  A    between atoms: C_13  and  C_18 
ROOT
ATOM      1  C   LIG d   1       3.728  -0.103  -3.664  0.00  0.00    -0.045 A 
ATOM      2  C   LIG d   1       3.600   0.447  -4.924  0.00  0.00    -0.037 A 
ATOM      3  C   LIG d   1       3.930  -0.305  -6.044  0.00  0.00     0.034 A 
ATOM      4  C   LIG d   1       4.387  -1.607  -5.893  0.00  0.00    -0.037 A 
ATOM      5  C   LIG d   1       4.513  -2.152  -4.630  0.00  0.00    -0.045 A 
ATOM      6  C   LIG d   1       4.189  -1.398  -3.517  0.00  0.00    -0.044 A 
ATOM      7  H   LIG d   1       3.244   1.460  -5.038  0.00  0.00     0.064 H 
ATOM      8  H   LIG d   1       4.644  -2.195  -6.762  0.00  0.00     0.064 H 
ENDROOT
BRANCH   3   9
ATOM      9  N   LIG d   1       3.801   0.249  -7.323  0.00  0.00    -0.285 N 
ATOM     10  C   LIG d   1       4.868   0.810  -7.925  0.00  0.00     0.238 C 
ATOM     11  O   LIG d   1       5.958   0.760  -7.396  0.00  0.00    -0.275 OA
ATOM     12  H   LIG d   1       2.943   0.230  -7.776  0.00  0.00     0.155 HD
BRANCH  10  13
ATOM     13  C   LIG d   1       4.708   1.496  -9.257  0.00  0.00     0.224 C 
ATOM     14  H   LIG d   1       5.448   2.290  -9.348  0.00  0.00     0.057 H 
BRANCH  13  15
ATOM     15  C   LIG d   1       4.910   0.480 -10.383  0.00  0.00     0.409 C 
ATOM     16  F   LIG d   1       4.355  -0.748 -10.007  0.00  0.00    -0.170 F 
ATOM     17  F   LIG d   1       4.280   0.940 -11.545  0.00  0.00    -0.170 F 
ATOM     18  F   LIG d   1       6.278   0.318 -10.626  0.00  0.00    -0.170 F 
ENDBRANCH  13  15
BRANCH  13  19
ATOM     19  C   LIG d   1       3.304   2.095  -9.357  0.00  0.00     0.409 C 
ATOM     20  F   LIG d   1       2.976   2.720  -8.149  0.00  0.00    -0.170 F 
ATOM     21  F   LIG d   1       3.270   3.035 -10.392  0.00  0.00    -0.170 F 
ATOM     22  F   LIG d   1       2.380   1.078  -9.621  0.00  0.00    -0.170 F 
ENDBRANCH  13  19
ENDBRANCH  10  13
ENDBRANCH   3   9
BRANCH   1  23
ATOM     23  C   LIG d   1       3.370   0.712  -2.448  0.00  0.00    -0.039 C 
ATOM     24  H   LIG d   1       3.695   0.186  -1.550  0.00  0.00     0.028 H 
ATOM     25  H   LIG d   1       3.866   1.681  -2.500  0.00  0.00     0.028 H 
ATOM     26  H   LIG d   1       2.290   0.857  -2.412  0.00  0.00     0.028 H 
ENDBRANCH   1  23
BRANCH   5  27
ATOM     27  C   LIG d   1       5.008  -3.565  -4.465  0.00  0.00    -0.039 C 
ATOM     28  H   LIG d   1       6.083  -3.554  -4.281  0.00  0.00     0.028 H 
ATOM     29  H   LIG d   1       4.500  -4.032  -3.621  0.00  0.00     0.028 H 
ATOM     30  H   LIG d   1       4.801  -4.131  -5.373  0.00  0.00     0.028 H 
ENDBRANCH   5  27
BRANCH   6  31
ATOM     31  C   LIG d   1       4.333  -1.992  -2.139  0.00  0.00    -0.039 C 
ATOM     32  H   LIG d   1       3.654  -2.838  -2.035  0.00  0.00     0.028 H 
ATOM     33  H   LIG d   1       5.359  -2.331  -1.995  0.00  0.00     0.028 H 
ATOM     34  H   LIG d   1       4.091  -1.238  -1.390  0.00  0.00     0.028 H 
ENDBRANCH   6  31
TORSDOF 7
ENDMDL
MODEL 9
REMARK VINA RESULT:      -6.0      3.626      4.324
REMARK  7 active torsions:
REMARK  status: ('A' for Active; 'I' for Inactive)
REMARK    1  A    between atoms: C_1  and  C_2 
REMARK    2  A    between atoms: C_4  and  N_10 
REMARK    3  A    between atoms: C_6  and  C_9 
REMARK    4  A    between atoms: C_7  and  C_8 
REMARK       I    between atoms: N_10  and  C_11 
REMARK    5  A    between atoms: C_11  and  C_13 
REMARK    6  A    between atoms: C_13  and  C_14 
REMARK    7  A    between atoms: C_13  and  C_18 
ROOT
ATOM      1  C   LIG d   1       7.941   1.511  -7.500  0.00  0.00    -0.045 A 
ATOM      2  C   LIG d   1       6.875   0.770  -7.027  0.00  0.00    -0.037 A 
ATOM      3  C   LIG d   1       6.969   0.129  -5.798  0.00  0.00     0.034 A 
ATOM      4  C   LIG d   1       8.133   0.236  -5.049  0.00  0.00    -0.037 A 
ATOM      5  C   LIG d   1       9.195   0.979  -5.527  0.00  0.00    -0.045 A 
ATOM      6  C   LIG d   1       9.100   1.611  -6.753  0.00  0.00    -0.044 A 
ATOM      7  H   LIG d   1       5.971   0.689  -7.612  0.00  0.00     0.064 H 
ATOM      8  H   LIG d   1       8.208  -0.261  -4.093  0.00  0.00     0.064 H 
ENDROOT
BRANCH   3   9
ATOM      9  N   LIG d   1       5.891  -0.623  -5.317  0.00  0.00    -0.285 N 
ATOM     10  C   LIG d   1       5.139  -0.149  -4.304  0.00  0.00     0.238 C 
ATOM     11  O   LIG d   1       5.343   0.964  -3.867  0.00  0.00    -0.275 OA
ATOM     12  H   LIG d   1       5.686  -1.485  -5.711  0.00  0.00     0.155 HD
BRANCH  10  13
ATOM     13  C   LIG d   1       4.042  -1.001  -3.716  0.00  0.00     0.224 C 
ATOM     14  H   LIG d   1       3.794  -1.802  -4.411  0.00  0.00     0.057 H 
BRANCH  13  15
ATOM     15  C   LIG d   1       4.518  -1.602  -2.392  0.00  0.00     0.409 C 
ATOM     16  F   LIG d   1       3.718  -2.701  -2.065  0.00  0.00    -0.170 F 
ATOM     17  F   LIG d   1       5.850  -2.015  -2.520  0.00  0.00    -0.170 F 
ATOM     18  F   LIG d   1       4.423  -0.639  -1.382  0.00  0.00    -0.170 F 
ENDBRANCH  13  15
BRANCH  13  19
ATOM     19  C   LIG d   1       2.804  -0.138  -3.469  0.00  0.00     0.409 C 
ATOM     20  F   LIG d   1       2.387   0.437  -4.674  0.00  0.00    -0.170 F 
ATOM     21  F   LIG d   1       1.776  -0.934  -2.953  0.00  0.00    -0.170 F 
ATOM     22  F   LIG d   1       3.114   0.874  -2.553  0.00  0.00    -0.170 F 
ENDBRANCH  13  19
ENDBRANCH  10  13
ENDBRANCH   3   9
BRANCH   1  23
ATOM     23  C   LIG d   1       7.840   2.207  -8.833  0.00  0.00    -0.039 C 
ATOM     24  H   LIG d   1       8.255   1.564  -9.610  0.00  0.00     0.028 H 
ATOM     25  H   LIG d   1       6.795   2.417  -9.056  0.00  0.00     0.028 H 
ATOM     26  H   LIG d   1       8.400   3.142  -8.798  0.00  0.00     0.028 H 
ENDBRANCH   1  23
BRANCH   5  27
ATOM     27  C   LIG d   1      10.457   1.096  -4.714  0.00  0.00    -0.039 C 
ATOM     28  H   LIG d   1      10.813   0.100  -4.450  0.00  0.00     0.028 H 
ATOM     29  H   LIG d   1      11.220   1.611  -5.299  0.00  0.00     0.028 H 
ATOM     30  H   LIG d   1      10.254   1.661  -3.805  0.00  0.00     0.028 H 
ENDBRANCH   5  27
BRANCH   6  31
ATOM     31  C   LIG d   1      10.263   2.416  -7.276  0.00  0.00    -0.039 C 
ATOM     32  H   LIG d   1      10.037   2.769  -8.282  0.00  0.00     0.028 H 
ATOM     33  H   LIG d   1      10.436   3.271  -6.621  0.00  0.00     0.028 H 
ATOM     34  H   LIG d   1      11.155   1.791  -7.301  0.00  0.00     0.028 H 
ENDBRANCH   6  31
TORSDOF 7
ENDMDL
