MODEL 1
REMARK VINA RESULT:      -8.0      0.000      0.000
REMARK  3 active torsions:
REMARK  status: ('A' for Active; 'I' for Inactive)
REMARK    1  A    between atoms: C_3  and  C_11 
REMARK    2  A    between atoms: C_5  and  C_7 
REMARK       I    between atoms: N_25  and  C_27 
REMARK    3  A    between atoms: C_27  and  C_29 
ROOT
ATOM      1  C   LIG d   1       3.709  -0.895  -6.456  0.00  0.00     0.047 C 
ATOM      2  C   LIG d   1       2.653  -0.106  -6.884  0.00  0.00    -0.047 C 
ATOM      3  C   LIG d   1       2.458   0.064  -8.256  0.00  0.00    -0.041 C 
ATOM      4  C   LIG d   1       3.284  -0.537  -9.157  0.00  0.00     0.027 C 
ATOM      5  N   LIG d   1       4.260  -1.380  -8.745  0.00  0.00    -0.311 N 
ATOM      6  C   LIG d   1       4.534  -1.509  -7.424  0.00  0.00     0.259 C 
ATOM      7  O   LIG d   1       5.501  -2.162  -7.069  0.00  0.00    -0.267 OA
ATOM      8  C   LIG d   1       5.020  -2.227  -9.664  0.00  0.00     0.031 C 
ATOM      9  C   LIG d   1       4.989  -1.711 -11.090  0.00  0.00    -0.006 C 
ATOM     10  H   LIG d   1       5.339  -2.506 -11.748  0.00  0.00     0.033 H 
ATOM     11  C   LIG d   1       3.552  -1.365 -11.487  0.00  0.00    -0.037 C 
ATOM     12  C   LIG d   1       3.078  -0.200 -10.616  0.00  0.00     0.016 C 
ATOM     13  H   LIG d   1       2.025   0.008 -10.807  0.00  0.00     0.038 H 
ATOM     14  C   LIG d   1       3.943   1.031 -10.938  0.00  0.00     0.023 C 
ATOM     15  N   LIG d   1       5.332   0.671 -10.615  0.00  0.00    -0.295 N 
ATOM     16  C   LIG d   1       5.908  -0.511 -11.269  0.00  0.00     0.019 C 
ATOM     17  C   LIG d   1       6.066   1.415  -9.765  0.00  0.00     0.267 C 
ATOM     18  O   LIG d   1       5.581   2.400  -9.245  0.00  0.00    -0.268 OA
ATOM     19  H   LIG d   1       1.992   0.364  -6.172  0.00  0.00     0.063 H 
ATOM     20  H   LIG d   1       1.645   0.683  -8.607  0.00  0.00     0.064 H 
ATOM     21  H   LIG d   1       6.056  -2.272  -9.327  0.00  0.00     0.050 H 
ATOM     22  H   LIG d   1       4.601  -3.234  -9.644  0.00  0.00     0.050 H 
ATOM     23  H   LIG d   1       2.909  -2.230 -11.325  0.00  0.00     0.028 H 
ATOM     24  H   LIG d   1       3.522  -1.075 -12.537  0.00  0.00     0.028 H 
ATOM     25  H   LIG d   1       3.841   1.289 -11.992  0.00  0.00     0.047 H 
ATOM     26  H   LIG d   1       3.637   1.873 -10.318  0.00  0.00     0.047 H 
ATOM     27  H   LIG d   1       6.879  -0.731 -10.825  0.00  0.00     0.047 H 
ATOM     28  H   LIG d   1       6.034  -0.307 -12.332  0.00  0.00     0.047 H 
ENDROOT
BRANCH   1  29
ATOM     29  C   LIG d   1       3.968  -1.089  -5.009  0.00  0.00    -0.012 A 
ATOM     30  C   LIG d   1       4.052  -2.377  -4.481  0.00  0.00    -0.054 A 
ATOM     31  C   LIG d   1       4.294  -2.552  -3.133  0.00  0.00    -0.061 A 
ATOM     32  H   LIG d   1       3.929  -3.235  -5.125  0.00  0.00     0.062 H 
ATOM     33  C   LIG d   1       4.453  -1.454  -2.308  0.00  0.00    -0.050 A 
ATOM     34  H   LIG d   1       4.359  -3.549  -2.723  0.00  0.00     0.062 H 
ATOM     35  C   LIG d   1       4.371  -0.173  -2.827  0.00  0.00     0.055 A 
ATOM     36  H   LIG d   1       4.642  -1.596  -1.254  0.00  0.00     0.062 H 
ATOM     37  C   LIG d   1       4.134   0.014  -4.173  0.00  0.00    -0.042 A 
ATOM     38  H   LIG d   1       4.075   1.014  -4.578  0.00  0.00     0.063 H 
BRANCH  35  39
ATOM     39  C   LIG d   1       4.546   1.018  -1.921  0.00  0.00     0.417 C 
ATOM     40  F   LIG d   1       3.379   1.791  -1.937  0.00  0.00    -0.166 F 
ATOM     41  F   LIG d   1       4.797   0.579  -0.617  0.00  0.00    -0.166 F 
ATOM     42  F   LIG d   1       5.623   1.790  -2.369  0.00  0.00    -0.166 F 
ENDBRANCH  35  39
ENDBRANCH   1  29
BRANCH  17  43
ATOM     43  C   LIG d   1       7.465   1.031  -9.464  0.00  0.00     0.143 A 
ATOM     44  N   LIG d   1       8.463   1.527 -10.189  0.00  0.00    -0.247 NA
ATOM     45  C   LIG d   1       9.707   1.187  -9.914  0.00  0.00     0.046 A 
ATOM     46  C   LIG d   1       9.976   0.305  -8.878  0.00  0.00     0.046 A 
ATOM     47  H   LIG d   1      10.518   1.594 -10.500  0.00  0.00     0.085 H 
ATOM     48  N   LIG d   1       8.987  -0.195  -8.158  0.00  0.00    -0.260 NA
ATOM     49  H   LIG d   1      10.996   0.027  -8.659  0.00  0.00     0.085 H 
ATOM     50  C   LIG d   1       7.738   0.144  -8.423  0.00  0.00     0.058 A 
ATOM     51  H   LIG d   1       6.930  -0.264  -7.834  0.00  0.00     0.085 H 
ENDBRANCH  17  43
TORSDOF 3
ENDMDL
MODEL 2
REMARK VINA RESULT:      -7.9      1.596      2.180
REMARK  3 active torsions:
REMARK  status: ('A' for Active; 'I' for Inactive)
REMARK    1  A    between atoms: C_3  and  C_11 
REMARK    2  A    between atoms: C_5  and  C_7 
REMARK       I    between atoms: N_25  and  C_27 
REMARK    3  A    between atoms: C_27  and  C_29 
ROOT
ATOM      1  C   LIG d   1       4.983  -1.617  -6.326  0.00  0.00     0.047 C 
ATOM      2  C   LIG d   1       3.952  -1.775  -7.238  0.00  0.00    -0.047 C 
ATOM      3  C   LIG d   1       4.266  -1.858  -8.596  0.00  0.00    -0.041 C 
ATOM      4  C   LIG d   1       5.560  -1.790  -9.017  0.00  0.00     0.027 C 
ATOM      5  N   LIG d   1       6.575  -1.727  -8.124  0.00  0.00    -0.311 N 
ATOM      6  C   LIG d   1       6.311  -1.564  -6.804  0.00  0.00     0.259 C 
ATOM      7  O   LIG d   1       7.229  -1.370  -6.024  0.00  0.00    -0.267 OA
ATOM      8  C   LIG d   1       7.979  -1.886  -8.502  0.00  0.00     0.031 C 
ATOM      9  C   LIG d   1       8.219  -1.606  -9.974  0.00  0.00    -0.006 C 
ATOM     10  H   LIG d   1       9.205  -1.991 -10.237  0.00  0.00     0.033 H 
ATOM     11  C   LIG d   1       7.181  -2.346 -10.820  0.00  0.00    -0.037 C 
ATOM     12  C   LIG d   1       5.801  -1.763 -10.509  0.00  0.00     0.016 C 
ATOM     13  H   LIG d   1       5.028  -2.332 -11.024  0.00  0.00     0.038 H 
ATOM     14  C   LIG d   1       5.784  -0.291 -10.958  0.00  0.00     0.023 C 
ATOM     15  N   LIG d   1       6.827   0.402 -10.188  0.00  0.00    -0.295 N 
ATOM     16  C   LIG d   1       8.200  -0.113 -10.268  0.00  0.00     0.019 C 
ATOM     17  C   LIG d   1       6.542   1.491  -9.448  0.00  0.00     0.267 C 
ATOM     18  O   LIG d   1       5.405   1.915  -9.405  0.00  0.00    -0.268 OA
ATOM     19  H   LIG d   1       2.927  -1.838  -6.906  0.00  0.00     0.063 H 
ATOM     20  H   LIG d   1       3.474  -1.972  -9.321  0.00  0.00     0.064 H 
ATOM     21  H   LIG d   1       8.584  -1.200  -7.909  0.00  0.00     0.050 H 
ATOM     22  H   LIG d   1       8.290  -2.908  -8.282  0.00  0.00     0.050 H 
ATOM     23  H   LIG d   1       7.195  -3.407 -10.573  0.00  0.00     0.028 H 
ATOM     24  H   LIG d   1       7.406  -2.211 -11.877  0.00  0.00     0.028 H 
ATOM     25  H   LIG d   1       5.981  -0.228 -12.027  0.00  0.00     0.047 H 
ATOM     26  H   LIG d   1       4.815   0.155 -10.732  0.00  0.00     0.047 H 
ATOM     27  H   LIG d   1       8.822   0.406  -9.540  0.00  0.00     0.047 H 
ATOM     28  H   LIG d   1       8.591   0.063 -11.269  0.00  0.00     0.047 H 
ENDROOT
BRANCH   1  29
ATOM     29  C   LIG d   1       4.698  -1.505  -4.875  0.00  0.00    -0.012 A 
ATOM     30  C   LIG d   1       4.427  -2.649  -4.125  0.00  0.00    -0.054 A 
ATOM     31  C   LIG d   1       4.162  -2.539  -2.775  0.00  0.00    -0.061 A 
ATOM     32  H   LIG d   1       4.424  -3.619  -4.600  0.00  0.00     0.062 H 
ATOM     33  C   LIG d   1       4.166  -1.297  -2.167  0.00  0.00    -0.050 A 
ATOM     34  H   LIG d   1       3.952  -3.424  -2.194  0.00  0.00     0.062 H 
ATOM     35  C   LIG d   1       4.435  -0.158  -2.905  0.00  0.00     0.055 A 
ATOM     36  H   LIG d   1       3.958  -1.216  -1.109  0.00  0.00     0.062 H 
ATOM     37  C   LIG d   1       4.705  -0.256  -4.255  0.00  0.00    -0.042 A 
ATOM     38  H   LIG d   1       4.920   0.633  -4.830  0.00  0.00     0.063 H 
BRANCH  35  39
ATOM     39  C   LIG d   1       4.438   1.191  -2.234  0.00  0.00     0.417 C 
ATOM     40  F   LIG d   1       5.392   2.014  -2.845  0.00  0.00    -0.166 F 
ATOM     41  F   LIG d   1       3.173   1.775  -2.356  0.00  0.00    -0.166 F 
ATOM     42  F   LIG d   1       4.753   1.037  -0.880  0.00  0.00    -0.166 F 
ENDBRANCH  35  39
ENDBRANCH   1  29
BRANCH  17  43
ATOM     43  C   LIG d   1       7.616   2.172  -8.688  0.00  0.00     0.143 A 
ATOM     44  N   LIG d   1       8.285   3.181  -9.237  0.00  0.00    -0.247 NA
ATOM     45  C   LIG d   1       9.237   3.788  -8.555  0.00  0.00     0.046 A 
ATOM     46  C   LIG d   1       9.548   3.368  -7.270  0.00  0.00     0.046 A 
ATOM     47  H   LIG d   1       9.777   4.610  -8.999  0.00  0.00     0.085 H 
ATOM     48  N   LIG d   1       8.890   2.362  -6.721  0.00  0.00    -0.260 NA
ATOM     49  H   LIG d   1      10.331   3.865  -6.717  0.00  0.00     0.085 H 
ATOM     50  C   LIG d   1       7.931   1.752  -7.396  0.00  0.00     0.058 A 
ATOM     51  H   LIG d   1       7.393   0.930  -6.947  0.00  0.00     0.085 H 
ENDBRANCH  17  43
TORSDOF 3
ENDMDL
MODEL 3
REMARK VINA RESULT:      -7.8      2.314      2.859
REMARK  3 active torsions:
REMARK  status: ('A' for Active; 'I' for Inactive)
REMARK    1  A    between atoms: C_3  and  C_11 
REMARK    2  A    between atoms: C_5  and  C_7 
REMARK       I    between atoms: N_25  and  C_27 
REMARK    3  A    between atoms: C_27  and  C_29 
ROOT
ATOM      1  C   LIG d   1       3.936  -0.611  -6.914  0.00  0.00     0.047 C 
ATOM      2  C   LIG d   1       3.122   0.398  -7.404  0.00  0.00    -0.047 C 
ATOM      3  C   LIG d   1       2.384   0.158  -8.565  0.00  0.00    -0.041 C 
ATOM      4  C   LIG d   1       2.458  -1.044  -9.201  0.00  0.00     0.027 C 
ATOM      5  N   LIG d   1       3.181  -2.061  -8.676  0.00  0.00    -0.311 N 
ATOM      6  C   LIG d   1       3.974  -1.846  -7.598  0.00  0.00     0.259 C 
ATOM      7  O   LIG d   1       4.725  -2.727  -7.215  0.00  0.00    -0.267 OA
ATOM      8  C   LIG d   1       3.112  -3.432  -9.183  0.00  0.00     0.031 C 
ATOM      9  C   LIG d   1       2.597  -3.498 -10.609  0.00  0.00    -0.006 C 
ATOM     10  H   LIG d   1       2.326  -4.531 -10.825  0.00  0.00     0.033 H 
ATOM     11  C   LIG d   1       1.339  -2.639 -10.748  0.00  0.00    -0.037 C 
ATOM     12  C   LIG d   1       1.725  -1.176 -10.516  0.00  0.00     0.016 C 
ATOM     13  H   LIG d   1       0.834  -0.549 -10.514  0.00  0.00     0.038 H 
ATOM     14  C   LIG d   1       2.691  -0.747 -11.635  0.00  0.00     0.023 C 
ATOM     15  N   LIG d   1       3.871  -1.618 -11.537  0.00  0.00    -0.295 N 
ATOM     16  C   LIG d   1       3.664  -3.070 -11.607  0.00  0.00     0.019 C 
ATOM     17  C   LIG d   1       5.110  -1.105 -11.410  0.00  0.00     0.267 C 
ATOM     18  O   LIG d   1       5.268   0.099 -11.370  0.00  0.00    -0.268 OA
ATOM     19  H   LIG d   1       3.055   1.348  -6.896  0.00  0.00     0.063 H 
ATOM     20  H   LIG d   1       1.751   0.936  -8.966  0.00  0.00     0.064 H 
ATOM     21  H   LIG d   1       4.108  -3.872  -9.147  0.00  0.00     0.050 H 
ATOM     22  H   LIG d   1       2.448  -4.012  -8.541  0.00  0.00     0.050 H 
ATOM     23  H   LIG d   1       0.602  -2.945 -10.007  0.00  0.00     0.028 H 
ATOM     24  H   LIG d   1       0.925  -2.755 -11.749  0.00  0.00     0.028 H 
ATOM     25  H   LIG d   1       2.205  -0.854 -12.604  0.00  0.00     0.047 H 
ATOM     26  H   LIG d   1       2.996   0.289 -11.484  0.00  0.00     0.047 H 
ATOM     27  H   LIG d   1       4.599  -3.579 -11.376  0.00  0.00     0.047 H 
ATOM     28  H   LIG d   1       3.345  -3.338 -12.614  0.00  0.00     0.047 H 
ENDROOT
BRANCH   1  29
ATOM     29  C   LIG d   1       4.753  -0.397  -5.695  0.00  0.00    -0.012 A 
ATOM     30  C   LIG d   1       6.142  -0.333  -5.787  0.00  0.00    -0.054 A 
ATOM     31  C   LIG d   1       6.897  -0.133  -4.649  0.00  0.00    -0.061 A 
ATOM     32  H   LIG d   1       6.627  -0.439  -6.746  0.00  0.00     0.062 H 
ATOM     33  C   LIG d   1       6.278   0.003  -3.420  0.00  0.00    -0.050 A 
ATOM     34  H   LIG d   1       7.974  -0.083  -4.719  0.00  0.00     0.062 H 
ATOM     35  C   LIG d   1       4.898  -0.059  -3.323  0.00  0.00     0.055 A 
ATOM     36  H   LIG d   1       6.873   0.159  -2.532  0.00  0.00     0.062 H 
ATOM     37  C   LIG d   1       4.133  -0.254  -4.454  0.00  0.00    -0.042 A 
ATOM     38  H   LIG d   1       3.056  -0.297  -4.378  0.00  0.00     0.063 H 
BRANCH  35  39
ATOM     39  C   LIG d   1       4.231   0.091  -1.981  0.00  0.00     0.417 C 
ATOM     40  F   LIG d   1       4.788   1.182  -1.302  0.00  0.00    -0.166 F 
ATOM     41  F   LIG d   1       2.861   0.305  -2.162  0.00  0.00    -0.166 F 
ATOM     42  F   LIG d   1       4.426  -1.073  -1.230  0.00  0.00    -0.166 F 
ENDBRANCH  35  39
ENDBRANCH   1  29
BRANCH  17  43
ATOM     43  C   LIG d   1       6.281  -2.008 -11.320  0.00  0.00     0.143 A 
ATOM     44  N   LIG d   1       6.627  -2.536 -10.150  0.00  0.00    -0.247 NA
ATOM     45  C   LIG d   1       7.666  -3.345 -10.076  0.00  0.00     0.046 A 
ATOM     46  C   LIG d   1       8.405  -3.636 -11.213  0.00  0.00     0.046 A 
ATOM     47  H   LIG d   1       7.944  -3.777  -9.126  0.00  0.00     0.085 H 
ATOM     48  N   LIG d   1       8.068  -3.110 -12.377  0.00  0.00    -0.260 NA
ATOM     49  H   LIG d   1       9.257  -4.296 -11.146  0.00  0.00     0.085 H 
ATOM     50  C   LIG d   1       7.025  -2.303 -12.462  0.00  0.00     0.058 A 
ATOM     51  H   LIG d   1       6.750  -1.873 -13.414  0.00  0.00     0.085 H 
ENDBRANCH  17  43
TORSDOF 3
ENDMDL
MODEL 4
REMARK VINA RESULT:      -7.7      4.213      7.108
REMARK  3 active torsions:
REMARK  status: ('A' for Active; 'I' for Inactive)
REMARK    1  A    between atoms: C_3  and  C_11 
REMARK    2  A    between atoms: C_5  and  C_7 
REMARK       I    between atoms: N_25  and  C_27 
REMARK    3  A    between atoms: C_27  and  C_29 
ROOT
ATOM      1  C   LIG d   1       3.700   0.304  -6.998  0.00  0.00     0.047 C 
ATOM      2  C   LIG d   1       2.549   0.112  -6.251  0.00  0.00    -0.047 C 
ATOM      3  C   LIG d   1       2.675  -0.188  -4.893  0.00  0.00    -0.041 C 
ATOM      4  C   LIG d   1       3.902  -0.285  -4.312  0.00  0.00     0.027 C 
ATOM      5  N   LIG d   1       5.025  -0.010  -5.017  0.00  0.00    -0.311 N 
ATOM      6  C   LIG d   1       4.953   0.206  -6.354  0.00  0.00     0.259 C 
ATOM      7  O   LIG d   1       5.979   0.316  -7.004  0.00  0.00    -0.267 OA
ATOM      8  C   LIG d   1       6.342   0.129  -4.395  0.00  0.00     0.031 C 
ATOM      9  C   LIG d   1       6.420  -0.556  -3.044  0.00  0.00    -0.006 C 
ATOM     10  H   LIG d   1       7.314  -0.198  -2.533  0.00  0.00     0.033 H 
ATOM     11  C   LIG d   1       5.205  -0.175  -2.196  0.00  0.00    -0.037 C 
ATOM     12  C   LIG d   1       3.951  -0.736  -2.870  0.00  0.00     0.016 C 
ATOM     13  H   LIG d   1       3.059  -0.399  -2.342  0.00  0.00     0.038 H 
ATOM     14  C   LIG d   1       4.042  -2.272  -2.863  0.00  0.00     0.023 C 
ATOM     15  N   LIG d   1       5.247  -2.630  -3.625  0.00  0.00    -0.295 N 
ATOM     16  C   LIG d   1       6.532  -2.067  -3.190  0.00  0.00     0.019 C 
ATOM     17  C   LIG d   1       5.185  -3.470  -4.677  0.00  0.00     0.267 C 
ATOM     18  O   LIG d   1       4.117  -3.941  -5.015  0.00  0.00    -0.268 OA
ATOM     19  H   LIG d   1       1.575   0.199  -6.708  0.00  0.00     0.063 H 
ATOM     20  H   LIG d   1       1.788  -0.349  -4.298  0.00  0.00     0.064 H 
ATOM     21  H   LIG d   1       7.091  -0.307  -5.056  0.00  0.00     0.050 H 
ATOM     22  H   LIG d   1       6.561   1.189  -4.267  0.00  0.00     0.050 H 
ATOM     23  H   LIG d   1       5.131   0.910  -2.128  0.00  0.00     0.028 H 
ATOM     24  H   LIG d   1       5.306  -0.600  -1.198  0.00  0.00     0.028 H 
ATOM     25  H   LIG d   1       4.106  -2.634  -1.837  0.00  0.00     0.047 H 
ATOM     26  H   LIG d   1       3.167  -2.698  -3.353  0.00  0.00     0.047 H 
ATOM     27  H   LIG d   1       7.297  -2.303  -3.928  0.00  0.00     0.047 H 
ATOM     28  H   LIG d   1       6.808  -2.503  -2.230  0.00  0.00     0.047 H 
ENDROOT
BRANCH   1  29
ATOM     29  C   LIG d   1       3.618   0.606  -8.447  0.00  0.00    -0.012 A 
ATOM     30  C   LIG d   1       4.018   1.853  -8.926  0.00  0.00    -0.054 A 
ATOM     31  C   LIG d   1       3.940   2.129 -10.276  0.00  0.00    -0.061 A 
ATOM     32  H   LIG d   1       4.389   2.602  -8.241  0.00  0.00     0.062 H 
ATOM     33  C   LIG d   1       3.466   1.171 -11.153  0.00  0.00    -0.050 A 
ATOM     34  H   LIG d   1       4.250   3.094 -10.647  0.00  0.00     0.062 H 
ATOM     35  C   LIG d   1       3.068  -0.069 -10.685  0.00  0.00     0.055 A 
ATOM     36  H   LIG d   1       3.407   1.391 -12.209  0.00  0.00     0.062 H 
ATOM     37  C   LIG d   1       3.146  -0.358  -9.338  0.00  0.00    -0.042 A 
ATOM     38  H   LIG d   1       2.839  -1.327  -8.973  0.00  0.00     0.063 H 
BRANCH  35  39
ATOM     39  C   LIG d   1       2.554  -1.108 -11.647  0.00  0.00     0.417 C 
ATOM     40  F   LIG d   1       3.100  -0.879 -12.916  0.00  0.00    -0.166 F 
ATOM     41  F   LIG d   1       2.924  -2.381 -11.203  0.00  0.00    -0.166 F 
ATOM     42  F   LIG d   1       1.159  -1.027 -11.719  0.00  0.00    -0.166 F 
ENDBRANCH  35  39
ENDBRANCH   1  29
BRANCH  17  43
ATOM     43  C   LIG d   1       6.417  -3.818  -5.421  0.00  0.00     0.143 A 
ATOM     44  N   LIG d   1       6.892  -2.992  -6.348  0.00  0.00    -0.247 NA
ATOM     45  C   LIG d   1       7.993  -3.303  -7.005  0.00  0.00     0.046 A 
ATOM     46  C   LIG d   1       8.650  -4.495  -6.737  0.00  0.00     0.046 A 
ATOM     47  H   LIG d   1       8.380  -2.630  -7.754  0.00  0.00     0.085 H 
ATOM     48  N   LIG d   1       8.179  -5.322  -5.820  0.00  0.00    -0.260 NA
ATOM     49  H   LIG d   1       9.549  -4.747  -7.280  0.00  0.00     0.085 H 
ATOM     50  C   LIG d   1       7.080  -5.016  -5.155  0.00  0.00     0.058 A 
ATOM     51  H   LIG d   1       6.696  -5.692  -4.405  0.00  0.00     0.085 H 
ENDBRANCH  17  43
TORSDOF 3
ENDMDL
MODEL 5
REMARK VINA RESULT:      -7.6      5.507      7.664
REMARK  3 active torsions:
REMARK  status: ('A' for Active; 'I' for Inactive)
REMARK    1  A    between atoms: C_3  and  C_11 
REMARK    2  A    between atoms: C_5  and  C_7 
REMARK       I    between atoms: N_25  and  C_27 
REMARK    3  A    between atoms: C_27  and  C_29 
ROOT
ATOM      1  C   LIG d   1       8.585   1.709  -5.069  0.00  0.00     0.047 C 
ATOM      2  C   LIG d   1       8.232   2.196  -6.317  0.00  0.00    -0.047 C 
ATOM      3  C   LIG d   1       9.105   3.073  -6.965  0.00  0.00    -0.041 C 
ATOM      4  C   LIG d   1      10.282   3.438  -6.386  0.00  0.00     0.027 C 
ATOM      5  N   LIG d   1      10.672   2.895  -5.210  0.00  0.00    -0.311 N 
ATOM      6  C   LIG d   1       9.821   2.104  -4.510  0.00  0.00     0.259 C 
ATOM      7  O   LIG d   1      10.126   1.731  -3.390  0.00  0.00    -0.267 OA
ATOM      8  C   LIG d   1      12.016   3.068  -4.659  0.00  0.00     0.031 C 
ATOM      9  C   LIG d   1      12.722   4.286  -5.226  0.00  0.00    -0.006 C 
ATOM     10  H   LIG d   1      13.782   4.208  -4.983  0.00  0.00     0.033 H 
ATOM     11  C   LIG d   1      12.585   4.304  -6.749  0.00  0.00    -0.037 C 
ATOM     12  C   LIG d   1      11.106   4.485  -7.099  0.00  0.00     0.016 C 
ATOM     13  H   LIG d   1      10.963   4.406  -8.176  0.00  0.00     0.038 H 
ATOM     14  C   LIG d   1      10.653   5.864  -6.588  0.00  0.00     0.023 C 
ATOM     15  N   LIG d   1      10.847   5.864  -5.131  0.00  0.00    -0.295 N 
ATOM     16  C   LIG d   1      12.191   5.574  -4.614  0.00  0.00     0.019 C 
ATOM     17  C   LIG d   1       9.832   6.145  -4.291  0.00  0.00     0.267 C 
ATOM     18  O   LIG d   1       8.730   6.399  -4.734  0.00  0.00    -0.268 OA
ATOM     19  H   LIG d   1       7.304   1.900  -6.782  0.00  0.00     0.063 H 
ATOM     20  H   LIG d   1       8.841   3.469  -7.935  0.00  0.00     0.064 H 
ATOM     21  H   LIG d   1      11.942   3.175  -3.576  0.00  0.00     0.050 H 
ATOM     22  H   LIG d   1      12.607   2.180  -4.884  0.00  0.00     0.050 H 
ATOM     23  H   LIG d   1      12.947   3.362  -7.161  0.00  0.00     0.028 H 
ATOM     24  H   LIG d   1      13.163   5.131  -7.159  0.00  0.00     0.028 H 
ATOM     25  H   LIG d   1      11.246   6.647  -7.062  0.00  0.00     0.047 H 
ATOM     26  H   LIG d   1       9.596   6.013  -6.810  0.00  0.00     0.047 H 
ATOM     27  H   LIG d   1      12.145   5.467  -3.531  0.00  0.00     0.047 H 
ATOM     28  H   LIG d   1      12.858   6.397  -4.868  0.00  0.00     0.047 H 
ENDROOT
BRANCH   1  29
ATOM     29  C   LIG d   1       7.683   0.791  -4.334  0.00  0.00    -0.012 A 
ATOM     30  C   LIG d   1       7.939  -0.580  -4.321  0.00  0.00    -0.054 A 
ATOM     31  C   LIG d   1       7.096  -1.430  -3.634  0.00  0.00    -0.061 A 
ATOM     32  H   LIG d   1       8.796  -0.975  -4.847  0.00  0.00     0.062 H 
ATOM     33  C   LIG d   1       6.000  -0.924  -2.960  0.00  0.00    -0.050 A 
ATOM     34  H   LIG d   1       7.294  -2.492  -3.624  0.00  0.00     0.062 H 
ATOM     35  C   LIG d   1       5.741   0.435  -2.968  0.00  0.00     0.055 A 
ATOM     36  H   LIG d   1       5.342  -1.594  -2.424  0.00  0.00     0.062 H 
ATOM     37  C   LIG d   1       6.579   1.295  -3.648  0.00  0.00    -0.042 A 
ATOM     38  H   LIG d   1       6.379   2.357  -3.650  0.00  0.00     0.063 H 
BRANCH  35  39
ATOM     39  C   LIG d   1       4.544   0.978  -2.231  0.00  0.00     0.417 C 
ATOM     40  F   LIG d   1       3.532   0.012  -2.210  0.00  0.00    -0.166 F 
ATOM     41  F   LIG d   1       4.910   1.297  -0.919  0.00  0.00    -0.166 F 
ATOM     42  F   LIG d   1       4.079   2.127  -2.878  0.00  0.00    -0.166 F 
ENDBRANCH  35  39
ENDBRANCH   1  29
BRANCH  17  43
ATOM     43  C   LIG d   1      10.060   6.144  -2.827  0.00  0.00     0.143 A 
ATOM     44  N   LIG d   1      10.637   5.098  -2.243  0.00  0.00    -0.247 NA
ATOM     45  C   LIG d   1      10.843   5.103  -0.941  0.00  0.00     0.046 A 
ATOM     46  C   LIG d   1      10.449   6.192  -0.177  0.00  0.00     0.046 A 
ATOM     47  H   LIG d   1      11.316   4.255  -0.468  0.00  0.00     0.085 H 
ATOM     48  N   LIG d   1       9.870   7.231  -0.752  0.00  0.00    -0.260 NA
ATOM     49  H   LIG d   1      10.616   6.190   0.889  0.00  0.00     0.085 H 
ATOM     50  C   LIG d   1       9.665   7.237  -2.057  0.00  0.00     0.058 A 
ATOM     51  H   LIG d   1       9.192   8.087  -2.527  0.00  0.00     0.085 H 
ENDBRANCH  17  43
TORSDOF 3
ENDMDL
MODEL 6
REMARK VINA RESULT:      -7.3      3.704      6.574
REMARK  3 active torsions:
REMARK  status: ('A' for Active; 'I' for Inactive)
REMARK    1  A    between atoms: C_3  and  C_11 
REMARK    2  A    between atoms: C_5  and  C_7 
REMARK       I    between atoms: N_25  and  C_27 
REMARK    3  A    between atoms: C_27  and  C_29 
ROOT
ATOM      1  C   LIG d   1       7.383   1.388  -3.784  0.00  0.00     0.047 C 
ATOM      2  C   LIG d   1       6.392   2.072  -3.099  0.00  0.00    -0.047 C 
ATOM      3  C   LIG d   1       5.255   1.372  -2.690  0.00  0.00    -0.041 C 
ATOM      4  C   LIG d   1       5.124   0.042  -2.955  0.00  0.00     0.027 C 
ATOM      5  N   LIG d   1       6.128  -0.648  -3.543  0.00  0.00    -0.311 N 
ATOM      6  C   LIG d   1       7.212   0.007  -4.027  0.00  0.00     0.259 C 
ATOM      7  O   LIG d   1       8.046  -0.602  -4.676  0.00  0.00    -0.267 OA
ATOM      8  C   LIG d   1       6.141  -2.108  -3.640  0.00  0.00     0.031 C 
ATOM      9  C   LIG d   1       4.754  -2.710  -3.511  0.00  0.00    -0.006 C 
ATOM     10  H   LIG d   1       4.863  -3.779  -3.330  0.00  0.00     0.033 H 
ATOM     11  C   LIG d   1       4.031  -2.097  -2.311  0.00  0.00    -0.037 C 
ATOM     12  C   LIG d   1       3.810  -0.609  -2.588  0.00  0.00     0.016 C 
ATOM     13  H   LIG d   1       3.382  -0.123  -1.712  0.00  0.00     0.038 H 
ATOM     14  C   LIG d   1       2.869  -0.476  -3.798  0.00  0.00     0.023 C 
ATOM     15  N   LIG d   1       3.541  -1.123  -4.934  0.00  0.00    -0.295 N 
ATOM     16  C   LIG d   1       3.946  -2.527  -4.788  0.00  0.00     0.019 C 
ATOM     17  C   LIG d   1       3.760  -0.459  -6.087  0.00  0.00     0.267 C 
ATOM     18  O   LIG d   1       3.405   0.697  -6.199  0.00  0.00    -0.268 OA
ATOM     19  H   LIG d   1       6.498   3.124  -2.881  0.00  0.00     0.063 H 
ATOM     20  H   LIG d   1       4.469   1.891  -2.163  0.00  0.00     0.064 H 
ATOM     21  H   LIG d   1       6.562  -2.394  -4.605  0.00  0.00     0.050 H 
ATOM     22  H   LIG d   1       6.775  -2.509  -2.849  0.00  0.00     0.050 H 
ATOM     23  H   LIG d   1       4.640  -2.217  -1.415  0.00  0.00     0.028 H 
ATOM     24  H   LIG d   1       3.070  -2.591  -2.171  0.00  0.00     0.028 H 
ATOM     25  H   LIG d   1       1.916  -0.958  -3.581  0.00  0.00     0.047 H 
ATOM     26  H   LIG d   1       2.707   0.578  -4.029  0.00  0.00     0.047 H 
ATOM     27  H   LIG d   1       4.553  -2.818  -5.645  0.00  0.00     0.047 H 
ATOM     28  H   LIG d   1       3.056  -3.154  -4.745  0.00  0.00     0.047 H 
ENDROOT
BRANCH   1  29
ATOM     29  C   LIG d   1       8.600   2.092  -4.255  0.00  0.00    -0.012 A 
ATOM     30  C   LIG d   1       9.727   2.165  -3.437  0.00  0.00    -0.054 A 
ATOM     31  C   LIG d   1      10.857   2.822  -3.880  0.00  0.00    -0.061 A 
ATOM     32  H   LIG d   1       9.715   1.708  -2.458  0.00  0.00     0.062 H 
ATOM     33  C   LIG d   1      10.872   3.406  -5.133  0.00  0.00    -0.050 A 
ATOM     34  H   LIG d   1      11.730   2.878  -3.247  0.00  0.00     0.062 H 
ATOM     35  C   LIG d   1       9.757   3.337  -5.950  0.00  0.00     0.055 A 
ATOM     36  H   LIG d   1      11.759   3.920  -5.476  0.00  0.00     0.062 H 
ATOM     37  C   LIG d   1       8.623   2.680  -5.520  0.00  0.00    -0.042 A 
ATOM     38  H   LIG d   1       7.755   2.622  -6.160  0.00  0.00     0.063 H 
BRANCH  35  39
ATOM     39  C   LIG d   1       9.783   3.977  -7.314  0.00  0.00     0.417 C 
ATOM     40  F   LIG d   1      11.038   3.774  -7.901  0.00  0.00    -0.166 F 
ATOM     41  F   LIG d   1       8.794   3.401  -8.118  0.00  0.00    -0.166 F 
ATOM     42  F   LIG d   1       9.543   5.349  -7.190  0.00  0.00    -0.166 F 
ENDBRANCH  35  39
ENDBRANCH   1  29
BRANCH  17  43
ATOM     43  C   LIG d   1       4.435  -1.140  -7.216  0.00  0.00     0.143 A 
ATOM     44  N   LIG d   1       5.760  -1.240  -7.239  0.00  0.00    -0.247 NA
ATOM     45  C   LIG d   1       6.356  -1.852  -8.244  0.00  0.00     0.046 A 
ATOM     46  C   LIG d   1       5.604  -2.382  -9.282  0.00  0.00     0.046 A 
ATOM     47  H   LIG d   1       7.432  -1.937  -8.260  0.00  0.00     0.085 H 
ATOM     48  N   LIG d   1       4.286  -2.280  -9.267  0.00  0.00    -0.260 NA
ATOM     49  H   LIG d   1       6.096  -2.878 -10.104  0.00  0.00     0.085 H 
ATOM     50  C   LIG d   1       3.681  -1.674  -8.261  0.00  0.00     0.058 A 
ATOM     51  H   LIG d   1       2.604  -1.591  -8.249  0.00  0.00     0.085 H 
ENDBRANCH  17  43
TORSDOF 3
ENDMDL
MODEL 7
REMARK VINA RESULT:      -7.3      3.078      5.501
REMARK  3 active torsions:
REMARK  status: ('A' for Active; 'I' for Inactive)
REMARK    1  A    between atoms: C_3  and  C_11 
REMARK    2  A    between atoms: C_5  and  C_7 
REMARK       I    between atoms: N_25  and  C_27 
REMARK    3  A    between atoms: C_27  and  C_29 
ROOT
ATOM      1  C   LIG d   1       6.619  -2.393  -5.283  0.00  0.00     0.047 C 
ATOM      2  C   LIG d   1       6.842  -3.596  -4.633  0.00  0.00    -0.047 C 
ATOM      3  C   LIG d   1       7.095  -4.735  -5.400  0.00  0.00    -0.041 C 
ATOM      4  C   LIG d   1       7.127  -4.666  -6.759  0.00  0.00     0.027 C 
ATOM      5  N   LIG d   1       7.001  -3.478  -7.395  0.00  0.00    -0.311 N 
ATOM      6  C   LIG d   1       6.675  -2.363  -6.694  0.00  0.00     0.259 C 
ATOM      7  O   LIG d   1       6.428  -1.327  -7.289  0.00  0.00    -0.267 OA
ATOM      8  C   LIG d   1       7.259  -3.307  -8.824  0.00  0.00     0.031 C 
ATOM      9  C   LIG d   1       7.161  -4.613  -9.591  0.00  0.00    -0.006 C 
ATOM     10  H   LIG d   1       7.612  -4.466 -10.572  0.00  0.00     0.033 H 
ATOM     11  C   LIG d   1       7.952  -5.703  -8.864  0.00  0.00    -0.037 C 
ATOM     12  C   LIG d   1       7.283  -5.966  -7.514  0.00  0.00     0.016 C 
ATOM     13  H   LIG d   1       7.878  -6.669  -6.931  0.00  0.00     0.038 H 
ATOM     14  C   LIG d   1       5.874  -6.528  -7.773  0.00  0.00     0.023 C 
ATOM     15  N   LIG d   1       5.138  -5.503  -8.527  0.00  0.00    -0.295 N 
ATOM     16  C   LIG d   1       5.713  -5.034  -9.794  0.00  0.00     0.019 C 
ATOM     17  C   LIG d   1       3.960  -5.023  -8.085  0.00  0.00     0.267 C 
ATOM     18  O   LIG d   1       3.489  -5.432  -7.043  0.00  0.00    -0.268 OA
ATOM     19  H   LIG d   1       6.825  -3.651  -3.555  0.00  0.00     0.063 H 
ATOM     20  H   LIG d   1       7.261  -5.683  -4.909  0.00  0.00     0.064 H 
ATOM     21  H   LIG d   1       6.532  -2.604  -9.232  0.00  0.00     0.050 H 
ATOM     22  H   LIG d   1       8.259  -2.895  -8.956  0.00  0.00     0.050 H 
ATOM     23  H   LIG d   1       8.978  -5.368  -8.707  0.00  0.00     0.028 H 
ATOM     24  H   LIG d   1       7.951  -6.616  -9.459  0.00  0.00     0.028 H 
ATOM     25  H   LIG d   1       5.944  -7.456  -8.340  0.00  0.00     0.047 H 
ATOM     26  H   LIG d   1       5.367  -6.710  -6.825  0.00  0.00     0.047 H 
ATOM     27  H   LIG d   1       5.138  -4.183 -10.158  0.00  0.00     0.047 H 
ATOM     28  H   LIG d   1       5.670  -5.839 -10.527  0.00  0.00     0.047 H 
ENDROOT
BRANCH   1  29
ATOM     29  C   LIG d   1       6.328  -1.160  -4.513  0.00  0.00    -0.012 A 
ATOM     30  C   LIG d   1       7.364  -0.298  -4.156  0.00  0.00    -0.054 A 
ATOM     31  C   LIG d   1       7.087   0.848  -3.439  0.00  0.00    -0.061 A 
ATOM     32  H   LIG d   1       8.381  -0.526  -4.440  0.00  0.00     0.062 H 
ATOM     33  C   LIG d   1       5.786   1.142  -3.075  0.00  0.00    -0.050 A 
ATOM     34  H   LIG d   1       7.889   1.517  -3.162  0.00  0.00     0.062 H 
ATOM     35  C   LIG d   1       4.753   0.290  -3.428  0.00  0.00     0.055 A 
ATOM     36  H   LIG d   1       5.574   2.041  -2.514  0.00  0.00     0.062 H 
ATOM     37  C   LIG d   1       5.017  -0.856  -4.148  0.00  0.00    -0.042 A 
ATOM     38  H   LIG d   1       4.210  -1.518  -4.427  0.00  0.00     0.063 H 
BRANCH  35  39
ATOM     39  C   LIG d   1       3.338   0.618  -3.028  0.00  0.00     0.417 C 
ATOM     40  F   LIG d   1       3.353   1.519  -1.957  0.00  0.00    -0.166 F 
ATOM     41  F   LIG d   1       2.669   1.195  -4.112  0.00  0.00    -0.166 F 
ATOM     42  F   LIG d   1       2.679  -0.554  -2.643  0.00  0.00    -0.166 F 
ENDBRANCH  35  39
ENDBRANCH   1  29
BRANCH  17  43
ATOM     43  C   LIG d   1       3.238  -3.994  -8.871  0.00  0.00     0.143 A 
ATOM     44  N   LIG d   1       2.374  -4.359  -9.813  0.00  0.00    -0.247 NA
ATOM     45  C   LIG d   1       1.730  -3.441 -10.506  0.00  0.00     0.046 A 
ATOM     46  C   LIG d   1       1.960  -2.095 -10.262  0.00  0.00     0.046 A 
ATOM     47  H   LIG d   1       1.025  -3.738 -11.268  0.00  0.00     0.085 H 
ATOM     48  N   LIG d   1       2.823  -1.727  -9.330  0.00  0.00    -0.260 NA
ATOM     49  H   LIG d   1       1.433  -1.347 -10.834  0.00  0.00     0.085 H 
ATOM     50  C   LIG d   1       3.468  -2.641  -8.628  0.00  0.00     0.058 A 
ATOM     51  H   LIG d   1       4.173  -2.339  -7.866  0.00  0.00     0.085 H 
ENDBRANCH  17  43
TORSDOF 3
ENDMDL
MODEL 8
REMARK VINA RESULT:      -7.3      1.899      4.382
REMARK  3 active torsions:
REMARK  status: ('A' for Active; 'I' for Inactive)
REMARK    1  A    between atoms: C_3  and  C_11 
REMARK    2  A    between atoms: C_5  and  C_7 
REMARK       I    between atoms: N_25  and  C_27 
REMARK    3  A    between atoms: C_27  and  C_29 
ROOT
ATOM      1  C   LIG d   1       6.173  -1.665  -5.875  0.00  0.00     0.047 C 
ATOM      2  C   LIG d   1       7.120  -2.664  -6.038  0.00  0.00    -0.047 C 
ATOM      3  C   LIG d   1       7.806  -2.745  -7.251  0.00  0.00    -0.041 C 
ATOM      4  C   LIG d   1       7.554  -1.858  -8.254  0.00  0.00     0.027 C 
ATOM      5  N   LIG d   1       6.697  -0.828  -8.067  0.00  0.00    -0.311 N 
ATOM      6  C   LIG d   1       5.952  -0.759  -6.936  0.00  0.00     0.259 C 
ATOM      7  O   LIG d   1       5.084   0.092  -6.835  0.00  0.00    -0.267 OA
ATOM      8  C   LIG d   1       6.563   0.279  -9.014  0.00  0.00     0.031 C 
ATOM      9  C   LIG d   1       7.051  -0.085 -10.404  0.00  0.00    -0.006 C 
ATOM     10  H   LIG d   1       7.168   0.836 -10.975  0.00  0.00     0.033 H 
ATOM     11  C   LIG d   1       8.418  -0.764 -10.314  0.00  0.00    -0.037 C 
ATOM     12  C   LIG d   1       8.249  -2.094  -9.575  0.00  0.00     0.016 C 
ATOM     13  H   LIG d   1       9.221  -2.558  -9.410  0.00  0.00     0.038 H 
ATOM     14  C   LIG d   1       7.346  -3.007 -10.422  0.00  0.00     0.023 C 
ATOM     15  N   LIG d   1       6.053  -2.320 -10.559  0.00  0.00    -0.295 N 
ATOM     16  C   LIG d   1       6.048  -0.969 -11.133  0.00  0.00     0.019 C 
ATOM     17  C   LIG d   1       4.902  -2.918 -10.194  0.00  0.00     0.267 C 
ATOM     18  O   LIG d   1       4.920  -4.043  -9.736  0.00  0.00    -0.268 OA
ATOM     19  H   LIG d   1       7.327  -3.361  -5.241  0.00  0.00     0.063 H 
ATOM     20  H   LIG d   1       8.541  -3.522  -7.398  0.00  0.00     0.064 H 
ATOM     21  H   LIG d   1       5.513   0.568  -9.073  0.00  0.00     0.050 H 
ATOM     22  H   LIG d   1       7.141   1.128  -8.648  0.00  0.00     0.050 H 
ATOM     23  H   LIG d   1       9.110  -0.125  -9.766  0.00  0.00     0.028 H 
ATOM     24  H   LIG d   1       8.803  -0.948 -11.317  0.00  0.00     0.028 H 
ATOM     25  H   LIG d   1       7.803  -3.179 -11.396  0.00  0.00     0.047 H 
ATOM     26  H   LIG d   1       7.195  -3.958  -9.910  0.00  0.00     0.047 H 
ATOM     27  H   LIG d   1       5.051  -0.540 -11.036  0.00  0.00     0.047 H 
ATOM     28  H   LIG d   1       6.317  -1.026 -12.187  0.00  0.00     0.047 H 
ENDROOT
BRANCH   1  29
ATOM     29  C   LIG d   1       5.406  -1.550  -4.612  0.00  0.00    -0.012 A 
ATOM     30  C   LIG d   1       4.800  -2.676  -4.056  0.00  0.00    -0.054 A 
ATOM     31  C   LIG d   1       4.087  -2.563  -2.880  0.00  0.00    -0.061 A 
ATOM     32  H   LIG d   1       4.888  -3.635  -4.546  0.00  0.00     0.062 H 
ATOM     33  C   LIG d   1       3.975  -1.336  -2.252  0.00  0.00    -0.050 A 
ATOM     34  H   LIG d   1       3.617  -3.435  -2.449  0.00  0.00     0.062 H 
ATOM     35  C   LIG d   1       4.575  -0.214  -2.798  0.00  0.00     0.055 A 
ATOM     36  H   LIG d   1       3.416  -1.252  -1.331  0.00  0.00     0.062 H 
ATOM     37  C   LIG d   1       5.293  -0.316  -3.972  0.00  0.00    -0.042 A 
ATOM     38  H   LIG d   1       5.765   0.559  -4.395  0.00  0.00     0.063 H 
BRANCH  35  39
ATOM     39  C   LIG d   1       4.448   1.118  -2.108  0.00  0.00     0.417 C 
ATOM     40  F   LIG d   1       5.259   2.058  -2.754  0.00  0.00    -0.166 F 
ATOM     41  F   LIG d   1       3.116   1.543  -2.154  0.00  0.00    -0.166 F 
ATOM     42  F   LIG d   1       4.850   0.993  -0.774  0.00  0.00    -0.166 F 
ENDBRANCH  35  39
ENDBRANCH   1  29
BRANCH  17  43
ATOM     43  C   LIG d   1       3.614  -2.202 -10.351  0.00  0.00     0.143 A 
ATOM     44  N   LIG d   1       3.148  -1.446  -9.362  0.00  0.00    -0.247 NA
ATOM     45  C   LIG d   1       2.004  -0.806  -9.508  0.00  0.00     0.046 A 
ATOM     46  C   LIG d   1       1.281  -0.930 -10.685  0.00  0.00     0.046 A 
ATOM     47  H   LIG d   1       1.627  -0.188  -8.706  0.00  0.00     0.085 H 
ATOM     48  N   LIG d   1       1.738  -1.685 -11.669  0.00  0.00    -0.260 NA
ATOM     49  H   LIG d   1       0.343  -0.407 -10.798  0.00  0.00     0.085 H 
ATOM     50  C   LIG d   1       2.886  -2.325 -11.533  0.00  0.00     0.058 A 
ATOM     51  H   LIG d   1       3.259  -2.942 -12.337  0.00  0.00     0.085 H 
ENDBRANCH  17  43
TORSDOF 3
ENDMDL
MODEL 9
REMARK VINA RESULT:      -7.2      2.717      4.802
REMARK  3 active torsions:
REMARK  status: ('A' for Active; 'I' for Inactive)
REMARK    1  A    between atoms: C_3  and  C_11 
REMARK    2  A    between atoms: C_5  and  C_7 
REMARK       I    between atoms: N_25  and  C_27 
REMARK    3  A    between atoms: C_27  and  C_29 
ROOT
ATOM      1  C   LIG d   1       4.181  -0.317  -7.788  0.00  0.00     0.047 C 
ATOM      2  C   LIG d   1       5.420   0.203  -8.127  0.00  0.00    -0.047 C 
ATOM      3  C   LIG d   1       5.806   0.194  -9.469  0.00  0.00    -0.041 C 
ATOM      4  C   LIG d   1       4.980  -0.311 -10.427  0.00  0.00     0.027 C 
ATOM      5  N   LIG d   1       3.734  -0.736 -10.113  0.00  0.00    -0.311 N 
ATOM      6  C   LIG d   1       3.351  -0.819  -8.815  0.00  0.00     0.259 C 
ATOM      7  O   LIG d   1       2.280  -1.331  -8.532  0.00  0.00    -0.267 OA
ATOM      8  C   LIG d   1       2.727  -1.067 -11.121  0.00  0.00     0.031 C 
ATOM      9  C   LIG d   1       3.342  -1.389 -12.471  0.00  0.00    -0.006 C 
ATOM     10  H   LIG d   1       2.550  -1.366 -13.219  0.00  0.00     0.033 H 
ATOM     11  C   LIG d   1       4.374  -0.323 -12.840  0.00  0.00    -0.037 C 
ATOM     12  C   LIG d   1       5.526  -0.397 -11.834  0.00  0.00     0.016 C 
ATOM     13  H   LIG d   1       6.232   0.413 -12.012  0.00  0.00     0.038 H 
ATOM     14  C   LIG d   1       6.215  -1.764 -11.986  0.00  0.00     0.023 C 
ATOM     15  N   LIG d   1       5.201  -2.788 -11.692  0.00  0.00    -0.295 N 
ATOM     16  C   LIG d   1       3.963  -2.779 -12.482  0.00  0.00     0.019 C 
ATOM     17  C   LIG d   1       5.406  -3.723 -10.744  0.00  0.00     0.267 C 
ATOM     18  O   LIG d   1       6.442  -3.727 -10.110  0.00  0.00    -0.268 OA
ATOM     19  H   LIG d   1       6.072   0.612  -7.370  0.00  0.00     0.063 H 
ATOM     20  H   LIG d   1       6.772   0.587  -9.750  0.00  0.00     0.064 H 
ATOM     21  H   LIG d   1       2.155  -1.929 -10.779  0.00  0.00     0.050 H 
ATOM     22  H   LIG d   1       2.050  -0.220 -11.235  0.00  0.00     0.050 H 
ATOM     23  H   LIG d   1       3.914   0.664 -12.798  0.00  0.00     0.028 H 
ATOM     24  H   LIG d   1       4.752  -0.511 -13.844  0.00  0.00     0.028 H 
ATOM     25  H   LIG d   1       6.599  -1.875 -12.999  0.00  0.00     0.047 H 
ATOM     26  H   LIG d   1       7.030  -1.851 -11.268  0.00  0.00     0.047 H 
ATOM     27  H   LIG d   1       3.259  -3.493 -12.057  0.00  0.00     0.047 H 
ATOM     28  H   LIG d   1       4.191  -3.064 -13.509  0.00  0.00     0.047 H 
ENDROOT
BRANCH   1  29
ATOM     29  C   LIG d   1       3.735  -0.346  -6.375  0.00  0.00    -0.012 A 
ATOM     30  C   LIG d   1       2.777   0.562  -5.925  0.00  0.00    -0.054 A 
ATOM     31  C   LIG d   1       2.365   0.530  -4.608  0.00  0.00    -0.061 A 
ATOM     32  H   LIG d   1       2.357   1.288  -6.606  0.00  0.00     0.062 H 
ATOM     33  C   LIG d   1       2.901  -0.400  -3.736  0.00  0.00    -0.050 A 
ATOM     34  H   LIG d   1       1.623   1.233  -4.258  0.00  0.00     0.062 H 
ATOM     35  C   LIG d   1       3.852  -1.304  -4.176  0.00  0.00     0.055 A 
ATOM     36  H   LIG d   1       2.576  -0.421  -2.705  0.00  0.00     0.062 H 
ATOM     37  C   LIG d   1       4.268  -1.284  -5.492  0.00  0.00    -0.042 A 
ATOM     38  H   LIG d   1       5.007  -1.993  -5.836  0.00  0.00     0.063 H 
BRANCH  35  39
ATOM     39  C   LIG d   1       4.430  -2.313  -3.220  0.00  0.00     0.417 C 
ATOM     40  F   LIG d   1       4.679  -3.511  -3.900  0.00  0.00    -0.166 F 
ATOM     41  F   LIG d   1       5.628  -1.822  -2.690  0.00  0.00    -0.166 F 
ATOM     42  F   LIG d   1       3.522  -2.546  -2.182  0.00  0.00    -0.166 F 
ENDBRANCH  35  39
ENDBRANCH   1  29
BRANCH  17  43
ATOM     43  C   LIG d   1       4.368  -4.745 -10.475  0.00  0.00     0.143 A 
ATOM     44  N   LIG d   1       4.289  -5.832 -11.237  0.00  0.00    -0.247 NA
ATOM     45  C   LIG d   1       3.367  -6.742 -10.991  0.00  0.00     0.046 A 
ATOM     46  C   LIG d   1       2.473  -6.562  -9.946  0.00  0.00     0.046 A 
ATOM     47  H   LIG d   1       3.307  -7.627 -11.607  0.00  0.00     0.085 H 
ATOM     48  N   LIG d   1       2.543  -5.481  -9.189  0.00  0.00    -0.260 NA
ATOM     49  H   LIG d   1       1.717  -7.309  -9.751  0.00  0.00     0.085 H 
ATOM     50  C   LIG d   1       3.467  -4.567  -9.426  0.00  0.00     0.058 A 
ATOM     51  H   LIG d   1       3.525  -3.684  -8.807  0.00  0.00     0.085 H 
ENDBRANCH  17  43
TORSDOF 3
ENDMDL
