MODEL 1
REMARK VINA RESULT:      -6.5      0.000      0.000
REMARK  5 active torsions:
REMARK  status: ('A' for Active; 'I' for Inactive)
REMARK    1  A    between atoms: C_1  and  C_2 
REMARK    2  A    between atoms: C_6  and  C_26 
REMARK    3  A    between atoms: C_12  and  C_13 
REMARK    4  A    between atoms: C_12  and  C_14 
REMARK    5  A    between atoms: N_22  and  C_25 
ROOT
ATOM      1  C   LIG d   1       2.476  -1.584 -10.069  0.00  0.00     0.080 C 
ATOM      2  C   LIG d   1       3.605  -2.066  -9.147  0.00  0.00    -0.016 C 
ATOM      3  N   LIG d   1       4.723  -1.122  -9.188  0.00  0.00     0.255 N 
ATOM      4  C   LIG d   1       5.312  -1.039 -10.526  0.00  0.00    -0.016 C 
ATOM      5  C   LIG d   1       4.274  -0.500 -11.524  0.00  0.00     0.080 C 
ATOM      6  C   LIG d   1       3.079  -1.445 -11.463  0.00  0.00     0.158 C 
ATOM      7  O   LIG d   1       2.662  -2.045 -12.426  0.00  0.00    -0.296 OA
ATOM      8  C   LIG d   1       3.781   0.864 -11.013  0.00  0.00     0.021 C 
ATOM      9  N   LIG d   1       3.245   0.705  -9.656  0.00  0.00    -0.254 N 
ATOM     10  C   LIG d   1       2.040  -0.173  -9.639  0.00  0.00     0.021 C 
ATOM     11  C   LIG d   1       4.284   0.204  -8.745  0.00  0.00     0.064 C 
ATOM     12  H   LIG d   1       3.232  -2.142  -8.126  0.00  0.00     0.083 H 
ATOM     13  H   LIG d   1       3.947  -3.047  -9.478  0.00  0.00     0.083 H 
ATOM     14  H   LIG d   1       6.172  -0.372 -10.502  0.00  0.00     0.083 H 
ATOM     15  H   LIG d   1       5.633  -2.032 -10.842  0.00  0.00     0.083 H 
ATOM     16  H   LIG d   1       4.612   1.569 -10.996  0.00  0.00     0.044 H 
ATOM     17  H   LIG d   1       2.998   1.238 -11.673  0.00  0.00     0.044 H 
ATOM     18  H   LIG d   1       1.277   0.198 -10.324  0.00  0.00     0.044 H 
ATOM     19  H   LIG d   1       1.636  -0.209  -8.627  0.00  0.00     0.044 H 
ATOM     20  H   LIG d   1       5.437  -1.448  -8.555  0.00  0.00     0.206 HD
ENDROOT
BRANCH  11  21
ATOM     21  C   LIG d   1       5.475   1.165  -8.751  0.00  0.00     0.000 C 
ATOM     22  H   LIG d   1       6.301   0.722  -8.197  0.00  0.00     0.030 H 
ATOM     23  H   LIG d   1       5.785   1.352  -9.779  0.00  0.00     0.030 H 
ATOM     24  H   LIG d   1       5.185   2.105  -8.283  0.00  0.00     0.030 H 
ENDBRANCH  11  21
BRANCH  11  25
ATOM     25  C   LIG d   1       3.724   0.108  -7.348  0.00  0.00    -0.005 C 
ATOM     26  C   LIG d   1       4.485  -0.372  -6.350  0.00  0.00     0.049 A 
ATOM     27  C   LIG d   1       5.917  -0.738  -6.404  0.00  0.00     0.251 A 
ATOM     28  C   LIG d   1       4.072  -0.654  -4.952  0.00  0.00     0.009 A 
ATOM     29  N   LIG d   1       6.278  -1.169  -5.184  0.00  0.00    -0.270 N 
ATOM     30  O   LIG d   1       6.641  -0.662  -7.379  0.00  0.00    -0.270 OA
ATOM     31  C   LIG d   1       5.208  -1.137  -4.295  0.00  0.00     0.044 A 
ATOM     32  C   LIG d   1       5.113  -1.488  -2.951  0.00  0.00    -0.040 A 
ATOM     33  C   LIG d   1       3.912  -1.360  -2.285  0.00  0.00    -0.060 A 
ATOM     34  H   LIG d   1       5.982  -1.861  -2.429  0.00  0.00     0.064 H 
ATOM     35  C   LIG d   1       2.790  -0.882  -2.941  0.00  0.00    -0.061 A 
ATOM     36  H   LIG d   1       3.846  -1.634  -1.243  0.00  0.00     0.062 H 
ATOM     37  C   LIG d   1       2.866  -0.529  -4.274  0.00  0.00    -0.052 A 
ATOM     38  H   LIG d   1       1.855  -0.785  -2.410  0.00  0.00     0.062 H 
ATOM     39  H   LIG d   1       1.992  -0.155  -4.786  0.00  0.00     0.062 H 
ATOM     40  H   LIG d   1       2.709   0.424  -7.151  0.00  0.00     0.065 H 
BRANCH  29  41
ATOM     41  C   LIG d   1       7.627  -1.621  -4.833  0.00  0.00     0.009 C 
ATOM     42  H   LIG d   1       7.813  -2.596  -5.285  0.00  0.00     0.043 H 
ATOM     43  H   LIG d   1       8.359  -0.903  -5.205  0.00  0.00     0.043 H 
ATOM     44  H   LIG d   1       7.714  -1.701  -3.750  0.00  0.00     0.043 H 
ENDBRANCH  29  41
ENDBRANCH  11  25
BRANCH   1  45
ATOM     45  C   LIG d   1       1.295  -2.557 -10.065  0.00  0.00    -0.047 C 
ATOM     46  H   LIG d   1       1.588  -3.482  -9.567  0.00  0.00     0.024 H 
ATOM     47  H   LIG d   1       0.457  -2.109  -9.533  0.00  0.00     0.024 H 
ATOM     48  H   LIG d   1       0.999  -2.775 -11.091  0.00  0.00     0.024 H 
ENDBRANCH   1  45
BRANCH   5  49
ATOM     49  C   LIG d   1       4.851  -0.415 -12.938  0.00  0.00    -0.047 C 
ATOM     50  H   LIG d   1       5.778  -0.987 -12.987  0.00  0.00     0.024 H 
ATOM     51  H   LIG d   1       4.134  -0.827 -13.648  0.00  0.00     0.024 H 
ATOM     52  H   LIG d   1       5.052   0.626 -13.188  0.00  0.00     0.024 H 
ENDBRANCH   5  49
TORSDOF 5
ENDMDL
MODEL 2
REMARK VINA RESULT:      -6.5      5.685      7.764
REMARK  5 active torsions:
REMARK  status: ('A' for Active; 'I' for Inactive)
REMARK    1  A    between atoms: C_1  and  C_2 
REMARK    2  A    between atoms: C_6  and  C_26 
REMARK    3  A    between atoms: C_12  and  C_13 
REMARK    4  A    between atoms: C_12  and  C_14 
REMARK    5  A    between atoms: N_22  and  C_25 
ROOT
ATOM      1  C   LIG d   1       9.909  -5.201  -2.979  0.00  0.00     0.080 C 
ATOM      2  C   LIG d   1       9.899  -3.678  -2.782  0.00  0.00    -0.016 C 
ATOM      3  N   LIG d   1      10.018  -3.005  -4.076  0.00  0.00     0.255 N 
ATOM      4  C   LIG d   1      11.292  -3.312  -4.730  0.00  0.00    -0.016 C 
ATOM      5  C   LIG d   1      11.377  -4.816  -5.033  0.00  0.00     0.080 C 
ATOM      6  C   LIG d   1      11.208  -5.540  -3.701  0.00  0.00     0.158 C 
ATOM      7  O   LIG d   1      12.037  -6.294  -3.251  0.00  0.00    -0.296 OA
ATOM      8  C   LIG d   1      10.165  -5.201  -5.898  0.00  0.00     0.021 C 
ATOM      9  N   LIG d   1       8.933  -4.825  -5.195  0.00  0.00    -0.254 N 
ATOM     10  C   LIG d   1       8.765  -5.595  -3.929  0.00  0.00     0.021 C 
ATOM     11  C   LIG d   1       8.899  -3.376  -4.948  0.00  0.00     0.064 C 
ATOM     12  H   LIG d   1       8.965  -3.380  -2.304  0.00  0.00     0.083 H 
ATOM     13  H   LIG d   1      10.736  -3.391  -2.146  0.00  0.00     0.083 H 
ATOM     14  H   LIG d   1      11.366  -2.750  -5.660  0.00  0.00     0.083 H 
ATOM     15  H   LIG d   1      12.114  -3.030  -4.071  0.00  0.00     0.083 H 
ATOM     16  H   LIG d   1      10.216  -4.674  -6.851  0.00  0.00     0.044 H 
ATOM     17  H   LIG d   1      10.171  -6.277  -6.075  0.00  0.00     0.044 H 
ATOM     18  H   LIG d   1       8.800  -6.668  -4.117  0.00  0.00     0.044 H 
ATOM     19  H   LIG d   1       7.808  -5.335  -3.475  0.00  0.00     0.044 H 
ATOM     20  H   LIG d   1       9.982  -2.009  -3.921  0.00  0.00     0.206 HD
ENDROOT
BRANCH  11  21
ATOM     21  C   LIG d   1       9.017  -2.629  -6.278  0.00  0.00     0.000 C 
ATOM     22  H   LIG d   1      10.003  -2.806  -6.706  0.00  0.00     0.030 H 
ATOM     23  H   LIG d   1       8.252  -2.988  -6.965  0.00  0.00     0.030 H 
ATOM     24  H   LIG d   1       8.881  -1.562  -6.107  0.00  0.00     0.030 H 
ENDBRANCH  11  21
BRANCH  11  25
ATOM     25  C   LIG d   1       7.598  -3.011  -4.279  0.00  0.00    -0.005 C 
ATOM     26  C   LIG d   1       7.321  -1.725  -4.007  0.00  0.00     0.049 A 
ATOM     27  C   LIG d   1       8.106  -0.531  -4.391  0.00  0.00     0.251 A 
ATOM     28  C   LIG d   1       6.160  -1.190  -3.250  0.00  0.00     0.009 A 
ATOM     29  N   LIG d   1       7.467   0.552  -3.918  0.00  0.00    -0.270 N 
ATOM     30  O   LIG d   1       9.145  -0.530  -5.024  0.00  0.00    -0.270 OA
ATOM     31  C   LIG d   1       6.309   0.202  -3.231  0.00  0.00     0.044 A 
ATOM     32  C   LIG d   1       5.351   0.974  -2.581  0.00  0.00    -0.040 A 
ATOM     33  C   LIG d   1       4.275   0.370  -1.964  0.00  0.00    -0.060 A 
ATOM     34  H   LIG d   1       5.451   2.049  -2.559  0.00  0.00     0.064 H 
ATOM     35  C   LIG d   1       4.134  -1.007  -1.985  0.00  0.00    -0.061 A 
ATOM     36  H   LIG d   1       3.537   0.976  -1.462  0.00  0.00     0.062 H 
ATOM     37  C   LIG d   1       5.074  -1.790  -2.626  0.00  0.00    -0.052 A 
ATOM     38  H   LIG d   1       3.288  -1.470  -1.500  0.00  0.00     0.062 H 
ATOM     39  H   LIG d   1       4.964  -2.864  -2.644  0.00  0.00     0.062 H 
ATOM     40  H   LIG d   1       6.890  -3.784  -4.018  0.00  0.00     0.065 H 
BRANCH  29  41
ATOM     41  C   LIG d   1       7.933   1.930  -4.097  0.00  0.00     0.009 C 
ATOM     42  H   LIG d   1       7.569   2.547  -3.276  0.00  0.00     0.043 H 
ATOM     43  H   LIG d   1       9.024   1.946  -4.108  0.00  0.00     0.043 H 
ATOM     44  H   LIG d   1       7.556   2.321  -5.041  0.00  0.00     0.043 H 
ENDBRANCH  29  41
ENDBRANCH  11  25
BRANCH   1  45
ATOM     45  C   LIG d   1       9.803  -5.939  -1.643  0.00  0.00    -0.047 C 
ATOM     46  H   LIG d   1      10.004  -7.000  -1.796  0.00  0.00     0.024 H 
ATOM     47  H   LIG d   1      10.531  -5.530  -0.943  0.00  0.00     0.024 H 
ATOM     48  H   LIG d   1       8.799  -5.814  -1.237  0.00  0.00     0.024 H 
ENDBRANCH   1  45
BRANCH   5  49
ATOM     49  C   LIG d   1      12.704  -5.176  -5.703  0.00  0.00    -0.047 C 
ATOM     50  H   LIG d   1      12.599  -5.094  -6.785  0.00  0.00     0.024 H 
ATOM     51  H   LIG d   1      13.481  -4.492  -5.361  0.00  0.00     0.024 H 
ATOM     52  H   LIG d   1      12.979  -6.197  -5.441  0.00  0.00     0.024 H 
ENDBRANCH   5  49
TORSDOF 5
ENDMDL
MODEL 3
REMARK VINA RESULT:      -6.4      5.584      7.996
REMARK  5 active torsions:
REMARK  status: ('A' for Active; 'I' for Inactive)
REMARK    1  A    between atoms: C_1  and  C_2 
REMARK    2  A    between atoms: C_6  and  C_26 
REMARK    3  A    between atoms: C_12  and  C_13 
REMARK    4  A    between atoms: C_12  and  C_14 
REMARK    5  A    between atoms: N_22  and  C_25 
ROOT
ATOM      1  C   LIG d   1      10.646   4.057  -3.267  0.00  0.00     0.080 C 
ATOM      2  C   LIG d   1       9.407   4.599  -3.995  0.00  0.00    -0.016 C 
ATOM      3  N   LIG d   1       9.237   3.909  -5.275  0.00  0.00     0.255 N 
ATOM      4  C   LIG d   1      10.366   4.154  -6.175  0.00  0.00    -0.016 C 
ATOM      5  C   LIG d   1      11.657   3.587  -5.565  0.00  0.00     0.080 C 
ATOM      6  C   LIG d   1      11.829   4.260  -4.207  0.00  0.00     0.158 C 
ATOM      7  O   LIG d   1      12.803   4.911  -3.912  0.00  0.00    -0.296 OA
ATOM      8  C   LIG d   1      11.441   2.090  -5.288  0.00  0.00     0.021 C 
ATOM      9  N   LIG d   1      10.272   1.925  -4.415  0.00  0.00    -0.254 N 
ATOM     10  C   LIG d   1      10.495   2.538  -3.075  0.00  0.00     0.021 C 
ATOM     11  C   LIG d   1       9.066   2.469  -5.058  0.00  0.00     0.064 C 
ATOM     12  H   LIG d   1       8.524   4.438  -3.377  0.00  0.00     0.083 H 
ATOM     13  H   LIG d   1       9.532   5.667  -4.173  0.00  0.00     0.083 H 
ATOM     14  H   LIG d   1      10.176   3.672  -7.133  0.00  0.00     0.083 H 
ATOM     15  H   LIG d   1      10.480   5.228  -6.328  0.00  0.00     0.083 H 
ATOM     16  H   LIG d   1      11.269   1.567  -6.229  0.00  0.00     0.044 H 
ATOM     17  H   LIG d   1      12.324   1.679  -4.798  0.00  0.00     0.044 H 
ATOM     18  H   LIG d   1      11.396   2.138  -2.608  0.00  0.00     0.044 H 
ATOM     19  H   LIG d   1       9.633   2.335  -2.439  0.00  0.00     0.044 H 
ATOM     20  H   LIG d   1       8.404   4.264  -5.719  0.00  0.00     0.206 HD
ENDROOT
BRANCH  11  21
ATOM     21  C   LIG d   1       8.846   1.772  -6.402  0.00  0.00     0.000 C 
ATOM     22  H   LIG d   1       9.275   2.378  -7.199  0.00  0.00     0.030 H 
ATOM     23  H   LIG d   1       9.327   0.795  -6.387  0.00  0.00     0.030 H 
ATOM     24  H   LIG d   1       7.777   1.648  -6.575  0.00  0.00     0.030 H 
ENDBRANCH  11  21
BRANCH  11  25
ATOM     25  C   LIG d   1       7.873   2.233  -4.167  0.00  0.00    -0.005 C 
ATOM     26  C   LIG d   1       7.431   0.983  -3.953  0.00  0.00     0.049 A 
ATOM     27  C   LIG d   1       8.050  -0.283  -4.404  0.00  0.00     0.251 A 
ATOM     28  C   LIG d   1       6.210   0.568  -3.215  0.00  0.00     0.009 A 
ATOM     29  N   LIG d   1       7.281  -1.295  -3.970  0.00  0.00    -0.270 N 
ATOM     30  O   LIG d   1       9.074  -0.389  -5.052  0.00  0.00    -0.270 OA
ATOM     31  C   LIG d   1       6.177  -0.830  -3.262  0.00  0.00     0.044 A 
ATOM     32  C   LIG d   1       5.127  -1.501  -2.643  0.00  0.00    -0.040 A 
ATOM     33  C   LIG d   1       4.137  -0.792  -1.995  0.00  0.00    -0.060 A 
ATOM     34  H   LIG d   1       5.088  -2.580  -2.670  0.00  0.00     0.064 H 
ATOM     35  C   LIG d   1       4.175   0.591  -1.952  0.00  0.00    -0.061 A 
ATOM     36  H   LIG d   1       3.325  -1.320  -1.517  0.00  0.00     0.062 H 
ATOM     37  C   LIG d   1       5.209   1.274  -2.561  0.00  0.00    -0.052 A 
ATOM     38  H   LIG d   1       3.395   1.137  -1.442  0.00  0.00     0.062 H 
ATOM     39  H   LIG d   1       5.240   2.354  -2.527  0.00  0.00     0.062 H 
ATOM     40  H   LIG d   1       7.374   3.071  -3.701  0.00  0.00     0.065 H 
BRANCH  29  41
ATOM     41  C   LIG d   1       7.565  -2.712  -4.214  0.00  0.00     0.009 C 
ATOM     42  H   LIG d   1       6.910  -3.083  -5.003  0.00  0.00     0.043 H 
ATOM     43  H   LIG d   1       8.605  -2.826  -4.523  0.00  0.00     0.043 H 
ATOM     44  H   LIG d   1       7.393  -3.280  -3.301  0.00  0.00     0.043 H 
ENDBRANCH  29  41
ENDBRANCH  11  25
BRANCH   1  45
ATOM     45  C   LIG d   1      10.865   4.768  -1.930  0.00  0.00    -0.047 C 
ATOM     46  H   LIG d   1      11.330   4.080  -1.223  0.00  0.00     0.024 H 
ATOM     47  H   LIG d   1      11.517   5.629  -2.079  0.00  0.00     0.024 H 
ATOM     48  H   LIG d   1       9.906   5.103  -1.535  0.00  0.00     0.024 H 
ENDBRANCH   1  45
BRANCH   5  49
ATOM     49  C   LIG d   1      12.862   3.840  -6.473  0.00  0.00    -0.047 C 
ATOM     50  H   LIG d   1      13.477   4.633  -6.047  0.00  0.00     0.024 H 
ATOM     51  H   LIG d   1      13.453   2.928  -6.556  0.00  0.00     0.024 H 
ATOM     52  H   LIG d   1      12.516   4.140  -7.462  0.00  0.00     0.024 H 
ENDBRANCH   5  49
TORSDOF 5
ENDMDL
MODEL 4
REMARK VINA RESULT:      -6.4      1.423      2.358
REMARK  5 active torsions:
REMARK  status: ('A' for Active; 'I' for Inactive)
REMARK    1  A    between atoms: C_1  and  C_2 
REMARK    2  A    between atoms: C_6  and  C_26 
REMARK    3  A    between atoms: C_12  and  C_13 
REMARK    4  A    between atoms: C_12  and  C_14 
REMARK    5  A    between atoms: N_22  and  C_25 
ROOT
ATOM      1  C   LIG d   1       3.828   0.704  -9.931  0.00  0.00     0.080 C 
ATOM      2  C   LIG d   1       2.554   0.152  -9.275  0.00  0.00    -0.016 C 
ATOM      3  N   LIG d   1       2.738  -1.258  -8.930  0.00  0.00     0.255 N 
ATOM      4  C   LIG d   1       2.961  -2.082 -10.120  0.00  0.00    -0.016 C 
ATOM      5  C   LIG d   1       4.259  -1.651 -10.821  0.00  0.00     0.080 C 
ATOM      6  C   LIG d   1       4.106  -0.170 -11.150  0.00  0.00     0.158 C 
ATOM      7  O   LIG d   1       4.177   0.268 -12.274  0.00  0.00    -0.296 OA
ATOM      8  C   LIG d   1       5.411  -1.759  -9.809  0.00  0.00     0.021 C 
ATOM      9  N   LIG d   1       5.095  -0.941  -8.631  0.00  0.00    -0.254 N 
ATOM     10  C   LIG d   1       5.015   0.508  -8.973  0.00  0.00     0.021 C 
ATOM     11  C   LIG d   1       3.856  -1.409  -7.993  0.00  0.00     0.064 C 
ATOM     12  H   LIG d   1       2.335   0.721  -8.372  0.00  0.00     0.083 H 
ATOM     13  H   LIG d   1       1.719   0.248  -9.971  0.00  0.00     0.083 H 
ATOM     14  H   LIG d   1       3.038  -3.128  -9.827  0.00  0.00     0.083 H 
ATOM     15  H   LIG d   1       2.122  -1.959 -10.806  0.00  0.00     0.083 H 
ATOM     16  H   LIG d   1       5.534  -2.799  -9.507  0.00  0.00     0.044 H 
ATOM     17  H   LIG d   1       6.333  -1.399 -10.267  0.00  0.00     0.044 H 
ATOM     18  H   LIG d   1       5.933   0.847  -9.454  0.00  0.00     0.044 H 
ATOM     19  H   LIG d   1       4.847   1.083  -8.062  0.00  0.00     0.044 H 
ATOM     20  H   LIG d   1       1.899  -1.587  -8.478  0.00  0.00     0.206 HD
ENDROOT
BRANCH  11  21
ATOM     21  C   LIG d   1       4.006  -2.883  -7.609  0.00  0.00     0.000 C 
ATOM     22  H   LIG d   1       3.303  -3.123  -6.812  0.00  0.00     0.030 H 
ATOM     23  H   LIG d   1       3.799  -3.507  -8.477  0.00  0.00     0.030 H 
ATOM     24  H   LIG d   1       5.023  -3.066  -7.264  0.00  0.00     0.030 H 
ENDBRANCH  11  21
BRANCH  11  25
ATOM     25  C   LIG d   1       3.589  -0.591  -6.755  0.00  0.00    -0.005 C 
ATOM     26  C   LIG d   1       4.402  -0.699  -5.690  0.00  0.00     0.049 A 
ATOM     27  C   LIG d   1       5.661  -1.469  -5.590  0.00  0.00     0.251 A 
ATOM     28  C   LIG d   1       4.229  -0.075  -4.354  0.00  0.00     0.009 A 
ATOM     29  N   LIG d   1       6.151  -1.297  -4.351  0.00  0.00    -0.270 N 
ATOM     30  O   LIG d   1       6.165  -2.136  -6.473  0.00  0.00    -0.270 OA
ATOM     31  C   LIG d   1       5.327  -0.478  -3.586  0.00  0.00     0.044 A 
ATOM     32  C   LIG d   1       5.429  -0.036  -2.270  0.00  0.00    -0.040 A 
ATOM     33  C   LIG d   1       4.457   0.786  -1.738  0.00  0.00    -0.060 A 
ATOM     34  H   LIG d   1       6.271  -0.338  -1.664  0.00  0.00     0.064 H 
ATOM     35  C   LIG d   1       3.373   1.181  -2.502  0.00  0.00    -0.061 A 
ATOM     36  H   LIG d   1       4.543   1.124  -0.716  0.00  0.00     0.062 H 
ATOM     37  C   LIG d   1       3.256   0.753  -3.810  0.00  0.00    -0.052 A 
ATOM     38  H   LIG d   1       2.618   1.825  -2.076  0.00  0.00     0.062 H 
ATOM     39  H   LIG d   1       2.410   1.062  -4.407  0.00  0.00     0.062 H 
ATOM     40  H   LIG d   1       2.743   0.080  -6.724  0.00  0.00     0.065 H 
BRANCH  29  41
ATOM     41  C   LIG d   1       7.394  -1.901  -3.864  0.00  0.00     0.009 C 
ATOM     42  H   LIG d   1       7.901  -2.405  -4.688  0.00  0.00     0.043 H 
ATOM     43  H   LIG d   1       8.043  -1.122  -3.461  0.00  0.00     0.043 H 
ATOM     44  H   LIG d   1       7.166  -2.623  -3.081  0.00  0.00     0.043 H 
ENDBRANCH  29  41
ENDBRANCH  11  25
BRANCH   1  45
ATOM     45  C   LIG d   1       3.665   2.174 -10.323  0.00  0.00    -0.047 C 
ATOM     46  H   LIG d   1       2.990   2.250 -11.176  0.00  0.00     0.024 H 
ATOM     47  H   LIG d   1       3.249   2.730  -9.482  0.00  0.00     0.024 H 
ATOM     48  H   LIG d   1       4.636   2.590 -10.589  0.00  0.00     0.024 H 
ENDBRANCH   1  45
BRANCH   5  49
ATOM     49  C   LIG d   1       4.515  -2.481 -12.081  0.00  0.00    -0.047 C 
ATOM     50  H   LIG d   1       4.150  -3.497 -11.926  0.00  0.00     0.024 H 
ATOM     51  H   LIG d   1       3.990  -2.032 -12.925  0.00  0.00     0.024 H 
ATOM     52  H   LIG d   1       5.583  -2.506 -12.290  0.00  0.00     0.024 H 
ENDBRANCH   5  49
TORSDOF 5
ENDMDL
MODEL 5
REMARK VINA RESULT:      -6.0      1.948      2.641
REMARK  5 active torsions:
REMARK  status: ('A' for Active; 'I' for Inactive)
REMARK    1  A    between atoms: C_1  and  C_2 
REMARK    2  A    between atoms: C_6  and  C_26 
REMARK    3  A    between atoms: C_12  and  C_13 
REMARK    4  A    between atoms: C_12  and  C_14 
REMARK    5  A    between atoms: N_22  and  C_25 
ROOT
ATOM      1  C   LIG d   1       4.329   1.097  -9.321  0.00  0.00     0.080 C 
ATOM      2  C   LIG d   1       4.006  -0.157  -8.496  0.00  0.00    -0.016 C 
ATOM      3  N   LIG d   1       5.112  -1.112  -8.581  0.00  0.00     0.255 N 
ATOM      4  C   LIG d   1       5.317  -1.581  -9.953  0.00  0.00    -0.016 C 
ATOM      5  C   LIG d   1       5.712  -0.403 -10.857  0.00  0.00     0.080 C 
ATOM      6  C   LIG d   1       4.592   0.625 -10.748  0.00  0.00     0.158 C 
ATOM      7  O   LIG d   1       3.958   1.015 -11.699  0.00  0.00    -0.296 OA
ATOM      8  C   LIG d   1       6.971   0.254 -10.268  0.00  0.00     0.021 C 
ATOM      9  N   LIG d   1       6.699   0.659  -8.883  0.00  0.00    -0.254 N 
ATOM     10  C   LIG d   1       5.645   1.710  -8.814  0.00  0.00     0.021 C 
ATOM     11  C   LIG d   1       6.344  -0.509  -8.063  0.00  0.00     0.064 C 
ATOM     12  H   LIG d   1       3.850   0.124  -7.455  0.00  0.00     0.083 H 
ATOM     13  H   LIG d   1       3.098  -0.620  -8.883  0.00  0.00     0.083 H 
ATOM     14  H   LIG d   1       6.109  -2.329  -9.965  0.00  0.00     0.083 H 
ATOM     15  H   LIG d   1       4.394  -2.027 -10.324  0.00  0.00     0.083 H 
ATOM     16  H   LIG d   1       7.796  -0.459 -10.284  0.00  0.00     0.044 H 
ATOM     17  H   LIG d   1       7.235   1.131 -10.859  0.00  0.00     0.044 H 
ATOM     18  H   LIG d   1       5.909   2.569  -9.431  0.00  0.00     0.044 H 
ATOM     19  H   LIG d   1       5.523   2.029  -7.778  0.00  0.00     0.044 H 
ATOM     20  H   LIG d   1       4.887  -1.912  -8.010  0.00  0.00     0.206 HD
ENDROOT
BRANCH  11  21
ATOM     21  C   LIG d   1       7.478  -1.535  -8.119  0.00  0.00     0.000 C 
ATOM     22  H   LIG d   1       7.920  -1.533  -9.115  0.00  0.00     0.030 H 
ATOM     23  H   LIG d   1       8.239  -1.275  -7.383  0.00  0.00     0.030 H 
ATOM     24  H   LIG d   1       7.082  -2.525  -7.898  0.00  0.00     0.030 H 
ENDBRANCH  11  21
BRANCH  11  25
ATOM     25  C   LIG d   1       6.130  -0.073  -6.636  0.00  0.00    -0.005 C 
ATOM     26  C   LIG d   1       5.665  -0.949  -5.729  0.00  0.00     0.049 A 
ATOM     27  C   LIG d   1       5.422  -2.397  -5.914  0.00  0.00     0.251 A 
ATOM     28  C   LIG d   1       5.276  -0.675  -4.322  0.00  0.00     0.009 A 
ATOM     29  N   LIG d   1       4.960  -2.889  -4.752  0.00  0.00    -0.270 N 
ATOM     30  O   LIG d   1       5.609  -3.030  -6.935  0.00  0.00    -0.270 OA
ATOM     31  C   LIG d   1       4.857  -1.896  -3.783  0.00  0.00     0.044 A 
ATOM     32  C   LIG d   1       4.431  -1.939  -2.459  0.00  0.00    -0.040 A 
ATOM     33  C   LIG d   1       4.423  -0.789  -1.696  0.00  0.00    -0.060 A 
ATOM     34  H   LIG d   1       4.105  -2.874  -2.028  0.00  0.00     0.064 H 
ATOM     35  C   LIG d   1       4.839   0.417  -2.234  0.00  0.00    -0.061 A 
ATOM     36  H   LIG d   1       4.091  -0.830  -0.670  0.00  0.00     0.062 H 
ATOM     37  C   LIG d   1       5.266   0.478  -3.546  0.00  0.00    -0.052 A 
ATOM     38  H   LIG d   1       4.830   1.310  -1.629  0.00  0.00     0.062 H 
ATOM     39  H   LIG d   1       5.591   1.418  -3.967  0.00  0.00     0.062 H 
ATOM     40  H   LIG d   1       6.349   0.943  -6.343  0.00  0.00     0.065 H 
BRANCH  29  41
ATOM     41  C   LIG d   1       4.605  -4.293  -4.533  0.00  0.00     0.009 C 
ATOM     42  H   LIG d   1       3.600  -4.478  -4.915  0.00  0.00     0.043 H 
ATOM     43  H   LIG d   1       5.316  -4.934  -5.057  0.00  0.00     0.043 H 
ATOM     44  H   LIG d   1       4.634  -4.514  -3.467  0.00  0.00     0.043 H 
ENDBRANCH  29  41
ENDBRANCH  11  25
BRANCH   1  45
ATOM     45  C   LIG d   1       3.185   2.111  -9.269  0.00  0.00    -0.047 C 
ATOM     46  H   LIG d   1       2.604   2.051 -10.191  0.00  0.00     0.024 H 
ATOM     47  H   LIG d   1       2.540   1.888  -8.420  0.00  0.00     0.024 H 
ATOM     48  H   LIG d   1       3.593   3.116  -9.162  0.00  0.00     0.024 H 
ENDBRANCH   1  45
BRANCH   5  49
ATOM     49  C   LIG d   1       5.919  -0.855 -12.304  0.00  0.00    -0.047 C 
ATOM     50  H   LIG d   1       5.938   0.017 -12.958  0.00  0.00     0.024 H 
ATOM     51  H   LIG d   1       6.865  -1.391 -12.387  0.00  0.00     0.024 H 
ATOM     52  H   LIG d   1       5.103  -1.514 -12.600  0.00  0.00     0.024 H 
ENDBRANCH   5  49
TORSDOF 5
ENDMDL
MODEL 6
REMARK VINA RESULT:      -5.9      4.102      6.585
REMARK  5 active torsions:
REMARK  status: ('A' for Active; 'I' for Inactive)
REMARK    1  A    between atoms: C_1  and  C_2 
REMARK    2  A    between atoms: C_6  and  C_26 
REMARK    3  A    between atoms: C_12  and  C_13 
REMARK    4  A    between atoms: C_12  and  C_14 
REMARK    5  A    between atoms: N_22  and  C_25 
ROOT
ATOM      1  C   LIG d   1       5.212  -1.145  -3.185  0.00  0.00     0.080 C 
ATOM      2  C   LIG d   1       6.738  -1.300  -3.108  0.00  0.00    -0.016 C 
ATOM      3  N   LIG d   1       7.279  -1.603  -4.434  0.00  0.00     0.255 N 
ATOM      4  C   LIG d   1       6.775  -2.880  -4.944  0.00  0.00    -0.016 C 
ATOM      5  C   LIG d   1       5.250  -2.809  -5.122  0.00  0.00     0.080 C 
ATOM      6  C   LIG d   1       4.669  -2.449  -3.759  0.00  0.00     0.158 C 
ATOM      7  O   LIG d   1       3.868  -3.143  -3.178  0.00  0.00    -0.296 OA
ATOM      8  C   LIG d   1       4.929  -1.634  -6.060  0.00  0.00     0.021 C 
ATOM      9  N   LIG d   1       5.500  -0.402  -5.502  0.00  0.00    -0.254 N 
ATOM     10  C   LIG d   1       4.868  -0.043  -4.201  0.00  0.00     0.021 C 
ATOM     11  C   LIG d   1       6.960  -0.522  -5.371  0.00  0.00     0.064 C 
ATOM     12  H   LIG d   1       7.179  -0.374  -2.740  0.00  0.00     0.083 H 
ATOM     13  H   LIG d   1       6.984  -2.112  -2.423  0.00  0.00     0.083 H 
ATOM     14  H   LIG d   1       7.242  -3.095  -5.905  0.00  0.00     0.083 H 
ATOM     15  H   LIG d   1       7.019  -3.674  -4.238  0.00  0.00     0.083 H 
ATOM     16  H   LIG d   1       5.362  -1.824  -7.042  0.00  0.00     0.044 H 
ATOM     17  H   LIG d   1       3.848  -1.527  -6.152  0.00  0.00     0.044 H 
ATOM     18  H   LIG d   1       3.785   0.035  -4.302  0.00  0.00     0.044 H 
ATOM     19  H   LIG d   1       5.272   0.910  -3.857  0.00  0.00     0.044 H 
ATOM     20  H   LIG d   1       8.282  -1.673  -4.360  0.00  0.00     0.206 HD
ENDROOT
BRANCH  11  21
ATOM     21  C   LIG d   1       7.570  -0.835  -6.739  0.00  0.00     0.000 C 
ATOM     22  H   LIG d   1       6.912  -0.462  -7.523  0.00  0.00     0.030 H 
ATOM     23  H   LIG d   1       8.544  -0.353  -6.821  0.00  0.00     0.030 H 
ATOM     24  H   LIG d   1       7.688  -1.913  -6.846  0.00  0.00     0.030 H 
ENDBRANCH  11  21
BRANCH  11  25
ATOM     25  C   LIG d   1       7.526   0.776  -4.853  0.00  0.00    -0.005 C 
ATOM     26  C   LIG d   1       8.853   0.914  -4.693  0.00  0.00     0.049 A 
ATOM     27  C   LIG d   1       9.913  -0.043  -5.079  0.00  0.00     0.251 A 
ATOM     28  C   LIG d   1       9.576   2.059  -4.085  0.00  0.00     0.009 A 
ATOM     29  N   LIG d   1      11.096   0.495  -4.740  0.00  0.00    -0.270 N 
ATOM     30  O   LIG d   1       9.744  -1.124  -5.610  0.00  0.00    -0.270 OA
ATOM     31  C   LIG d   1      10.938   1.742  -4.144  0.00  0.00     0.044 A 
ATOM     32  C   LIG d   1      11.865   2.648  -3.638  0.00  0.00    -0.040 A 
ATOM     33  C   LIG d   1      11.440   3.840  -3.087  0.00  0.00    -0.060 A 
ATOM     34  H   LIG d   1      12.920   2.418  -3.677  0.00  0.00     0.064 H 
ATOM     35  C   LIG d   1      10.092   4.148  -3.031  0.00  0.00    -0.061 A 
ATOM     36  H   LIG d   1      12.165   4.537  -2.696  0.00  0.00     0.062 H 
ATOM     37  C   LIG d   1       9.158   3.261  -3.528  0.00  0.00    -0.052 A 
ATOM     38  H   LIG d   1       9.769   5.083  -2.597  0.00  0.00     0.062 H 
ATOM     39  H   LIG d   1       8.105   3.501  -3.485  0.00  0.00     0.062 H 
ATOM     40  H   LIG d   1       6.864   1.594  -4.610  0.00  0.00     0.065 H 
BRANCH  29  41
ATOM     41  C   LIG d   1      12.392  -0.152  -4.964  0.00  0.00     0.009 C 
ATOM     42  H   LIG d   1      12.735  -0.612  -4.037  0.00  0.00     0.043 H 
ATOM     43  H   LIG d   1      12.287  -0.919  -5.732  0.00  0.00     0.043 H 
ATOM     44  H   LIG d   1      13.118   0.591  -5.292  0.00  0.00     0.043 H 
ENDBRANCH  29  41
ENDBRANCH  11  25
BRANCH   1  45
ATOM     45  C   LIG d   1       4.610  -0.844  -1.811  0.00  0.00    -0.047 C 
ATOM     46  H   LIG d   1       5.381  -0.948  -1.046  0.00  0.00     0.024 H 
ATOM     47  H   LIG d   1       4.222   0.174  -1.799  0.00  0.00     0.024 H 
ATOM     48  H   LIG d   1       3.800  -1.544  -1.607  0.00  0.00     0.024 H 
ENDBRANCH   1  45
BRANCH   5  49
ATOM     49  C   LIG d   1       4.686  -4.134  -5.639  0.00  0.00    -0.047 C 
ATOM     50  H   LIG d   1       4.298  -3.995  -6.648  0.00  0.00     0.024 H 
ATOM     51  H   LIG d   1       5.478  -4.884  -5.656  0.00  0.00     0.024 H 
ATOM     52  H   LIG d   1       3.883  -4.469  -4.984  0.00  0.00     0.024 H 
ENDBRANCH   5  49
TORSDOF 5
ENDMDL
MODEL 7
REMARK VINA RESULT:      -5.7      3.397      5.801
REMARK  5 active torsions:
REMARK  status: ('A' for Active; 'I' for Inactive)
REMARK    1  A    between atoms: C_1  and  C_2 
REMARK    2  A    between atoms: C_6  and  C_26 
REMARK    3  A    between atoms: C_12  and  C_13 
REMARK    4  A    between atoms: C_12  and  C_14 
REMARK    5  A    between atoms: N_22  and  C_25 
ROOT
ATOM      1  C   LIG d   1       8.572  -4.101  -5.901  0.00  0.00     0.080 C 
ATOM      2  C   LIG d   1       7.676  -2.934  -6.340  0.00  0.00    -0.016 C 
ATOM      3  N   LIG d   1       6.434  -3.447  -6.921  0.00  0.00     0.255 N 
ATOM      4  C   LIG d   1       6.688  -4.230  -8.132  0.00  0.00    -0.016 C 
ATOM      5  C   LIG d   1       7.530  -5.468  -7.790  0.00  0.00     0.080 C 
ATOM      6  C   LIG d   1       8.812  -4.958  -7.139  0.00  0.00     0.158 C 
ATOM      7  O   LIG d   1       9.913  -5.192  -7.577  0.00  0.00    -0.296 OA
ATOM      8  C   LIG d   1       6.784  -6.275  -6.714  0.00  0.00     0.021 C 
ATOM      9  N   LIG d   1       6.532  -5.413  -5.553  0.00  0.00    -0.254 N 
ATOM     10  C   LIG d   1       7.802  -4.982  -4.902  0.00  0.00     0.021 C 
ATOM     11  C   LIG d   1       5.709  -4.256  -5.937  0.00  0.00     0.064 C 
ATOM     12  H   LIG d   1       7.441  -2.312  -5.476  0.00  0.00     0.083 H 
ATOM     13  H   LIG d   1       8.202  -2.334  -7.082  0.00  0.00     0.083 H 
ATOM     14  H   LIG d   1       5.739  -4.545  -8.564  0.00  0.00     0.083 H 
ATOM     15  H   LIG d   1       7.226  -3.615  -8.854  0.00  0.00     0.083 H 
ATOM     16  H   LIG d   1       5.835  -6.629  -7.118  0.00  0.00     0.044 H 
ATOM     17  H   LIG d   1       7.393  -7.127  -6.411  0.00  0.00     0.044 H 
ATOM     18  H   LIG d   1       8.412  -5.843  -4.629  0.00  0.00     0.044 H 
ATOM     19  H   LIG d   1       7.568  -4.401  -4.009  0.00  0.00     0.044 H 
ATOM     20  H   LIG d   1       5.854  -2.662  -7.175  0.00  0.00     0.206 HD
ENDROOT
BRANCH  11  21
ATOM     21  C   LIG d   1       4.394  -4.746  -6.547  0.00  0.00     0.000 C 
ATOM     22  H   LIG d   1       3.695  -3.913  -6.619  0.00  0.00     0.030 H 
ATOM     23  H   LIG d   1       4.583  -5.149  -7.542  0.00  0.00     0.030 H 
ATOM     24  H   LIG d   1       3.969  -5.525  -5.915  0.00  0.00     0.030 H 
ENDBRANCH  11  21
BRANCH  11  25
ATOM     25  C   LIG d   1       5.416  -3.421  -4.717  0.00  0.00    -0.005 C 
ATOM     26  C   LIG d   1       4.779  -2.245  -4.844  0.00  0.00     0.049 A 
ATOM     27  C   LIG d   1       4.188  -1.667  -6.071  0.00  0.00     0.251 A 
ATOM     28  C   LIG d   1       4.517  -1.239  -3.784  0.00  0.00     0.009 A 
ATOM     29  N   LIG d   1       3.648  -0.480  -5.748  0.00  0.00    -0.270 N 
ATOM     30  O   LIG d   1       4.189  -2.176  -7.176  0.00  0.00    -0.270 OA
ATOM     31  C   LIG d   1       3.826  -0.189  -4.399  0.00  0.00     0.044 A 
ATOM     32  C   LIG d   1       3.444   0.909  -3.634  0.00  0.00    -0.040 A 
ATOM     33  C   LIG d   1       3.749   0.955  -2.289  0.00  0.00    -0.060 A 
ATOM     34  H   LIG d   1       2.910   1.727  -4.094  0.00  0.00     0.064 H 
ATOM     35  C   LIG d   1       4.433  -0.086  -1.685  0.00  0.00    -0.061 A 
ATOM     36  H   LIG d   1       3.450   1.810  -1.702  0.00  0.00     0.062 H 
ATOM     37  C   LIG d   1       4.819  -1.184  -2.430  0.00  0.00    -0.052 A 
ATOM     38  H   LIG d   1       4.666  -0.041  -0.632  0.00  0.00     0.062 H 
ATOM     39  H   LIG d   1       5.352  -1.997  -1.959  0.00  0.00     0.062 H 
ATOM     40  H   LIG d   1       5.720  -3.768  -3.740  0.00  0.00     0.065 H 
BRANCH  29  41
ATOM     41  C   LIG d   1       2.963   0.400  -6.698  0.00  0.00     0.009 C 
ATOM     42  H   LIG d   1       2.052   0.790  -6.241  0.00  0.00     0.043 H 
ATOM     43  H   LIG d   1       3.619   1.230  -6.963  0.00  0.00     0.043 H 
ATOM     44  H   LIG d   1       2.707  -0.161  -7.595  0.00  0.00     0.043 H 
ENDBRANCH  29  41
ENDBRANCH  11  25
BRANCH   1  45
ATOM     45  C   LIG d   1       9.889  -3.601  -5.303  0.00  0.00    -0.047 C 
ATOM     46  H   LIG d   1      10.555  -3.283  -6.106  0.00  0.00     0.024 H 
ATOM     47  H   LIG d   1       9.691  -2.758  -4.642  0.00  0.00     0.024 H 
ATOM     48  H   LIG d   1      10.360  -4.405  -4.737  0.00  0.00     0.024 H 
ENDBRANCH   1  45
BRANCH   5  49
ATOM     49  C   LIG d   1       7.829  -6.303  -9.037  0.00  0.00    -0.047 C 
ATOM     50  H   LIG d   1       7.004  -6.206  -9.744  0.00  0.00     0.024 H 
ATOM     51  H   LIG d   1       8.748  -5.946  -9.502  0.00  0.00     0.024 H 
ATOM     52  H   LIG d   1       7.946  -7.348  -8.756  0.00  0.00     0.024 H 
ENDBRANCH   5  49
TORSDOF 5
ENDMDL
MODEL 8
REMARK VINA RESULT:      -5.7      3.890      6.820
REMARK  5 active torsions:
REMARK  status: ('A' for Active; 'I' for Inactive)
REMARK    1  A    between atoms: C_1  and  C_2 
REMARK    2  A    between atoms: C_6  and  C_26 
REMARK    3  A    between atoms: C_12  and  C_13 
REMARK    4  A    between atoms: C_12  and  C_14 
REMARK    5  A    between atoms: N_22  and  C_25 
ROOT
ATOM      1  C   LIG d   1       9.869   3.282  -5.694  0.00  0.00     0.080 C 
ATOM      2  C   LIG d   1       8.652   2.534  -6.261  0.00  0.00    -0.016 C 
ATOM      3  N   LIG d   1       8.972   1.117  -6.435  0.00  0.00     0.255 N 
ATOM      4  C   LIG d   1      10.048   0.920  -7.409  0.00  0.00    -0.016 C 
ATOM      5  C   LIG d   1      11.341   1.580  -6.903  0.00  0.00     0.080 C 
ATOM      6  C   LIG d   1      11.017   3.052  -6.671  0.00  0.00     0.158 C 
ATOM      7  O   LIG d   1      11.601   3.952  -7.227  0.00  0.00    -0.296 OA
ATOM      8  C   LIG d   1      11.679   0.983  -5.527  0.00  0.00     0.021 C 
ATOM      9  N   LIG d   1      10.540   1.183  -4.623  0.00  0.00    -0.254 N 
ATOM     10  C   LIG d   1      10.289   2.629  -4.366  0.00  0.00     0.021 C 
ATOM     11  C   LIG d   1       9.339   0.517  -5.148  0.00  0.00     0.064 C 
ATOM     12  H   LIG d   1       7.813   2.634  -5.573  0.00  0.00     0.083 H 
ATOM     13  H   LIG d   1       8.381   2.965  -7.225  0.00  0.00     0.083 H 
ATOM     14  H   LIG d   1      10.217  -0.146  -7.551  0.00  0.00     0.083 H 
ATOM     15  H   LIG d   1       9.761   1.370  -8.360  0.00  0.00     0.083 H 
ATOM     16  H   LIG d   1      11.877  -0.084  -5.632  0.00  0.00     0.044 H 
ATOM     17  H   LIG d   1      12.559   1.481  -5.121  0.00  0.00     0.044 H 
ATOM     18  H   LIG d   1      11.185   3.120  -3.986  0.00  0.00     0.044 H 
ATOM     19  H   LIG d   1       9.482   2.730  -3.640  0.00  0.00     0.044 H 
ATOM     20  H   LIG d   1       8.150   0.646  -6.781  0.00  0.00     0.206 HD
ENDROOT
BRANCH  11  21
ATOM     21  C   LIG d   1       9.626  -0.973  -5.342  0.00  0.00     0.000 C 
ATOM     22  H   LIG d   1      10.696  -1.152  -5.244  0.00  0.00     0.030 H 
ATOM     23  H   LIG d   1       9.091  -1.548  -4.587  0.00  0.00     0.030 H 
ATOM     24  H   LIG d   1       9.296  -1.280  -6.334  0.00  0.00     0.030 H 
ENDBRANCH  11  21
BRANCH  11  25
ATOM     25  C   LIG d   1       8.203   0.688  -4.172  0.00  0.00    -0.005 C 
ATOM     26  C   LIG d   1       6.997   0.159  -4.444  0.00  0.00     0.049 A 
ATOM     27  C   LIG d   1       6.630  -0.712  -5.582  0.00  0.00     0.251 A 
ATOM     28  C   LIG d   1       5.740   0.328  -3.672  0.00  0.00     0.009 A 
ATOM     29  N   LIG d   1       5.326  -1.012  -5.467  0.00  0.00    -0.270 N 
ATOM     30  O   LIG d   1       7.377  -1.093  -6.463  0.00  0.00    -0.270 OA
ATOM     31  C   LIG d   1       4.761  -0.410  -4.347  0.00  0.00     0.044 A 
ATOM     32  C   LIG d   1       3.465  -0.434  -3.841  0.00  0.00    -0.040 A 
ATOM     33  C   LIG d   1       3.158   0.263  -2.690  0.00  0.00    -0.060 A 
ATOM     34  H   LIG d   1       2.698  -0.999  -4.350  0.00  0.00     0.064 H 
ATOM     35  C   LIG d   1       4.130   0.991  -2.027  0.00  0.00    -0.061 A 
ATOM     36  H   LIG d   1       2.150   0.240  -2.304  0.00  0.00     0.062 H 
ATOM     37  C   LIG d   1       5.422   1.026  -2.515  0.00  0.00    -0.052 A 
ATOM     38  H   LIG d   1       3.879   1.533  -1.127  0.00  0.00     0.062 H 
ATOM     39  H   LIG d   1       6.182   1.593  -1.997  0.00  0.00     0.062 H 
ATOM     40  H   LIG d   1       8.358   1.235  -3.253  0.00  0.00     0.065 H 
BRANCH  29  41
ATOM     41  C   LIG d   1       4.588  -1.861  -6.406  0.00  0.00     0.009 C 
ATOM     42  H   LIG d   1       4.511  -2.870  -6.001  0.00  0.00     0.043 H 
ATOM     43  H   LIG d   1       3.588  -1.453  -6.556  0.00  0.00     0.043 H 
ATOM     44  H   LIG d   1       5.114  -1.891  -7.360  0.00  0.00     0.043 H 
ENDBRANCH  29  41
ENDBRANCH  11  25
BRANCH   1  45
ATOM     45  C   LIG d   1       9.576   4.773  -5.515  0.00  0.00    -0.047 C 
ATOM     46  H   LIG d   1      10.012   5.119  -4.578  0.00  0.00     0.024 H 
ATOM     47  H   LIG d   1      10.010   5.330  -6.345  0.00  0.00     0.024 H 
ATOM     48  H   LIG d   1       8.498   4.932  -5.495  0.00  0.00     0.024 H 
ENDBRANCH   1  45
BRANCH   5  49
ATOM     49  C   LIG d   1      12.483   1.408  -7.906  0.00  0.00    -0.047 C 
ATOM     50  H   LIG d   1      13.306   0.874  -7.431  0.00  0.00     0.024 H 
ATOM     51  H   LIG d   1      12.130   0.839  -8.766  0.00  0.00     0.024 H 
ATOM     52  H   LIG d   1      12.829   2.387  -8.236  0.00  0.00     0.024 H 
ENDBRANCH   5  49
TORSDOF 5
ENDMDL
MODEL 9
REMARK VINA RESULT:      -5.5      3.251      4.326
REMARK  5 active torsions:
REMARK  status: ('A' for Active; 'I' for Inactive)
REMARK    1  A    between atoms: C_1  and  C_2 
REMARK    2  A    between atoms: C_6  and  C_26 
REMARK    3  A    between atoms: C_12  and  C_13 
REMARK    4  A    between atoms: C_12  and  C_14 
REMARK    5  A    between atoms: N_22  and  C_25 
ROOT
ATOM      1  C   LIG d   1       5.120  -5.505  -6.339  0.00  0.00     0.080 C 
ATOM      2  C   LIG d   1       6.056  -4.463  -5.709  0.00  0.00    -0.016 C 
ATOM      3  N   LIG d   1       6.482  -3.495  -6.722  0.00  0.00     0.255 N 
ATOM      4  C   LIG d   1       7.258  -4.133  -7.787  0.00  0.00    -0.016 C 
ATOM      5  C   LIG d   1       6.385  -5.157  -8.531  0.00  0.00     0.080 C 
ATOM      6  C   LIG d   1       5.892  -6.151  -7.484  0.00  0.00     0.158 C 
ATOM      7  O   LIG d   1       6.112  -7.337  -7.546  0.00  0.00    -0.296 OA
ATOM      8  C   LIG d   1       5.141  -4.430  -9.065  0.00  0.00     0.021 C 
ATOM      9  N   LIG d   1       4.442  -3.784  -7.947  0.00  0.00    -0.254 N 
ATOM     10  C   LIG d   1       3.918  -4.785  -6.974  0.00  0.00     0.021 C 
ATOM     11  C   LIG d   1       5.318  -2.805  -7.286  0.00  0.00     0.064 C 
ATOM     12  H   LIG d   1       5.533  -3.942  -4.908  0.00  0.00     0.083 H 
ATOM     13  H   LIG d   1       6.932  -4.966  -5.299  0.00  0.00     0.083 H 
ATOM     14  H   LIG d   1       7.602  -3.374  -8.488  0.00  0.00     0.083 H 
ATOM     15  H   LIG d   1       8.119  -4.641  -7.353  0.00  0.00     0.083 H 
ATOM     16  H   LIG d   1       5.444  -3.674  -9.790  0.00  0.00     0.044 H 
ATOM     17  H   LIG d   1       4.476  -5.149  -9.544  0.00  0.00     0.044 H 
ATOM     18  H   LIG d   1       3.277  -5.514  -7.471  0.00  0.00     0.044 H 
ATOM     19  H   LIG d   1       3.351  -4.269  -6.199  0.00  0.00     0.044 H 
ATOM     20  H   LIG d   1       7.072  -2.809  -6.277  0.00  0.00     0.206 HD
ENDROOT
BRANCH  11  21
ATOM     21  C   LIG d   1       5.786  -1.767  -8.309  0.00  0.00     0.000 C 
ATOM     22  H   LIG d   1       5.434  -0.780  -8.010  0.00  0.00     0.030 H 
ATOM     23  H   LIG d   1       6.874  -1.767  -8.355  0.00  0.00     0.030 H 
ATOM     24  H   LIG d   1       5.380  -2.016  -9.289  0.00  0.00     0.030 H 
ENDBRANCH  11  21
BRANCH  11  25
ATOM     25  C   LIG d   1       4.558  -2.116  -6.182  0.00  0.00    -0.005 C 
ATOM     26  C   LIG d   1       5.180  -1.223  -5.394  0.00  0.00     0.049 A 
ATOM     27  C   LIG d   1       6.559  -0.705  -5.530  0.00  0.00     0.251 A 
ATOM     28  C   LIG d   1       4.635  -0.544  -4.191  0.00  0.00     0.009 A 
ATOM     29  N   LIG d   1       6.771   0.170  -4.532  0.00  0.00    -0.270 N 
ATOM     30  O   LIG d   1       7.358  -1.013  -6.394  0.00  0.00    -0.270 OA
ATOM     31  C   LIG d   1       5.652   0.290  -3.713  0.00  0.00     0.044 A 
ATOM     32  C   LIG d   1       5.418   1.060  -2.578  0.00  0.00    -0.040 A 
ATOM     33  C   LIG d   1       4.198   0.995  -1.937  0.00  0.00    -0.060 A 
ATOM     34  H   LIG d   1       6.193   1.709  -2.198  0.00  0.00     0.064 H 
ATOM     35  C   LIG d   1       3.195   0.168  -2.413  0.00  0.00    -0.061 A 
ATOM     36  H   LIG d   1       4.024   1.595  -1.057  0.00  0.00     0.062 H 
ATOM     37  C   LIG d   1       3.410  -0.602  -3.539  0.00  0.00    -0.052 A 
ATOM     38  H   LIG d   1       2.244   0.125  -1.904  0.00  0.00     0.062 H 
ATOM     39  H   LIG d   1       2.627  -1.247  -3.912  0.00  0.00     0.062 H 
ATOM     40  H   LIG d   1       3.513  -2.341  -6.024  0.00  0.00     0.065 H 
BRANCH  29  41
ATOM     41  C   LIG d   1       8.024   0.901  -4.328  0.00  0.00     0.009 C 
ATOM     42  H   LIG d   1       8.369   1.304  -5.280  0.00  0.00     0.043 H 
ATOM     43  H   LIG d   1       7.857   1.719  -3.626  0.00  0.00     0.043 H 
ATOM     44  H   LIG d   1       8.778   0.226  -3.925  0.00  0.00     0.043 H 
ENDBRANCH  29  41
ENDBRANCH  11  25
BRANCH   1  45
ATOM     45  C   LIG d   1       4.668  -6.544  -5.312  0.00  0.00    -0.047 C 
ATOM     46  H   LIG d   1       5.484  -6.749  -4.618  0.00  0.00     0.024 H 
ATOM     47  H   LIG d   1       3.811  -6.160  -4.759  0.00  0.00     0.024 H 
ATOM     48  H   LIG d   1       4.387  -7.465  -5.825  0.00  0.00     0.024 H 
ENDBRANCH   1  45
BRANCH   5  49
ATOM     49  C   LIG d   1       7.170  -5.856  -9.642  0.00  0.00    -0.047 C 
ATOM     50  H   LIG d   1       6.685  -5.671 -10.601  0.00  0.00     0.024 H 
ATOM     51  H   LIG d   1       8.188  -5.467  -9.669  0.00  0.00     0.024 H 
ATOM     52  H   LIG d   1       7.197  -6.928  -9.450  0.00  0.00     0.024 H 
ENDBRANCH   5  49
TORSDOF 5
ENDMDL
MODEL 10
REMARK VINA RESULT:      -5.4      4.254      6.799
REMARK  5 active torsions:
REMARK  status: ('A' for Active; 'I' for Inactive)
REMARK    1  A    between atoms: C_1  and  C_2 
REMARK    2  A    between atoms: C_6  and  C_26 
REMARK    3  A    between atoms: C_12  and  C_13 
REMARK    4  A    between atoms: C_12  and  C_14 
REMARK    5  A    between atoms: N_22  and  C_25 
ROOT
ATOM      1  C   LIG d   1       5.350  -1.242  -3.236  0.00  0.00     0.080 C 
ATOM      2  C   LIG d   1       6.770  -1.416  -2.677  0.00  0.00    -0.016 C 
ATOM      3  N   LIG d   1       7.680  -1.836  -3.743  0.00  0.00     0.255 N 
ATOM      4  C   LIG d   1       7.306  -3.143  -4.289  0.00  0.00    -0.016 C 
ATOM      5  C   LIG d   1       5.915  -3.062  -4.937  0.00  0.00     0.080 C 
ATOM      6  C   LIG d   1       4.957  -2.580  -3.853  0.00  0.00     0.158 C 
ATOM      7  O   LIG d   1       3.988  -3.210  -3.501  0.00  0.00    -0.296 OA
ATOM      8  C   LIG d   1       5.948  -1.964  -6.013  0.00  0.00     0.021 C 
ATOM      9  N   LIG d   1       6.370  -0.699  -5.397  0.00  0.00    -0.254 N 
ATOM     10  C   LIG d   1       5.382  -0.223  -4.388  0.00  0.00     0.021 C 
ATOM     11  C   LIG d   1       7.712  -0.832  -4.810  0.00  0.00     0.064 C 
ATOM     12  H   LIG d   1       7.114  -0.469  -2.260  0.00  0.00     0.083 H 
ATOM     13  H   LIG d   1       6.758  -2.172  -1.891  0.00  0.00     0.083 H 
ATOM     14  H   LIG d   1       8.038  -3.445  -5.038  0.00  0.00     0.083 H 
ATOM     15  H   LIG d   1       7.288  -3.879  -3.485  0.00  0.00     0.083 H 
ATOM     16  H   LIG d   1       6.655  -2.241  -6.794  0.00  0.00     0.044 H 
ATOM     17  H   LIG d   1       4.954  -1.846  -6.444  0.00  0.00     0.044 H 
ATOM     18  H   LIG d   1       4.387  -0.136  -4.826  0.00  0.00     0.044 H 
ATOM     19  H   LIG d   1       5.699   0.748  -4.006  0.00  0.00     0.044 H 
ATOM     20  H   LIG d   1       8.608  -1.916  -3.356  0.00  0.00     0.206 HD
ENDROOT
BRANCH  11  21
ATOM     21  C   LIG d   1       8.701  -1.267  -5.893  0.00  0.00     0.000 C 
ATOM     22  H   LIG d   1       9.593  -0.643  -5.841  0.00  0.00     0.030 H 
ATOM     23  H   LIG d   1       8.977  -2.309  -5.736  0.00  0.00     0.030 H 
ATOM     24  H   LIG d   1       8.237  -1.157  -6.873  0.00  0.00     0.030 H 
ENDBRANCH  11  21
BRANCH  11  25
ATOM     25  C   LIG d   1       8.143   0.495  -4.239  0.00  0.00    -0.005 C 
ATOM     26  C   LIG d   1       8.494   1.499  -5.061  0.00  0.00     0.049 A 
ATOM     27  C   LIG d   1       8.408   1.528  -6.538  0.00  0.00     0.251 A 
ATOM     28  C   LIG d   1       9.058   2.820  -4.686  0.00  0.00     0.009 A 
ATOM     29  N   LIG d   1       8.860   2.723  -6.953  0.00  0.00    -0.270 N 
ATOM     30  O   LIG d   1       8.000   0.630  -7.250  0.00  0.00    -0.270 OA
ATOM     31  C   LIG d   1       9.259   3.517  -5.883  0.00  0.00     0.044 A 
ATOM     32  C   LIG d   1       9.785   4.805  -5.834  0.00  0.00    -0.040 A 
ATOM     33  C   LIG d   1      10.104   5.378  -4.620  0.00  0.00    -0.060 A 
ATOM     34  H   LIG d   1       9.945   5.356  -6.749  0.00  0.00     0.064 H 
ATOM     35  C   LIG d   1       9.904   4.683  -3.439  0.00  0.00    -0.061 A 
ATOM     36  H   LIG d   1      10.513   6.376  -4.591  0.00  0.00     0.062 H 
ATOM     37  C   LIG d   1       9.382   3.405  -3.469  0.00  0.00    -0.052 A 
ATOM     38  H   LIG d   1      10.157   5.141  -2.495  0.00  0.00     0.062 H 
ATOM     39  H   LIG d   1       9.225   2.862  -2.547  0.00  0.00     0.062 H 
ATOM     40  H   LIG d   1       8.170   0.639  -3.168  0.00  0.00     0.065 H 
BRANCH  29  41
ATOM     41  C   LIG d   1       8.930   3.136  -8.357  0.00  0.00     0.009 C 
ATOM     42  H   LIG d   1       7.923   3.197  -8.769  0.00  0.00     0.043 H 
ATOM     43  H   LIG d   1       9.410   4.114  -8.424  0.00  0.00     0.043 H 
ATOM     44  H   LIG d   1       9.511   2.408  -8.922  0.00  0.00     0.043 H 
ENDBRANCH  29  41
ENDBRANCH  11  25
BRANCH   1  45
ATOM     45  C   LIG d   1       4.366  -0.819  -2.144  0.00  0.00    -0.047 C 
ATOM     46  H   LIG d   1       3.566  -1.556  -2.069  0.00  0.00     0.024 H 
ATOM     47  H   LIG d   1       4.889  -0.753  -1.190  0.00  0.00     0.024 H 
ATOM     48  H   LIG d   1       3.942   0.154  -2.393  0.00  0.00     0.024 H 
ENDBRANCH   1  45
BRANCH   5  49
ATOM     49  C   LIG d   1       5.484  -4.416  -5.505  0.00  0.00    -0.047 C 
ATOM     50  H   LIG d   1       4.580  -4.752  -4.997  0.00  0.00     0.024 H 
ATOM     51  H   LIG d   1       5.285  -4.316  -6.572  0.00  0.00     0.024 H 
ATOM     52  H   LIG d   1       6.279  -5.145  -5.351  0.00  0.00     0.024 H 
ENDBRANCH   5  49
TORSDOF 5
ENDMDL
