MODEL 1
REMARK VINA RESULT:      -4.5      0.000      0.000
REMARK  6 active torsions:
REMARK  status: ('A' for Active; 'I' for Inactive)
REMARK    1  A    between atoms: C_1  and  C_2 
REMARK    2  A    between atoms: C_2  and  O_3 
REMARK    3  A    between atoms: O_3  and  C_4 
REMARK    4  A    between atoms: C_7  and  O_10 
REMARK    5  A    between atoms: O_10  and  C_11 
REMARK    6  A    between atoms: C_11  and  C_12 
ROOT
ATOM      1  C   LIG d   1       3.305  -0.581  -4.039  0.00  0.00     0.121 A 
ATOM      2  C   LIG d   1       4.309  -1.188  -4.778  0.00  0.00    -0.017 A 
ATOM      3  C   LIG d   1       4.427  -0.924  -6.129  0.00  0.00    -0.017 A 
ATOM      4  C   LIG d   1       3.542  -0.054  -6.746  0.00  0.00     0.121 A 
ATOM      5  C   LIG d   1       2.538   0.554  -6.006  0.00  0.00    -0.017 A 
ATOM      6  C   LIG d   1       2.419   0.290  -4.656  0.00  0.00    -0.017 A 
ATOM      7  H   LIG d   1       4.995  -1.870  -4.299  0.00  0.00     0.066 H 
ATOM      8  H   LIG d   1       5.209  -1.397  -6.705  0.00  0.00     0.066 H 
ATOM      9  H   LIG d   1       1.848   1.233  -6.487  0.00  0.00     0.066 H 
ATOM     10  H   LIG d   1       1.638   0.764  -4.080  0.00  0.00     0.066 H 
ENDROOT
BRANCH   1  11
ATOM     11  O   LIG d   1       3.187  -0.840  -2.710  0.00  0.00    -0.492 OA
BRANCH  11  12
ATOM     12  C   LIG d   1       4.349  -0.635  -1.902  0.00  0.00     0.087 C 
ATOM     13  H   LIG d   1       4.215  -1.130  -0.941  0.00  0.00     0.069 H 
ATOM     14  H   LIG d   1       5.220  -1.052  -2.408  0.00  0.00     0.069 H 
BRANCH  12  15
ATOM     15  C   LIG d   1       4.558   0.865  -1.680  0.00  0.00    -0.031 C 
ATOM     16  H   LIG d   1       3.653   1.403  -1.960  0.00  0.00     0.026 H 
ATOM     17  H   LIG d   1       4.780   1.048  -0.629  0.00  0.00     0.026 H 
ATOM     18  H   LIG d   1       5.391   1.209  -2.294  0.00  0.00     0.026 H 
ENDBRANCH  12  15
ENDBRANCH  11  12
ENDBRANCH   1  11
BRANCH   4  19
ATOM     19  O   LIG d   1       3.659   0.206  -8.076  0.00  0.00    -0.492 OA
BRANCH  19  20
ATOM     20  C   LIG d   1       2.850   1.259  -8.605  0.00  0.00     0.087 C 
ATOM     21  H   LIG d   1       2.265   0.882  -9.443  0.00  0.00     0.069 H 
ATOM     22  H   LIG d   1       2.178   1.627  -7.829  0.00  0.00     0.069 H 
BRANCH  20  23
ATOM     23  C   LIG d   1       3.749   2.401  -9.084  0.00  0.00    -0.031 C 
ATOM     24  H   LIG d   1       3.726   2.449 -10.173  0.00  0.00     0.026 H 
ATOM     25  H   LIG d   1       3.390   3.344  -8.672  0.00  0.00     0.026 H 
ATOM     26  H   LIG d   1       4.771   2.224  -8.749  0.00  0.00     0.026 H 
ENDBRANCH  20  23
ENDBRANCH  19  20
ENDBRANCH   4  19
TORSDOF 6
ENDMDL
MODEL 2
REMARK VINA RESULT:      -4.5      0.106      5.020
REMARK  6 active torsions:
REMARK  status: ('A' for Active; 'I' for Inactive)
REMARK    1  A    between atoms: C_1  and  C_2 
REMARK    2  A    between atoms: C_2  and  O_3 
REMARK    3  A    between atoms: O_3  and  C_4 
REMARK    4  A    between atoms: C_7  and  O_10 
REMARK    5  A    between atoms: O_10  and  C_11 
REMARK    6  A    between atoms: C_11  and  C_12 
ROOT
ATOM      1  C   LIG d   1       3.538   0.024  -6.740  0.00  0.00     0.121 A 
ATOM      2  C   LIG d   1       4.433  -0.865  -6.163  0.00  0.00    -0.017 A 
ATOM      3  C   LIG d   1       4.325  -1.181  -4.823  0.00  0.00    -0.017 A 
ATOM      4  C   LIG d   1       3.323  -0.609  -4.054  0.00  0.00     0.121 A 
ATOM      5  C   LIG d   1       2.427   0.280  -4.632  0.00  0.00    -0.017 A 
ATOM      6  C   LIG d   1       2.536   0.596  -5.972  0.00  0.00    -0.017 A 
ATOM      7  H   LIG d   1       5.217  -1.306  -6.760  0.00  0.00     0.066 H 
ATOM      8  H   LIG d   1       5.022  -1.873  -4.373  0.00  0.00     0.066 H 
ATOM      9  H   LIG d   1       1.646   0.725  -4.032  0.00  0.00     0.066 H 
ATOM     10  H   LIG d   1       1.838   1.287  -6.421  0.00  0.00     0.066 H 
ENDROOT
BRANCH   1  11
ATOM     11  O   LIG d   1       3.645   0.336  -8.059  0.00  0.00    -0.492 OA
BRANCH  11  12
ATOM     12  C   LIG d   1       2.899   1.463  -8.523  0.00  0.00     0.087 C 
ATOM     13  H   LIG d   1       2.126   1.127  -9.214  0.00  0.00     0.069 H 
ATOM     14  H   LIG d   1       2.434   1.964  -7.674  0.00  0.00     0.069 H 
BRANCH  12  15
ATOM     15  C   LIG d   1       3.837   2.437  -9.238  0.00  0.00    -0.031 C 
ATOM     16  H   LIG d   1       4.670   2.687  -8.582  0.00  0.00     0.026 H 
ATOM     17  H   LIG d   1       4.216   1.974 -10.148  0.00  0.00     0.026 H 
ATOM     18  H   LIG d   1       3.290   3.345  -9.494  0.00  0.00     0.026 H 
ENDBRANCH  12  15
ENDBRANCH  11  12
ENDBRANCH   1  11
BRANCH   4  19
ATOM     19  O   LIG d   1       3.215  -0.920  -2.734  0.00  0.00    -0.492 OA
BRANCH  19  20
ATOM     20  C   LIG d   1       4.367  -0.693  -1.918  0.00  0.00     0.087 C 
ATOM     21  H   LIG d   1       4.240  -1.200  -0.962  0.00  0.00     0.069 H 
ATOM     22  H   LIG d   1       5.252  -1.082  -2.421  0.00  0.00     0.069 H 
BRANCH  20  23
ATOM     23  C   LIG d   1       4.534   0.809  -1.681  0.00  0.00    -0.031 C 
ATOM     24  H   LIG d   1       3.747   1.162  -1.014  0.00  0.00     0.026 H 
ATOM     25  H   LIG d   1       5.506   0.999  -1.225  0.00  0.00     0.026 H 
ATOM     26  H   LIG d   1       4.469   1.337  -2.632  0.00  0.00     0.026 H 
ENDBRANCH  20  23
ENDBRANCH  19  20
ENDBRANCH   4  19
TORSDOF 6
ENDMDL
MODEL 3
REMARK VINA RESULT:      -4.1      3.768      5.579
REMARK  6 active torsions:
REMARK  status: ('A' for Active; 'I' for Inactive)
REMARK    1  A    between atoms: C_1  and  C_2 
REMARK    2  A    between atoms: C_2  and  O_3 
REMARK    3  A    between atoms: O_3  and  C_4 
REMARK    4  A    between atoms: C_7  and  O_10 
REMARK    5  A    between atoms: O_10  and  C_11 
REMARK    6  A    between atoms: C_11  and  C_12 
ROOT
ATOM      1  C   LIG d   1       6.094  -2.922  -4.602  0.00  0.00     0.121 A 
ATOM      2  C   LIG d   1       4.784  -3.150  -4.207  0.00  0.00    -0.017 A 
ATOM      3  C   LIG d   1       4.222  -2.384  -3.204  0.00  0.00    -0.017 A 
ATOM      4  C   LIG d   1       4.967  -1.387  -2.593  0.00  0.00     0.121 A 
ATOM      5  C   LIG d   1       6.277  -1.159  -2.988  0.00  0.00    -0.017 A 
ATOM      6  C   LIG d   1       6.840  -1.926  -3.990  0.00  0.00    -0.017 A 
ATOM      7  H   LIG d   1       4.206  -3.929  -4.679  0.00  0.00     0.066 H 
ATOM      8  H   LIG d   1       3.202  -2.561  -2.896  0.00  0.00     0.066 H 
ATOM      9  H   LIG d   1       6.858  -0.382  -2.512  0.00  0.00     0.066 H 
ATOM     10  H   LIG d   1       7.859  -1.747  -4.298  0.00  0.00     0.066 H 
ENDROOT
BRANCH   1  11
ATOM     11  O   LIG d   1       6.648  -3.677  -5.587  0.00  0.00    -0.492 OA
BRANCH  11  12
ATOM     12  C   LIG d   1       7.488  -4.760  -5.183  0.00  0.00     0.087 C 
ATOM     13  H   LIG d   1       8.461  -4.664  -5.664  0.00  0.00     0.069 H 
ATOM     14  H   LIG d   1       7.613  -4.737  -4.100  0.00  0.00     0.069 H 
BRANCH  12  15
ATOM     15  C   LIG d   1       6.844  -6.086  -5.592  0.00  0.00    -0.031 C 
ATOM     16  H   LIG d   1       7.600  -6.739  -6.028  0.00  0.00     0.026 H 
ATOM     17  H   LIG d   1       6.411  -6.566  -4.715  0.00  0.00     0.026 H 
ATOM     18  H   LIG d   1       6.060  -5.897  -6.327  0.00  0.00     0.026 H 
ENDBRANCH  12  15
ENDBRANCH  11  12
ENDBRANCH   1  11
BRANCH   4  19
ATOM     19  O   LIG d   1       4.414  -0.632  -1.606  0.00  0.00    -0.492 OA
BRANCH  19  20
ATOM     20  C   LIG d   1       4.630   0.779  -1.670  0.00  0.00     0.087 C 
ATOM     21  H   LIG d   1       4.557   1.204  -0.669  0.00  0.00     0.069 H 
ATOM     22  H   LIG d   1       5.621   0.978  -2.078  0.00  0.00     0.069 H 
BRANCH  20  23
ATOM     23  C   LIG d   1       3.571   1.416  -2.572  0.00  0.00    -0.031 C 
ATOM     24  H   LIG d   1       2.583   1.056  -2.284  0.00  0.00     0.026 H 
ATOM     25  H   LIG d   1       3.607   2.501  -2.466  0.00  0.00     0.026 H 
ATOM     26  H   LIG d   1       3.767   1.147  -3.610  0.00  0.00     0.026 H 
ENDBRANCH  20  23
ENDBRANCH  19  20
ENDBRANCH   4  19
TORSDOF 6
ENDMDL
MODEL 4
REMARK VINA RESULT:      -3.9      3.628      4.564
REMARK  6 active torsions:
REMARK  status: ('A' for Active; 'I' for Inactive)
REMARK    1  A    between atoms: C_1  and  C_2 
REMARK    2  A    between atoms: C_2  and  O_3 
REMARK    3  A    between atoms: O_3  and  C_4 
REMARK    4  A    between atoms: C_7  and  O_10 
REMARK    5  A    between atoms: O_10  and  C_11 
REMARK    6  A    between atoms: C_11  and  C_12 
ROOT
ATOM      1  C   LIG d   1       5.307  -0.699  -2.934  0.00  0.00     0.121 A 
ATOM      2  C   LIG d   1       4.446  -1.616  -2.348  0.00  0.00    -0.017 A 
ATOM      3  C   LIG d   1       4.165  -2.807  -2.988  0.00  0.00    -0.017 A 
ATOM      4  C   LIG d   1       4.744  -3.088  -4.216  0.00  0.00     0.121 A 
ATOM      5  C   LIG d   1       5.606  -2.172  -4.802  0.00  0.00    -0.017 A 
ATOM      6  C   LIG d   1       5.885  -0.980  -4.163  0.00  0.00    -0.017 A 
ATOM      7  H   LIG d   1       3.991  -1.395  -1.394  0.00  0.00     0.066 H 
ATOM      8  H   LIG d   1       3.495  -3.521  -2.532  0.00  0.00     0.066 H 
ATOM      9  H   LIG d   1       6.057  -2.391  -5.760  0.00  0.00     0.066 H 
ATOM     10  H   LIG d   1       6.556  -0.268  -4.619  0.00  0.00     0.066 H 
ENDROOT
BRANCH   1  11
ATOM     11  O   LIG d   1       5.582   0.473  -2.306  0.00  0.00    -0.492 OA
BRANCH  11  12
ATOM     12  C   LIG d   1       4.482   1.168  -1.714  0.00  0.00     0.087 C 
ATOM     13  H   LIG d   1       3.927   0.486  -1.070  0.00  0.00     0.069 H 
ATOM     14  H   LIG d   1       4.858   2.003  -1.121  0.00  0.00     0.069 H 
BRANCH  12  15
ATOM     15  C   LIG d   1       3.561   1.698  -2.814  0.00  0.00    -0.031 C 
ATOM     16  H   LIG d   1       2.558   1.293  -2.675  0.00  0.00     0.026 H 
ATOM     17  H   LIG d   1       3.524   2.786  -2.764  0.00  0.00     0.026 H 
ATOM     18  H   LIG d   1       3.945   1.391  -3.787  0.00  0.00     0.026 H 
ENDBRANCH  12  15
ENDBRANCH  11  12
ENDBRANCH   1  11
BRANCH   4  19
ATOM     19  O   LIG d   1       4.469  -4.261  -4.846  0.00  0.00    -0.492 OA
BRANCH  19  20
ATOM     20  C   LIG d   1       5.251  -4.578  -6.000  0.00  0.00     0.087 C 
ATOM     21  H   LIG d   1       4.590  -4.786  -6.841  0.00  0.00     0.069 H 
ATOM     22  H   LIG d   1       5.896  -3.734  -6.244  0.00  0.00     0.069 H 
BRANCH  20  23
ATOM     23  C   LIG d   1       6.110  -5.810  -5.710  0.00  0.00    -0.031 C 
ATOM     24  H   LIG d   1       5.478  -6.610  -5.324  0.00  0.00     0.026 H 
ATOM     25  H   LIG d   1       6.592  -6.141  -6.630  0.00  0.00     0.026 H 
ATOM     26  H   LIG d   1       6.871  -5.558  -4.971  0.00  0.00     0.026 H 
ENDBRANCH  20  23
ENDBRANCH  19  20
ENDBRANCH   4  19
TORSDOF 6
ENDMDL
MODEL 5
REMARK VINA RESULT:      -3.8      1.465      5.348
REMARK  6 active torsions:
REMARK  status: ('A' for Active; 'I' for Inactive)
REMARK    1  A    between atoms: C_1  and  C_2 
REMARK    2  A    between atoms: C_2  and  O_3 
REMARK    3  A    between atoms: O_3  and  C_4 
REMARK    4  A    between atoms: C_7  and  O_10 
REMARK    5  A    between atoms: O_10  and  C_11 
REMARK    6  A    between atoms: C_11  and  C_12 
ROOT
ATOM      1  C   LIG d   1       3.550  -0.448  -7.919  0.00  0.00     0.121 A 
ATOM      2  C   LIG d   1       4.490  -1.191  -7.220  0.00  0.00    -0.017 A 
ATOM      3  C   LIG d   1       4.568  -1.088  -5.845  0.00  0.00    -0.017 A 
ATOM      4  C   LIG d   1       3.706  -0.242  -5.163  0.00  0.00     0.121 A 
ATOM      5  C   LIG d   1       2.766   0.501  -5.862  0.00  0.00    -0.017 A 
ATOM      6  C   LIG d   1       2.689   0.398  -7.237  0.00  0.00    -0.017 A 
ATOM      7  H   LIG d   1       5.164  -1.846  -7.751  0.00  0.00     0.066 H 
ATOM      8  H   LIG d   1       5.300  -1.666  -5.300  0.00  0.00     0.066 H 
ATOM      9  H   LIG d   1       2.094   1.160  -5.330  0.00  0.00     0.066 H 
ATOM     10  H   LIG d   1       1.956   0.976  -7.781  0.00  0.00     0.066 H 
ENDROOT
BRANCH   1  11
ATOM     11  O   LIG d   1       3.474  -0.548  -9.272  0.00  0.00    -0.492 OA
BRANCH  11  12
ATOM     12  C   LIG d   1       4.471   0.137 -10.032  0.00  0.00     0.087 C 
ATOM     13  H   LIG d   1       5.289   0.432  -9.375  0.00  0.00     0.069 H 
ATOM     14  H   LIG d   1       4.851  -0.524 -10.811  0.00  0.00     0.069 H 
BRANCH  12  15
ATOM     15  C   LIG d   1       3.857   1.382 -10.676  0.00  0.00    -0.031 C 
ATOM     16  H   LIG d   1       3.669   2.133  -9.908  0.00  0.00     0.026 H 
ATOM     17  H   LIG d   1       4.547   1.785 -11.417  0.00  0.00     0.026 H 
ATOM     18  H   LIG d   1       2.918   1.114 -11.160  0.00  0.00     0.026 H 
ENDBRANCH  12  15
ENDBRANCH  11  12
ENDBRANCH   1  11
BRANCH   4  19
ATOM     19  O   LIG d   1       3.782  -0.141  -3.809  0.00  0.00    -0.492 OA
BRANCH  19  20
ATOM     20  C   LIG d   1       2.986  -1.049  -3.045  0.00  0.00     0.087 C 
ATOM     21  H   LIG d   1       2.306  -0.486  -2.404  0.00  0.00     0.069 H 
ATOM     22  H   LIG d   1       2.409  -1.683  -3.718  0.00  0.00     0.069 H 
BRANCH  20  23
ATOM     23  C   LIG d   1       3.897  -1.920  -2.179  0.00  0.00    -0.031 C 
ATOM     24  H   LIG d   1       3.680  -1.739  -1.125  0.00  0.00     0.026 H 
ATOM     25  H   LIG d   1       3.721  -2.971  -2.409  0.00  0.00     0.026 H 
ATOM     26  H   LIG d   1       4.939  -1.673  -2.383  0.00  0.00     0.026 H 
ENDBRANCH  20  23
ENDBRANCH  19  20
ENDBRANCH   4  19
TORSDOF 6
ENDMDL
MODEL 6
REMARK VINA RESULT:      -3.8      3.667      4.719
REMARK  6 active torsions:
REMARK  status: ('A' for Active; 'I' for Inactive)
REMARK    1  A    between atoms: C_1  and  C_2 
REMARK    2  A    between atoms: C_2  and  O_3 
REMARK    3  A    between atoms: O_3  and  C_4 
REMARK    4  A    between atoms: C_7  and  O_10 
REMARK    5  A    between atoms: O_10  and  C_11 
REMARK    6  A    between atoms: C_11  and  C_12 
ROOT
ATOM      1  C   LIG d   1       5.435  -0.459  -2.589  0.00  0.00     0.121 A 
ATOM      2  C   LIG d   1       6.366  -1.255  -3.241  0.00  0.00    -0.017 A 
ATOM      3  C   LIG d   1       7.387  -0.671  -3.964  0.00  0.00    -0.017 A 
ATOM      4  C   LIG d   1       7.483   0.711  -4.038  0.00  0.00     0.121 A 
ATOM      5  C   LIG d   1       6.552   1.506  -3.385  0.00  0.00    -0.017 A 
ATOM      6  C   LIG d   1       5.530   0.922  -2.663  0.00  0.00    -0.017 A 
ATOM      7  H   LIG d   1       6.288  -2.330  -3.188  0.00  0.00     0.066 H 
ATOM      8  H   LIG d   1       8.112  -1.290  -4.472  0.00  0.00     0.066 H 
ATOM      9  H   LIG d   1       6.627   2.583  -3.443  0.00  0.00     0.066 H 
ATOM     10  H   LIG d   1       4.807   1.542  -2.155  0.00  0.00     0.066 H 
ENDROOT
BRANCH   1  11
ATOM     11  O   LIG d   1       4.428  -1.034  -1.878  0.00  0.00    -0.492 OA
BRANCH  11  12
ATOM     12  C   LIG d   1       3.449  -1.768  -2.615  0.00  0.00     0.087 C 
ATOM     13  H   LIG d   1       3.941  -2.349  -3.394  0.00  0.00     0.069 H 
ATOM     14  H   LIG d   1       2.917  -2.440  -1.941  0.00  0.00     0.069 H 
BRANCH  12  15
ATOM     15  C   LIG d   1       2.454  -0.796  -3.253  0.00  0.00    -0.031 C 
ATOM     16  H   LIG d   1       2.805  -0.518  -4.247  0.00  0.00     0.026 H 
ATOM     17  H   LIG d   1       1.479  -1.274  -3.332  0.00  0.00     0.026 H 
ATOM     18  H   LIG d   1       2.373   0.098  -2.634  0.00  0.00     0.026 H 
ENDBRANCH  12  15
ENDBRANCH  11  12
ENDBRANCH   1  11
BRANCH   4  19
ATOM     19  O   LIG d   1       8.489   1.286  -4.749  0.00  0.00    -0.492 OA
BRANCH  19  20
ATOM     20  C   LIG d   1       8.896   2.598  -4.353  0.00  0.00     0.087 C 
ATOM     21  H   LIG d   1       9.236   3.152  -5.228  0.00  0.00     0.069 H 
ATOM     22  H   LIG d   1       8.054   3.118  -3.898  0.00  0.00     0.069 H 
BRANCH  20  23
ATOM     23  C   LIG d   1      10.038   2.493  -3.341  0.00  0.00    -0.031 C 
ATOM     24  H   LIG d   1      10.193   3.462  -2.866  0.00  0.00     0.026 H 
ATOM     25  H   LIG d   1       9.784   1.753  -2.581  0.00  0.00     0.026 H 
ATOM     26  H   LIG d   1      10.951   2.189  -3.853  0.00  0.00     0.026 H 
ENDBRANCH  20  23
ENDBRANCH  19  20
ENDBRANCH   4  19
TORSDOF 6
ENDMDL
MODEL 7
REMARK VINA RESULT:      -3.7      3.579      5.265
REMARK  6 active torsions:
REMARK  status: ('A' for Active; 'I' for Inactive)
REMARK    1  A    between atoms: C_1  and  C_2 
REMARK    2  A    between atoms: C_2  and  O_3 
REMARK    3  A    between atoms: O_3  and  C_4 
REMARK    4  A    between atoms: C_7  and  O_10 
REMARK    5  A    between atoms: O_10  and  C_11 
REMARK    6  A    between atoms: C_11  and  C_12 
ROOT
ATOM      1  C   LIG d   1       7.089  -2.982  -4.363  0.00  0.00     0.121 A 
ATOM      2  C   LIG d   1       5.982  -3.615  -4.910  0.00  0.00    -0.017 A 
ATOM      3  C   LIG d   1       4.712  -3.266  -4.493  0.00  0.00    -0.017 A 
ATOM      4  C   LIG d   1       4.544  -2.284  -3.528  0.00  0.00     0.121 A 
ATOM      5  C   LIG d   1       5.652  -1.651  -2.983  0.00  0.00    -0.017 A 
ATOM      6  C   LIG d   1       6.921  -2.000  -3.399  0.00  0.00    -0.017 A 
ATOM      7  H   LIG d   1       6.113  -4.383  -5.657  0.00  0.00     0.066 H 
ATOM      8  H   LIG d   1       3.850  -3.758  -4.918  0.00  0.00     0.066 H 
ATOM      9  H   LIG d   1       5.520  -0.885  -2.231  0.00  0.00     0.066 H 
ATOM     10  H   LIG d   1       7.783  -1.507  -2.974  0.00  0.00     0.066 H 
ENDROOT
BRANCH   1  11
ATOM     11  O   LIG d   1       8.339  -3.326  -4.772  0.00  0.00    -0.492 OA
BRANCH  11  12
ATOM     12  C   LIG d   1       9.305  -3.595  -3.754  0.00  0.00     0.087 C 
ATOM     13  H   LIG d   1      10.300  -3.347  -4.123  0.00  0.00     0.069 H 
ATOM     14  H   LIG d   1       9.083  -2.992  -2.875  0.00  0.00     0.069 H 
BRANCH  12  15
ATOM     15  C   LIG d   1       9.254  -5.078  -3.381  0.00  0.00    -0.031 C 
ATOM     16  H   LIG d   1       8.501  -5.233  -2.609  0.00  0.00     0.026 H 
ATOM     17  H   LIG d   1       8.998  -5.666  -4.262  0.00  0.00     0.026 H 
ATOM     18  H   LIG d   1      10.229  -5.391  -3.005  0.00  0.00     0.026 H 
ENDBRANCH  12  15
ENDBRANCH  11  12
ENDBRANCH   1  11
BRANCH   4  19
ATOM     19  O   LIG d   1       3.294  -1.939  -3.118  0.00  0.00    -0.492 OA
BRANCH  19  20
ATOM     20  C   LIG d   1       3.027  -0.546  -2.950  0.00  0.00     0.087 C 
ATOM     21  H   LIG d   1       2.230  -0.414  -2.217  0.00  0.00     0.069 H 
ATOM     22  H   LIG d   1       3.929  -0.042  -2.601  0.00  0.00     0.069 H 
BRANCH  20  23
ATOM     23  C   LIG d   1       2.593   0.055  -4.288  0.00  0.00    -0.031 C 
ATOM     24  H   LIG d   1       2.468  -0.742  -5.021  0.00  0.00     0.026 H 
ATOM     25  H   LIG d   1       1.647   0.582  -4.160  0.00  0.00     0.026 H 
ATOM     26  H   LIG d   1       3.354   0.754  -4.637  0.00  0.00     0.026 H 
ENDBRANCH  20  23
ENDBRANCH  19  20
ENDBRANCH   4  19
TORSDOF 6
ENDMDL
MODEL 8
REMARK VINA RESULT:      -3.6      2.437      3.923
REMARK  6 active torsions:
REMARK  status: ('A' for Active; 'I' for Inactive)
REMARK    1  A    between atoms: C_1  and  C_2 
REMARK    2  A    between atoms: C_2  and  O_3 
REMARK    3  A    between atoms: O_3  and  C_4 
REMARK    4  A    between atoms: C_7  and  O_10 
REMARK    5  A    between atoms: O_10  and  C_11 
REMARK    6  A    between atoms: C_11  and  C_12 
ROOT
ATOM      1  C   LIG d   1       2.925   0.869  -7.376  0.00  0.00     0.121 A 
ATOM      2  C   LIG d   1       3.000   1.860  -8.343  0.00  0.00    -0.017 A 
ATOM      3  C   LIG d   1       2.983   1.521  -9.682  0.00  0.00    -0.017 A 
ATOM      4  C   LIG d   1       2.890   0.190 -10.059  0.00  0.00     0.121 A 
ATOM      5  C   LIG d   1       2.813  -0.802  -9.092  0.00  0.00    -0.017 A 
ATOM      6  C   LIG d   1       2.832  -0.462  -7.753  0.00  0.00    -0.017 A 
ATOM      7  H   LIG d   1       3.078   2.896  -8.050  0.00  0.00     0.066 H 
ATOM      8  H   LIG d   1       3.042   2.293 -10.436  0.00  0.00     0.066 H 
ATOM      9  H   LIG d   1       2.740  -1.839  -9.386  0.00  0.00     0.066 H 
ATOM     10  H   LIG d   1       2.771  -1.234  -7.000  0.00  0.00     0.066 H 
ENDROOT
BRANCH   1  11
ATOM     11  O   LIG d   1       2.943   1.202  -6.058  0.00  0.00    -0.492 OA
BRANCH  11  12
ATOM     12  C   LIG d   1       2.931   0.127  -5.116  0.00  0.00     0.087 C 
ATOM     13  H   LIG d   1       1.956  -0.359  -5.131  0.00  0.00     0.069 H 
ATOM     14  H   LIG d   1       3.702  -0.596  -5.382  0.00  0.00     0.069 H 
BRANCH  12  15
ATOM     15  C   LIG d   1       3.208   0.674  -3.714  0.00  0.00    -0.031 C 
ATOM     16  H   LIG d   1       4.230   1.051  -3.666  0.00  0.00     0.026 H 
ATOM     17  H   LIG d   1       2.512   1.483  -3.496  0.00  0.00     0.026 H 
ATOM     18  H   LIG d   1       3.080  -0.124  -2.982  0.00  0.00     0.026 H 
ENDBRANCH  12  15
ENDBRANCH  11  12
ENDBRANCH   1  11
BRANCH   4  19
ATOM     19  O   LIG d   1       2.872  -0.145 -11.378  0.00  0.00    -0.492 OA
BRANCH  19  20
ATOM     20  C   LIG d   1       2.339  -1.427 -11.715  0.00  0.00     0.087 C 
ATOM     21  H   LIG d   1       2.837  -1.804 -12.608  0.00  0.00     0.069 H 
ATOM     22  H   LIG d   1       2.504  -2.118 -10.888  0.00  0.00     0.069 H 
BRANCH  20  23
ATOM     23  C   LIG d   1       0.839  -1.301 -11.982  0.00  0.00    -0.031 C 
ATOM     24  H   LIG d   1       0.332  -2.206 -11.645  0.00  0.00     0.026 H 
ATOM     25  H   LIG d   1       0.443  -0.442 -11.440  0.00  0.00     0.026 H 
ATOM     26  H   LIG d   1       0.669  -1.166 -13.050  0.00  0.00     0.026 H 
ENDBRANCH  20  23
ENDBRANCH  19  20
ENDBRANCH   4  19
TORSDOF 6
ENDMDL
MODEL 9
REMARK VINA RESULT:      -3.6      1.993      2.718
REMARK  6 active torsions:
REMARK  status: ('A' for Active; 'I' for Inactive)
REMARK    1  A    between atoms: C_1  and  C_2 
REMARK    2  A    between atoms: C_2  and  O_3 
REMARK    3  A    between atoms: O_3  and  C_4 
REMARK    4  A    between atoms: C_7  and  O_10 
REMARK    5  A    between atoms: O_10  and  C_11 
REMARK    6  A    between atoms: C_11  and  C_12 
ROOT
ATOM      1  C   LIG d   1       3.855  -0.287  -5.949  0.00  0.00     0.121 A 
ATOM      2  C   LIG d   1       2.859   0.342  -6.683  0.00  0.00    -0.017 A 
ATOM      3  C   LIG d   1       2.513  -0.139  -7.931  0.00  0.00    -0.017 A 
ATOM      4  C   LIG d   1       3.160  -1.250  -8.450  0.00  0.00     0.121 A 
ATOM      5  C   LIG d   1       4.155  -1.879  -7.715  0.00  0.00    -0.017 A 
ATOM      6  C   LIG d   1       4.502  -1.398  -6.468  0.00  0.00    -0.017 A 
ATOM      7  H   LIG d   1       2.359   1.210  -6.281  0.00  0.00     0.066 H 
ATOM      8  H   LIG d   1       1.738   0.350  -8.502  0.00  0.00     0.066 H 
ATOM      9  H   LIG d   1       4.659  -2.746  -8.120  0.00  0.00     0.066 H 
ATOM     10  H   LIG d   1       5.276  -1.888  -5.897  0.00  0.00     0.066 H 
ENDROOT
BRANCH   1  11
ATOM     11  O   LIG d   1       4.197   0.187  -4.722  0.00  0.00    -0.492 OA
BRANCH  11  12
ATOM     12  C   LIG d   1       3.139   0.367  -3.777  0.00  0.00     0.087 C 
ATOM     13  H   LIG d   1       2.342   0.955  -4.232  0.00  0.00     0.069 H 
ATOM     14  H   LIG d   1       2.750  -0.606  -3.479  0.00  0.00     0.069 H 
BRANCH  12  15
ATOM     15  C   LIG d   1       3.674   1.100  -2.545  0.00  0.00    -0.031 C 
ATOM     16  H   LIG d   1       2.840   1.423  -1.923  0.00  0.00     0.026 H 
ATOM     17  H   LIG d   1       4.316   0.430  -1.974  0.00  0.00     0.026 H 
ATOM     18  H   LIG d   1       4.248   1.971  -2.863  0.00  0.00     0.026 H 
ENDBRANCH  12  15
ENDBRANCH  11  12
ENDBRANCH   1  11
BRANCH   4  19
ATOM     19  O   LIG d   1       2.819  -1.725  -9.678  0.00  0.00    -0.492 OA
BRANCH  19  20
ATOM     20  C   LIG d   1       2.276  -0.786 -10.608  0.00  0.00     0.087 C 
ATOM     21  H   LIG d   1       1.499  -1.269 -11.200  0.00  0.00     0.069 H 
ATOM     22  H   LIG d   1       1.850   0.058 -10.067  0.00  0.00     0.069 H 
BRANCH  20  23
ATOM     23  C   LIG d   1       3.387  -0.288 -11.536  0.00  0.00    -0.031 C 
ATOM     24  H   LIG d   1       3.112  -0.488 -12.572  0.00  0.00     0.026 H 
ATOM     25  H   LIG d   1       3.522   0.785 -11.398  0.00  0.00     0.026 H 
ATOM     26  H   LIG d   1       4.317  -0.805 -11.300  0.00  0.00     0.026 H 
ENDBRANCH  20  23
ENDBRANCH  19  20
ENDBRANCH   4  19
TORSDOF 6
ENDMDL
MODEL 10
REMARK VINA RESULT:      -3.4      9.890     11.656
REMARK  6 active torsions:
REMARK  status: ('A' for Active; 'I' for Inactive)
REMARK    1  A    between atoms: C_1  and  C_2 
REMARK    2  A    between atoms: C_2  and  O_3 
REMARK    3  A    between atoms: O_3  and  C_4 
REMARK    4  A    between atoms: C_7  and  O_10 
REMARK    5  A    between atoms: O_10  and  C_11 
REMARK    6  A    between atoms: C_11  and  C_12 
ROOT
ATOM      1  C   LIG d   1      11.272   7.347   1.741  0.00  0.00     0.121 A 
ATOM      2  C   LIG d   1      11.065   6.084   1.206  0.00  0.00    -0.017 A 
ATOM      3  C   LIG d   1      10.886   5.932  -0.155  0.00  0.00    -0.017 A 
ATOM      4  C   LIG d   1      10.911   7.042  -0.986  0.00  0.00     0.121 A 
ATOM      5  C   LIG d   1      11.119   8.305  -0.451  0.00  0.00    -0.017 A 
ATOM      6  C   LIG d   1      11.298   8.456   0.910  0.00  0.00    -0.017 A 
ATOM      7  H   LIG d   1      11.040   5.220   1.853  0.00  0.00     0.066 H 
ATOM      8  H   LIG d   1      10.725   4.949  -0.573  0.00  0.00     0.066 H 
ATOM      9  H   LIG d   1      11.139   9.170  -1.099  0.00  0.00     0.066 H 
ATOM     10  H   LIG d   1      11.459   9.440   1.327  0.00  0.00     0.066 H 
ENDROOT
BRANCH   1  11
ATOM     11  O   LIG d   1      11.448   7.497   3.081  0.00  0.00    -0.492 OA
BRANCH  11  12
ATOM     12  C   LIG d   1      11.006   6.426   3.918  0.00  0.00     0.087 C 
ATOM     13  H   LIG d   1       9.958   6.210   3.708  0.00  0.00     0.069 H 
ATOM     14  H   LIG d   1      11.607   5.539   3.721  0.00  0.00     0.069 H 
BRANCH  12  15
ATOM     15  C   LIG d   1      11.159   6.829   5.386  0.00  0.00    -0.031 C 
ATOM     16  H   LIG d   1      11.931   6.217   5.853  0.00  0.00     0.026 H 
ATOM     17  H   LIG d   1      11.443   7.880   5.447  0.00  0.00     0.026 H 
ATOM     18  H   LIG d   1      10.212   6.678   5.905  0.00  0.00     0.026 H 
ENDBRANCH  12  15
ENDBRANCH  11  12
ENDBRANCH   1  11
BRANCH   4  19
ATOM     19  O   LIG d   1      10.735   6.893  -2.327  0.00  0.00    -0.492 OA
BRANCH  19  20
ATOM     20  C   LIG d   1       9.429   6.522  -2.773  0.00  0.00     0.087 C 
ATOM     21  H   LIG d   1       9.185   5.529  -2.397  0.00  0.00     0.069 H 
ATOM     22  H   LIG d   1       8.700   7.241  -2.399  0.00  0.00     0.069 H 
BRANCH  20  23
ATOM     23  C   LIG d   1       9.397   6.511  -4.302  0.00  0.00    -0.031 C 
ATOM     24  H   LIG d   1      10.238   7.088  -4.687  0.00  0.00     0.026 H 
ATOM     25  H   LIG d   1       9.468   5.483  -4.659  0.00  0.00     0.026 H 
ATOM     26  H   LIG d   1       8.463   6.953  -4.650  0.00  0.00     0.026 H 
ENDBRANCH  20  23
ENDBRANCH  19  20
ENDBRANCH   4  19
TORSDOF 6
ENDMDL
