MODEL 1
REMARK VINA RESULT:      -4.5      0.000      0.000
REMARK  10 active torsions:
REMARK  status: ('A' for Active; 'I' for Inactive)
REMARK    1  A    between atoms: C_1  and  C_2 
REMARK    2  A    between atoms: C_2  and  C_3 
REMARK    3  A    between atoms: C_3  and  C_5 
REMARK    4  A    between atoms: C_3  and  C_6 
REMARK    5  A    between atoms: C_6  and  C_7 
REMARK    6  A    between atoms: C_7  and  C_8 
REMARK    7  A    between atoms: C_8  and  C_9 
REMARK    8  A    between atoms: C_9  and  C_10 
REMARK    9  A    between atoms: C_9  and  C_11 
REMARK   10  A    between atoms: C_9  and  O_12 
ROOT
ATOM      1  C   LIG d   1       4.322  -1.852  -2.466  0.00  0.00    -0.050 C 
ATOM      2  H   LIG d   1       5.146  -1.144  -2.375  0.00  0.00     0.027 H 
ATOM      3  H   LIG d   1       4.246  -2.441  -1.553  0.00  0.00     0.027 H 
ENDROOT
BRANCH   1   4
ATOM      4  C   LIG d   1       3.016  -1.087  -2.690  0.00  0.00    -0.050 C 
ATOM      5  H   LIG d   1       2.264  -1.438  -1.983  0.00  0.00     0.027 H 
ATOM      6  H   LIG d   1       2.664  -1.258  -3.708  0.00  0.00     0.027 H 
BRANCH   4   7
ATOM      7  C   LIG d   1       3.258   0.408  -2.478  0.00  0.00    -0.044 C 
ATOM      8  H   LIG d   1       2.446   0.827  -1.882  0.00  0.00     0.030 H 
BRANCH   7   9
ATOM      9  C   LIG d   1       3.312   1.114  -3.834  0.00  0.00    -0.053 C 
ATOM     10  H   LIG d   1       4.332   1.085  -4.218  0.00  0.00     0.026 H 
ATOM     11  H   LIG d   1       2.998   2.151  -3.718  0.00  0.00     0.026 H 
BRANCH   9  12
ATOM     12  C   LIG d   1       2.377   0.405  -4.816  0.00  0.00    -0.065 C 
ATOM     13  H   LIG d   1       1.507   1.033  -5.007  0.00  0.00     0.023 H 
ATOM     14  H   LIG d   1       2.905   0.221  -5.752  0.00  0.00     0.023 H 
ATOM     15  H   LIG d   1       2.054  -0.544  -4.389  0.00  0.00     0.023 H 
ENDBRANCH   9  12
ENDBRANCH   7   9
BRANCH   7  16
ATOM     16  C   LIG d   1       4.585   0.611  -1.744  0.00  0.00    -0.062 C 
ATOM     17  H   LIG d   1       5.268  -0.201  -1.997  0.00  0.00     0.023 H 
ATOM     18  H   LIG d   1       5.025   1.562  -2.045  0.00  0.00     0.023 H 
ATOM     19  H   LIG d   1       4.410   0.617  -0.669  0.00  0.00     0.023 H 
ENDBRANCH   7  16
ENDBRANCH   4   7
ENDBRANCH   1   4
BRANCH   1  20
ATOM     20  C   LIG d   1       4.578  -2.782  -3.653  0.00  0.00    -0.025 C 
ATOM     21  H   LIG d   1       4.627  -3.813  -3.304  0.00  0.00     0.029 H 
ATOM     22  H   LIG d   1       3.768  -2.681  -4.375  0.00  0.00     0.029 H 
BRANCH  20  23
ATOM     23  C   LIG d   1       5.904  -2.405  -4.319  0.00  0.00     0.060 C 
BRANCH  23  24
ATOM     24  C   LIG d   1       5.648  -1.369  -5.416  0.00  0.00    -0.036 C 
ATOM     25  H   LIG d   1       4.660  -1.532  -5.847  0.00  0.00     0.026 H 
ATOM     26  H   LIG d   1       5.698  -0.368  -4.989  0.00  0.00     0.026 H 
ATOM     27  H   LIG d   1       6.405  -1.470  -6.194  0.00  0.00     0.026 H 
ENDBRANCH  23  24
BRANCH  23  28
ATOM     28  C   LIG d   1       6.851  -1.816  -3.273  0.00  0.00    -0.036 C 
ATOM     29  H   LIG d   1       6.736  -0.732  -3.248  0.00  0.00     0.026 H 
ATOM     30  H   LIG d   1       6.612  -2.229  -2.292  0.00  0.00     0.026 H 
ATOM     31  H   LIG d   1       7.880  -2.065  -3.531  0.00  0.00     0.026 H 
ENDBRANCH  23  28
BRANCH  23  32
ATOM     32  O   LIG d   1       6.495  -3.571  -4.894  0.00  0.00    -0.389 OA
ATOM     33  H   LIG d   1       7.457  -3.522  -4.983  0.00  0.00     0.210 HD
ENDBRANCH  23  32
ENDBRANCH  20  23
ENDBRANCH   1  20
TORSDOF 10
ENDMDL
MODEL 2
REMARK VINA RESULT:      -4.2      1.639      1.974
REMARK  10 active torsions:
REMARK  status: ('A' for Active; 'I' for Inactive)
REMARK    1  A    between atoms: C_1  and  C_2 
REMARK    2  A    between atoms: C_2  and  C_3 
REMARK    3  A    between atoms: C_3  and  C_5 
REMARK    4  A    between atoms: C_3  and  C_6 
REMARK    5  A    between atoms: C_6  and  C_7 
REMARK    6  A    between atoms: C_7  and  C_8 
REMARK    7  A    between atoms: C_8  and  C_9 
REMARK    8  A    between atoms: C_9  and  C_10 
REMARK    9  A    between atoms: C_9  and  C_11 
REMARK   10  A    between atoms: C_9  and  O_12 
ROOT
ATOM      1  C   LIG d   1       5.183  -1.720  -3.293  0.00  0.00    -0.050 C 
ATOM      2  H   LIG d   1       5.071  -2.791  -3.463  0.00  0.00     0.027 H 
ATOM      3  H   LIG d   1       4.817  -1.173  -4.161  0.00  0.00     0.027 H 
ENDROOT
BRANCH   1   4
ATOM      4  C   LIG d   1       4.376  -1.313  -2.057  0.00  0.00    -0.050 C 
ATOM      5  H   LIG d   1       5.028  -0.797  -1.352  0.00  0.00     0.027 H 
ATOM      6  H   LIG d   1       3.963  -2.204  -1.584  0.00  0.00     0.027 H 
BRANCH   4   7
ATOM      7  C   LIG d   1       3.237  -0.383  -2.476  0.00  0.00    -0.044 C 
ATOM      8  H   LIG d   1       2.374  -0.552  -1.832  0.00  0.00     0.030 H 
BRANCH   7   9
ATOM      9  C   LIG d   1       2.853  -0.669  -3.929  0.00  0.00    -0.053 C 
ATOM     10  H   LIG d   1       1.962  -1.296  -3.953  0.00  0.00     0.026 H 
ATOM     11  H   LIG d   1       3.674  -1.185  -4.428  0.00  0.00     0.026 H 
BRANCH   9  12
ATOM     12  C   LIG d   1       2.567   0.650  -4.651  0.00  0.00    -0.065 C 
ATOM     13  H   LIG d   1       2.662   0.503  -5.727  0.00  0.00     0.023 H 
ATOM     14  H   LIG d   1       1.555   0.980  -4.417  0.00  0.00     0.023 H 
ATOM     15  H   LIG d   1       3.280   1.406  -4.322  0.00  0.00     0.023 H 
ENDBRANCH   9  12
ENDBRANCH   7   9
BRANCH   7  16
ATOM     16  C   LIG d   1       3.693   1.072  -2.346  0.00  0.00    -0.062 C 
ATOM     17  H   LIG d   1       4.737   1.154  -2.649  0.00  0.00     0.023 H 
ATOM     18  H   LIG d   1       3.078   1.704  -2.987  0.00  0.00     0.023 H 
ATOM     19  H   LIG d   1       3.588   1.395  -1.311  0.00  0.00     0.023 H 
ENDBRANCH   7  16
ENDBRANCH   4   7
ENDBRANCH   1   4
BRANCH   1  20
ATOM     20  C   LIG d   1       6.660  -1.391  -3.068  0.00  0.00    -0.025 C 
ATOM     21  H   LIG d   1       6.785  -0.931  -2.088  0.00  0.00     0.029 H 
ATOM     22  H   LIG d   1       7.248  -2.308  -3.116  0.00  0.00     0.029 H 
BRANCH  20  23
ATOM     23  C   LIG d   1       7.137  -0.422  -4.153  0.00  0.00     0.060 C 
BRANCH  23  24
ATOM     24  C   LIG d   1       6.259  -0.576  -5.396  0.00  0.00    -0.036 C 
ATOM     25  H   LIG d   1       6.888  -0.782  -6.262  0.00  0.00     0.026 H 
ATOM     26  H   LIG d   1       5.562  -1.400  -5.249  0.00  0.00     0.026 H 
ATOM     27  H   LIG d   1       5.702   0.346  -5.564  0.00  0.00     0.026 H 
ENDBRANCH  23  24
BRANCH  23  28
ATOM     28  C   LIG d   1       7.037   1.013  -3.633  0.00  0.00    -0.036 C 
ATOM     29  H   LIG d   1       8.009   1.331  -3.253  0.00  0.00     0.026 H 
ATOM     30  H   LIG d   1       6.732   1.673  -4.446  0.00  0.00     0.026 H 
ATOM     31  H   LIG d   1       6.300   1.060  -2.831  0.00  0.00     0.026 H 
ENDBRANCH  23  28
BRANCH  23  32
ATOM     32  O   LIG d   1       8.494  -0.715  -4.488  0.00  0.00    -0.389 OA
ATOM     33  H   LIG d   1       8.786  -1.595  -4.214  0.00  0.00     0.210 HD
ENDBRANCH  23  32
ENDBRANCH  20  23
ENDBRANCH   1  20
TORSDOF 10
ENDMDL
MODEL 3
REMARK VINA RESULT:      -4.1      2.478      3.921
REMARK  10 active torsions:
REMARK  status: ('A' for Active; 'I' for Inactive)
REMARK    1  A    between atoms: C_1  and  C_2 
REMARK    2  A    between atoms: C_2  and  C_3 
REMARK    3  A    between atoms: C_3  and  C_5 
REMARK    4  A    between atoms: C_3  and  C_6 
REMARK    5  A    between atoms: C_6  and  C_7 
REMARK    6  A    between atoms: C_7  and  C_8 
REMARK    7  A    between atoms: C_8  and  C_9 
REMARK    8  A    between atoms: C_9  and  C_10 
REMARK    9  A    between atoms: C_9  and  C_11 
REMARK   10  A    between atoms: C_9  and  O_12 
ROOT
ATOM      1  C   LIG d   1       3.552  -0.511  -4.870  0.00  0.00    -0.050 C 
ATOM      2  H   LIG d   1       4.555  -0.107  -4.728  0.00  0.00     0.027 H 
ATOM      3  H   LIG d   1       3.620  -1.558  -5.162  0.00  0.00     0.027 H 
ENDROOT
BRANCH   1   4
ATOM      4  C   LIG d   1       2.768  -0.397  -3.560  0.00  0.00    -0.050 C 
ATOM      5  H   LIG d   1       1.779  -0.837  -3.690  0.00  0.00     0.027 H 
ATOM      6  H   LIG d   1       2.665   0.654  -3.289  0.00  0.00     0.027 H 
BRANCH   4   7
ATOM      7  C   LIG d   1       3.516  -1.138  -2.452  0.00  0.00    -0.044 C 
ATOM      8  H   LIG d   1       2.828  -1.364  -1.637  0.00  0.00     0.030 H 
BRANCH   7   9
ATOM      9  C   LIG d   1       4.655  -0.261  -1.930  0.00  0.00    -0.053 C 
ATOM     10  H   LIG d   1       5.506  -0.330  -2.608  0.00  0.00     0.026 H 
ATOM     11  H   LIG d   1       4.953  -0.603  -0.938  0.00  0.00     0.026 H 
BRANCH   9  12
ATOM     12  C   LIG d   1       4.184   1.193  -1.848  0.00  0.00    -0.065 C 
ATOM     13  H   LIG d   1       4.744   1.797  -2.562  0.00  0.00     0.023 H 
ATOM     14  H   LIG d   1       3.121   1.243  -2.084  0.00  0.00     0.023 H 
ATOM     15  H   LIG d   1       4.351   1.571  -0.840  0.00  0.00     0.023 H 
ENDBRANCH   9  12
ENDBRANCH   7   9
BRANCH   7  16
ATOM     16  C   LIG d   1       4.091  -2.443  -3.008  0.00  0.00    -0.062 C 
ATOM     17  H   LIG d   1       3.752  -2.580  -4.035  0.00  0.00     0.023 H 
ATOM     18  H   LIG d   1       5.180  -2.398  -2.988  0.00  0.00     0.023 H 
ATOM     19  H   LIG d   1       3.751  -3.279  -2.398  0.00  0.00     0.023 H 
ENDBRANCH   7  16
ENDBRANCH   4   7
ENDBRANCH   1   4
BRANCH   1  20
ATOM     20  C   LIG d   1       2.834   0.279  -5.965  0.00  0.00    -0.025 C 
ATOM     21  H   LIG d   1       1.778   0.008  -5.976  0.00  0.00     0.029 H 
ATOM     22  H   LIG d   1       2.932   1.347  -5.767  0.00  0.00     0.029 H 
BRANCH  20  23
ATOM     23  C   LIG d   1       3.460  -0.047  -7.323  0.00  0.00     0.060 C 
BRANCH  23  24
ATOM     24  C   LIG d   1       4.345  -1.289  -7.191  0.00  0.00    -0.036 C 
ATOM     25  H   LIG d   1       4.436  -1.776  -8.162  0.00  0.00     0.026 H 
ATOM     26  H   LIG d   1       5.333  -0.996  -6.838  0.00  0.00     0.026 H 
ATOM     27  H   LIG d   1       3.895  -1.981  -6.478  0.00  0.00     0.026 H 
ENDBRANCH  23  24
BRANCH  23  28
ATOM     28  C   LIG d   1       2.353  -0.317  -8.343  0.00  0.00    -0.036 C 
ATOM     29  H   LIG d   1       1.391  -0.368  -7.831  0.00  0.00     0.026 H 
ATOM     30  H   LIG d   1       2.330   0.489  -9.077  0.00  0.00     0.026 H 
ATOM     31  H   LIG d   1       2.546  -1.263  -8.849  0.00  0.00     0.026 H 
ENDBRANCH  23  28
BRANCH  23  32
ATOM     32  O   LIG d   1       4.252   1.058  -7.760  0.00  0.00    -0.389 OA
ATOM     33  H   LIG d   1       5.161   0.823  -7.994  0.00  0.00     0.210 HD
ENDBRANCH  23  32
ENDBRANCH  20  23
ENDBRANCH   1  20
TORSDOF 10
ENDMDL
MODEL 4
REMARK VINA RESULT:      -4.1      1.734      2.747
REMARK  10 active torsions:
REMARK  status: ('A' for Active; 'I' for Inactive)
REMARK    1  A    between atoms: C_1  and  C_2 
REMARK    2  A    between atoms: C_2  and  C_3 
REMARK    3  A    between atoms: C_3  and  C_5 
REMARK    4  A    between atoms: C_3  and  C_6 
REMARK    5  A    between atoms: C_6  and  C_7 
REMARK    6  A    between atoms: C_7  and  C_8 
REMARK    7  A    between atoms: C_8  and  C_9 
REMARK    8  A    between atoms: C_9  and  C_10 
REMARK    9  A    between atoms: C_9  and  C_11 
REMARK   10  A    between atoms: C_9  and  O_12 
ROOT
ATOM      1  C   LIG d   1       5.804   0.997  -3.043  0.00  0.00    -0.050 C 
ATOM      2  H   LIG d   1       5.177   1.213  -3.908  0.00  0.00     0.027 H 
ATOM      3  H   LIG d   1       6.271   1.918  -2.694  0.00  0.00     0.027 H 
ENDROOT
BRANCH   1   4
ATOM      4  C   LIG d   1       4.944   0.406  -1.924  0.00  0.00    -0.050 C 
ATOM      5  H   LIG d   1       5.109   0.966  -1.003  0.00  0.00     0.027 H 
ATOM      6  H   LIG d   1       5.217  -0.637  -1.767  0.00  0.00     0.027 H 
BRANCH   4   7
ATOM      7  C   LIG d   1       3.468   0.493  -2.316  0.00  0.00    -0.044 C 
ATOM      8  H   LIG d   1       2.861   0.623  -1.420  0.00  0.00     0.030 H 
BRANCH   7   9
ATOM      9  C   LIG d   1       3.053  -0.794  -3.031  0.00  0.00    -0.053 C 
ATOM     10  H   LIG d   1       3.357  -0.743  -4.077  0.00  0.00     0.026 H 
ATOM     11  H   LIG d   1       1.971  -0.910  -2.973  0.00  0.00     0.026 H 
BRANCH   9  12
ATOM     12  C   LIG d   1       3.731  -1.991  -2.361  0.00  0.00    -0.065 C 
ATOM     13  H   LIG d   1       4.721  -2.137  -2.794  0.00  0.00     0.023 H 
ATOM     14  H   LIG d   1       3.826  -1.803  -1.292  0.00  0.00     0.023 H 
ATOM     15  H   LIG d   1       3.129  -2.885  -2.521  0.00  0.00     0.023 H 
ENDBRANCH   9  12
ENDBRANCH   7   9
BRANCH   7  16
ATOM     16  C   LIG d   1       3.258   1.686  -3.251  0.00  0.00    -0.062 C 
ATOM     17  H   LIG d   1       3.231   1.338  -4.284  0.00  0.00     0.023 H 
ATOM     18  H   LIG d   1       2.315   2.176  -3.008  0.00  0.00     0.023 H 
ATOM     19  H   LIG d   1       4.077   2.394  -3.127  0.00  0.00     0.023 H 
ENDBRANCH   7  16
ENDBRANCH   4   7
ENDBRANCH   1   4
BRANCH   1  20
ATOM     20  C   LIG d   1       6.889  -0.007  -3.436  0.00  0.00    -0.025 C 
ATOM     21  H   LIG d   1       7.868   0.467  -3.363  0.00  0.00     0.029 H 
ATOM     22  H   LIG d   1       6.850  -0.865  -2.765  0.00  0.00     0.029 H 
BRANCH  20  23
ATOM     23  C   LIG d   1       6.653  -0.474  -4.875  0.00  0.00     0.060 C 
BRANCH  23  24
ATOM     24  C   LIG d   1       7.889  -0.160  -5.721  0.00  0.00    -0.036 C 
ATOM     25  H   LIG d   1       8.108   0.907  -5.664  0.00  0.00     0.026 H 
ATOM     26  H   LIG d   1       8.741  -0.726  -5.346  0.00  0.00     0.026 H 
ATOM     27  H   LIG d   1       7.698  -0.437  -6.759  0.00  0.00     0.026 H 
ENDBRANCH  23  24
BRANCH  23  28
ATOM     28  C   LIG d   1       6.398  -1.982  -4.886  0.00  0.00    -0.036 C 
ATOM     29  H   LIG d   1       7.223  -2.486  -5.392  0.00  0.00     0.026 H 
ATOM     30  H   LIG d   1       6.324  -2.346  -3.861  0.00  0.00     0.026 H 
ATOM     31  H   LIG d   1       5.467  -2.190  -5.414  0.00  0.00     0.026 H 
ENDBRANCH  23  28
BRANCH  23  32
ATOM     32  O   LIG d   1       5.520   0.206  -5.416  0.00  0.00    -0.389 OA
ATOM     33  H   LIG d   1       5.195  -0.171  -6.245  0.00  0.00     0.210 HD
ENDBRANCH  23  32
ENDBRANCH  20  23
ENDBRANCH   1  20
TORSDOF 10
ENDMDL
MODEL 5
REMARK VINA RESULT:      -4.1      3.016      4.483
REMARK  10 active torsions:
REMARK  status: ('A' for Active; 'I' for Inactive)
REMARK    1  A    between atoms: C_1  and  C_2 
REMARK    2  A    between atoms: C_2  and  C_3 
REMARK    3  A    between atoms: C_3  and  C_5 
REMARK    4  A    between atoms: C_3  and  C_6 
REMARK    5  A    between atoms: C_6  and  C_7 
REMARK    6  A    between atoms: C_7  and  C_8 
REMARK    7  A    between atoms: C_8  and  C_9 
REMARK    8  A    between atoms: C_9  and  C_10 
REMARK    9  A    between atoms: C_9  and  C_11 
REMARK   10  A    between atoms: C_9  and  O_12 
ROOT
ATOM      1  C   LIG d   1       3.546  -0.133  -6.027  0.00  0.00    -0.050 C 
ATOM      2  H   LIG d   1       4.491   0.397  -6.151  0.00  0.00     0.027 H 
ATOM      3  H   LIG d   1       3.743  -1.192  -5.865  0.00  0.00     0.027 H 
ENDROOT
BRANCH   1   4
ATOM      4  C   LIG d   1       2.796   0.436  -4.820  0.00  0.00    -0.050 C 
ATOM      5  H   LIG d   1       1.796   0.006  -4.778  0.00  0.00     0.027 H 
ATOM      6  H   LIG d   1       2.722   1.520  -4.917  0.00  0.00     0.027 H 
BRANCH   4   7
ATOM      7  C   LIG d   1       3.555   0.089  -3.538  0.00  0.00    -0.044 C 
ATOM      8  H   LIG d   1       4.576  -0.201  -3.788  0.00  0.00     0.030 H 
BRANCH   7   9
ATOM      9  C   LIG d   1       2.854  -1.071  -2.829  0.00  0.00    -0.053 C 
ATOM     10  H   LIG d   1       2.123  -1.520  -3.502  0.00  0.00     0.026 H 
ATOM     11  H   LIG d   1       2.347  -0.700  -1.938  0.00  0.00     0.026 H 
BRANCH   9  12
ATOM     12  C   LIG d   1       3.889  -2.123  -2.425  0.00  0.00    -0.065 C 
ATOM     13  H   LIG d   1       4.531  -2.347  -3.277  0.00  0.00     0.023 H 
ATOM     14  H   LIG d   1       4.495  -1.739  -1.605  0.00  0.00     0.023 H 
ATOM     15  H   LIG d   1       3.378  -3.031  -2.106  0.00  0.00     0.023 H 
ENDBRANCH   9  12
ENDBRANCH   7   9
BRANCH   7  16
ATOM     16  C   LIG d   1       3.583   1.309  -2.615  0.00  0.00    -0.062 C 
ATOM     17  H   LIG d   1       2.564   1.570  -2.328  0.00  0.00     0.023 H 
ATOM     18  H   LIG d   1       4.164   1.077  -1.723  0.00  0.00     0.023 H 
ATOM     19  H   LIG d   1       4.039   2.150  -3.137  0.00  0.00     0.023 H 
ENDBRANCH   7  16
ENDBRANCH   4   7
ENDBRANCH   1   4
BRANCH   1  20
ATOM     20  C   LIG d   1       2.695   0.041  -7.285  0.00  0.00    -0.025 C 
ATOM     21  H   LIG d   1       2.434  -0.938  -7.687  0.00  0.00     0.029 H 
ATOM     22  H   LIG d   1       1.783   0.585  -7.035  0.00  0.00     0.029 H 
BRANCH  20  23
ATOM     23  C   LIG d   1       3.487   0.828  -8.332  0.00  0.00     0.060 C 
BRANCH  23  24
ATOM     24  C   LIG d   1       3.445   0.084  -9.669  0.00  0.00    -0.036 C 
ATOM     25  H   LIG d   1       3.851  -0.919  -9.539  0.00  0.00     0.026 H 
ATOM     26  H   LIG d   1       2.415   0.017 -10.015  0.00  0.00     0.026 H 
ATOM     27  H   LIG d   1       4.041   0.626 -10.404  0.00  0.00     0.026 H 
ENDBRANCH  23  24
BRANCH  23  28
ATOM     28  C   LIG d   1       2.867   2.217  -8.503  0.00  0.00    -0.036 C 
ATOM     29  H   LIG d   1       2.380   2.514  -7.574  0.00  0.00     0.026 H 
ATOM     30  H   LIG d   1       3.649   2.936  -8.749  0.00  0.00     0.026 H 
ATOM     31  H   LIG d   1       2.131   2.191  -9.307  0.00  0.00     0.026 H 
ENDBRANCH  23  28
BRANCH  23  32
ATOM     32  O   LIG d   1       4.842   0.961  -7.903  0.00  0.00    -0.389 OA
ATOM     33  H   LIG d   1       4.950   0.988  -6.942  0.00  0.00     0.210 HD
ENDBRANCH  23  32
ENDBRANCH  20  23
ENDBRANCH   1  20
TORSDOF 10
ENDMDL
MODEL 6
REMARK VINA RESULT:      -3.9      1.698      2.524
REMARK  10 active torsions:
REMARK  status: ('A' for Active; 'I' for Inactive)
REMARK    1  A    between atoms: C_1  and  C_2 
REMARK    2  A    between atoms: C_2  and  C_3 
REMARK    3  A    between atoms: C_3  and  C_5 
REMARK    4  A    between atoms: C_3  and  C_6 
REMARK    5  A    between atoms: C_6  and  C_7 
REMARK    6  A    between atoms: C_7  and  C_8 
REMARK    7  A    between atoms: C_8  and  C_9 
REMARK    8  A    between atoms: C_9  and  C_10 
REMARK    9  A    between atoms: C_9  and  C_11 
REMARK   10  A    between atoms: C_9  and  O_12 
ROOT
ATOM      1  C   LIG d   1       4.814  -1.404  -4.657  0.00  0.00    -0.050 C 
ATOM      2  H   LIG d   1       5.276  -1.843  -3.773  0.00  0.00     0.027 H 
ATOM      3  H   LIG d   1       4.571  -2.191  -5.370  0.00  0.00     0.027 H 
ENDROOT
BRANCH   1   4
ATOM      4  C   LIG d   1       3.532  -0.671  -4.252  0.00  0.00    -0.050 C 
ATOM      5  H   LIG d   1       2.687  -1.084  -4.803  0.00  0.00     0.027 H 
ATOM      6  H   LIG d   1       3.632   0.390  -4.483  0.00  0.00     0.027 H 
BRANCH   4   7
ATOM      7  C   LIG d   1       3.298  -0.846  -2.750  0.00  0.00    -0.044 C 
ATOM      8  H   LIG d   1       2.233  -0.751  -2.535  0.00  0.00     0.030 H 
BRANCH   7   9
ATOM      9  C   LIG d   1       4.071   0.229  -1.985  0.00  0.00    -0.053 C 
ATOM     10  H   LIG d   1       5.140   0.026  -2.053  0.00  0.00     0.026 H 
ATOM     11  H   LIG d   1       3.767   0.221  -0.938  0.00  0.00     0.026 H 
BRANCH   9  12
ATOM     12  C   LIG d   1       3.773   1.602  -2.591  0.00  0.00    -0.065 C 
ATOM     13  H   LIG d   1       2.701   1.796  -2.542  0.00  0.00     0.023 H 
ATOM     14  H   LIG d   1       4.307   2.370  -2.031  0.00  0.00     0.023 H 
ATOM     15  H   LIG d   1       4.099   1.618  -3.631  0.00  0.00     0.023 H 
ENDBRANCH   9  12
ENDBRANCH   7   9
BRANCH   7  16
ATOM     16  C   LIG d   1       3.785  -2.230  -2.316  0.00  0.00    -0.062 C 
ATOM     17  H   LIG d   1       4.562  -2.573  -3.000  0.00  0.00     0.023 H 
ATOM     18  H   LIG d   1       4.189  -2.173  -1.306  0.00  0.00     0.023 H 
ATOM     19  H   LIG d   1       2.951  -2.931  -2.334  0.00  0.00     0.023 H 
ENDBRANCH   7  16
ENDBRANCH   4   7
ENDBRANCH   1   4
BRANCH   1  20
ATOM     20  C   LIG d   1       5.785  -0.414  -5.302  0.00  0.00    -0.025 C 
ATOM     21  H   LIG d   1       5.978  -0.712  -6.332  0.00  0.00     0.029 H 
ATOM     22  H   LIG d   1       5.348   0.585  -5.289  0.00  0.00     0.029 H 
BRANCH  20  23
ATOM     23  C   LIG d   1       7.099  -0.405  -4.518  0.00  0.00     0.060 C 
BRANCH  23  24
ATOM     24  C   LIG d   1       7.242   0.926  -3.777  0.00  0.00    -0.036 C 
ATOM     25  H   LIG d   1       6.953   0.795  -2.734  0.00  0.00     0.026 H 
ATOM     26  H   LIG d   1       8.277   1.261  -3.827  0.00  0.00     0.026 H 
ATOM     27  H   LIG d   1       6.596   1.672  -4.242  0.00  0.00     0.026 H 
ENDBRANCH  23  24
BRANCH  23  28
ATOM     28  C   LIG d   1       7.098  -1.553  -3.507  0.00  0.00    -0.036 C 
ATOM     29  H   LIG d   1       7.535  -1.211  -2.568  0.00  0.00     0.026 H 
ATOM     30  H   LIG d   1       6.074  -1.882  -3.332  0.00  0.00     0.026 H 
ATOM     31  H   LIG d   1       7.684  -2.384  -3.899  0.00  0.00     0.026 H 
ENDBRANCH  23  28
BRANCH  23  32
ATOM     32  O   LIG d   1       8.194  -0.566  -5.422  0.00  0.00    -0.389 OA
ATOM     33  H   LIG d   1       7.977  -1.075  -6.215  0.00  0.00     0.210 HD
ENDBRANCH  23  32
ENDBRANCH  20  23
ENDBRANCH   1  20
TORSDOF 10
ENDMDL
MODEL 7
REMARK VINA RESULT:      -3.8      3.350      4.952
REMARK  10 active torsions:
REMARK  status: ('A' for Active; 'I' for Inactive)
REMARK    1  A    between atoms: C_1  and  C_2 
REMARK    2  A    between atoms: C_2  and  C_3 
REMARK    3  A    between atoms: C_3  and  C_5 
REMARK    4  A    between atoms: C_3  and  C_6 
REMARK    5  A    between atoms: C_6  and  C_7 
REMARK    6  A    between atoms: C_7  and  C_8 
REMARK    7  A    between atoms: C_8  and  C_9 
REMARK    8  A    between atoms: C_9  and  C_10 
REMARK    9  A    between atoms: C_9  and  C_11 
REMARK   10  A    between atoms: C_9  and  O_12 
ROOT
ATOM      1  C   LIG d   1       3.170   0.126  -6.158  0.00  0.00    -0.050 C 
ATOM      2  H   LIG d   1       3.286   1.194  -6.344  0.00  0.00     0.027 H 
ATOM      3  H   LIG d   1       2.129  -0.090  -5.919  0.00  0.00     0.027 H 
ENDROOT
BRANCH   1   4
ATOM      4  C   LIG d   1       3.579  -0.656  -7.409  0.00  0.00    -0.050 C 
ATOM      5  H   LIG d   1       3.078  -1.624  -7.412  0.00  0.00     0.027 H 
ATOM      6  H   LIG d   1       4.659  -0.806  -7.407  0.00  0.00     0.027 H 
BRANCH   4   7
ATOM      7  C   LIG d   1       3.176   0.132  -8.657  0.00  0.00    -0.044 C 
ATOM      8  H   LIG d   1       3.982   0.089  -9.390  0.00  0.00     0.030 H 
BRANCH   7   9
ATOM      9  C   LIG d   1       2.908   1.589  -8.276  0.00  0.00    -0.053 C 
ATOM     10  H   LIG d   1       3.155   1.741  -7.225  0.00  0.00     0.026 H 
ATOM     11  H   LIG d   1       1.855   1.821  -8.439  0.00  0.00     0.026 H 
BRANCH   9  12
ATOM     12  C   LIG d   1       3.773   2.509  -9.141  0.00  0.00    -0.065 C 
ATOM     13  H   LIG d   1       3.815   3.500  -8.687  0.00  0.00     0.023 H 
ATOM     14  H   LIG d   1       4.780   2.099  -9.213  0.00  0.00     0.023 H 
ATOM     15  H   LIG d   1       3.338   2.584 -10.138  0.00  0.00     0.023 H 
ENDBRANCH   9  12
ENDBRANCH   7   9
BRANCH   7  16
ATOM     16  C   LIG d   1       1.908  -0.479  -9.258  0.00  0.00    -0.062 C 
ATOM     17  H   LIG d   1       2.182  -1.203 -10.025  0.00  0.00     0.023 H 
ATOM     18  H   LIG d   1       1.338  -0.979  -8.473  0.00  0.00     0.023 H 
ATOM     19  H   LIG d   1       1.300   0.308  -9.701  0.00  0.00     0.023 H 
ENDBRANCH   7  16
ENDBRANCH   4   7
ENDBRANCH   1   4
BRANCH   1  20
ATOM     20  C   LIG d   1       4.059  -0.288  -4.985  0.00  0.00    -0.025 C 
ATOM     21  H   LIG d   1       4.561  -1.226  -5.222  0.00  0.00     0.029 H 
ATOM     22  H   LIG d   1       4.805   0.487  -4.803  0.00  0.00     0.029 H 
BRANCH  20  23
ATOM     23  C   LIG d   1       3.199  -0.471  -3.732  0.00  0.00     0.060 C 
BRANCH  23  24
ATOM     24  C   LIG d   1       3.627  -1.746  -3.002  0.00  0.00    -0.036 C 
ATOM     25  H   LIG d   1       4.446  -2.218  -3.544  0.00  0.00     0.026 H 
ATOM     26  H   LIG d   1       3.955  -1.495  -1.994  0.00  0.00     0.026 H 
ATOM     27  H   LIG d   1       2.782  -2.435  -2.949  0.00  0.00     0.026 H 
ENDBRANCH  23  24
BRANCH  23  28
ATOM     28  C   LIG d   1       3.383   0.732  -2.806  0.00  0.00    -0.036 C 
ATOM     29  H   LIG d   1       2.746   1.551  -3.143  0.00  0.00     0.026 H 
ATOM     30  H   LIG d   1       3.107   0.453  -1.789  0.00  0.00     0.026 H 
ATOM     31  H   LIG d   1       4.425   1.051  -2.826  0.00  0.00     0.026 H 
ENDBRANCH  23  28
BRANCH  23  32
ATOM     32  O   LIG d   1       1.825  -0.577  -4.110  0.00  0.00    -0.389 OA
ATOM     33  H   LIG d   1       1.285  -1.086  -3.491  0.00  0.00     0.210 HD
ENDBRANCH  23  32
ENDBRANCH  20  23
ENDBRANCH   1  20
TORSDOF 10
ENDMDL
MODEL 8
REMARK VINA RESULT:      -3.7      3.324      4.671
REMARK  10 active torsions:
REMARK  status: ('A' for Active; 'I' for Inactive)
REMARK    1  A    between atoms: C_1  and  C_2 
REMARK    2  A    between atoms: C_2  and  C_3 
REMARK    3  A    between atoms: C_3  and  C_5 
REMARK    4  A    between atoms: C_3  and  C_6 
REMARK    5  A    between atoms: C_6  and  C_7 
REMARK    6  A    between atoms: C_7  and  C_8 
REMARK    7  A    between atoms: C_8  and  C_9 
REMARK    8  A    between atoms: C_9  and  C_10 
REMARK    9  A    between atoms: C_9  and  C_11 
REMARK   10  A    between atoms: C_9  and  O_12 
ROOT
ATOM      1  C   LIG d   1       2.863   0.247  -6.210  0.00  0.00    -0.050 C 
ATOM      2  H   LIG d   1       1.836  -0.082  -6.052  0.00  0.00     0.027 H 
ATOM      3  H   LIG d   1       2.883   1.329  -6.333  0.00  0.00     0.027 H 
ENDROOT
BRANCH   1   4
ATOM      4  C   LIG d   1       3.717  -0.145  -5.001  0.00  0.00    -0.050 C 
ATOM      5  H   LIG d   1       4.650   0.419  -5.017  0.00  0.00     0.027 H 
ATOM      6  H   LIG d   1       3.937  -1.212  -5.043  0.00  0.00     0.027 H 
BRANCH   4   7
ATOM      7  C   LIG d   1       2.952   0.169  -3.714  0.00  0.00    -0.044 C 
ATOM      8  H   LIG d   1       1.929   0.454  -3.960  0.00  0.00     0.030 H 
BRANCH   7   9
ATOM      9  C   LIG d   1       3.640   1.321  -2.980  0.00  0.00    -0.053 C 
ATOM     10  H   LIG d   1       2.888   2.025  -2.623  0.00  0.00     0.026 H 
ATOM     11  H   LIG d   1       4.321   1.832  -3.661  0.00  0.00     0.026 H 
BRANCH   9  12
ATOM     12  C   LIG d   1       4.429   0.769  -1.790  0.00  0.00    -0.065 C 
ATOM     13  H   LIG d   1       5.352   0.312  -2.146  0.00  0.00     0.023 H 
ATOM     14  H   LIG d   1       4.667   1.583  -1.105  0.00  0.00     0.023 H 
ATOM     15  H   LIG d   1       3.828   0.022  -1.272  0.00  0.00     0.023 H 
ENDBRANCH   9  12
ENDBRANCH   7   9
BRANCH   7  16
ATOM     16  C   LIG d   1       2.934  -1.070  -2.817  0.00  0.00    -0.062 C 
ATOM     17  H   LIG d   1       3.573  -0.899  -1.950  0.00  0.00     0.023 H 
ATOM     18  H   LIG d   1       1.914  -1.263  -2.484  0.00  0.00     0.023 H 
ATOM     19  H   LIG d   1       3.302  -1.930  -3.376  0.00  0.00     0.023 H 
ENDBRANCH   7  16
ENDBRANCH   4   7
ENDBRANCH   1   4
BRANCH   1  20
ATOM     20  C   LIG d   1       3.424  -0.419  -7.467  0.00  0.00    -0.025 C 
ATOM     21  H   LIG d   1       4.511  -0.471  -7.398  0.00  0.00     0.029 H 
ATOM     22  H   LIG d   1       3.018  -1.427  -7.557  0.00  0.00     0.029 H 
BRANCH  20  23
ATOM     23  C   LIG d   1       3.030   0.401  -8.698  0.00  0.00     0.060 C 
BRANCH  23  24
ATOM     24  C   LIG d   1       2.807   1.859  -8.290  0.00  0.00    -0.036 C 
ATOM     25  H   LIG d   1       2.136   2.338  -9.002  0.00  0.00     0.026 H 
ATOM     26  H   LIG d   1       2.366   1.894  -7.294  0.00  0.00     0.026 H 
ATOM     27  H   LIG d   1       3.764   2.383  -8.282  0.00  0.00     0.026 H 
ENDBRANCH  23  24
BRANCH  23  28
ATOM     28  C   LIG d   1       4.149   0.329  -9.739  0.00  0.00    -0.036 C 
ATOM     29  H   LIG d   1       3.726   0.450 -10.736  0.00  0.00     0.026 H 
ATOM     30  H   LIG d   1       4.871   1.124  -9.552  0.00  0.00     0.026 H 
ATOM     31  H   LIG d   1       4.648  -0.638  -9.671  0.00  0.00     0.026 H 
ENDBRANCH  23  28
BRANCH  23  32
ATOM     32  O   LIG d   1       1.826  -0.127  -9.256  0.00  0.00    -0.389 OA
ATOM     33  H   LIG d   1       1.434   0.429  -9.943  0.00  0.00     0.210 HD
ENDBRANCH  23  32
ENDBRANCH  20  23
ENDBRANCH   1  20
TORSDOF 10
ENDMDL
MODEL 9
REMARK VINA RESULT:      -3.7      3.402      5.284
REMARK  10 active torsions:
REMARK  status: ('A' for Active; 'I' for Inactive)
REMARK    1  A    between atoms: C_1  and  C_2 
REMARK    2  A    between atoms: C_2  and  C_3 
REMARK    3  A    between atoms: C_3  and  C_5 
REMARK    4  A    between atoms: C_3  and  C_6 
REMARK    5  A    between atoms: C_6  and  C_7 
REMARK    6  A    between atoms: C_7  and  C_8 
REMARK    7  A    between atoms: C_8  and  C_9 
REMARK    8  A    between atoms: C_9  and  C_10 
REMARK    9  A    between atoms: C_9  and  C_11 
REMARK   10  A    between atoms: C_9  and  O_12 
ROOT
ATOM      1  C   LIG d   1       3.164   0.060  -6.464  0.00  0.00    -0.050 C 
ATOM      2  H   LIG d   1       2.727  -0.914  -6.686  0.00  0.00     0.027 H 
ATOM      3  H   LIG d   1       4.241  -0.046  -6.335  0.00  0.00     0.027 H 
ENDROOT
BRANCH   1   4
ATOM      4  C   LIG d   1       2.882   1.021  -7.621  0.00  0.00    -0.050 C 
ATOM      5  H   LIG d   1       3.528   1.895  -7.534  0.00  0.00     0.027 H 
ATOM      6  H   LIG d   1       1.839   1.337  -7.585  0.00  0.00     0.027 H 
BRANCH   4   7
ATOM      7  C   LIG d   1       3.155   0.314  -8.949  0.00  0.00    -0.044 C 
ATOM      8  H   LIG d   1       3.906  -0.462  -8.801  0.00  0.00     0.030 H 
BRANCH   7   9
ATOM      9  C   LIG d   1       3.666   1.331  -9.973  0.00  0.00    -0.053 C 
ATOM     10  H   LIG d   1       2.927   1.451 -10.765  0.00  0.00     0.026 H 
ATOM     11  H   LIG d   1       4.603   0.975 -10.402  0.00  0.00     0.026 H 
BRANCH   9  12
ATOM     12  C   LIG d   1       3.899   2.677  -9.283  0.00  0.00    -0.065 C 
ATOM     13  H   LIG d   1       4.950   2.765  -9.005  0.00  0.00     0.023 H 
ATOM     14  H   LIG d   1       3.634   3.484  -9.965  0.00  0.00     0.023 H 
ATOM     15  H   LIG d   1       3.280   2.738  -8.388  0.00  0.00     0.023 H 
ENDBRANCH   9  12
ENDBRANCH   7   9
BRANCH   7  16
ATOM     16  C   LIG d   1       1.861  -0.321  -9.464  0.00  0.00    -0.062 C 
ATOM     17  H   LIG d   1       1.873  -0.335 -10.554  0.00  0.00     0.023 H 
ATOM     18  H   LIG d   1       1.783  -1.341  -9.089  0.00  0.00     0.023 H 
ATOM     19  H   LIG d   1       1.007   0.259  -9.117  0.00  0.00     0.023 H 
ENDBRANCH   7  16
ENDBRANCH   4   7
ENDBRANCH   1   4
BRANCH   1  20
ATOM     20  C   LIG d   1       2.548   0.615  -5.178  0.00  0.00    -0.025 C 
ATOM     21  H   LIG d   1       2.421   1.693  -5.272  0.00  0.00     0.029 H 
ATOM     22  H   LIG d   1       1.577   0.148  -5.010  0.00  0.00     0.029 H 
BRANCH  20  23
ATOM     23  C   LIG d   1       3.472   0.309  -3.997  0.00  0.00     0.060 C 
BRANCH  23  24
ATOM     24  C   LIG d   1       3.449   1.482  -3.015  0.00  0.00    -0.036 C 
ATOM     25  H   LIG d   1       4.225   1.343  -2.263  0.00  0.00     0.026 H 
ATOM     26  H   LIG d   1       3.628   2.412  -3.554  0.00  0.00     0.026 H 
ATOM     27  H   LIG d   1       2.474   1.528  -2.527  0.00  0.00     0.026 H 
ENDBRANCH  23  24
BRANCH  23  28
ATOM     28  C   LIG d   1       2.992  -0.958  -3.288  0.00  0.00    -0.036 C 
ATOM     29  H   LIG d   1       3.770  -1.313  -2.612  0.00  0.00     0.026 H 
ATOM     30  H   LIG d   1       2.090  -0.736  -2.718  0.00  0.00     0.026 H 
ATOM     31  H   LIG d   1       2.775  -1.729  -4.028  0.00  0.00     0.026 H 
ENDBRANCH  23  28
BRANCH  23  32
ATOM     32  O   LIG d   1       4.805   0.114  -4.473  0.00  0.00    -0.389 OA
ATOM     33  H   LIG d   1       4.853  -0.235  -5.374  0.00  0.00     0.210 HD
ENDBRANCH  23  32
ENDBRANCH  20  23
ENDBRANCH   1  20
TORSDOF 10
ENDMDL
MODEL 10
REMARK VINA RESULT:      -3.7      3.172      4.631
REMARK  10 active torsions:
REMARK  status: ('A' for Active; 'I' for Inactive)
REMARK    1  A    between atoms: C_1  and  C_2 
REMARK    2  A    between atoms: C_2  and  C_3 
REMARK    3  A    between atoms: C_3  and  C_5 
REMARK    4  A    between atoms: C_3  and  C_6 
REMARK    5  A    between atoms: C_6  and  C_7 
REMARK    6  A    between atoms: C_7  and  C_8 
REMARK    7  A    between atoms: C_8  and  C_9 
REMARK    8  A    between atoms: C_9  and  C_10 
REMARK    9  A    between atoms: C_9  and  C_11 
REMARK   10  A    between atoms: C_9  and  O_12 
ROOT
ATOM      1  C   LIG d   1       3.202  -0.042  -5.324  0.00  0.00    -0.050 C 
ATOM      2  H   LIG d   1       2.921   0.996  -5.145  0.00  0.00     0.027 H 
ATOM      3  H   LIG d   1       2.328  -0.681  -5.203  0.00  0.00     0.027 H 
ENDROOT
BRANCH   1   4
ATOM      4  C   LIG d   1       3.744  -0.184  -6.748  0.00  0.00    -0.050 C 
ATOM      5  H   LIG d   1       4.082  -1.209  -6.907  0.00  0.00     0.027 H 
ATOM      6  H   LIG d   1       4.581   0.500  -6.888  0.00  0.00     0.027 H 
BRANCH   4   7
ATOM      7  C   LIG d   1       2.638   0.151  -7.750  0.00  0.00    -0.044 C 
ATOM      8  H   LIG d   1       1.679   0.192  -7.233  0.00  0.00     0.030 H 
BRANCH   7   9
ATOM      9  C   LIG d   1       2.589  -0.928  -8.834  0.00  0.00    -0.053 C 
ATOM     10  H   LIG d   1       2.368  -1.893  -8.377  0.00  0.00     0.026 H 
ATOM     11  H   LIG d   1       3.552  -0.978  -9.342  0.00  0.00     0.026 H 
BRANCH   9  12
ATOM     12  C   LIG d   1       1.496  -0.583  -9.849  0.00  0.00    -0.065 C 
ATOM     13  H   LIG d   1       0.939  -1.484 -10.103  0.00  0.00     0.023 H 
ATOM     14  H   LIG d   1       0.818   0.152  -9.415  0.00  0.00     0.023 H 
ATOM     15  H   LIG d   1       1.953  -0.170 -10.747  0.00  0.00     0.023 H 
ENDBRANCH   9  12
ENDBRANCH   7   9
BRANCH   7  16
ATOM     16  C   LIG d   1       2.928   1.508  -8.395  0.00  0.00    -0.062 C 
ATOM     17  H   LIG d   1       3.590   2.083  -7.747  0.00  0.00     0.023 H 
ATOM     18  H   LIG d   1       3.408   1.356  -9.362  0.00  0.00     0.023 H 
ATOM     19  H   LIG d   1       1.994   2.051  -8.535  0.00  0.00     0.023 H 
ENDBRANCH   7  16
ENDBRANCH   4   7
ENDBRANCH   1   4
BRANCH   1  20
ATOM     20  C   LIG d   1       4.281  -0.458  -4.323  0.00  0.00    -0.025 C 
ATOM     21  H   LIG d   1       4.744  -1.388  -4.653  0.00  0.00     0.029 H 
ATOM     22  H   LIG d   1       5.039   0.323  -4.261  0.00  0.00     0.029 H 
BRANCH  20  23
ATOM     23  C   LIG d   1       3.647  -0.664  -2.945  0.00  0.00     0.060 C 
BRANCH  23  24
ATOM     24  C   LIG d   1       4.002  -2.058  -2.424  0.00  0.00    -0.036 C 
ATOM     25  H   LIG d   1       5.079  -2.207  -2.487  0.00  0.00     0.026 H 
ATOM     26  H   LIG d   1       3.681  -2.151  -1.387  0.00  0.00     0.026 H 
ATOM     27  H   LIG d   1       3.495  -2.811  -3.029  0.00  0.00     0.026 H 
ENDBRANCH  23  24
BRANCH  23  28
ATOM     28  C   LIG d   1       4.180   0.393  -1.976  0.00  0.00    -0.036 C 
ATOM     29  H   LIG d   1       5.257   0.499  -2.110  0.00  0.00     0.026 H 
ATOM     30  H   LIG d   1       3.693   1.348  -2.175  0.00  0.00     0.026 H 
ATOM     31  H   LIG d   1       3.970   0.085  -0.951  0.00  0.00     0.026 H 
ENDBRANCH  23  28
BRANCH  23  32
ATOM     32  O   LIG d   1       2.228  -0.542  -3.052  0.00  0.00    -0.389 OA
ATOM     33  H   LIG d   1       1.737  -1.177  -2.512  0.00  0.00     0.210 HD
ENDBRANCH  23  32
ENDBRANCH  20  23
ENDBRANCH   1  20
TORSDOF 10
ENDMDL
