MODEL 1
REMARK VINA RESULT:      -5.6      0.000      0.000
REMARK  5 active torsions:
REMARK  status: ('A' for Active; 'I' for Inactive)
REMARK    1  A    between atoms: C_1  and  C_2 
REMARK    2  A    between atoms: C_4  and  C_18 
REMARK    3  A    between atoms: C_6  and  O_8 
REMARK    4  A    between atoms: O_8  and  C_9 
REMARK    5  A    between atoms: C_12  and  N_15 
ROOT
ATOM      1  C   LIG d   1       3.767   2.245  -9.443  0.00  0.00    -0.047 A 
ATOM      2  C   LIG d   1       3.867   1.577 -10.648  0.00  0.00    -0.056 A 
ATOM      3  C   LIG d   1       3.458   0.259 -10.747  0.00  0.00    -0.047 A 
ATOM      4  C   LIG d   1       2.950  -0.392  -9.640  0.00  0.00    -0.016 A 
ATOM      5  C   LIG d   1       2.849   0.277  -8.429  0.00  0.00     0.129 A 
ATOM      6  C   LIG d   1       3.265   1.597  -8.331  0.00  0.00    -0.016 A 
ATOM      7  H   LIG d   1       4.265   2.083 -11.515  0.00  0.00     0.062 H 
ATOM      8  H   LIG d   1       2.630  -1.421  -9.717  0.00  0.00     0.066 H 
ATOM      9  H   LIG d   1       3.191   2.119  -7.388  0.00  0.00     0.066 H 
ENDROOT
BRANCH   5  10
ATOM     10  O   LIG d   1       2.349  -0.361  -7.338  0.00  0.00    -0.456 OA
BRANCH  10  11
ATOM     11  C   LIG d   1       2.958  -0.152  -6.142  0.00  0.00     0.129 A 
ATOM     12  C   LIG d   1       2.303   0.555  -5.143  0.00  0.00    -0.013 A 
ATOM     13  C   LIG d   1       2.922   0.762  -3.925  0.00  0.00     0.019 A 
ATOM     14  H   LIG d   1       1.308   0.939  -5.316  0.00  0.00     0.066 H 
ATOM     15  C   LIG d   1       4.198   0.276  -3.705  0.00  0.00     0.273 A 
ATOM     16  H   LIG d   1       2.410   1.308  -3.147  0.00  0.00     0.069 H 
ATOM     17  C   LIG d   1       4.854  -0.424  -4.701  0.00  0.00     0.019 A 
ATOM     18  C   LIG d   1       4.238  -0.639  -5.918  0.00  0.00    -0.013 A 
ATOM     19  H   LIG d   1       5.851  -0.803  -4.527  0.00  0.00     0.069 H 
ATOM     20  H   LIG d   1       4.751  -1.185  -6.695  0.00  0.00     0.066 H 
BRANCH  15  21
ATOM     21  N   LIG d   1       4.861   0.505  -2.402  0.00  0.00     0.080 N 
ATOM     22  O   LIG d   1       5.675   1.391  -2.286  0.00  0.00     0.041 OA
ATOM     23  O   LIG d   1       4.589  -0.194  -1.455  0.00  0.00    -0.576 OA
ENDBRANCH  15  21
ENDBRANCH  10  11
ENDBRANCH   5  10
BRANCH   3  24
ATOM     24  C   LIG d   1       3.569  -0.467 -12.063  0.00  0.00    -0.040 C 
ATOM     25  H   LIG d   1       4.615  -0.697 -12.264  0.00  0.00     0.028 H 
ATOM     26  H   LIG d   1       2.996  -1.394 -12.015  0.00  0.00     0.028 H 
ATOM     27  H   LIG d   1       3.174   0.163 -12.859  0.00  0.00     0.028 H 
ENDBRANCH   3  24
BRANCH   1  28
ATOM     28  C   LIG d   1       4.214   3.681  -9.339  0.00  0.00    -0.040 C 
ATOM     29  H   LIG d   1       3.514   4.235  -8.713  0.00  0.00     0.028 H 
ATOM     30  H   LIG d   1       5.209   3.720  -8.896  0.00  0.00     0.028 H 
ATOM     31  H   LIG d   1       4.241   4.125 -10.334  0.00  0.00     0.028 H 
ENDBRANCH   1  28
TORSDOF 5
ENDMDL
MODEL 2
REMARK VINA RESULT:      -5.4      1.628      2.650
REMARK  5 active torsions:
REMARK  status: ('A' for Active; 'I' for Inactive)
REMARK    1  A    between atoms: C_1  and  C_2 
REMARK    2  A    between atoms: C_4  and  C_18 
REMARK    3  A    between atoms: C_6  and  O_8 
REMARK    4  A    between atoms: O_8  and  C_9 
REMARK    5  A    between atoms: C_12  and  N_15 
ROOT
ATOM      1  C   LIG d   1       2.362  -0.475 -10.454  0.00  0.00    -0.047 A 
ATOM      2  C   LIG d   1       3.646  -0.499 -10.965  0.00  0.00    -0.056 A 
ATOM      3  C   LIG d   1       4.692   0.039 -10.237  0.00  0.00    -0.047 A 
ATOM      4  C   LIG d   1       4.455   0.603  -8.998  0.00  0.00    -0.016 A 
ATOM      5  C   LIG d   1       3.166   0.629  -8.484  0.00  0.00     0.129 A 
ATOM      6  C   LIG d   1       2.118   0.093  -9.219  0.00  0.00    -0.016 A 
ATOM      7  H   LIG d   1       3.834  -0.939 -11.933  0.00  0.00     0.062 H 
ATOM      8  H   LIG d   1       5.272   1.023  -8.430  0.00  0.00     0.066 H 
ATOM      9  H   LIG d   1       1.113   0.115  -8.823  0.00  0.00     0.066 H 
ENDROOT
BRANCH   5  10
ATOM     10  O   LIG d   1       2.931   1.183  -7.266  0.00  0.00    -0.456 OA
BRANCH  10  11
ATOM     11  C   LIG d   1       3.177   0.427  -6.164  0.00  0.00     0.129 A 
ATOM     12  C   LIG d   1       4.170  -0.542  -6.194  0.00  0.00    -0.013 A 
ATOM     13  C   LIG d   1       4.422  -1.305  -5.070  0.00  0.00     0.019 A 
ATOM     14  H   LIG d   1       4.748  -0.696  -7.093  0.00  0.00     0.066 H 
ATOM     15  C   LIG d   1       3.678  -1.113  -3.920  0.00  0.00     0.273 A 
ATOM     16  H   LIG d   1       5.198  -2.056  -5.091  0.00  0.00     0.069 H 
ATOM     17  C   LIG d   1       2.684  -0.152  -3.890  0.00  0.00     0.019 A 
ATOM     18  C   LIG d   1       2.432   0.618  -5.009  0.00  0.00    -0.013 A 
ATOM     19  H   LIG d   1       2.104  -0.003  -2.992  0.00  0.00     0.069 H 
ATOM     20  H   LIG d   1       1.656   1.368  -4.985  0.00  0.00     0.066 H 
BRANCH  15  21
ATOM     21  N   LIG d   1       3.946  -1.937  -2.720  0.00  0.00     0.080 N 
ATOM     22  O   LIG d   1       4.264  -1.407  -1.682  0.00  0.00     0.041 OA
ATOM     23  O   LIG d   1       3.846  -3.140  -2.780  0.00  0.00    -0.576 OA
ENDBRANCH  15  21
ENDBRANCH  10  11
ENDBRANCH   5  10
BRANCH   3  24
ATOM     24  C   LIG d   1       6.091   0.011 -10.796  0.00  0.00    -0.040 C 
ATOM     25  H   LIG d   1       6.768   0.517 -10.108  0.00  0.00     0.028 H 
ATOM     26  H   LIG d   1       6.410  -1.023 -10.925  0.00  0.00     0.028 H 
ATOM     27  H   LIG d   1       6.106   0.518 -11.761  0.00  0.00     0.028 H 
ENDBRANCH   3  24
BRANCH   1  28
ATOM     28  C   LIG d   1       1.224  -1.063 -11.250  0.00  0.00    -0.040 C 
ATOM     29  H   LIG d   1       1.193  -2.142 -11.098  0.00  0.00     0.028 H 
ATOM     30  H   LIG d   1       0.284  -0.622 -10.918  0.00  0.00     0.028 H 
ATOM     31  H   LIG d   1       1.373  -0.849 -12.308  0.00  0.00     0.028 H 
ENDBRANCH   1  28
TORSDOF 5
ENDMDL
MODEL 3
REMARK VINA RESULT:      -5.4      4.294      6.381
REMARK  5 active torsions:
REMARK  status: ('A' for Active; 'I' for Inactive)
REMARK    1  A    between atoms: C_1  and  C_2 
REMARK    2  A    between atoms: C_4  and  C_18 
REMARK    3  A    between atoms: C_6  and  O_8 
REMARK    4  A    between atoms: O_8  and  C_9 
REMARK    5  A    between atoms: C_12  and  N_15 
ROOT
ATOM      1  C   LIG d   1       7.369  -5.520  -5.379  0.00  0.00    -0.047 A 
ATOM      2  C   LIG d   1       6.926  -6.829  -5.393  0.00  0.00    -0.056 A 
ATOM      3  C   LIG d   1       5.570  -7.102  -5.441  0.00  0.00    -0.047 A 
ATOM      4  C   LIG d   1       4.657  -6.066  -5.473  0.00  0.00    -0.016 A 
ATOM      5  C   LIG d   1       5.101  -4.751  -5.458  0.00  0.00     0.129 A 
ATOM      6  C   LIG d   1       6.460  -4.480  -5.404  0.00  0.00    -0.016 A 
ATOM      7  H   LIG d   1       7.637  -7.641  -5.368  0.00  0.00     0.062 H 
ATOM      8  H   LIG d   1       3.599  -6.278  -5.510  0.00  0.00     0.066 H 
ATOM      9  H   LIG d   1       6.808  -3.458  -5.389  0.00  0.00     0.066 H 
ENDROOT
BRANCH   5  10
ATOM     10  O   LIG d   1       4.204  -3.730  -5.489  0.00  0.00    -0.456 OA
BRANCH  10  11
ATOM     11  C   LIG d   1       4.488  -2.611  -4.773  0.00  0.00     0.129 A 
ATOM     12  C   LIG d   1       4.910  -1.459  -5.422  0.00  0.00    -0.013 A 
ATOM     13  C   LIG d   1       5.192  -0.320  -4.693  0.00  0.00     0.019 A 
ATOM     14  H   LIG d   1       5.013  -1.451  -6.497  0.00  0.00     0.066 H 
ATOM     15  C   LIG d   1       5.066  -0.330  -3.315  0.00  0.00     0.273 A 
ATOM     16  H   LIG d   1       5.516   0.578  -5.198  0.00  0.00     0.069 H 
ATOM     17  C   LIG d   1       4.650  -1.479  -2.666  0.00  0.00     0.019 A 
ATOM     18  C   LIG d   1       4.362  -2.618  -3.391  0.00  0.00    -0.013 A 
ATOM     19  H   LIG d   1       4.553  -1.485  -1.590  0.00  0.00     0.069 H 
ATOM     20  H   LIG d   1       4.037  -3.514  -2.884  0.00  0.00     0.066 H 
BRANCH  15  21
ATOM     21  N   LIG d   1       5.375   0.889  -2.535  0.00  0.00     0.080 N 
ATOM     22  O   LIG d   1       4.890   1.044  -1.440  0.00  0.00     0.041 OA
ATOM     23  O   LIG d   1       6.114   1.728  -2.995  0.00  0.00    -0.576 OA
ENDBRANCH  15  21
ENDBRANCH  10  11
ENDBRANCH   5  10
BRANCH   3  24
ATOM     24  C   LIG d   1       5.089  -8.530  -5.456  0.00  0.00    -0.040 C 
ATOM     25  H   LIG d   1       4.024  -8.557  -5.228  0.00  0.00     0.028 H 
ATOM     26  H   LIG d   1       5.260  -8.959  -6.444  0.00  0.00     0.028 H 
ATOM     27  H   LIG d   1       5.637  -9.105  -4.711  0.00  0.00     0.028 H 
ENDBRANCH   3  24
BRANCH   1  28
ATOM     28  C   LIG d   1       8.847  -5.227  -5.328  0.00  0.00    -0.040 C 
ATOM     29  H   LIG d   1       9.008  -4.242  -4.891  0.00  0.00     0.028 H 
ATOM     30  H   LIG d   1       9.345  -5.981  -4.718  0.00  0.00     0.028 H 
ATOM     31  H   LIG d   1       9.257  -5.248  -6.337  0.00  0.00     0.028 H 
ENDBRANCH   1  28
TORSDOF 5
ENDMDL
MODEL 4
REMARK VINA RESULT:      -5.3      1.565      2.708
REMARK  5 active torsions:
REMARK  status: ('A' for Active; 'I' for Inactive)
REMARK    1  A    between atoms: C_1  and  C_2 
REMARK    2  A    between atoms: C_4  and  C_18 
REMARK    3  A    between atoms: C_6  and  O_8 
REMARK    4  A    between atoms: O_8  and  C_9 
REMARK    5  A    between atoms: C_12  and  N_15 
ROOT
ATOM      1  C   LIG d   1       3.576  -0.356 -11.250  0.00  0.00    -0.047 A 
ATOM      2  C   LIG d   1       2.725  -1.444 -11.302  0.00  0.00    -0.056 A 
ATOM      3  C   LIG d   1       1.918  -1.746 -10.220  0.00  0.00    -0.047 A 
ATOM      4  C   LIG d   1       1.960  -0.960  -9.084  0.00  0.00    -0.016 A 
ATOM      5  C   LIG d   1       2.814   0.133  -9.030  0.00  0.00     0.129 A 
ATOM      6  C   LIG d   1       3.627   0.429 -10.115  0.00  0.00    -0.016 A 
ATOM      7  H   LIG d   1       2.690  -2.060 -12.188  0.00  0.00     0.062 H 
ATOM      8  H   LIG d   1       1.329  -1.195  -8.240  0.00  0.00     0.066 H 
ATOM      9  H   LIG d   1       4.296   1.277 -10.074  0.00  0.00     0.066 H 
ENDROOT
BRANCH   5  10
ATOM     10  O   LIG d   1       2.858   0.907  -7.914  0.00  0.00    -0.456 OA
BRANCH  10  11
ATOM     11  C   LIG d   1       3.124   0.301  -6.728  0.00  0.00     0.129 A 
ATOM     12  C   LIG d   1       4.180  -0.594  -6.626  0.00  0.00    -0.013 A 
ATOM     13  C   LIG d   1       4.452  -1.205  -5.417  0.00  0.00     0.019 A 
ATOM     14  H   LIG d   1       4.792  -0.809  -7.490  0.00  0.00     0.066 H 
ATOM     15  C   LIG d   1       3.666  -0.935  -4.312  0.00  0.00     0.273 A 
ATOM     16  H   LIG d   1       5.277  -1.897  -5.337  0.00  0.00     0.069 H 
ATOM     17  C   LIG d   1       2.609  -0.048  -4.413  0.00  0.00     0.019 A 
ATOM     18  C   LIG d   1       2.337   0.570  -5.617  0.00  0.00    -0.013 A 
ATOM     19  H   LIG d   1       1.996   0.161  -3.548  0.00  0.00     0.069 H 
ATOM     20  H   LIG d   1       1.512   1.262  -5.695  0.00  0.00     0.066 H 
BRANCH  15  21
ATOM     21  N   LIG d   1       3.955  -1.596  -3.020  0.00  0.00     0.080 N 
ATOM     22  O   LIG d   1       3.938  -2.802  -2.941  0.00  0.00     0.041 OA
ATOM     23  O   LIG d   1       4.207  -0.930  -2.043  0.00  0.00    -0.576 OA
ENDBRANCH  15  21
ENDBRANCH  10  11
ENDBRANCH   5  10
BRANCH   3  24
ATOM     24  C   LIG d   1       0.991  -2.933 -10.279  0.00  0.00    -0.040 C 
ATOM     25  H   LIG d   1       1.533  -3.832  -9.988  0.00  0.00     0.028 H 
ATOM     26  H   LIG d   1       0.155  -2.775  -9.597  0.00  0.00     0.028 H 
ATOM     27  H   LIG d   1       0.614  -3.048 -11.295  0.00  0.00     0.028 H 
ENDBRANCH   3  24
BRANCH   1  28
ATOM     28  C   LIG d   1       4.454  -0.030 -12.431  0.00  0.00    -0.040 C 
ATOM     29  H   LIG d   1       5.501  -0.104 -12.137  0.00  0.00     0.028 H 
ATOM     30  H   LIG d   1       4.253  -0.735 -13.238  0.00  0.00     0.028 H 
ATOM     31  H   LIG d   1       4.242   0.983 -12.772  0.00  0.00     0.028 H 
ENDBRANCH   1  28
TORSDOF 5
ENDMDL
MODEL 5
REMARK VINA RESULT:      -5.2      4.321      6.566
REMARK  5 active torsions:
REMARK  status: ('A' for Active; 'I' for Inactive)
REMARK    1  A    between atoms: C_1  and  C_2 
REMARK    2  A    between atoms: C_4  and  C_18 
REMARK    3  A    between atoms: C_6  and  O_8 
REMARK    4  A    between atoms: O_8  and  C_9 
REMARK    5  A    between atoms: C_12  and  N_15 
ROOT
ATOM      1  C   LIG d   1       5.659  -7.130  -5.427  0.00  0.00    -0.047 A 
ATOM      2  C   LIG d   1       7.009  -6.844  -5.346  0.00  0.00    -0.056 A 
ATOM      3  C   LIG d   1       7.442  -5.531  -5.359  0.00  0.00    -0.047 A 
ATOM      4  C   LIG d   1       6.526  -4.501  -5.454  0.00  0.00    -0.016 A 
ATOM      5  C   LIG d   1       5.170  -4.786  -5.536  0.00  0.00     0.129 A 
ATOM      6  C   LIG d   1       4.739  -6.104  -5.529  0.00  0.00    -0.016 A 
ATOM      7  H   LIG d   1       7.727  -7.647  -5.272  0.00  0.00     0.062 H 
ATOM      8  H   LIG d   1       6.864  -3.475  -5.464  0.00  0.00     0.066 H 
ATOM      9  H   LIG d   1       3.684  -6.329  -5.596  0.00  0.00     0.066 H 
ENDROOT
BRANCH   5  10
ATOM     10  O   LIG d   1       4.267  -3.774  -5.630  0.00  0.00    -0.456 OA
BRANCH  10  11
ATOM     11  C   LIG d   1       4.453  -2.680  -4.847  0.00  0.00     0.129 A 
ATOM     12  C   LIG d   1       4.418  -2.800  -3.464  0.00  0.00    -0.013 A 
ATOM     13  C   LIG d   1       4.613  -1.686  -2.670  0.00  0.00     0.019 A 
ATOM     14  H   LIG d   1       4.242  -3.764  -3.010  0.00  0.00     0.066 H 
ATOM     15  C   LIG d   1       4.832  -0.451  -3.251  0.00  0.00     0.273 A 
ATOM     16  H   LIG d   1       4.590  -1.780  -1.595  0.00  0.00     0.069 H 
ATOM     17  C   LIG d   1       4.862  -0.328  -4.629  0.00  0.00     0.019 A 
ATOM     18  C   LIG d   1       4.673  -1.438  -5.427  0.00  0.00    -0.013 A 
ATOM     19  H   LIG d   1       5.033   0.638  -5.080  0.00  0.00     0.069 H 
ATOM     20  H   LIG d   1       4.698  -1.342  -6.502  0.00  0.00     0.066 H 
BRANCH  15  21
ATOM     21  N   LIG d   1       5.033   0.742  -2.398  0.00  0.00     0.080 N 
ATOM     22  O   LIG d   1       5.969   1.479  -2.602  0.00  0.00     0.041 OA
ATOM     23  O   LIG d   1       4.262   0.978  -1.498  0.00  0.00    -0.576 OA
ENDBRANCH  15  21
ENDBRANCH  10  11
ENDBRANCH   5  10
BRANCH   3  24
ATOM     24  C   LIG d   1       8.914  -5.223  -5.271  0.00  0.00    -0.040 C 
ATOM     25  H   LIG d   1       9.103  -4.595  -4.400  0.00  0.00     0.028 H 
ATOM     26  H   LIG d   1       9.475  -6.153  -5.175  0.00  0.00     0.028 H 
ATOM     27  H   LIG d   1       9.231  -4.699  -6.173  0.00  0.00     0.028 H 
ENDBRANCH   3  24
BRANCH   1  28
ATOM     28  C   LIG d   1       5.190  -8.562  -5.412  0.00  0.00    -0.040 C 
ATOM     29  H   LIG d   1       5.416  -9.029  -6.370  0.00  0.00     0.028 H 
ATOM     30  H   LIG d   1       5.701  -9.103  -4.615  0.00  0.00     0.028 H 
ATOM     31  H   LIG d   1       4.115  -8.591  -5.239  0.00  0.00     0.028 H 
ENDBRANCH   1  28
TORSDOF 5
ENDMDL
MODEL 6
REMARK VINA RESULT:      -5.2      3.375      6.857
REMARK  5 active torsions:
REMARK  status: ('A' for Active; 'I' for Inactive)
REMARK    1  A    between atoms: C_1  and  C_2 
REMARK    2  A    between atoms: C_4  and  C_18 
REMARK    3  A    between atoms: C_6  and  O_8 
REMARK    4  A    between atoms: O_8  and  C_9 
REMARK    5  A    between atoms: C_12  and  N_15 
ROOT
ATOM      1  C   LIG d   1       6.242  -1.727  -4.062  0.00  0.00    -0.047 A 
ATOM      2  C   LIG d   1       5.173  -1.692  -3.187  0.00  0.00    -0.056 A 
ATOM      3  C   LIG d   1       3.994  -1.071  -3.559  0.00  0.00    -0.047 A 
ATOM      4  C   LIG d   1       3.883  -0.485  -4.804  0.00  0.00    -0.016 A 
ATOM      5  C   LIG d   1       4.956  -0.519  -5.684  0.00  0.00     0.129 A 
ATOM      6  C   LIG d   1       6.140  -1.137  -5.306  0.00  0.00    -0.016 A 
ATOM      7  H   LIG d   1       5.257  -2.149  -2.213  0.00  0.00     0.062 H 
ATOM      8  H   LIG d   1       2.962  -0.001  -5.094  0.00  0.00     0.066 H 
ATOM      9  H   LIG d   1       6.978  -1.161  -5.988  0.00  0.00     0.066 H 
ENDROOT
BRANCH   5  10
ATOM     10  O   LIG d   1       4.849   0.058  -6.909  0.00  0.00    -0.456 OA
BRANCH  10  11
ATOM     11  C   LIG d   1       3.979  -0.490  -7.797  0.00  0.00     0.129 A 
ATOM     12  C   LIG d   1       2.947   0.277  -8.322  0.00  0.00    -0.013 A 
ATOM     13  C   LIG d   1       2.067  -0.281  -9.229  0.00  0.00     0.019 A 
ATOM     14  H   LIG d   1       2.836   1.309  -8.025  0.00  0.00     0.066 H 
ATOM     15  C   LIG d   1       2.205  -1.604  -9.606  0.00  0.00     0.273 A 
ATOM     16  H   LIG d   1       1.267   0.317  -9.641  0.00  0.00     0.069 H 
ATOM     17  C   LIG d   1       3.229  -2.372  -9.080  0.00  0.00     0.019 A 
ATOM     18  C   LIG d   1       4.115  -1.818  -8.177  0.00  0.00    -0.013 A 
ATOM     19  H   LIG d   1       3.335  -3.405  -9.375  0.00  0.00     0.069 H 
ATOM     20  H   LIG d   1       4.914  -2.417  -7.767  0.00  0.00     0.066 H 
BRANCH  15  21
ATOM     21  N   LIG d   1       1.256  -2.201 -10.572  0.00  0.00     0.080 N 
ATOM     22  O   LIG d   1       0.801  -3.302 -10.371  0.00  0.00     0.041 OA
ATOM     23  O   LIG d   1       0.937  -1.586 -11.563  0.00  0.00    -0.576 OA
ENDBRANCH  15  21
ENDBRANCH  10  11
ENDBRANCH   5  10
BRANCH   3  24
ATOM     24  C   LIG d   1       2.829  -1.035  -2.603  0.00  0.00    -0.040 C 
ATOM     25  H   LIG d   1       2.897  -0.142  -1.981  0.00  0.00     0.028 H 
ATOM     26  H   LIG d   1       1.896  -1.013  -3.168  0.00  0.00     0.028 H 
ATOM     27  H   LIG d   1       2.850  -1.922  -1.971  0.00  0.00     0.028 H 
ENDBRANCH   3  24
BRANCH   1  28
ATOM     28  C   LIG d   1       7.526  -2.404  -3.654  0.00  0.00    -0.040 C 
ATOM     29  H   LIG d   1       8.253  -2.323  -4.462  0.00  0.00     0.028 H 
ATOM     30  H   LIG d   1       7.921  -1.924  -2.759  0.00  0.00     0.028 H 
ATOM     31  H   LIG d   1       7.331  -3.456  -3.446  0.00  0.00     0.028 H 
ENDBRANCH   1  28
TORSDOF 5
ENDMDL
MODEL 7
REMARK VINA RESULT:      -5.2      3.325      6.856
REMARK  5 active torsions:
REMARK  status: ('A' for Active; 'I' for Inactive)
REMARK    1  A    between atoms: C_1  and  C_2 
REMARK    2  A    between atoms: C_4  and  C_18 
REMARK    3  A    between atoms: C_6  and  O_8 
REMARK    4  A    between atoms: O_8  and  C_9 
REMARK    5  A    between atoms: C_12  and  N_15 
ROOT
ATOM      1  C   LIG d   1       3.984  -1.093  -3.591  0.00  0.00    -0.047 A 
ATOM      2  C   LIG d   1       5.148  -1.727  -3.199  0.00  0.00    -0.056 A 
ATOM      3  C   LIG d   1       6.243  -1.752  -4.044  0.00  0.00    -0.047 A 
ATOM      4  C   LIG d   1       6.176  -1.143  -5.282  0.00  0.00    -0.016 A 
ATOM      5  C   LIG d   1       5.007  -0.506  -5.677  0.00  0.00     0.129 A 
ATOM      6  C   LIG d   1       3.909  -0.489  -4.830  0.00  0.00    -0.016 A 
ATOM      7  H   LIG d   1       5.204  -2.204  -2.232  0.00  0.00     0.062 H 
ATOM      8  H   LIG d   1       7.031  -1.162  -5.941  0.00  0.00     0.066 H 
ATOM      9  H   LIG d   1       2.997   0.003  -5.137  0.00  0.00     0.066 H 
ENDROOT
BRANCH   5  10
ATOM     10  O   LIG d   1       4.938   0.093  -6.895  0.00  0.00    -0.456 OA
BRANCH  10  11
ATOM     11  C   LIG d   1       4.052  -0.400  -7.799  0.00  0.00     0.129 A 
ATOM     12  C   LIG d   1       4.086  -1.744  -8.143  0.00  0.00    -0.013 A 
ATOM     13  C   LIG d   1       3.179  -2.244  -9.058  0.00  0.00     0.019 A 
ATOM     14  H   LIG d   1       4.817  -2.399  -7.693  0.00  0.00     0.066 H 
ATOM     15  C   LIG d   1       2.246  -1.405  -9.640  0.00  0.00     0.273 A 
ATOM     16  H   LIG d   1       3.202  -3.291  -9.323  0.00  0.00     0.069 H 
ATOM     17  C   LIG d   1       2.215  -0.064  -9.302  0.00  0.00     0.019 A 
ATOM     18  C   LIG d   1       3.115   0.440  -8.384  0.00  0.00    -0.013 A 
ATOM     19  H   LIG d   1       1.486   0.590  -9.757  0.00  0.00     0.069 H 
ATOM     20  H   LIG d   1       3.089   1.486  -8.120  0.00  0.00     0.066 H 
BRANCH  15  21
ATOM     21  N   LIG d   1       1.281  -1.942 -10.625  0.00  0.00     0.080 N 
ATOM     22  O   LIG d   1       0.860  -3.068 -10.505  0.00  0.00     0.041 OA
ATOM     23  O   LIG d   1       0.916  -1.254 -11.549  0.00  0.00    -0.576 OA
ENDBRANCH  15  21
ENDBRANCH  10  11
ENDBRANCH   5  10
BRANCH   3  24
ATOM     24  C   LIG d   1       7.511  -2.444  -3.613  0.00  0.00    -0.040 C 
ATOM     25  H   LIG d   1       8.366  -1.803  -3.829  0.00  0.00     0.028 H 
ATOM     26  H   LIG d   1       7.469  -2.646  -2.542  0.00  0.00     0.028 H 
ATOM     27  H   LIG d   1       7.614  -3.383  -4.156  0.00  0.00     0.028 H 
ENDBRANCH   3  24
BRANCH   1  28
ATOM     28  C   LIG d   1       2.793  -1.068  -2.667  0.00  0.00    -0.040 C 
ATOM     29  H   LIG d   1       2.105  -1.869  -2.939  0.00  0.00     0.028 H 
ATOM     30  H   LIG d   1       3.128  -1.210  -1.640  0.00  0.00     0.028 H 
ATOM     31  H   LIG d   1       2.286  -0.108  -2.755  0.00  0.00     0.028 H 
ENDBRANCH   1  28
TORSDOF 5
ENDMDL
MODEL 8
REMARK VINA RESULT:      -5.2      5.071      7.616
REMARK  5 active torsions:
REMARK  status: ('A' for Active; 'I' for Inactive)
REMARK    1  A    between atoms: C_1  and  C_2 
REMARK    2  A    between atoms: C_4  and  C_18 
REMARK    3  A    between atoms: C_6  and  O_8 
REMARK    4  A    between atoms: O_8  and  C_9 
REMARK    5  A    between atoms: C_12  and  N_15 
ROOT
ATOM      1  C   LIG d   1      11.417  -3.134  -4.157  0.00  0.00    -0.047 A 
ATOM      2  C   LIG d   1      11.212  -4.036  -3.130  0.00  0.00    -0.056 A 
ATOM      3  C   LIG d   1       9.926  -4.414  -2.785  0.00  0.00    -0.047 A 
ATOM      4  C   LIG d   1       8.845  -3.889  -3.466  0.00  0.00    -0.016 A 
ATOM      5  C   LIG d   1       9.049  -2.983  -4.497  0.00  0.00     0.129 A 
ATOM      6  C   LIG d   1      10.339  -2.601  -4.836  0.00  0.00    -0.016 A 
ATOM      7  H   LIG d   1      12.055  -4.447  -2.596  0.00  0.00     0.062 H 
ATOM      8  H   LIG d   1       7.841  -4.185  -3.197  0.00  0.00     0.066 H 
ATOM      9  H   LIG d   1      10.500  -1.892  -5.636  0.00  0.00     0.066 H 
ENDROOT
BRANCH   5  10
ATOM     10  O   LIG d   1       7.987  -2.465  -5.168  0.00  0.00    -0.456 OA
BRANCH  10  11
ATOM     11  C   LIG d   1       7.200  -1.567  -4.520  0.00  0.00     0.129 A 
ATOM     12  C   LIG d   1       5.924  -1.928  -4.111  0.00  0.00    -0.013 A 
ATOM     13  C   LIG d   1       5.128  -1.014  -3.448  0.00  0.00     0.019 A 
ATOM     14  H   LIG d   1       5.555  -2.924  -4.308  0.00  0.00     0.066 H 
ATOM     15  C   LIG d   1       5.597   0.263  -3.201  0.00  0.00     0.273 A 
ATOM     16  H   LIG d   1       4.137  -1.297  -3.126  0.00  0.00     0.069 H 
ATOM     17  C   LIG d   1       6.867   0.627  -3.613  0.00  0.00     0.019 A 
ATOM     18  C   LIG d   1       7.668  -0.284  -4.271  0.00  0.00    -0.013 A 
ATOM     19  H   LIG d   1       7.231   1.625  -3.419  0.00  0.00     0.069 H 
ATOM     20  H   LIG d   1       8.659   0.000  -4.592  0.00  0.00     0.066 H 
BRANCH  15  21
ATOM     21  N   LIG d   1       4.739   1.242  -2.496  0.00  0.00     0.080 N 
ATOM     22  O   LIG d   1       4.063   2.019  -3.129  0.00  0.00     0.041 OA
ATOM     23  O   LIG d   1       4.716   1.265  -1.288  0.00  0.00    -0.576 OA
ENDBRANCH  15  21
ENDBRANCH  10  11
ENDBRANCH   5  10
BRANCH   3  24
ATOM     24  C   LIG d   1       9.706  -5.398  -1.665  0.00  0.00    -0.040 C 
ATOM     25  H   LIG d   1       9.259  -4.885  -0.813  0.00  0.00     0.028 H 
ATOM     26  H   LIG d   1       9.037  -6.189  -2.004  0.00  0.00     0.028 H 
ATOM     27  H   LIG d   1      10.661  -5.831  -1.370  0.00  0.00     0.028 H 
ENDBRANCH   3  24
BRANCH   1  28
ATOM     28  C   LIG d   1      12.819  -2.724  -4.530  0.00  0.00    -0.040 C 
ATOM     29  H   LIG d   1      13.429  -3.614  -4.683  0.00  0.00     0.028 H 
ATOM     30  H   LIG d   1      12.793  -2.138  -5.449  0.00  0.00     0.028 H 
ATOM     31  H   LIG d   1      13.247  -2.124  -3.728  0.00  0.00     0.028 H 
ENDBRANCH   1  28
TORSDOF 5
ENDMDL
MODEL 9
REMARK VINA RESULT:      -5.1      4.632      6.920
REMARK  5 active torsions:
REMARK  status: ('A' for Active; 'I' for Inactive)
REMARK    1  A    between atoms: C_1  and  C_2 
REMARK    2  A    between atoms: C_4  and  C_18 
REMARK    3  A    between atoms: C_6  and  O_8 
REMARK    4  A    between atoms: O_8  and  C_9 
REMARK    5  A    between atoms: C_12  and  N_15 
ROOT
ATOM      1  C   LIG d   1       5.099   0.297  -2.731  0.00  0.00    -0.047 A 
ATOM      2  C   LIG d   1       6.069   1.235  -3.027  0.00  0.00    -0.056 A 
ATOM      3  C   LIG d   1       7.215   0.858  -3.704  0.00  0.00    -0.047 A 
ATOM      4  C   LIG d   1       7.393  -0.458  -4.084  0.00  0.00    -0.016 A 
ATOM      5  C   LIG d   1       6.420  -1.402  -3.787  0.00  0.00     0.129 A 
ATOM      6  C   LIG d   1       5.274  -1.022  -3.103  0.00  0.00    -0.016 A 
ATOM      7  H   LIG d   1       5.933   2.265  -2.731  0.00  0.00     0.062 H 
ATOM      8  H   LIG d   1       8.288  -0.752  -4.613  0.00  0.00     0.066 H 
ATOM      9  H   LIG d   1       4.517  -1.756  -2.867  0.00  0.00     0.066 H 
ENDROOT
BRANCH   5  10
ATOM     10  O   LIG d   1       6.593  -2.697  -4.160  0.00  0.00    -0.456 OA
BRANCH  10  11
ATOM     11  C   LIG d   1       5.822  -3.177  -5.171  0.00  0.00     0.129 A 
ATOM     12  C   LIG d   1       5.776  -2.509  -6.387  0.00  0.00    -0.013 A 
ATOM     13  C   LIG d   1       4.996  -3.002  -7.415  0.00  0.00     0.019 A 
ATOM     14  H   LIG d   1       6.353  -1.608  -6.531  0.00  0.00     0.066 H 
ATOM     15  C   LIG d   1       4.252  -4.154  -7.230  0.00  0.00     0.273 A 
ATOM     16  H   LIG d   1       4.964  -2.486  -8.363  0.00  0.00     0.069 H 
ATOM     17  C   LIG d   1       4.292  -4.817  -6.017  0.00  0.00     0.019 A 
ATOM     18  C   LIG d   1       5.075  -4.332  -4.988  0.00  0.00    -0.013 A 
ATOM     19  H   LIG d   1       3.710  -5.716  -5.874  0.00  0.00     0.069 H 
ATOM     20  H   LIG d   1       5.106  -4.850  -4.041  0.00  0.00     0.066 H 
BRANCH  15  21
ATOM     21  N   LIG d   1       3.412  -4.676  -8.331  0.00  0.00     0.080 N 
ATOM     22  O   LIG d   1       3.042  -3.936  -9.211  0.00  0.00     0.041 OA
ATOM     23  O   LIG d   1       3.096  -5.842  -8.348  0.00  0.00    -0.576 OA
ENDBRANCH  15  21
ENDBRANCH  10  11
ENDBRANCH   5  10
BRANCH   3  24
ATOM     24  C   LIG d   1       8.271   1.884  -4.026  0.00  0.00    -0.040 C 
ATOM     25  H   LIG d   1       8.736   2.230  -3.103  0.00  0.00     0.028 H 
ATOM     26  H   LIG d   1       9.030   1.435  -4.668  0.00  0.00     0.028 H 
ATOM     27  H   LIG d   1       7.813   2.728  -4.541  0.00  0.00     0.028 H 
ENDBRANCH   3  24
BRANCH   1  28
ATOM     28  C   LIG d   1       3.852   0.711  -1.993  0.00  0.00    -0.040 C 
ATOM     29  H   LIG d   1       2.991   0.626  -2.657  0.00  0.00     0.028 H 
ATOM     30  H   LIG d   1       3.710   0.063  -1.128  0.00  0.00     0.028 H 
ATOM     31  H   LIG d   1       3.953   1.744  -1.660  0.00  0.00     0.028 H 
ENDBRANCH   1  28
TORSDOF 5
ENDMDL
MODEL 10
REMARK VINA RESULT:      -5.0      3.284      6.916
REMARK  5 active torsions:
REMARK  status: ('A' for Active; 'I' for Inactive)
REMARK    1  A    between atoms: C_1  and  C_2 
REMARK    2  A    between atoms: C_4  and  C_18 
REMARK    3  A    between atoms: C_6  and  O_8 
REMARK    4  A    between atoms: O_8  and  C_9 
REMARK    5  A    between atoms: C_12  and  N_15 
ROOT
ATOM      1  C   LIG d   1       4.773  -2.748  -5.271  0.00  0.00    -0.047 A 
ATOM      2  C   LIG d   1       4.703  -2.604  -3.898  0.00  0.00    -0.056 A 
ATOM      3  C   LIG d   1       4.278  -1.409  -3.347  0.00  0.00    -0.047 A 
ATOM      4  C   LIG d   1       3.922  -0.356  -4.167  0.00  0.00    -0.016 A 
ATOM      5  C   LIG d   1       3.992  -0.498  -5.546  0.00  0.00     0.129 A 
ATOM      6  C   LIG d   1       4.424  -1.696  -6.096  0.00  0.00    -0.016 A 
ATOM      7  H   LIG d   1       4.981  -3.425  -3.255  0.00  0.00     0.062 H 
ATOM      8  H   LIG d   1       3.589   0.577  -3.736  0.00  0.00     0.066 H 
ATOM      9  H   LIG d   1       4.483  -1.808  -7.169  0.00  0.00     0.066 H 
ENDROOT
BRANCH   5  10
ATOM     10  O   LIG d   1       3.642   0.536  -6.355  0.00  0.00    -0.456 OA
BRANCH  10  11
ATOM     11  C   LIG d   1       3.564   0.302  -7.691  0.00  0.00     0.129 A 
ATOM     12  C   LIG d   1       2.391  -0.193  -8.242  0.00  0.00    -0.013 A 
ATOM     13  C   LIG d   1       2.312  -0.425  -9.602  0.00  0.00     0.019 A 
ATOM     14  H   LIG d   1       1.538  -0.393  -7.609  0.00  0.00     0.066 H 
ATOM     15  C   LIG d   1       3.405  -0.176 -10.412  0.00  0.00     0.273 A 
ATOM     16  H   LIG d   1       1.397  -0.806 -10.032  0.00  0.00     0.069 H 
ATOM     17  C   LIG d   1       4.577   0.313  -9.863  0.00  0.00     0.019 A 
ATOM     18  C   LIG d   1       4.659   0.552  -8.506  0.00  0.00    -0.013 A 
ATOM     19  H   LIG d   1       5.429   0.507 -10.498  0.00  0.00     0.069 H 
ATOM     20  H   LIG d   1       5.574   0.933  -8.079  0.00  0.00     0.066 H 
BRANCH  15  21
ATOM     21  N   LIG d   1       3.320  -0.432 -11.867  0.00  0.00     0.080 N 
ATOM     22  O   LIG d   1       4.195  -0.039 -12.602  0.00  0.00     0.041 OA
ATOM     23  O   LIG d   1       2.375  -1.034 -12.320  0.00  0.00    -0.576 OA
ENDBRANCH  15  21
ENDBRANCH  10  11
ENDBRANCH   5  10
BRANCH   3  24
ATOM     24  C   LIG d   1       4.203  -1.255  -1.849  0.00  0.00    -0.040 C 
ATOM     25  H   LIG d   1       3.414  -0.548  -1.596  0.00  0.00     0.028 H 
ATOM     26  H   LIG d   1       3.984  -2.223  -1.396  0.00  0.00     0.028 H 
ATOM     27  H   LIG d   1       5.157  -0.887  -1.474  0.00  0.00     0.028 H 
ENDBRANCH   3  24
BRANCH   1  28
ATOM     28  C   LIG d   1       5.237  -4.051  -5.869  0.00  0.00    -0.040 C 
ATOM     29  H   LIG d   1       6.201  -3.906  -6.356  0.00  0.00     0.028 H 
ATOM     30  H   LIG d   1       5.336  -4.797  -5.080  0.00  0.00     0.028 H 
ATOM     31  H   LIG d   1       4.507  -4.394  -6.603  0.00  0.00     0.028 H 
ENDBRANCH   1  28
TORSDOF 5
ENDMDL
