MODEL 1
REMARK VINA RESULT:      -6.5      0.000      0.000
REMARK  13 active torsions:
REMARK  status: ('A' for Active; 'I' for Inactive)
REMARK    1  A    between atoms: C_1  and  C_2 
REMARK    2  A    between atoms: C_2  and  N_60 
REMARK    3  A    between atoms: C_3  and  C_4 
REMARK    4  A    between atoms: C_3  and  N_60 
REMARK    5  A    between atoms: C_5  and  C_6 
REMARK    6  A    between atoms: C_5  and  N_60 
REMARK    7  A    between atoms: C_6  and  O_7 
REMARK    8  A    between atoms: O_7  and  C_8 
REMARK    9  A    between atoms: C_11  and  C_14 
REMARK   10  A    between atoms: C_14  and  C_15 
REMARK   11  A    between atoms: C_14  and  C_23 
REMARK   12  A    between atoms: C_14  and  O_29 
REMARK   13  A    between atoms: C_15  and  C_16 
ROOT
ATOM      1  C   LIG d   1       8.619  -4.814  -4.249  0.00  0.00     0.121 A 
ATOM      2  C   LIG d   1       7.589  -5.217  -5.086  0.00  0.00    -0.020 A 
ATOM      3  C   LIG d   1       6.549  -4.351  -5.366  0.00  0.00    -0.052 A 
ATOM      4  C   LIG d   1       6.536  -3.083  -4.812  0.00  0.00    -0.011 A 
ATOM      5  C   LIG d   1       7.565  -2.678  -3.983  0.00  0.00    -0.052 A 
ATOM      6  C   LIG d   1       8.604  -3.542  -3.695  0.00  0.00    -0.020 A 
ATOM      7  H   LIG d   1       7.600  -6.206  -5.520  0.00  0.00     0.065 H 
ATOM      8  H   LIG d   1       5.747  -4.664  -6.017  0.00  0.00     0.062 H 
ATOM      9  H   LIG d   1       7.554  -1.686  -3.555  0.00  0.00     0.062 H 
ATOM     10  H   LIG d   1       9.404  -3.227  -3.043  0.00  0.00     0.065 H 
ENDROOT
BRANCH   4  11
ATOM     11  C   LIG d   1       5.401  -2.141  -5.119  0.00  0.00     0.120 C 
BRANCH  11  12
ATOM     12  C   LIG d   1       5.776  -1.264  -6.316  0.00  0.00     0.010 C 
ATOM     13  H   LIG d   1       6.046  -0.268  -5.965  0.00  0.00     0.035 H 
ATOM     14  H   LIG d   1       6.622  -1.708  -6.840  0.00  0.00     0.035 H 
BRANCH  12  15
ATOM     15  C   LIG d   1       4.601  -1.164  -7.253  0.00  0.00    -0.044 A 
ATOM     16  C   LIG d   1       4.458  -2.077  -8.282  0.00  0.00    -0.057 A 
ATOM     17  C   LIG d   1       3.380  -1.986  -9.143  0.00  0.00    -0.043 A 
ATOM     18  H   LIG d   1       5.189  -2.862  -8.413  0.00  0.00     0.062 H 
ATOM     19  C   LIG d   1       2.445  -0.981  -8.976  0.00  0.00     0.041 A 
ATOM     20  H   LIG d   1       3.269  -2.699  -9.946  0.00  0.00     0.063 H 
ATOM     21  C   LIG d   1       2.589  -0.067  -7.947  0.00  0.00    -0.043 A 
ATOM     22 CL   LIG d   1       1.092  -0.866 -10.057  0.00  0.00    -0.084 Cl
ATOM     23  C   LIG d   1       3.663  -0.163  -7.083  0.00  0.00    -0.057 A 
ATOM     24  H   LIG d   1       1.858   0.718  -7.815  0.00  0.00     0.063 H 
ATOM     25  H   LIG d   1       3.773   0.548  -6.277  0.00  0.00     0.062 H 
ENDBRANCH  12  15
ENDBRANCH  11  12
BRANCH  11  26
ATOM     26  C   LIG d   1       5.135  -1.267  -3.920  0.00  0.00    -0.011 A 
ATOM     27  C   LIG d   1       5.574   0.043  -3.908  0.00  0.00    -0.056 A 
ATOM     28  C   LIG d   1       5.331   0.843  -2.807  0.00  0.00    -0.061 A 
ATOM     29  H   LIG d   1       6.109   0.441  -4.757  0.00  0.00     0.062 H 
ATOM     30  C   LIG d   1       4.646   0.333  -1.720  0.00  0.00    -0.062 A 
ATOM     31  H   LIG d   1       5.675   1.867  -2.798  0.00  0.00     0.062 H 
ATOM     32  C   LIG d   1       4.206  -0.977  -1.732  0.00  0.00    -0.061 A 
ATOM     33  H   LIG d   1       4.457   0.959  -0.860  0.00  0.00     0.062 H 
ATOM     34  C   LIG d   1       4.446  -1.775  -2.835  0.00  0.00    -0.056 A 
ATOM     35  H   LIG d   1       3.671  -1.375  -0.883  0.00  0.00     0.062 H 
ATOM     36  H   LIG d   1       4.098  -2.799  -2.846  0.00  0.00     0.062 H 
ENDBRANCH  11  26
BRANCH  11  37
ATOM     37  O   LIG d   1       4.227  -2.894  -5.430  0.00  0.00    -0.379 OA
ATOM     38  H   LIG d   1       3.605  -2.433  -6.010  0.00  0.00     0.211 HD
ENDBRANCH  11  37
ENDBRANCH   4  11
BRANCH   1  39
ATOM     39  O   LIG d   1       9.643  -5.664  -3.973  0.00  0.00    -0.487 OA
BRANCH  39  40
ATOM     40  C   LIG d   1       9.786  -6.087  -2.615  0.00  0.00     0.129 C 
ATOM     41  H   LIG d   1      10.838  -6.051  -2.332  0.00  0.00     0.075 H 
ATOM     42  H   LIG d   1       9.212  -5.427  -1.966  0.00  0.00     0.075 H 
BRANCH  40  43
ATOM     43  C   LIG d   1       9.268  -7.520  -2.472  0.00  0.00     0.003 C 
ATOM     44  H   LIG d   1       8.183  -7.526  -2.579  0.00  0.00     0.085 H 
ATOM     45  H   LIG d   1       9.713  -8.147  -3.245  0.00  0.00     0.085 H 
BRANCH  43  46
ATOM     46  N   LIG d   1       9.659  -8.035  -1.142  0.00  0.00     0.237 N 
ATOM     47  H   LIG d   1       9.106  -7.554  -0.422  0.00  0.00     0.203 HD
BRANCH  46  48
ATOM     48  C   LIG d   1       9.394  -9.486  -1.064  0.00  0.00    -0.035 C 
ATOM     49  H   LIG d   1       9.995 -10.000  -1.816  0.00  0.00     0.081 H 
ATOM     50  H   LIG d   1       9.645  -9.868  -0.075  0.00  0.00     0.081 H 
BRANCH  48  51
ATOM     51  C   LIG d   1       7.909  -9.733  -1.344  0.00  0.00    -0.025 C 
ATOM     52  H   LIG d   1       7.310  -9.254  -0.570  0.00  0.00     0.028 H 
ATOM     53  H   LIG d   1       7.649  -9.315  -2.316  0.00  0.00     0.028 H 
ATOM     54  H   LIG d   1       7.713 -10.805  -1.346  0.00  0.00     0.028 H 
ENDBRANCH  48  51
ENDBRANCH  46  48
BRANCH  46  55
ATOM     55  C   LIG d   1      11.093  -7.770  -0.901  0.00  0.00    -0.035 C 
ATOM     56  H   LIG d   1      11.690  -8.360  -1.596  0.00  0.00     0.081 H 
ATOM     57  H   LIG d   1      11.314  -6.711  -1.038  0.00  0.00     0.081 H 
BRANCH  55  58
ATOM     58  C   LIG d   1      11.432  -8.178   0.534  0.00  0.00    -0.025 C 
ATOM     59  H   LIG d   1      11.164  -9.224   0.688  0.00  0.00     0.028 H 
ATOM     60  H   LIG d   1      12.500  -8.049   0.707  0.00  0.00     0.028 H 
ATOM     61  H   LIG d   1      10.873  -7.554   1.231  0.00  0.00     0.028 H 
ENDBRANCH  55  58
ENDBRANCH  46  55
ENDBRANCH  43  46
ENDBRANCH  40  43
ENDBRANCH  39  40
ENDBRANCH   1  39
TORSDOF 13
ENDMDL
MODEL 2
REMARK VINA RESULT:      -6.4      4.496      8.530
REMARK  13 active torsions:
REMARK  status: ('A' for Active; 'I' for Inactive)
REMARK    1  A    between atoms: C_1  and  C_2 
REMARK    2  A    between atoms: C_2  and  N_60 
REMARK    3  A    between atoms: C_3  and  C_4 
REMARK    4  A    between atoms: C_3  and  N_60 
REMARK    5  A    between atoms: C_5  and  C_6 
REMARK    6  A    between atoms: C_5  and  N_60 
REMARK    7  A    between atoms: C_6  and  O_7 
REMARK    8  A    between atoms: O_7  and  C_8 
REMARK    9  A    between atoms: C_11  and  C_14 
REMARK   10  A    between atoms: C_14  and  C_15 
REMARK   11  A    between atoms: C_14  and  C_23 
REMARK   12  A    between atoms: C_14  and  O_29 
REMARK   13  A    between atoms: C_15  and  C_16 
ROOT
ATOM      1  C   LIG d   1       6.368  -0.013  -8.450  0.00  0.00     0.121 A 
ATOM      2  C   LIG d   1       5.935  -1.257  -8.013  0.00  0.00    -0.020 A 
ATOM      3  C   LIG d   1       6.211  -1.668  -6.723  0.00  0.00    -0.052 A 
ATOM      4  C   LIG d   1       6.918  -0.842  -5.869  0.00  0.00    -0.011 A 
ATOM      5  C   LIG d   1       7.345   0.400  -6.301  0.00  0.00    -0.052 A 
ATOM      6  C   LIG d   1       7.077   0.814  -7.591  0.00  0.00    -0.020 A 
ATOM      7  H   LIG d   1       5.381  -1.902  -8.680  0.00  0.00     0.065 H 
ATOM      8  H   LIG d   1       5.874  -2.636  -6.382  0.00  0.00     0.062 H 
ATOM      9  H   LIG d   1       7.893   1.045  -5.630  0.00  0.00     0.062 H 
ATOM     10  H   LIG d   1       7.416   1.781  -7.930  0.00  0.00     0.065 H 
ENDROOT
BRANCH   4  11
ATOM     11  C   LIG d   1       7.217  -1.294  -4.462  0.00  0.00     0.120 C 
BRANCH  11  12
ATOM     12  C   LIG d   1       7.231  -2.822  -4.409  0.00  0.00     0.010 C 
ATOM     13  H   LIG d   1       6.597  -3.163  -3.590  0.00  0.00     0.035 H 
ATOM     14  H   LIG d   1       6.854  -3.222  -5.351  0.00  0.00     0.035 H 
BRANCH  12  15
ATOM     15  C   LIG d   1       8.640  -3.305  -4.188  0.00  0.00    -0.044 A 
ATOM     16  C   LIG d   1       9.034  -3.738  -2.935  0.00  0.00    -0.057 A 
ATOM     17  C   LIG d   1      10.328  -4.181  -2.732  0.00  0.00    -0.043 A 
ATOM     18  H   LIG d   1       8.331  -3.729  -2.115  0.00  0.00     0.062 H 
ATOM     19  C   LIG d   1      11.228  -4.191  -3.781  0.00  0.00     0.041 A 
ATOM     20  H   LIG d   1      10.635  -4.518  -1.753  0.00  0.00     0.063 H 
ATOM     21  C   LIG d   1      10.834  -3.759  -5.035  0.00  0.00    -0.043 A 
ATOM     22 CL   LIG d   1      12.852  -4.747  -3.526  0.00  0.00    -0.084 Cl
ATOM     23  C   LIG d   1       9.539  -3.321  -5.239  0.00  0.00    -0.057 A 
ATOM     24  H   LIG d   1      11.536  -3.767  -5.856  0.00  0.00     0.063 H 
ATOM     25  H   LIG d   1       9.230  -2.987  -6.218  0.00  0.00     0.062 H 
ENDBRANCH  12  15
ENDBRANCH  11  12
BRANCH  11  26
ATOM     26  C   LIG d   1       6.156  -0.767  -3.530  0.00  0.00    -0.011 A 
ATOM     27  C   LIG d   1       6.078   0.587  -3.267  0.00  0.00    -0.056 A 
ATOM     28  C   LIG d   1       5.105   1.069  -2.411  0.00  0.00    -0.061 A 
ATOM     29  H   LIG d   1       6.778   1.269  -3.727  0.00  0.00     0.062 H 
ATOM     30  C   LIG d   1       4.209   0.198  -1.821  0.00  0.00    -0.062 A 
ATOM     31  H   LIG d   1       5.045   2.128  -2.204  0.00  0.00     0.062 H 
ATOM     32  C   LIG d   1       4.287  -1.157  -2.085  0.00  0.00    -0.061 A 
ATOM     33  H   LIG d   1       3.450   0.575  -1.152  0.00  0.00     0.062 H 
ATOM     34  C   LIG d   1       5.257  -1.638  -2.944  0.00  0.00    -0.056 A 
ATOM     35  H   LIG d   1       3.587  -1.838  -1.625  0.00  0.00     0.062 H 
ATOM     36  H   LIG d   1       5.315  -2.697  -3.154  0.00  0.00     0.062 H 
ENDBRANCH  11  26
BRANCH  11  37
ATOM     37  O   LIG d   1       8.494  -0.792  -4.062  0.00  0.00    -0.379 OA
ATOM     38  H   LIG d   1       8.492  -0.349  -3.203  0.00  0.00     0.211 HD
ENDBRANCH  11  37
ENDBRANCH   4  11
BRANCH   1  39
ATOM     39  O   LIG d   1       6.097   0.394  -9.718  0.00  0.00    -0.487 OA
BRANCH  39  40
ATOM     40  C   LIG d   1       4.838   0.004 -10.270  0.00  0.00     0.129 C 
ATOM     41  H   LIG d   1       4.988  -0.397 -11.272  0.00  0.00     0.075 H 
ATOM     42  H   LIG d   1       4.384  -0.759  -9.637  0.00  0.00     0.075 H 
BRANCH  40  43
ATOM     43  C   LIG d   1       3.913   1.222 -10.341  0.00  0.00     0.003 C 
ATOM     44  H   LIG d   1       4.459   2.111 -10.025  0.00  0.00     0.085 H 
ATOM     45  H   LIG d   1       3.565   1.354 -11.366  0.00  0.00     0.085 H 
BRANCH  43  46
ATOM     46  N   LIG d   1       2.751   0.987  -9.458  0.00  0.00     0.237 N 
ATOM     47  H   LIG d   1       1.925   1.442  -9.865  0.00  0.00     0.203 HD
BRANCH  46  48
ATOM     48  C   LIG d   1       2.491  -0.463  -9.339  0.00  0.00    -0.035 C 
ATOM     49  H   LIG d   1       3.364  -1.011  -9.698  0.00  0.00     0.081 H 
ATOM     50  H   LIG d   1       2.293  -0.732  -8.303  0.00  0.00     0.081 H 
BRANCH  48  51
ATOM     51  C   LIG d   1       1.277  -0.819 -10.201  0.00  0.00    -0.025 C 
ATOM     52  H   LIG d   1       1.347  -0.302 -11.157  0.00  0.00     0.028 H 
ATOM     53  H   LIG d   1       1.254  -1.895 -10.368  0.00  0.00     0.028 H 
ATOM     54  H   LIG d   1       0.365  -0.512  -9.687  0.00  0.00     0.028 H 
ENDBRANCH  48  51
ENDBRANCH  46  48
BRANCH  46  55
ATOM     55  C   LIG d   1       3.007   1.565  -8.122  0.00  0.00    -0.035 C 
ATOM     56  H   LIG d   1       4.010   1.991  -8.100  0.00  0.00     0.081 H 
ATOM     57  H   LIG d   1       2.277   2.343  -7.897  0.00  0.00     0.081 H 
BRANCH  55  58
ATOM     58  C   LIG d   1       2.903   0.452  -7.079  0.00  0.00    -0.025 C 
ATOM     59  H   LIG d   1       2.720  -0.499  -7.579  0.00  0.00     0.028 H 
ATOM     60  H   LIG d   1       3.835   0.392  -6.516  0.00  0.00     0.028 H 
ATOM     61  H   LIG d   1       2.081   0.668  -6.396  0.00  0.00     0.028 H 
ENDBRANCH  55  58
ENDBRANCH  46  55
ENDBRANCH  43  46
ENDBRANCH  40  43
ENDBRANCH  39  40
ENDBRANCH   1  39
TORSDOF 13
ENDMDL
MODEL 3
REMARK VINA RESULT:      -6.4      4.493      8.539
REMARK  13 active torsions:
REMARK  status: ('A' for Active; 'I' for Inactive)
REMARK    1  A    between atoms: C_1  and  C_2 
REMARK    2  A    between atoms: C_2  and  N_60 
REMARK    3  A    between atoms: C_3  and  C_4 
REMARK    4  A    between atoms: C_3  and  N_60 
REMARK    5  A    between atoms: C_5  and  C_6 
REMARK    6  A    between atoms: C_5  and  N_60 
REMARK    7  A    between atoms: C_6  and  O_7 
REMARK    8  A    between atoms: O_7  and  C_8 
REMARK    9  A    between atoms: C_11  and  C_14 
REMARK   10  A    between atoms: C_14  and  C_15 
REMARK   11  A    between atoms: C_14  and  C_23 
REMARK   12  A    between atoms: C_14  and  O_29 
REMARK   13  A    between atoms: C_15  and  C_16 
ROOT
ATOM      1  C   LIG d   1       6.422  -0.110  -8.492  0.00  0.00     0.121 A 
ATOM      2  C   LIG d   1       7.140   0.724  -7.647  0.00  0.00    -0.020 A 
ATOM      3  C   LIG d   1       7.400   0.331  -6.348  0.00  0.00    -0.052 A 
ATOM      4  C   LIG d   1       6.944  -0.892  -5.890  0.00  0.00    -0.011 A 
ATOM      5  C   LIG d   1       6.234  -1.727  -6.732  0.00  0.00    -0.052 A 
ATOM      6  C   LIG d   1       5.966  -1.336  -8.031  0.00  0.00    -0.020 A 
ATOM      7  H   LIG d   1       7.497   1.679  -8.005  0.00  0.00     0.065 H 
ATOM      8  H   LIG d   1       7.959   0.980  -5.690  0.00  0.00     0.062 H 
ATOM      9  H   LIG d   1       5.883  -2.684  -6.374  0.00  0.00     0.062 H 
ATOM     10  H   LIG d   1       5.407  -1.987  -8.686  0.00  0.00     0.065 H 
ENDROOT
BRANCH   4  11
ATOM     11  C   LIG d   1       7.230  -1.318  -4.473  0.00  0.00     0.120 C 
BRANCH  11  12
ATOM     12  C   LIG d   1       7.252  -2.845  -4.394  0.00  0.00     0.010 C 
ATOM     13  H   LIG d   1       6.626  -3.175  -3.565  0.00  0.00     0.035 H 
ATOM     14  H   LIG d   1       6.871  -3.263  -5.327  0.00  0.00     0.035 H 
BRANCH  12  15
ATOM     15  C   LIG d   1       8.666  -3.316  -4.175  0.00  0.00    -0.044 A 
ATOM     16  C   LIG d   1       9.566  -3.314  -5.224  0.00  0.00    -0.057 A 
ATOM     17  C   LIG d   1      10.864  -3.746  -5.022  0.00  0.00    -0.043 A 
ATOM     18  H   LIG d   1       9.256  -2.974  -6.201  0.00  0.00     0.062 H 
ATOM     19  C   LIG d   1      11.262  -4.182  -3.771  0.00  0.00     0.041 A 
ATOM     20  H   LIG d   1      11.567  -3.744  -5.842  0.00  0.00     0.063 H 
ATOM     21  C   LIG d   1      10.360  -4.185  -2.722  0.00  0.00    -0.043 A 
ATOM     22 CL   LIG d   1      12.891  -4.725  -3.518  0.00  0.00    -0.084 Cl
ATOM     23  C   LIG d   1       9.065  -3.747  -2.922  0.00  0.00    -0.057 A 
ATOM     24  H   LIG d   1      10.670  -4.524  -1.744  0.00  0.00     0.063 H 
ATOM     25  H   LIG d   1       8.363  -3.745  -2.102  0.00  0.00     0.062 H 
ENDBRANCH  12  15
ENDBRANCH  11  12
BRANCH  11  26
ATOM     26  C   LIG d   1       6.154  -0.783  -3.562  0.00  0.00    -0.011 A 
ATOM     27  C   LIG d   1       6.094   0.569  -3.285  0.00  0.00    -0.056 A 
ATOM     28  C   LIG d   1       5.108   1.059  -2.448  0.00  0.00    -0.061 A 
ATOM     29  H   LIG d   1       6.818   1.243  -3.718  0.00  0.00     0.062 H 
ATOM     30  C   LIG d   1       4.182   0.197  -1.892  0.00  0.00    -0.062 A 
ATOM     31  H   LIG d   1       5.062   2.116  -2.230  0.00  0.00     0.062 H 
ATOM     32  C   LIG d   1       4.242  -1.155  -2.170  0.00  0.00    -0.061 A 
ATOM     33  H   LIG d   1       3.412   0.580  -1.238  0.00  0.00     0.062 H 
ATOM     34  C   LIG d   1       5.225  -1.644  -3.010  0.00  0.00    -0.056 A 
ATOM     35  H   LIG d   1       3.518  -1.829  -1.736  0.00  0.00     0.062 H 
ATOM     36  H   LIG d   1       5.269  -2.701  -3.232  0.00  0.00     0.062 H 
ENDBRANCH  11  26
BRANCH  11  37
ATOM     37  O   LIG d   1       8.499  -0.801  -4.067  0.00  0.00    -0.379 OA
ATOM     38  H   LIG d   1       8.466   0.104  -3.730  0.00  0.00     0.211 HD
ENDBRANCH  11  37
ENDBRANCH   4  11
BRANCH   1  39
ATOM     39  O   LIG d   1       6.166   0.274  -9.770  0.00  0.00    -0.487 OA
BRANCH  39  40
ATOM     40  C   LIG d   1       4.879  -0.053 -10.300  0.00  0.00     0.129 C 
ATOM     41  H   LIG d   1       4.990  -0.437 -11.314  0.00  0.00     0.075 H 
ATOM     42  H   LIG d   1       4.410  -0.811  -9.673  0.00  0.00     0.075 H 
BRANCH  40  43
ATOM     43  C   LIG d   1       4.004   1.203 -10.322  0.00  0.00     0.003 C 
ATOM     44  H   LIG d   1       4.578   2.052  -9.951  0.00  0.00     0.085 H 
ATOM     45  H   LIG d   1       3.680   1.401 -11.344  0.00  0.00     0.085 H 
BRANCH  43  46
ATOM     46  N   LIG d   1       2.817   0.969  -9.472  0.00  0.00     0.237 N 
ATOM     47  H   LIG d   1       2.005   1.431  -9.898  0.00  0.00     0.203 HD
BRANCH  46  48
ATOM     48  C   LIG d   1       2.547  -0.481  -9.370  0.00  0.00    -0.035 C 
ATOM     49  H   LIG d   1       3.400  -1.031  -9.771  0.00  0.00     0.081 H 
ATOM     50  H   LIG d   1       2.386  -0.767  -8.331  0.00  0.00     0.081 H 
BRANCH  48  51
ATOM     51  C   LIG d   1       1.297  -0.809 -10.189  0.00  0.00    -0.025 C 
ATOM     52  H   LIG d   1       0.442  -0.910  -9.521  0.00  0.00     0.028 H 
ATOM     53  H   LIG d   1       1.109  -0.008 -10.903  0.00  0.00     0.028 H 
ATOM     54  H   LIG d   1       1.451  -1.745 -10.727  0.00  0.00     0.028 H 
ENDBRANCH  48  51
ENDBRANCH  46  48
BRANCH  46  55
ATOM     55  C   LIG d   1       3.040   1.537  -8.126  0.00  0.00    -0.035 C 
ATOM     56  H   LIG d   1       4.032   1.985  -8.085  0.00  0.00     0.081 H 
ATOM     57  H   LIG d   1       2.288   2.295  -7.903  0.00  0.00     0.081 H 
BRANCH  55  58
ATOM     58  C   LIG d   1       2.947   0.409  -7.097  0.00  0.00    -0.025 C 
ATOM     59  H   LIG d   1       3.353   0.752  -6.145  0.00  0.00     0.028 H 
ATOM     60  H   LIG d   1       1.904   0.123  -6.964  0.00  0.00     0.028 H 
ATOM     61  H   LIG d   1       3.518  -0.451  -7.446  0.00  0.00     0.028 H 
ENDBRANCH  55  58
ENDBRANCH  46  55
ENDBRANCH  43  46
ENDBRANCH  40  43
ENDBRANCH  39  40
ENDBRANCH   1  39
TORSDOF 13
ENDMDL
MODEL 4
REMARK VINA RESULT:      -6.2      4.560      8.691
REMARK  13 active torsions:
REMARK  status: ('A' for Active; 'I' for Inactive)
REMARK    1  A    between atoms: C_1  and  C_2 
REMARK    2  A    between atoms: C_2  and  N_60 
REMARK    3  A    between atoms: C_3  and  C_4 
REMARK    4  A    between atoms: C_3  and  N_60 
REMARK    5  A    between atoms: C_5  and  C_6 
REMARK    6  A    between atoms: C_5  and  N_60 
REMARK    7  A    between atoms: C_6  and  O_7 
REMARK    8  A    between atoms: O_7  and  C_8 
REMARK    9  A    between atoms: C_11  and  C_14 
REMARK   10  A    between atoms: C_14  and  C_15 
REMARK   11  A    between atoms: C_14  and  C_23 
REMARK   12  A    between atoms: C_14  and  O_29 
REMARK   13  A    between atoms: C_15  and  C_16 
ROOT
ATOM      1  C   LIG d   1       6.109   1.000  -8.339  0.00  0.00     0.121 A 
ATOM      2  C   LIG d   1       5.235   0.105  -7.740  0.00  0.00    -0.020 A 
ATOM      3  C   LIG d   1       5.587  -0.518  -6.559  0.00  0.00    -0.052 A 
ATOM      4  C   LIG d   1       6.811  -0.250  -5.973  0.00  0.00    -0.011 A 
ATOM      5  C   LIG d   1       7.682   0.646  -6.565  0.00  0.00    -0.052 A 
ATOM      6  C   LIG d   1       7.336   1.267  -7.750  0.00  0.00    -0.020 A 
ATOM      7  H   LIG d   1       4.278  -0.104  -8.197  0.00  0.00     0.065 H 
ATOM      8  H   LIG d   1       4.906  -1.215  -6.093  0.00  0.00     0.062 H 
ATOM      9  H   LIG d   1       8.635   0.857  -6.103  0.00  0.00     0.062 H 
ATOM     10  H   LIG d   1       8.019   1.962  -8.214  0.00  0.00     0.065 H 
ENDROOT
BRANCH   4  11
ATOM     11  C   LIG d   1       7.193  -0.931  -4.684  0.00  0.00     0.120 C 
BRANCH  11  12
ATOM     12  C   LIG d   1       7.229  -2.445  -4.898  0.00  0.00     0.010 C 
ATOM     13  H   LIG d   1       6.479  -2.919  -4.264  0.00  0.00     0.035 H 
ATOM     14  H   LIG d   1       7.017  -2.670  -5.943  0.00  0.00     0.035 H 
BRANCH  12  15
ATOM     15  C   LIG d   1       8.594  -2.971  -4.538  0.00  0.00    -0.044 A 
ATOM     16  C   LIG d   1       9.632  -2.877  -5.447  0.00  0.00    -0.057 A 
ATOM     17  C   LIG d   1      10.885  -3.360  -5.117  0.00  0.00    -0.043 A 
ATOM     18  H   LIG d   1       9.464  -2.428  -6.414  0.00  0.00     0.062 H 
ATOM     19  C   LIG d   1      11.100  -3.937  -3.879  0.00  0.00     0.041 A 
ATOM     20  H   LIG d   1      11.695  -3.287  -5.827  0.00  0.00     0.063 H 
ATOM     21  C   LIG d   1      10.061  -4.030  -2.970  0.00  0.00    -0.043 A 
ATOM     22 CL   LIG d   1      12.673  -4.543  -3.465  0.00  0.00    -0.084 Cl
ATOM     23  C   LIG d   1       8.811  -3.542  -3.298  0.00  0.00    -0.057 A 
ATOM     24  H   LIG d   1      10.228  -4.480  -2.002  0.00  0.00     0.063 H 
ATOM     25  H   LIG d   1       8.001  -3.612  -2.587  0.00  0.00     0.062 H 
ENDBRANCH  12  15
ENDBRANCH  11  12
BRANCH  11  26
ATOM     26  C   LIG d   1       6.177  -0.597  -3.621  0.00  0.00    -0.011 A 
ATOM     27  C   LIG d   1       5.427  -1.604  -3.042  0.00  0.00    -0.056 A 
ATOM     28  C   LIG d   1       4.496  -1.297  -2.068  0.00  0.00    -0.061 A 
ATOM     29  H   LIG d   1       5.567  -2.629  -3.352  0.00  0.00     0.062 H 
ATOM     30  C   LIG d   1       4.316   0.015  -1.671  0.00  0.00    -0.062 A 
ATOM     31  H   LIG d   1       3.908  -2.083  -1.616  0.00  0.00     0.062 H 
ATOM     32  C   LIG d   1       5.067   1.021  -2.250  0.00  0.00    -0.061 A 
ATOM     33  H   LIG d   1       3.587   0.254  -0.910  0.00  0.00     0.062 H 
ATOM     34  C   LIG d   1       6.001   0.714  -3.221  0.00  0.00    -0.056 A 
ATOM     35  H   LIG d   1       4.926   2.045  -1.940  0.00  0.00     0.062 H 
ATOM     36  H   LIG d   1       6.592   1.500  -3.670  0.00  0.00     0.062 H 
ENDBRANCH  11  26
BRANCH  11  37
ATOM     37  O   LIG d   1       8.483  -0.478  -4.270  0.00  0.00    -0.379 OA
ATOM     38  H   LIG d   1       9.171  -0.582  -4.940  0.00  0.00     0.211 HD
ENDBRANCH  11  37
ENDBRANCH   4  11
BRANCH   1  39
ATOM     39  O   LIG d   1       5.765   1.614  -9.501  0.00  0.00    -0.487 OA
BRANCH  39  40
ATOM     40  C   LIG d   1       4.368   1.791  -9.752  0.00  0.00     0.129 C 
ATOM     41  H   LIG d   1       3.794   1.326  -8.951  0.00  0.00     0.075 H 
ATOM     42  H   LIG d   1       4.138   2.855  -9.794  0.00  0.00     0.075 H 
BRANCH  40  43
ATOM     43  C   LIG d   1       4.004   1.138 -11.087  0.00  0.00     0.003 C 
ATOM     44  H   LIG d   1       3.129   1.634 -11.507  0.00  0.00     0.085 H 
ATOM     45  H   LIG d   1       4.842   1.232 -11.778  0.00  0.00     0.085 H 
BRANCH  43  46
ATOM     46  N   LIG d   1       3.724  -0.295 -10.853  0.00  0.00     0.237 N 
ATOM     47  H   LIG d   1       3.818  -0.494  -9.850  0.00  0.00     0.203 HD
BRANCH  46  48
ATOM     48  C   LIG d   1       2.346  -0.617 -11.281  0.00  0.00    -0.035 C 
ATOM     49  H   LIG d   1       1.977   0.183 -11.924  0.00  0.00     0.081 H 
ATOM     50  H   LIG d   1       2.326  -1.560 -11.825  0.00  0.00     0.081 H 
BRANCH  48  51
ATOM     51  C   LIG d   1       1.457  -0.725 -10.040  0.00  0.00    -0.025 C 
ATOM     52  H   LIG d   1       1.655  -1.669  -9.533  0.00  0.00     0.028 H 
ATOM     53  H   LIG d   1       1.673   0.103  -9.365  0.00  0.00     0.028 H 
ATOM     54  H   LIG d   1       0.409  -0.685 -10.339  0.00  0.00     0.028 H 
ENDBRANCH  48  51
ENDBRANCH  46  48
BRANCH  46  55
ATOM     55  C   LIG d   1       4.692  -1.127 -11.599  0.00  0.00    -0.035 C 
ATOM     56  H   LIG d   1       4.168  -1.668 -12.387  0.00  0.00     0.081 H 
ATOM     57  H   LIG d   1       5.470  -0.504 -12.040  0.00  0.00     0.081 H 
BRANCH  55  58
ATOM     58  C   LIG d   1       5.327  -2.126 -10.631  0.00  0.00    -0.025 C 
ATOM     59  H   LIG d   1       5.344  -1.699  -9.628  0.00  0.00     0.028 H 
ATOM     60  H   LIG d   1       4.744  -3.047 -10.624  0.00  0.00     0.028 H 
ATOM     61  H   LIG d   1       6.346  -2.344 -10.949  0.00  0.00     0.028 H 
ENDBRANCH  55  58
ENDBRANCH  46  55
ENDBRANCH  43  46
ENDBRANCH  40  43
ENDBRANCH  39  40
ENDBRANCH   1  39
TORSDOF 13
ENDMDL
MODEL 5
REMARK VINA RESULT:      -6.0      3.615      4.843
REMARK  13 active torsions:
REMARK  status: ('A' for Active; 'I' for Inactive)
REMARK    1  A    between atoms: C_1  and  C_2 
REMARK    2  A    between atoms: C_2  and  N_60 
REMARK    3  A    between atoms: C_3  and  C_4 
REMARK    4  A    between atoms: C_3  and  N_60 
REMARK    5  A    between atoms: C_5  and  C_6 
REMARK    6  A    between atoms: C_5  and  N_60 
REMARK    7  A    between atoms: C_6  and  O_7 
REMARK    8  A    between atoms: O_7  and  C_8 
REMARK    9  A    between atoms: C_11  and  C_14 
REMARK   10  A    between atoms: C_14  and  C_15 
REMARK   11  A    between atoms: C_14  and  C_23 
REMARK   12  A    between atoms: C_14  and  O_29 
REMARK   13  A    between atoms: C_15  and  C_16 
ROOT
ATOM      1  C   LIG d   1       5.884  -6.197  -5.973  0.00  0.00     0.121 A 
ATOM      2  C   LIG d   1       4.793  -5.369  -6.191  0.00  0.00    -0.020 A 
ATOM      3  C   LIG d   1       4.881  -4.022  -5.899  0.00  0.00    -0.052 A 
ATOM      4  C   LIG d   1       6.056  -3.499  -5.389  0.00  0.00    -0.011 A 
ATOM      5  C   LIG d   1       7.146  -4.321  -5.177  0.00  0.00    -0.052 A 
ATOM      6  C   LIG d   1       7.061  -5.671  -5.461  0.00  0.00    -0.020 A 
ATOM      7  H   LIG d   1       3.876  -5.777  -6.590  0.00  0.00     0.065 H 
ATOM      8  H   LIG d   1       4.032  -3.377  -6.069  0.00  0.00     0.062 H 
ATOM      9  H   LIG d   1       8.064  -3.910  -4.783  0.00  0.00     0.062 H 
ATOM     10  H   LIG d   1       7.912  -6.314  -5.290  0.00  0.00     0.065 H 
ENDROOT
BRANCH   4  11
ATOM     11  C   LIG d   1       6.149  -2.028  -5.073  0.00  0.00     0.120 C 
BRANCH  11  12
ATOM     12  C   LIG d   1       7.403  -1.765  -4.237  0.00  0.00     0.010 C 
ATOM     13  H   LIG d   1       7.171  -1.905  -3.181  0.00  0.00     0.035 H 
ATOM     14  H   LIG d   1       8.189  -2.460  -4.533  0.00  0.00     0.035 H 
BRANCH  12  15
ATOM     15  C   LIG d   1       7.871  -0.351  -4.465  0.00  0.00    -0.044 A 
ATOM     16  C   LIG d   1       8.831  -0.088  -5.423  0.00  0.00    -0.057 A 
ATOM     17  C   LIG d   1       9.261   1.210  -5.633  0.00  0.00    -0.043 A 
ATOM     18  H   LIG d   1       9.246  -0.894  -6.009  0.00  0.00     0.062 H 
ATOM     19  C   LIG d   1       8.731   2.244  -4.882  0.00  0.00     0.041 A 
ATOM     20  H   LIG d   1      10.011   1.416  -6.382  0.00  0.00     0.063 H 
ATOM     21  C   LIG d   1       7.770   1.979  -3.923  0.00  0.00    -0.043 A 
ATOM     22 CL   LIG d   1       9.271   3.872  -5.144  0.00  0.00    -0.084 Cl
ATOM     23  C   LIG d   1       7.336   0.683  -3.719  0.00  0.00    -0.057 A 
ATOM     24  H   LIG d   1       7.355   2.786  -3.336  0.00  0.00     0.063 H 
ATOM     25  H   LIG d   1       6.583   0.477  -2.972  0.00  0.00     0.062 H 
ENDBRANCH  12  15
ENDBRANCH  11  12
BRANCH  11  26
ATOM     26  C   LIG d   1       4.928  -1.604  -4.297  0.00  0.00    -0.011 A 
ATOM     27  C   LIG d   1       4.681  -2.145  -3.049  0.00  0.00    -0.056 A 
ATOM     28  C   LIG d   1       3.561  -1.756  -2.338  0.00  0.00    -0.061 A 
ATOM     29  H   LIG d   1       5.360  -2.872  -2.630  0.00  0.00     0.062 H 
ATOM     30  C   LIG d   1       2.690  -0.825  -2.873  0.00  0.00    -0.062 A 
ATOM     31  H   LIG d   1       3.367  -2.179  -1.363  0.00  0.00     0.062 H 
ATOM     32  C   LIG d   1       2.939  -0.284  -4.121  0.00  0.00    -0.061 A 
ATOM     33  H   LIG d   1       1.816  -0.522  -2.317  0.00  0.00     0.062 H 
ATOM     34  C   LIG d   1       4.061  -0.670  -4.830  0.00  0.00    -0.056 A 
ATOM     35  H   LIG d   1       2.259   0.443  -4.539  0.00  0.00     0.062 H 
ATOM     36  H   LIG d   1       4.258  -0.243  -5.803  0.00  0.00     0.062 H 
ENDBRANCH  11  26
BRANCH  11  37
ATOM     37  O   LIG d   1       6.223  -1.283  -6.290  0.00  0.00    -0.379 OA
ATOM     38  H   LIG d   1       5.724  -1.672  -7.021  0.00  0.00     0.211 HD
ENDBRANCH  11  37
ENDBRANCH   4  11
BRANCH   1  39
ATOM     39  O   LIG d   1       5.801  -7.523  -6.259  0.00  0.00    -0.487 OA
BRANCH  39  40
ATOM     40  C   LIG d   1       5.056  -8.338  -5.351  0.00  0.00     0.129 C 
ATOM     41  H   LIG d   1       4.458  -7.701  -4.698  0.00  0.00     0.075 H 
ATOM     42  H   LIG d   1       4.399  -9.001  -5.912  0.00  0.00     0.075 H 
BRANCH  40  43
ATOM     43  C   LIG d   1       6.021  -9.171  -4.505  0.00  0.00     0.003 C 
ATOM     44  H   LIG d   1       6.655  -9.769  -5.161  0.00  0.00     0.085 H 
ATOM     45  H   LIG d   1       6.643  -8.508  -3.904  0.00  0.00     0.085 H 
BRANCH  43  46
ATOM     46  N   LIG d   1       5.234 -10.045  -3.610  0.00  0.00     0.237 N 
ATOM     47  H   LIG d   1       4.767  -9.465  -2.903  0.00  0.00     0.203 HD
BRANCH  46  48
ATOM     48  C   LIG d   1       4.209 -10.773  -4.388  0.00  0.00    -0.035 C 
ATOM     49  H   LIG d   1       3.931 -10.175  -5.258  0.00  0.00     0.081 H 
ATOM     50  H   LIG d   1       4.592 -11.738  -4.717  0.00  0.00     0.081 H 
BRANCH  48  51
ATOM     51  C   LIG d   1       2.978 -10.988  -3.503  0.00  0.00    -0.025 C 
ATOM     52  H   LIG d   1       3.045 -10.343  -2.627  0.00  0.00     0.028 H 
ATOM     53  H   LIG d   1       2.079 -10.744  -4.067  0.00  0.00     0.028 H 
ATOM     54  H   LIG d   1       2.936 -12.030  -3.186  0.00  0.00     0.028 H 
ENDBRANCH  48  51
ENDBRANCH  46  48
BRANCH  46  55
ATOM     55  C   LIG d   1       6.126 -11.006  -2.928  0.00  0.00    -0.035 C 
ATOM     56  H   LIG d   1       5.716 -12.011  -3.027  0.00  0.00     0.081 H 
ATOM     57  H   LIG d   1       7.125 -10.976  -3.366  0.00  0.00     0.081 H 
BRANCH  55  58
ATOM     58  C   LIG d   1       6.208 -10.633  -1.447  0.00  0.00    -0.025 C 
ATOM     59  H   LIG d   1       6.924 -11.285  -0.947  0.00  0.00     0.028 H 
ATOM     60  H   LIG d   1       6.532  -9.597  -1.351  0.00  0.00     0.028 H 
ATOM     61  H   LIG d   1       5.227 -10.751  -0.987  0.00  0.00     0.028 H 
ENDBRANCH  55  58
ENDBRANCH  46  55
ENDBRANCH  43  46
ENDBRANCH  40  43
ENDBRANCH  39  40
ENDBRANCH   1  39
TORSDOF 13
ENDMDL
MODEL 6
REMARK VINA RESULT:      -6.0      5.049      8.152
REMARK  13 active torsions:
REMARK  status: ('A' for Active; 'I' for Inactive)
REMARK    1  A    between atoms: C_1  and  C_2 
REMARK    2  A    between atoms: C_2  and  N_60 
REMARK    3  A    between atoms: C_3  and  C_4 
REMARK    4  A    between atoms: C_3  and  N_60 
REMARK    5  A    between atoms: C_5  and  C_6 
REMARK    6  A    between atoms: C_5  and  N_60 
REMARK    7  A    between atoms: C_6  and  O_7 
REMARK    8  A    between atoms: O_7  and  C_8 
REMARK    9  A    between atoms: C_11  and  C_14 
REMARK   10  A    between atoms: C_14  and  C_15 
REMARK   11  A    between atoms: C_14  and  C_23 
REMARK   12  A    between atoms: C_14  and  O_29 
REMARK   13  A    between atoms: C_15  and  C_16 
ROOT
ATOM      1  C   LIG d   1       8.445   2.403  -5.094  0.00  0.00     0.121 A 
ATOM      2  C   LIG d   1       8.082   1.932  -3.841  0.00  0.00    -0.020 A 
ATOM      3  C   LIG d   1       7.467   0.701  -3.718  0.00  0.00    -0.052 A 
ATOM      4  C   LIG d   1       7.214  -0.062  -4.844  0.00  0.00    -0.011 A 
ATOM      5  C   LIG d   1       7.580   0.403  -6.093  0.00  0.00    -0.052 A 
ATOM      6  C   LIG d   1       8.190   1.636  -6.222  0.00  0.00    -0.020 A 
ATOM      7  H   LIG d   1       8.280   2.528  -2.962  0.00  0.00     0.065 H 
ATOM      8  H   LIG d   1       7.184   0.335  -2.742  0.00  0.00     0.062 H 
ATOM      9  H   LIG d   1       7.386  -0.197  -6.970  0.00  0.00     0.062 H 
ATOM     10  H   LIG d   1       8.471   2.000  -7.198  0.00  0.00     0.065 H 
ENDROOT
BRANCH   4  11
ATOM     11  C   LIG d   1       6.544  -1.405  -4.707  0.00  0.00     0.120 C 
BRANCH  11  12
ATOM     12  C   LIG d   1       6.412  -2.052  -6.086  0.00  0.00     0.010 C 
ATOM     13  H   LIG d   1       5.630  -1.545  -6.652  0.00  0.00     0.035 H 
ATOM     14  H   LIG d   1       7.359  -1.968  -6.619  0.00  0.00     0.035 H 
BRANCH  12  15
ATOM     15  C   LIG d   1       6.053  -3.507  -5.926  0.00  0.00    -0.044 A 
ATOM     16  C   LIG d   1       7.050  -4.450  -5.759  0.00  0.00    -0.057 A 
ATOM     17  C   LIG d   1       6.721  -5.785  -5.613  0.00  0.00    -0.043 A 
ATOM     18  H   LIG d   1       8.086  -4.144  -5.743  0.00  0.00     0.062 H 
ATOM     19  C   LIG d   1       5.395  -6.177  -5.634  0.00  0.00     0.041 A 
ATOM     20  H   LIG d   1       7.500  -6.521  -5.482  0.00  0.00     0.063 H 
ATOM     21  C   LIG d   1       4.398  -5.232  -5.802  0.00  0.00    -0.043 A 
ATOM     22 CL   LIG d   1       4.982  -7.853  -5.451  0.00  0.00    -0.084 Cl
ATOM     23  C   LIG d   1       4.727  -3.898  -5.942  0.00  0.00    -0.057 A 
ATOM     24  H   LIG d   1       3.362  -5.537  -5.818  0.00  0.00     0.063 H 
ATOM     25  H   LIG d   1       3.948  -3.160  -6.069  0.00  0.00     0.062 H 
ENDBRANCH  12  15
ENDBRANCH  11  12
BRANCH  11  26
ATOM     26  C   LIG d   1       5.174  -1.223  -4.103  0.00  0.00    -0.011 A 
ATOM     27  C   LIG d   1       4.850  -1.860  -2.921  0.00  0.00    -0.056 A 
ATOM     28  C   LIG d   1       3.594  -1.694  -2.368  0.00  0.00    -0.061 A 
ATOM     29  H   LIG d   1       5.577  -2.490  -2.429  0.00  0.00     0.062 H 
ATOM     30  C   LIG d   1       2.663  -0.889  -2.997  0.00  0.00    -0.062 A 
ATOM     31  H   LIG d   1       3.340  -2.193  -1.444  0.00  0.00     0.062 H 
ATOM     32  C   LIG d   1       2.987  -0.251  -4.180  0.00  0.00    -0.061 A 
ATOM     33  H   LIG d   1       1.681  -0.760  -2.566  0.00  0.00     0.062 H 
ATOM     34  C   LIG d   1       4.245  -0.414  -4.730  0.00  0.00    -0.056 A 
ATOM     35  H   LIG d   1       2.260   0.378  -4.671  0.00  0.00     0.062 H 
ATOM     36  H   LIG d   1       4.500   0.088  -5.652  0.00  0.00     0.062 H 
ENDBRANCH  11  26
BRANCH  11  37
ATOM     37  O   LIG d   1       7.330  -2.245  -3.859  0.00  0.00    -0.379 OA
ATOM     38  H   LIG d   1       7.198  -2.086  -2.915  0.00  0.00     0.211 HD
ENDBRANCH  11  37
ENDBRANCH   4  11
BRANCH   1  39
ATOM     39  O   LIG d   1       9.050   3.613  -5.218  0.00  0.00    -0.487 OA
BRANCH  39  40
ATOM     40  C   LIG d   1       9.859   4.049  -4.122  0.00  0.00     0.129 C 
ATOM     41  H   LIG d   1       9.591   3.488  -3.227  0.00  0.00     0.075 H 
ATOM     42  H   LIG d   1      10.909   3.881  -4.356  0.00  0.00     0.075 H 
BRANCH  40  43
ATOM     43  C   LIG d   1       9.624   5.542  -3.878  0.00  0.00     0.003 C 
ATOM     44  H   LIG d   1       9.936   6.107  -4.756  0.00  0.00     0.085 H 
ATOM     45  H   LIG d   1       8.564   5.716  -3.691  0.00  0.00     0.085 H 
BRANCH  43  46
ATOM     46  N   LIG d   1      10.403   5.955  -2.691  0.00  0.00     0.237 N 
ATOM     47  H   LIG d   1      11.245   6.455  -3.002  0.00  0.00     0.203 HD
BRANCH  46  48
ATOM     48  C   LIG d   1       9.594   6.858  -1.845  0.00  0.00    -0.035 C 
ATOM     49  H   LIG d   1       8.537   6.706  -2.071  0.00  0.00     0.081 H 
ATOM     50  H   LIG d   1       9.772   6.655  -0.790  0.00  0.00     0.081 H 
BRANCH  48  51
ATOM     51  C   LIG d   1       9.979   8.306  -2.159  0.00  0.00    -0.025 C 
ATOM     52  H   LIG d   1       9.826   8.921  -1.272  0.00  0.00     0.028 H 
ATOM     53  H   LIG d   1      11.026   8.347  -2.455  0.00  0.00     0.028 H 
ATOM     54  H   LIG d   1       9.356   8.679  -2.972  0.00  0.00     0.028 H 
ENDBRANCH  48  51
ENDBRANCH  46  48
BRANCH  46  55
ATOM     55  C   LIG d   1      10.811   4.766  -1.914  0.00  0.00    -0.035 C 
ATOM     56  H   LIG d   1       9.922   4.224  -1.593  0.00  0.00     0.081 H 
ATOM     57  H   LIG d   1      11.437   4.111  -2.521  0.00  0.00     0.081 H 
BRANCH  55  58
ATOM     58  C   LIG d   1      11.596   5.229  -0.686  0.00  0.00    -0.025 C 
ATOM     59  H   LIG d   1      12.649   5.338  -0.948  0.00  0.00     0.028 H 
ATOM     60  H   LIG d   1      11.206   6.188  -0.345  0.00  0.00     0.028 H 
ATOM     61  H   LIG d   1      11.495   4.491   0.110  0.00  0.00     0.028 H 
ENDBRANCH  55  58
ENDBRANCH  46  55
ENDBRANCH  43  46
ENDBRANCH  40  43
ENDBRANCH  39  40
ENDBRANCH   1  39
TORSDOF 13
ENDMDL
MODEL 7
REMARK VINA RESULT:      -6.0      4.127      8.509
REMARK  13 active torsions:
REMARK  status: ('A' for Active; 'I' for Inactive)
REMARK    1  A    between atoms: C_1  and  C_2 
REMARK    2  A    between atoms: C_2  and  N_60 
REMARK    3  A    between atoms: C_3  and  C_4 
REMARK    4  A    between atoms: C_3  and  N_60 
REMARK    5  A    between atoms: C_5  and  C_6 
REMARK    6  A    between atoms: C_5  and  N_60 
REMARK    7  A    between atoms: C_6  and  O_7 
REMARK    8  A    between atoms: O_7  and  C_8 
REMARK    9  A    between atoms: C_11  and  C_14 
REMARK   10  A    between atoms: C_14  and  C_15 
REMARK   11  A    between atoms: C_14  and  C_23 
REMARK   12  A    between atoms: C_14  and  O_29 
REMARK   13  A    between atoms: C_15  and  C_16 
ROOT
ATOM      1  C   LIG d   1       4.866  -2.896  -9.883  0.00  0.00     0.121 A 
ATOM      2  C   LIG d   1       3.859  -3.607  -9.248  0.00  0.00    -0.020 A 
ATOM      3  C   LIG d   1       3.989  -3.945  -7.915  0.00  0.00    -0.052 A 
ATOM      4  C   LIG d   1       5.123  -3.576  -7.214  0.00  0.00    -0.011 A 
ATOM      5  C   LIG d   1       6.126  -2.862  -7.844  0.00  0.00    -0.052 A 
ATOM      6  C   LIG d   1       6.003  -2.527  -9.179  0.00  0.00    -0.020 A 
ATOM      7  H   LIG d   1       2.972  -3.894  -9.794  0.00  0.00     0.065 H 
ATOM      8  H   LIG d   1       3.204  -4.498  -7.419  0.00  0.00     0.062 H 
ATOM      9  H   LIG d   1       7.008  -2.571  -7.294  0.00  0.00     0.062 H 
ATOM     10  H   LIG d   1       6.789  -1.975  -9.672  0.00  0.00     0.065 H 
ENDROOT
BRANCH   4  11
ATOM     11  C   LIG d   1       5.262  -3.945  -5.760  0.00  0.00     0.120 C 
BRANCH  11  12
ATOM     12  C   LIG d   1       6.313  -3.048  -5.104  0.00  0.00     0.010 C 
ATOM     13  H   LIG d   1       6.919  -3.640  -4.418  0.00  0.00     0.035 H 
ATOM     14  H   LIG d   1       6.952  -2.615  -5.873  0.00  0.00     0.035 H 
BRANCH  12  15
ATOM     15  C   LIG d   1       5.627  -1.944  -4.342  0.00  0.00    -0.044 A 
ATOM     16  C   LIG d   1       5.352  -2.101  -2.996  0.00  0.00    -0.057 A 
ATOM     17  C   LIG d   1       4.723  -1.088  -2.296  0.00  0.00    -0.043 A 
ATOM     18  H   LIG d   1       5.630  -3.014  -2.490  0.00  0.00     0.062 H 
ATOM     19  C   LIG d   1       4.366   0.081  -2.943  0.00  0.00     0.041 A 
ATOM     20  H   LIG d   1       4.509  -1.210  -1.245  0.00  0.00     0.063 H 
ATOM     21  C   LIG d   1       4.641   0.237  -4.290  0.00  0.00    -0.043 A 
ATOM     22 CL   LIG d   1       3.575   1.352  -2.065  0.00  0.00    -0.084 Cl
ATOM     23  C   LIG d   1       5.276  -0.773  -4.987  0.00  0.00    -0.057 A 
ATOM     24  H   LIG d   1       4.363   1.150  -4.796  0.00  0.00     0.063 H 
ATOM     25  H   LIG d   1       5.493  -0.649  -6.038  0.00  0.00     0.062 H 
ENDBRANCH  12  15
ENDBRANCH  11  12
BRANCH  11  26
ATOM     26  C   LIG d   1       5.690  -5.386  -5.647  0.00  0.00    -0.011 A 
ATOM     27  C   LIG d   1       4.739  -6.381  -5.519  0.00  0.00    -0.056 A 
ATOM     28  C   LIG d   1       5.131  -7.702  -5.414  0.00  0.00    -0.061 A 
ATOM     29  H   LIG d   1       3.689  -6.126  -5.498  0.00  0.00     0.062 H 
ATOM     30  C   LIG d   1       6.474  -8.029  -5.440  0.00  0.00    -0.062 A 
ATOM     31  H   LIG d   1       4.388  -8.480  -5.313  0.00  0.00     0.062 H 
ATOM     32  C   LIG d   1       7.425  -7.034  -5.569  0.00  0.00    -0.061 A 
ATOM     33  H   LIG d   1       6.780  -9.061  -5.358  0.00  0.00     0.062 H 
ATOM     34  C   LIG d   1       7.032  -5.713  -5.677  0.00  0.00    -0.056 A 
ATOM     35  H   LIG d   1       8.474  -7.289  -5.589  0.00  0.00     0.062 H 
ATOM     36  H   LIG d   1       7.775  -4.935  -5.783  0.00  0.00     0.062 H 
ENDBRANCH  11  26
BRANCH  11  37
ATOM     37  O   LIG d   1       4.006  -3.768  -5.101  0.00  0.00    -0.379 OA
ATOM     38  H   LIG d   1       4.042  -3.174  -4.339  0.00  0.00     0.211 HD
ENDBRANCH  11  37
ENDBRANCH   4  11
BRANCH   1  39
ATOM     39  O   LIG d   1       4.740  -2.562 -11.195  0.00  0.00    -0.487 OA
BRANCH  39  40
ATOM     40  C   LIG d   1       4.798  -1.171 -11.518  0.00  0.00     0.129 C 
ATOM     41  H   LIG d   1       5.575  -0.691 -10.923  0.00  0.00     0.075 H 
ATOM     42  H   LIG d   1       5.025  -1.053 -12.577  0.00  0.00     0.075 H 
BRANCH  40  43
ATOM     43  C   LIG d   1       3.447  -0.520 -11.211  0.00  0.00     0.003 C 
ATOM     44  H   LIG d   1       3.111   0.045 -12.081  0.00  0.00     0.085 H 
ATOM     45  H   LIG d   1       2.716  -1.293 -10.975  0.00  0.00     0.085 H 
BRANCH  43  46
ATOM     46  N   LIG d   1       3.605   0.373 -10.044  0.00  0.00     0.237 N 
ATOM     47  H   LIG d   1       4.439   0.087  -9.516  0.00  0.00     0.203 HD
BRANCH  46  48
ATOM     48  C   LIG d   1       3.778   1.770 -10.495  0.00  0.00    -0.035 C 
ATOM     49  H   LIG d   1       4.538   1.800 -11.278  0.00  0.00     0.081 H 
ATOM     50  H   LIG d   1       2.840   2.165 -10.884  0.00  0.00     0.081 H 
BRANCH  48  51
ATOM     51  C   LIG d   1       4.236   2.620  -9.307  0.00  0.00    -0.025 C 
ATOM     52  H   LIG d   1       4.909   2.034  -8.681  0.00  0.00     0.028 H 
ATOM     53  H   LIG d   1       4.756   3.504  -9.673  0.00  0.00     0.028 H 
ATOM     54  H   LIG d   1       3.368   2.924  -8.723  0.00  0.00     0.028 H 
ENDBRANCH  48  51
ENDBRANCH  46  48
BRANCH  46  55
ATOM     55  C   LIG d   1       2.422   0.270  -9.164  0.00  0.00    -0.035 C 
ATOM     56  H   LIG d   1       2.012   1.265  -8.994  0.00  0.00     0.081 H 
ATOM     57  H   LIG d   1       1.661  -0.364  -9.622  0.00  0.00     0.081 H 
BRANCH  55  58
ATOM     58  C   LIG d   1       2.855  -0.339  -7.829  0.00  0.00    -0.025 C 
ATOM     59  H   LIG d   1       2.467   0.268  -7.011  0.00  0.00     0.028 H 
ATOM     60  H   LIG d   1       2.463  -1.353  -7.747  0.00  0.00     0.028 H 
ATOM     61  H   LIG d   1       3.943  -0.365  -7.777  0.00  0.00     0.028 H 
ENDBRANCH  55  58
ENDBRANCH  46  55
ENDBRANCH  43  46
ENDBRANCH  40  43
ENDBRANCH  39  40
ENDBRANCH   1  39
TORSDOF 13
ENDMDL
MODEL 8
REMARK VINA RESULT:      -5.8      5.549      8.215
REMARK  13 active torsions:
REMARK  status: ('A' for Active; 'I' for Inactive)
REMARK    1  A    between atoms: C_1  and  C_2 
REMARK    2  A    between atoms: C_2  and  N_60 
REMARK    3  A    between atoms: C_3  and  C_4 
REMARK    4  A    between atoms: C_3  and  N_60 
REMARK    5  A    between atoms: C_5  and  C_6 
REMARK    6  A    between atoms: C_5  and  N_60 
REMARK    7  A    between atoms: C_6  and  O_7 
REMARK    8  A    between atoms: O_7  and  C_8 
REMARK    9  A    between atoms: C_11  and  C_14 
REMARK   10  A    between atoms: C_14  and  C_15 
REMARK   11  A    between atoms: C_14  and  C_23 
REMARK   12  A    between atoms: C_14  and  O_29 
REMARK   13  A    between atoms: C_15  and  C_16 
ROOT
ATOM      1  C   LIG d   1       2.789  -3.203  -9.420  0.00  0.00     0.121 A 
ATOM      2  C   LIG d   1       2.483  -1.854  -9.309  0.00  0.00    -0.020 A 
ATOM      3  C   LIG d   1       3.140  -1.072  -8.379  0.00  0.00    -0.052 A 
ATOM      4  C   LIG d   1       4.101  -1.634  -7.558  0.00  0.00    -0.011 A 
ATOM      5  C   LIG d   1       4.412  -2.976  -7.671  0.00  0.00    -0.052 A 
ATOM      6  C   LIG d   1       3.753  -3.763  -8.596  0.00  0.00    -0.020 A 
ATOM      7  H   LIG d   1       1.732  -1.415  -9.951  0.00  0.00     0.065 H 
ATOM      8  H   LIG d   1       2.902  -0.022  -8.292  0.00  0.00     0.062 H 
ATOM      9  H   LIG d   1       5.166  -3.411  -7.032  0.00  0.00     0.062 H 
ATOM     10  H   LIG d   1       3.993  -4.813  -8.680  0.00  0.00     0.065 H 
ENDROOT
BRANCH   4  11
ATOM     11  C   LIG d   1       4.817  -0.778  -6.544  0.00  0.00     0.120 C 
BRANCH  11  12
ATOM     12  C   LIG d   1       6.313  -1.097  -6.573  0.00  0.00     0.010 C 
ATOM     13  H   LIG d   1       6.519  -1.930  -5.901  0.00  0.00     0.035 H 
ATOM     14  H   LIG d   1       6.607  -1.366  -7.587  0.00  0.00     0.035 H 
BRANCH  12  15
ATOM     15  C   LIG d   1       7.093   0.112  -6.128  0.00  0.00    -0.044 A 
ATOM     16  C   LIG d   1       7.180   0.422  -4.784  0.00  0.00    -0.057 A 
ATOM     17  C   LIG d   1       7.896   1.533  -4.375  0.00  0.00    -0.043 A 
ATOM     18  H   LIG d   1       6.689  -0.202  -4.052  0.00  0.00     0.062 H 
ATOM     19  C   LIG d   1       8.525   2.333  -5.312  0.00  0.00     0.041 A 
ATOM     20  H   LIG d   1       7.965   1.775  -3.325  0.00  0.00     0.063 H 
ATOM     21  C   LIG d   1       8.437   2.022  -6.657  0.00  0.00    -0.043 A 
ATOM     22 CL   LIG d   1       9.423   3.727  -4.799  0.00  0.00    -0.084 Cl
ATOM     23  C   LIG d   1       7.726   0.910  -7.064  0.00  0.00    -0.057 A 
ATOM     24  H   LIG d   1       8.927   2.647  -7.390  0.00  0.00     0.063 H 
ATOM     25  H   LIG d   1       7.661   0.665  -8.114  0.00  0.00     0.062 H 
ENDBRANCH  12  15
ENDBRANCH  11  12
BRANCH  11  26
ATOM     26  C   LIG d   1       4.268  -1.064  -5.170  0.00  0.00    -0.011 A 
ATOM     27  C   LIG d   1       4.720  -2.160  -4.459  0.00  0.00    -0.056 A 
ATOM     28  C   LIG d   1       4.216  -2.422  -3.199  0.00  0.00    -0.061 A 
ATOM     29  H   LIG d   1       5.466  -2.812  -4.889  0.00  0.00     0.062 H 
ATOM     30  C   LIG d   1       3.261  -1.587  -2.649  0.00  0.00    -0.062 A 
ATOM     31  H   LIG d   1       4.569  -3.279  -2.644  0.00  0.00     0.062 H 
ATOM     32  C   LIG d   1       2.810  -0.491  -3.360  0.00  0.00    -0.061 A 
ATOM     33  H   LIG d   1       2.867  -1.793  -1.664  0.00  0.00     0.062 H 
ATOM     34  C   LIG d   1       3.317  -0.227  -4.618  0.00  0.00    -0.056 A 
ATOM     35  H   LIG d   1       2.064   0.161  -2.929  0.00  0.00     0.062 H 
ATOM     36  H   LIG d   1       2.967   0.633  -5.171  0.00  0.00     0.062 H 
ENDBRANCH  11  26
BRANCH  11  37
ATOM     37  O   LIG d   1       4.618   0.601  -6.860  0.00  0.00    -0.379 OA
ATOM     38  H   LIG d   1       5.381   1.024  -7.277  0.00  0.00     0.211 HD
ENDBRANCH  11  37
ENDBRANCH   4  11
BRANCH   1  39
ATOM     39  O   LIG d   1       2.144  -3.974 -10.335  0.00  0.00    -0.487 OA
BRANCH  39  40
ATOM     40  C   LIG d   1       0.756  -3.705 -10.547  0.00  0.00     0.129 C 
ATOM     41  H   LIG d   1       0.297  -3.402  -9.607  0.00  0.00     0.075 H 
ATOM     42  H   LIG d   1       0.649  -2.904 -11.278  0.00  0.00     0.075 H 
BRANCH  40  43
ATOM     43  C   LIG d   1       0.067  -4.967 -11.070  0.00  0.00     0.003 C 
ATOM     44  H   LIG d   1      -0.832  -4.689 -11.621  0.00  0.00     0.085 H 
ATOM     45  H   LIG d   1       0.746  -5.506 -11.730  0.00  0.00     0.085 H 
BRANCH  43  46
ATOM     46  N   LIG d   1      -0.279  -5.829  -9.919  0.00  0.00     0.237 N 
ATOM     47  H   LIG d   1       0.291  -5.551  -9.111  0.00  0.00     0.203 HD
BRANCH  46  48
ATOM     48  C   LIG d   1      -1.708  -5.667  -9.578  0.00  0.00    -0.035 C 
ATOM     49  H   LIG d   1      -1.800  -4.948  -8.762  0.00  0.00     0.081 H 
ATOM     50  H   LIG d   1      -2.269  -5.312 -10.441  0.00  0.00     0.081 H 
BRANCH  48  51
ATOM     51  C   LIG d   1      -2.264  -7.021  -9.129  0.00  0.00    -0.025 C 
ATOM     52  H   LIG d   1      -2.985  -6.868  -8.326  0.00  0.00     0.028 H 
ATOM     53  H   LIG d   1      -2.754  -7.509  -9.970  0.00  0.00     0.028 H 
ATOM     54  H   LIG d   1      -1.447  -7.648  -8.771  0.00  0.00     0.028 H 
ENDBRANCH  48  51
ENDBRANCH  46  48
BRANCH  46  55
ATOM     55  C   LIG d   1       0.006  -7.242 -10.243  0.00  0.00    -0.035 C 
ATOM     56  H   LIG d   1      -0.458  -7.884  -9.494  0.00  0.00     0.081 H 
ATOM     57  H   LIG d   1      -0.384  -7.494 -11.230  0.00  0.00     0.081 H 
BRANCH  55  58
ATOM     58  C   LIG d   1       1.521  -7.454 -10.225  0.00  0.00    -0.025 C 
ATOM     59  H   LIG d   1       2.023  -6.491 -10.320  0.00  0.00     0.028 H 
ATOM     60  H   LIG d   1       1.812  -7.924  -9.286  0.00  0.00     0.028 H 
ATOM     61  H   LIG d   1       1.809  -8.096 -11.057  0.00  0.00     0.028 H 
ENDBRANCH  55  58
ENDBRANCH  46  55
ENDBRANCH  43  46
ENDBRANCH  40  43
ENDBRANCH  39  40
ENDBRANCH   1  39
TORSDOF 13
ENDMDL
MODEL 9
REMARK VINA RESULT:      -5.7      2.251      3.503
REMARK  13 active torsions:
REMARK  status: ('A' for Active; 'I' for Inactive)
REMARK    1  A    between atoms: C_1  and  C_2 
REMARK    2  A    between atoms: C_2  and  N_60 
REMARK    3  A    between atoms: C_3  and  C_4 
REMARK    4  A    between atoms: C_3  and  N_60 
REMARK    5  A    between atoms: C_5  and  C_6 
REMARK    6  A    between atoms: C_5  and  N_60 
REMARK    7  A    between atoms: C_6  and  O_7 
REMARK    8  A    between atoms: O_7  and  C_8 
REMARK    9  A    between atoms: C_11  and  C_14 
REMARK   10  A    between atoms: C_14  and  C_15 
REMARK   11  A    between atoms: C_14  and  C_23 
REMARK   12  A    between atoms: C_14  and  O_29 
REMARK   13  A    between atoms: C_15  and  C_16 
ROOT
ATOM      1  C   LIG d   1       8.797  -4.473  -4.520  0.00  0.00     0.121 A 
ATOM      2  C   LIG d   1       7.611  -5.005  -5.006  0.00  0.00    -0.020 A 
ATOM      3  C   LIG d   1       6.526  -4.179  -5.230  0.00  0.00    -0.052 A 
ATOM      4  C   LIG d   1       6.621  -2.824  -4.969  0.00  0.00    -0.011 A 
ATOM      5  C   LIG d   1       7.804  -2.292  -4.489  0.00  0.00    -0.052 A 
ATOM      6  C   LIG d   1       8.890  -3.114  -4.258  0.00  0.00    -0.020 A 
ATOM      7  H   LIG d   1       7.537  -6.063  -5.211  0.00  0.00     0.065 H 
ATOM      8  H   LIG d   1       5.603  -4.593  -5.609  0.00  0.00     0.062 H 
ATOM      9  H   LIG d   1       7.877  -1.233  -4.291  0.00  0.00     0.062 H 
ATOM     10  H   LIG d   1       9.811  -2.698  -3.879  0.00  0.00     0.065 H 
ENDROOT
BRANCH   4  11
ATOM     11  C   LIG d   1       5.436  -1.926  -5.214  0.00  0.00     0.120 C 
BRANCH  11  12
ATOM     12  C   LIG d   1       5.762  -0.950  -6.346  0.00  0.00     0.010 C 
ATOM     13  H   LIG d   1       5.925   0.045  -5.932  0.00  0.00     0.035 H 
ATOM     14  H   LIG d   1       6.664  -1.281  -6.863  0.00  0.00     0.035 H 
BRANCH  12  15
ATOM     15  C   LIG d   1       4.613  -0.907  -7.319  0.00  0.00    -0.044 A 
ATOM     16  C   LIG d   1       3.545  -0.060  -7.091  0.00  0.00    -0.057 A 
ATOM     17  C   LIG d   1       2.490  -0.021  -7.984  0.00  0.00    -0.043 A 
ATOM     18  H   LIG d   1       3.534   0.571  -6.215  0.00  0.00     0.062 H 
ATOM     19  C   LIG d   1       2.503  -0.830  -9.106  0.00  0.00     0.041 A 
ATOM     20  H   LIG d   1       1.656   0.641  -7.805  0.00  0.00     0.063 H 
ATOM     21  C   LIG d   1       3.573  -1.678  -9.334  0.00  0.00    -0.043 A 
ATOM     22 CL   LIG d   1       1.179  -0.781 -10.227  0.00  0.00    -0.084 Cl
ATOM     23  C   LIG d   1       4.629  -1.712  -8.444  0.00  0.00    -0.057 A 
ATOM     24  H   LIG d   1       3.585  -2.309 -10.210  0.00  0.00     0.063 H 
ATOM     25  H   LIG d   1       5.466  -2.371  -8.624  0.00  0.00     0.062 H 
ENDBRANCH  12  15
ENDBRANCH  11  12
BRANCH  11  26
ATOM     26  C   LIG d   1       5.123  -1.154  -3.958  0.00  0.00    -0.011 A 
ATOM     27  C   LIG d   1       4.558  -1.798  -2.874  0.00  0.00    -0.056 A 
ATOM     28  C   LIG d   1       4.270  -1.089  -1.723  0.00  0.00    -0.061 A 
ATOM     29  H   LIG d   1       4.339  -2.854  -2.927  0.00  0.00     0.062 H 
ATOM     30  C   LIG d   1       4.550   0.263  -1.655  0.00  0.00    -0.062 A 
ATOM     31  H   LIG d   1       3.827  -1.592  -0.876  0.00  0.00     0.062 H 
ATOM     32  C   LIG d   1       5.116   0.907  -2.739  0.00  0.00    -0.061 A 
ATOM     33  H   LIG d   1       4.324   0.817  -0.756  0.00  0.00     0.062 H 
ATOM     34  C   LIG d   1       5.408   0.197  -3.889  0.00  0.00    -0.056 A 
ATOM     35  H   LIG d   1       5.335   1.963  -2.686  0.00  0.00     0.062 H 
ATOM     36  H   LIG d   1       5.855   0.699  -4.735  0.00  0.00     0.062 H 
ENDBRANCH  11  26
BRANCH  11  37
ATOM     37  O   LIG d   1       4.306  -2.719  -5.580  0.00  0.00    -0.379 OA
ATOM     38  H   LIG d   1       3.456  -2.276  -5.453  0.00  0.00     0.211 HD
ENDBRANCH  11  37
ENDBRANCH   4  11
BRANCH   1  39
ATOM     39  O   LIG d   1       9.866  -5.283  -4.299  0.00  0.00    -0.487 OA
BRANCH  39  40
ATOM     40  C   LIG d   1      10.682  -4.985  -3.165  0.00  0.00     0.129 C 
ATOM     41  H   LIG d   1      10.440  -3.989  -2.795  0.00  0.00     0.075 H 
ATOM     42  H   LIG d   1      10.498  -5.719  -2.381  0.00  0.00     0.075 H 
BRANCH  40  43
ATOM     43  C   LIG d   1      12.157  -5.033  -3.572  0.00  0.00     0.003 C 
ATOM     44  H   LIG d   1      12.751  -5.411  -2.739  0.00  0.00     0.085 H 
ATOM     45  H   LIG d   1      12.275  -5.693  -4.431  0.00  0.00     0.085 H 
BRANCH  43  46
ATOM     46  N   LIG d   1      12.592  -3.670  -3.941  0.00  0.00     0.237 N 
ATOM     47  H   LIG d   1      11.880  -2.997  -3.631  0.00  0.00     0.203 HD
BRANCH  46  48
ATOM     48  C   LIG d   1      13.875  -3.352  -3.279  0.00  0.00    -0.035 C 
ATOM     49  H   LIG d   1      13.694  -3.183  -2.216  0.00  0.00     0.081 H 
ATOM     50  H   LIG d   1      14.582  -4.171  -3.402  0.00  0.00     0.081 H 
BRANCH  48  51
ATOM     51  C   LIG d   1      14.452  -2.080  -3.906  0.00  0.00    -0.025 C 
ATOM     52  H   LIG d   1      15.539  -2.153  -3.939  0.00  0.00     0.028 H 
ATOM     53  H   LIG d   1      14.064  -1.966  -4.918  0.00  0.00     0.028 H 
ATOM     54  H   LIG d   1      14.163  -1.216  -3.307  0.00  0.00     0.028 H 
ENDBRANCH  48  51
ENDBRANCH  46  48
BRANCH  46  55
ATOM     55  C   LIG d   1      12.742  -3.567  -5.408  0.00  0.00    -0.035 C 
ATOM     56  H   LIG d   1      11.802  -3.229  -5.842  0.00  0.00     0.081 H 
ATOM     57  H   LIG d   1      13.535  -2.862  -5.661  0.00  0.00     0.081 H 
BRANCH  55  58
ATOM     58  C   LIG d   1      13.092  -4.948  -5.963  0.00  0.00    -0.025 C 
ATOM     59  H   LIG d   1      14.175  -5.070  -5.978  0.00  0.00     0.028 H 
ATOM     60  H   LIG d   1      12.650  -5.718  -5.329  0.00  0.00     0.028 H 
ATOM     61  H   LIG d   1      12.702  -5.044  -6.975  0.00  0.00     0.028 H 
ENDBRANCH  55  58
ENDBRANCH  46  55
ENDBRANCH  43  46
ENDBRANCH  40  43
ENDBRANCH  39  40
ENDBRANCH   1  39
TORSDOF 13
ENDMDL
MODEL 10
REMARK VINA RESULT:      -5.7      4.719      7.074
REMARK  13 active torsions:
REMARK  status: ('A' for Active; 'I' for Inactive)
REMARK    1  A    between atoms: C_1  and  C_2 
REMARK    2  A    between atoms: C_2  and  N_60 
REMARK    3  A    between atoms: C_3  and  C_4 
REMARK    4  A    between atoms: C_3  and  N_60 
REMARK    5  A    between atoms: C_5  and  C_6 
REMARK    6  A    between atoms: C_5  and  N_60 
REMARK    7  A    between atoms: C_6  and  O_7 
REMARK    8  A    between atoms: O_7  and  C_8 
REMARK    9  A    between atoms: C_11  and  C_14 
REMARK   10  A    between atoms: C_14  and  C_15 
REMARK   11  A    between atoms: C_14  and  C_23 
REMARK   12  A    between atoms: C_14  and  O_29 
REMARK   13  A    between atoms: C_15  and  C_16 
ROOT
ATOM      1  C   LIG d   1       8.464   2.332  -5.128  0.00  0.00     0.121 A 
ATOM      2  C   LIG d   1       8.064   1.893  -3.874  0.00  0.00    -0.020 A 
ATOM      3  C   LIG d   1       7.445   0.666  -3.738  0.00  0.00    -0.052 A 
ATOM      4  C   LIG d   1       7.223  -0.125  -4.852  0.00  0.00    -0.011 A 
ATOM      5  C   LIG d   1       7.625   0.308  -6.101  0.00  0.00    -0.052 A 
ATOM      6  C   LIG d   1       8.240   1.538  -6.243  0.00  0.00    -0.020 A 
ATOM      7  H   LIG d   1       8.239   2.510  -3.004  0.00  0.00     0.065 H 
ATOM      8  H   LIG d   1       7.134   0.323  -2.762  0.00  0.00     0.062 H 
ATOM      9  H   LIG d   1       7.455  -0.313  -6.968  0.00  0.00     0.062 H 
ATOM     10  H   LIG d   1       8.549   1.878  -7.220  0.00  0.00     0.065 H 
ENDROOT
BRANCH   4  11
ATOM     11  C   LIG d   1       6.547  -1.464  -4.700  0.00  0.00     0.120 C 
BRANCH  11  12
ATOM     12  C   LIG d   1       6.412  -2.124  -6.073  0.00  0.00     0.010 C 
ATOM     13  H   LIG d   1       5.616  -1.635  -6.635  0.00  0.00     0.035 H 
ATOM     14  H   LIG d   1       7.352  -2.028  -6.617  0.00  0.00     0.035 H 
BRANCH  12  15
ATOM     15  C   LIG d   1       6.080  -3.583  -5.898  0.00  0.00    -0.044 A 
ATOM     16  C   LIG d   1       4.760  -3.990  -5.842  0.00  0.00    -0.057 A 
ATOM     17  C   LIG d   1       4.455  -5.329  -5.681  0.00  0.00    -0.043 A 
ATOM     18  H   LIG d   1       3.967  -3.262  -5.923  0.00  0.00     0.062 H 
ATOM     19  C   LIG d   1       5.471  -6.262  -5.577  0.00  0.00     0.041 A 
ATOM     20  H   LIG d   1       3.424  -5.646  -5.637  0.00  0.00     0.063 H 
ATOM     21  C   LIG d   1       6.792  -5.854  -5.633  0.00  0.00    -0.043 A 
ATOM     22 CL   LIG d   1       5.088  -7.942  -5.374  0.00  0.00    -0.084 Cl
ATOM     23  C   LIG d   1       7.096  -4.517  -5.800  0.00  0.00    -0.057 A 
ATOM     24  H   LIG d   1       7.586  -6.582  -5.552  0.00  0.00     0.063 H 
ATOM     25  H   LIG d   1       8.127  -4.199  -5.848  0.00  0.00     0.062 H 
ENDBRANCH  12  15
ENDBRANCH  11  12
BRANCH  11  26
ATOM     26  C   LIG d   1       5.179  -1.270  -4.098  0.00  0.00    -0.011 A 
ATOM     27  C   LIG d   1       4.862  -1.876  -2.897  0.00  0.00    -0.056 A 
ATOM     28  C   LIG d   1       3.606  -1.700  -2.345  0.00  0.00    -0.061 A 
ATOM     29  H   LIG d   1       5.592  -2.489  -2.391  0.00  0.00     0.062 H 
ATOM     30  C   LIG d   1       2.670  -0.916  -2.993  0.00  0.00    -0.062 A 
ATOM     31  H   LIG d   1       3.358  -2.174  -1.407  0.00  0.00     0.062 H 
ATOM     32  C   LIG d   1       2.989  -0.309  -4.194  0.00  0.00    -0.061 A 
ATOM     33  H   LIG d   1       1.690  -0.779  -2.562  0.00  0.00     0.062 H 
ATOM     34  C   LIG d   1       4.245  -0.483  -4.743  0.00  0.00    -0.056 A 
ATOM     35  H   LIG d   1       2.258   0.303  -4.700  0.00  0.00     0.062 H 
ATOM     36  H   LIG d   1       4.496  -0.005  -5.680  0.00  0.00     0.062 H 
ENDBRANCH  11  26
BRANCH  11  37
ATOM     37  O   LIG d   1       7.331  -2.298  -3.846  0.00  0.00    -0.379 OA
ATOM     38  H   LIG d   1       7.537  -1.902  -2.989  0.00  0.00     0.211 HD
ENDBRANCH  11  37
ENDBRANCH   4  11
BRANCH   1  39
ATOM     39  O   LIG d   1       9.074   3.539  -5.264  0.00  0.00    -0.487 OA
BRANCH  39  40
ATOM     40  C   LIG d   1      10.242   3.768  -4.472  0.00  0.00     0.129 C 
ATOM     41  H   LIG d   1      10.293   4.822  -4.197  0.00  0.00     0.075 H 
ATOM     42  H   LIG d   1      10.195   3.159  -3.570  0.00  0.00     0.075 H 
BRANCH  40  43
ATOM     43  C   LIG d   1      11.486   3.390  -5.278  0.00  0.00     0.003 C 
ATOM     44  H   LIG d   1      11.202   2.722  -6.092  0.00  0.00     0.085 H 
ATOM     45  H   LIG d   1      11.941   4.291  -5.689  0.00  0.00     0.085 H 
BRANCH  43  46
ATOM     46  N   LIG d   1      12.451   2.725  -4.377  0.00  0.00     0.237 N 
ATOM     47  H   LIG d   1      12.772   3.401  -3.674  0.00  0.00     0.203 HD
BRANCH  46  48
ATOM     48  C   LIG d   1      11.800   1.590  -3.688  0.00  0.00    -0.035 C 
ATOM     49  H   LIG d   1      12.415   1.288  -2.839  0.00  0.00     0.081 H 
ATOM     50  H   LIG d   1      10.809   1.874  -3.336  0.00  0.00     0.081 H 
BRANCH  48  51
ATOM     51  C   LIG d   1      11.677   0.422  -4.670  0.00  0.00    -0.025 C 
ATOM     52  H   LIG d   1      11.249   0.779  -5.606  0.00  0.00     0.028 H 
ATOM     53  H   LIG d   1      12.664   0.000  -4.857  0.00  0.00     0.028 H 
ATOM     54  H   LIG d   1      11.030  -0.345  -4.243  0.00  0.00     0.028 H 
ENDBRANCH  48  51
ENDBRANCH  46  48
BRANCH  46  55
ATOM     55  C   LIG d   1      13.616   2.245  -5.149  0.00  0.00    -0.035 C 
ATOM     56  H   LIG d   1      13.534   1.168  -5.291  0.00  0.00     0.081 H 
ATOM     57  H   LIG d   1      13.659   2.738  -6.120  0.00  0.00     0.081 H 
BRANCH  55  58
ATOM     58  C   LIG d   1      14.889   2.560  -4.361  0.00  0.00    -0.025 C 
ATOM     59  H   LIG d   1      15.699   2.785  -5.055  0.00  0.00     0.028 H 
ATOM     60  H   LIG d   1      14.714   3.421  -3.716  0.00  0.00     0.028 H 
ATOM     61  H   LIG d   1      15.162   1.699  -3.751  0.00  0.00     0.028 H 
ENDBRANCH  55  58
ENDBRANCH  46  55
ENDBRANCH  43  46
ENDBRANCH  40  43
ENDBRANCH  39  40
ENDBRANCH   1  39
TORSDOF 13
ENDMDL
