MODEL 1
REMARK VINA RESULT:      -6.2      0.000      0.000
REMARK  15 active torsions:
REMARK  status: ('A' for Active; 'I' for Inactive)
REMARK    1  A    between atoms: C_1  and  C_2 
REMARK    2  A    between atoms: C_3  and  O_19 
REMARK    3  A    between atoms: C_15  and  O_17 
REMARK    4  A    between atoms: O_17  and  C_18 
REMARK    5  A    between atoms: O_19  and  C_20 
REMARK    6  A    between atoms: C_20  and  C_22 
REMARK    7  A    between atoms: C_22  and  C_24 
REMARK    8  A    between atoms: C_22  and  N_28 
REMARK    9  A    between atoms: C_24  and  C_26 
REMARK   10  A    between atoms: C_24  and  C_27 
REMARK       I    between atoms: N_28  and  C_29 
REMARK   11  A    between atoms: C_29  and  O_31 
REMARK   12  A    between atoms: O_31  and  C_32 
REMARK   13  A    between atoms: C_32  and  C_33 
REMARK   14  A    between atoms: C_32  and  C_34 
REMARK   15  A    between atoms: C_32  and  C_35 
ROOT
ATOM      1  C   LIG d   1       4.893  -2.207  -4.439  0.00  0.00     0.333 C 
ATOM      2  O   LIG d   1       4.296  -3.254  -4.529  0.00  0.00    -0.248 OA
ENDROOT
BRANCH   1   3
ATOM      3  O   LIG d   1       6.235  -2.201  -4.396  0.00  0.00    -0.424 OA
BRANCH   3   4
ATOM      4  C   LIG d   1       6.855  -1.015  -4.628  0.00  0.00     0.138 A 
ATOM      5  C   LIG d   1       7.301  -0.710  -5.903  0.00  0.00     0.035 A 
ATOM      6  C   LIG d   1       7.936   0.501  -6.148  0.00  0.00     0.146 A 
ATOM      7  C   LIG d   1       8.118   1.406  -5.092  0.00  0.00     0.026 A 
ATOM      8  O   LIG d   1       8.369   0.788  -7.396  0.00  0.00    -0.421 OA
ATOM      9  C   LIG d   1       7.665   1.089  -3.812  0.00  0.00    -0.047 A 
ATOM     10  C   LIG d   1       8.793   2.691  -5.355  0.00  0.00    -0.000 A 
ATOM     11  C   LIG d   1       7.037  -0.115  -3.583  0.00  0.00    -0.018 A 
ATOM     12  H   LIG d   1       7.806   1.788  -3.001  0.00  0.00     0.063 H 
ATOM     13  H   LIG d   1       6.685  -0.361  -2.593  0.00  0.00     0.066 H 
ATOM     14  C   LIG d   1       9.230   2.954  -6.672  0.00  0.00     0.071 A 
ATOM     15  C   LIG d   1       9.003   3.630  -4.353  0.00  0.00    -0.050 A 
ATOM     16  C   LIG d   1       8.990   1.937  -7.706  0.00  0.00     0.345 A 
ATOM     17  C   LIG d   1       9.866   4.158  -6.960  0.00  0.00    -0.005 A 
ATOM     18  O   LIG d   1       9.356   2.138  -8.848  0.00  0.00    -0.244 OA
ATOM     19  C   LIG d   1      10.072   5.080  -5.948  0.00  0.00     0.121 A 
ATOM     20  H   LIG d   1      10.200   4.370  -7.965  0.00  0.00     0.066 H 
ATOM     21  C   LIG d   1       9.639   4.817  -4.652  0.00  0.00    -0.019 A 
ATOM     22  H   LIG d   1       9.803   5.548  -3.875  0.00  0.00     0.065 H 
ATOM     23  H   LIG d   1       8.670   3.432  -3.346  0.00  0.00     0.062 H 
BRANCH   5  24
ATOM     24  C   LIG d   1       7.098  -1.694  -7.026  0.00  0.00    -0.033 C 
ATOM     25  H   LIG d   1       8.059  -1.926  -7.484  0.00  0.00     0.028 H 
ATOM     26  H   LIG d   1       6.652  -2.607  -6.632  0.00  0.00     0.028 H 
ATOM     27  H   LIG d   1       6.436  -1.259  -7.774  0.00  0.00     0.028 H 
ENDBRANCH   5  24
BRANCH  19  28
ATOM     28  O   LIG d   1      10.698   6.256  -6.225  0.00  0.00    -0.495 OA
BRANCH  28  29
ATOM     29  C   LIG d   1       9.943   7.453  -6.027  0.00  0.00     0.079 C 
ATOM     30  H   LIG d   1       8.881   7.211  -5.984  0.00  0.00     0.066 H 
ATOM     31  H   LIG d   1      10.126   8.138  -6.854  0.00  0.00     0.066 H 
ATOM     32  H   LIG d   1      10.246   7.922  -5.091  0.00  0.00     0.066 H 
ENDBRANCH  28  29
ENDBRANCH  19  28
ENDBRANCH   3   4
ENDBRANCH   1   3
BRANCH   1  33
ATOM     33  C   LIG d   1       4.131  -0.908  -4.373  0.00  0.00     0.126 C 
ATOM     34  H   LIG d   1       4.825  -0.074  -4.476  0.00  0.00     0.062 H 
BRANCH  33  35
ATOM     35  C   LIG d   1       3.410  -0.808  -3.027  0.00  0.00    -0.018 C 
ATOM     36  H   LIG d   1       2.455  -1.329  -3.086  0.00  0.00     0.032 H 
BRANCH  35  37
ATOM     37  C   LIG d   1       4.272  -1.448  -1.937  0.00  0.00    -0.060 C 
ATOM     38  H   LIG d   1       3.982  -2.491  -1.811  0.00  0.00     0.023 H 
ATOM     39  H   LIG d   1       5.322  -1.396  -2.226  0.00  0.00     0.023 H 
ATOM     40  H   LIG d   1       4.127  -0.915  -0.998  0.00  0.00     0.023 H 
ENDBRANCH  35  37
BRANCH  35  41
ATOM     41  C   LIG d   1       3.168   0.664  -2.687  0.00  0.00    -0.060 C 
ATOM     42  H   LIG d   1       3.734   0.929  -1.794  0.00  0.00     0.023 H 
ATOM     43  H   LIG d   1       3.490   1.287  -3.521  0.00  0.00     0.023 H 
ATOM     44  H   LIG d   1       2.105   0.824  -2.504  0.00  0.00     0.023 H 
ENDBRANCH  35  41
ENDBRANCH  33  35
BRANCH  33  45
ATOM     45  N   LIG d   1       3.148  -0.863  -5.458  0.00  0.00    -0.268 N 
ATOM     46  C   LIG d   1       3.365  -0.079  -6.532  0.00  0.00     0.401 C 
ATOM     47  O   LIG d   1       4.376   0.591  -6.601  0.00  0.00    -0.226 OA
ATOM     48  H   LIG d   1       2.340  -1.398  -5.403  0.00  0.00     0.153 HD
BRANCH  46  49
ATOM     49  O   LIG d   1       2.462  -0.038  -7.530  0.00  0.00    -0.445 OA
BRANCH  49  50
ATOM     50  C   LIG d   1       2.855  -0.621  -8.800  0.00  0.00     0.107 C 
BRANCH  50  51
ATOM     51  C   LIG d   1       3.543  -1.965  -8.553  0.00  0.00    -0.025 C 
ATOM     52  H   LIG d   1       2.789  -2.740  -8.421  0.00  0.00     0.027 H 
ATOM     53  H   LIG d   1       4.173  -2.213  -9.407  0.00  0.00     0.027 H 
ATOM     54  H   LIG d   1       4.157  -1.899  -7.655  0.00  0.00     0.027 H 
ENDBRANCH  50  51
BRANCH  50  55
ATOM     55  C   LIG d   1       1.614  -0.835  -9.669  0.00  0.00    -0.025 C 
ATOM     56  H   LIG d   1       1.739  -1.741 -10.263  0.00  0.00     0.027 H 
ATOM     57  H   LIG d   1       0.738  -0.937  -9.030  0.00  0.00     0.027 H 
ATOM     58  H   LIG d   1       1.483   0.019 -10.333  0.00  0.00     0.027 H 
ENDBRANCH  50  55
BRANCH  50  59
ATOM     59  C   LIG d   1       3.823   0.323  -9.517  0.00  0.00    -0.025 C 
ATOM     60  H   LIG d   1       4.849   0.040  -9.280  0.00  0.00     0.027 H 
ATOM     61  H   LIG d   1       3.666   0.256 -10.593  0.00  0.00     0.027 H 
ATOM     62  H   LIG d   1       3.644   1.346  -9.186  0.00  0.00     0.027 H 
ENDBRANCH  50  59
ENDBRANCH  49  50
ENDBRANCH  46  49
ENDBRANCH  33  45
ENDBRANCH   1  33
TORSDOF 15
ENDMDL
MODEL 2
REMARK VINA RESULT:      -6.1      2.978      8.576
REMARK  15 active torsions:
REMARK  status: ('A' for Active; 'I' for Inactive)
REMARK    1  A    between atoms: C_1  and  C_2 
REMARK    2  A    between atoms: C_3  and  O_19 
REMARK    3  A    between atoms: C_15  and  O_17 
REMARK    4  A    between atoms: O_17  and  C_18 
REMARK    5  A    between atoms: O_19  and  C_20 
REMARK    6  A    between atoms: C_20  and  C_22 
REMARK    7  A    between atoms: C_22  and  C_24 
REMARK    8  A    between atoms: C_22  and  N_28 
REMARK    9  A    between atoms: C_24  and  C_26 
REMARK   10  A    between atoms: C_24  and  C_27 
REMARK       I    between atoms: N_28  and  C_29 
REMARK   11  A    between atoms: C_29  and  O_31 
REMARK   12  A    between atoms: O_31  and  C_32 
REMARK   13  A    between atoms: C_32  and  C_33 
REMARK   14  A    between atoms: C_32  and  C_34 
REMARK   15  A    between atoms: C_32  and  C_35 
ROOT
ATOM      1  C   LIG d   1       3.939   0.176  -5.038  0.00  0.00     0.333 C 
ATOM      2  O   LIG d   1       2.751   0.284  -4.844  0.00  0.00    -0.248 OA
ENDROOT
BRANCH   1   3
ATOM      3  O   LIG d   1       4.427   0.274  -6.285  0.00  0.00    -0.424 OA
BRANCH   3   4
ATOM      4  C   LIG d   1       3.969  -0.621  -7.200  0.00  0.00     0.138 A 
ATOM      5  C   LIG d   1       3.143  -0.195  -8.225  0.00  0.00     0.035 A 
ATOM      6  C   LIG d   1       2.670  -1.103  -9.163  0.00  0.00     0.146 A 
ATOM      7  C   LIG d   1       3.041  -2.452  -9.058  0.00  0.00     0.026 A 
ATOM      8  O   LIG d   1       1.863  -0.676 -10.160  0.00  0.00    -0.421 OA
ATOM      9  C   LIG d   1       3.873  -2.872  -8.021  0.00  0.00    -0.047 A 
ATOM     10  C   LIG d   1       2.537  -3.415 -10.056  0.00  0.00    -0.000 A 
ATOM     11  C   LIG d   1       4.334  -1.959  -7.098  0.00  0.00    -0.018 A 
ATOM     12  H   LIG d   1       4.157  -3.911  -7.943  0.00  0.00     0.063 H 
ATOM     13  H   LIG d   1       4.979  -2.283  -6.295  0.00  0.00     0.066 H 
ATOM     14  C   LIG d   1       1.697  -2.930 -11.081  0.00  0.00     0.071 A 
ATOM     15  C   LIG d   1       2.867  -4.764 -10.008  0.00  0.00    -0.050 A 
ATOM     16  C   LIG d   1       1.369  -1.497 -11.100  0.00  0.00     0.345 A 
ATOM     17  C   LIG d   1       1.206  -3.808 -12.045  0.00  0.00    -0.005 A 
ATOM     18  O   LIG d   1       0.648  -1.053 -11.973  0.00  0.00    -0.244 OA
ATOM     19  C   LIG d   1       1.541  -5.150 -11.978  0.00  0.00     0.121 A 
ATOM     20  H   LIG d   1       0.567  -3.445 -12.836  0.00  0.00     0.066 H 
ATOM     21  C   LIG d   1       2.370  -5.623 -10.966  0.00  0.00    -0.019 A 
ATOM     22  H   LIG d   1       2.626  -6.671 -10.930  0.00  0.00     0.065 H 
ATOM     23  H   LIG d   1       3.510  -5.138  -9.225  0.00  0.00     0.062 H 
BRANCH   5  24
ATOM     24  C   LIG d   1       2.754   1.258  -8.323  0.00  0.00    -0.033 C 
ATOM     25  H   LIG d   1       2.654   1.675  -7.321  0.00  0.00     0.028 H 
ATOM     26  H   LIG d   1       3.524   1.804  -8.869  0.00  0.00     0.028 H 
ATOM     27  H   LIG d   1       1.804   1.345  -8.849  0.00  0.00     0.028 H 
ENDBRANCH   5  24
BRANCH  19  28
ATOM     28  O   LIG d   1       1.060  -6.011 -12.914  0.00  0.00    -0.495 OA
BRANCH  28  29
ATOM     29  C   LIG d   1      -0.225  -6.584 -12.668  0.00  0.00     0.079 C 
ATOM     30  H   LIG d   1      -0.293  -6.889 -11.623  0.00  0.00     0.066 H 
ATOM     31  H   LIG d   1      -0.364  -7.454 -13.310  0.00  0.00     0.066 H 
ATOM     32  H   LIG d   1      -0.998  -5.847 -12.882  0.00  0.00     0.066 H 
ENDBRANCH  28  29
ENDBRANCH  19  28
ENDBRANCH   3   4
ENDBRANCH   1   3
BRANCH   1  33
ATOM     33  C   LIG d   1       4.872  -0.071  -3.881  0.00  0.00     0.126 C 
ATOM     34  H   LIG d   1       5.446  -0.979  -4.064  0.00  0.00     0.062 H 
BRANCH  33  35
ATOM     35  C   LIG d   1       4.058  -0.233  -2.595  0.00  0.00    -0.018 C 
ATOM     36  H   LIG d   1       2.995  -0.183  -2.829  0.00  0.00     0.032 H 
BRANCH  35  37
ATOM     37  C   LIG d   1       4.375  -1.588  -1.958  0.00  0.00    -0.060 C 
ATOM     38  H   LIG d   1       4.776  -2.261  -2.716  0.00  0.00     0.023 H 
ATOM     39  H   LIG d   1       5.112  -1.454  -1.166  0.00  0.00     0.023 H 
ATOM     40  H   LIG d   1       3.464  -2.015  -1.539  0.00  0.00     0.023 H 
ENDBRANCH  35  37
BRANCH  35  41
ATOM     41  C   LIG d   1       4.420   0.887  -1.619  0.00  0.00    -0.060 C 
ATOM     42  H   LIG d   1       3.797   0.810  -0.728  0.00  0.00     0.023 H 
ATOM     43  H   LIG d   1       5.469   0.799  -1.337  0.00  0.00     0.023 H 
ATOM     44  H   LIG d   1       4.253   1.853  -2.096  0.00  0.00     0.023 H 
ENDBRANCH  35  41
ENDBRANCH  33  35
BRANCH  33  45
ATOM     45  N   LIG d   1       5.787   1.064  -3.740  0.00  0.00    -0.268 N 
ATOM     46  C   LIG d   1       7.116   0.855  -3.673  0.00  0.00     0.401 C 
ATOM     47  O   LIG d   1       7.557  -0.276  -3.729  0.00  0.00    -0.226 OA
ATOM     48  H   LIG d   1       5.435   1.968  -3.695  0.00  0.00     0.153 HD
BRANCH  46  49
ATOM     49  O   LIG d   1       7.957   1.900  -3.544  0.00  0.00    -0.445 OA
BRANCH  49  50
ATOM     50  C   LIG d   1       8.807   2.206  -4.681  0.00  0.00     0.107 C 
BRANCH  50  51
ATOM     51  C   LIG d   1      10.149   1.488  -4.522  0.00  0.00    -0.025 C 
ATOM     52  H   LIG d   1      10.063   0.470  -4.901  0.00  0.00     0.027 H 
ATOM     53  H   LIG d   1      10.915   2.022  -5.085  0.00  0.00     0.027 H 
ATOM     54  H   LIG d   1      10.424   1.462  -3.468  0.00  0.00     0.027 H 
ENDBRANCH  50  51
BRANCH  50  55
ATOM     55  C   LIG d   1       8.126   1.736  -5.968  0.00  0.00    -0.025 C 
ATOM     56  H   LIG d   1       8.877   1.599  -6.747  0.00  0.00     0.027 H 
ATOM     57  H   LIG d   1       7.616   0.791  -5.784  0.00  0.00     0.027 H 
ATOM     58  H   LIG d   1       7.401   2.483  -6.290  0.00  0.00     0.027 H 
ENDBRANCH  50  55
BRANCH  50  59
ATOM     59  C   LIG d   1       9.042   3.716  -4.751  0.00  0.00    -0.025 C 
ATOM     60  H   LIG d   1       9.922   3.920  -5.360  0.00  0.00     0.027 H 
ATOM     61  H   LIG d   1       8.172   4.199  -5.194  0.00  0.00     0.027 H 
ATOM     62  H   LIG d   1       9.200   4.105  -3.744  0.00  0.00     0.027 H 
ENDBRANCH  50  59
ENDBRANCH  49  50
ENDBRANCH  46  49
ENDBRANCH  33  45
ENDBRANCH   1  33
TORSDOF 15
ENDMDL
MODEL 3
REMARK VINA RESULT:      -6.1      2.857      8.422
REMARK  15 active torsions:
REMARK  status: ('A' for Active; 'I' for Inactive)
REMARK    1  A    between atoms: C_1  and  C_2 
REMARK    2  A    between atoms: C_3  and  O_19 
REMARK    3  A    between atoms: C_15  and  O_17 
REMARK    4  A    between atoms: O_17  and  C_18 
REMARK    5  A    between atoms: O_19  and  C_20 
REMARK    6  A    between atoms: C_20  and  C_22 
REMARK    7  A    between atoms: C_22  and  C_24 
REMARK    8  A    between atoms: C_22  and  N_28 
REMARK    9  A    between atoms: C_24  and  C_26 
REMARK   10  A    between atoms: C_24  and  C_27 
REMARK       I    between atoms: N_28  and  C_29 
REMARK   11  A    between atoms: C_29  and  O_31 
REMARK   12  A    between atoms: O_31  and  C_32 
REMARK   13  A    between atoms: C_32  and  C_33 
REMARK   14  A    between atoms: C_32  and  C_34 
REMARK   15  A    between atoms: C_32  and  C_35 
ROOT
ATOM      1  C   LIG d   1       4.026   0.150  -5.098  0.00  0.00     0.333 C 
ATOM      2  O   LIG d   1       2.827   0.226  -4.969  0.00  0.00    -0.248 OA
ENDROOT
BRANCH   1   3
ATOM      3  O   LIG d   1       4.579   0.271  -6.315  0.00  0.00    -0.424 OA
BRANCH   3   4
ATOM      4  C   LIG d   1       3.885  -0.245  -7.363  0.00  0.00     0.138 A 
ATOM      5  C   LIG d   1       3.949  -1.602  -7.629  0.00  0.00     0.035 A 
ATOM      6  C   LIG d   1       3.243  -2.136  -8.699  0.00  0.00     0.146 A 
ATOM      7  C   LIG d   1       2.467  -1.287  -9.502  0.00  0.00     0.026 A 
ATOM      8  O   LIG d   1       3.313  -3.463  -8.950  0.00  0.00    -0.421 OA
ATOM      9  C   LIG d   1       2.410   0.078  -9.225  0.00  0.00    -0.047 A 
ATOM     10  C   LIG d   1       1.718  -1.857 -10.637  0.00  0.00    -0.000 A 
ATOM     11  C   LIG d   1       3.115   0.595  -8.161  0.00  0.00    -0.018 A 
ATOM     12  H   LIG d   1       1.811   0.730  -9.844  0.00  0.00     0.063 H 
ATOM     13  H   LIG d   1       3.071   1.652  -7.945  0.00  0.00     0.066 H 
ATOM     14  C   LIG d   1       1.817  -3.247 -10.867  0.00  0.00     0.071 A 
ATOM     15  C   LIG d   1       0.932  -1.070 -11.469  0.00  0.00    -0.050 A 
ATOM     16  C   LIG d   1       2.659  -4.048  -9.966  0.00  0.00     0.345 A 
ATOM     17  C   LIG d   1       1.121  -3.823 -11.926  0.00  0.00    -0.005 A 
ATOM     18  O   LIG d   1       2.761  -5.247 -10.141  0.00  0.00    -0.244 OA
ATOM     19  C   LIG d   1       0.346  -3.022 -12.748  0.00  0.00     0.121 A 
ATOM     20  H   LIG d   1       1.187  -4.885 -12.106  0.00  0.00     0.066 H 
ATOM     21  C   LIG d   1       0.251  -1.653 -12.518  0.00  0.00    -0.019 A 
ATOM     22  H   LIG d   1      -0.361  -1.043 -13.165  0.00  0.00     0.065 H 
ATOM     23  H   LIG d   1       0.854  -0.008 -11.296  0.00  0.00     0.062 H 
BRANCH   5  24
ATOM     24  C   LIG d   1       4.788  -2.500  -6.757  0.00  0.00    -0.033 C 
ATOM     25  H   LIG d   1       4.197  -2.833  -5.904  0.00  0.00     0.028 H 
ATOM     26  H   LIG d   1       5.114  -3.366  -7.334  0.00  0.00     0.028 H 
ATOM     27  H   LIG d   1       5.660  -1.951  -6.402  0.00  0.00     0.028 H 
ENDBRANCH   5  24
BRANCH  19  28
ATOM     28  O   LIG d   1      -0.332  -3.580 -13.787  0.00  0.00    -0.495 OA
BRANCH  28  29
ATOM     29  C   LIG d   1      -0.988  -2.686 -14.687  0.00  0.00     0.079 C 
ATOM     30  H   LIG d   1      -0.777  -2.984 -15.714  0.00  0.00     0.066 H 
ATOM     31  H   LIG d   1      -0.625  -1.671 -14.521  0.00  0.00     0.066 H 
ATOM     32  H   LIG d   1      -2.063  -2.720 -14.513  0.00  0.00     0.066 H 
ENDBRANCH  28  29
ENDBRANCH  19  28
ENDBRANCH   3   4
ENDBRANCH   1   3
BRANCH   1  33
ATOM     33  C   LIG d   1       4.900  -0.083  -3.892  0.00  0.00     0.126 C 
ATOM     34  H   LIG d   1       5.479  -0.995  -4.033  0.00  0.00     0.062 H 
BRANCH  33  35
ATOM     35  C   LIG d   1       4.023  -0.223  -2.645  0.00  0.00    -0.018 C 
ATOM     36  H   LIG d   1       2.973  -0.179  -2.933  0.00  0.00     0.032 H 
BRANCH  35  37
ATOM     37  C   LIG d   1       4.310  -1.565  -1.969  0.00  0.00    -0.060 C 
ATOM     38  H   LIG d   1       3.640  -2.325  -2.372  0.00  0.00     0.023 H 
ATOM     39  H   LIG d   1       5.344  -1.855  -2.158  0.00  0.00     0.023 H 
ATOM     40  H   LIG d   1       4.148  -1.472  -0.895  0.00  0.00     0.023 H 
ENDBRANCH  35  37
BRANCH  35  41
ATOM     41  C   LIG d   1       4.335   0.916  -1.673  0.00  0.00    -0.060 C 
ATOM     42  H   LIG d   1       5.019   0.560  -0.903  0.00  0.00     0.023 H 
ATOM     43  H   LIG d   1       4.795   1.741  -2.215  0.00  0.00     0.023 H 
ATOM     44  H   LIG d   1       3.411   1.259  -1.207  0.00  0.00     0.023 H 
ENDBRANCH  35  41
ENDBRANCH  33  35
BRANCH  33  45
ATOM     45  N   LIG d   1       5.811   1.052  -3.723  0.00  0.00    -0.268 N 
ATOM     46  C   LIG d   1       7.143   0.849  -3.695  0.00  0.00     0.401 C 
ATOM     47  O   LIG d   1       7.589  -0.276  -3.810  0.00  0.00    -0.226 OA
ATOM     48  H   LIG d   1       5.455   1.950  -3.631  0.00  0.00     0.153 HD
BRANCH  46  49
ATOM     49  O   LIG d   1       7.980   1.892  -3.540  0.00  0.00    -0.445 OA
BRANCH  49  50
ATOM     50  C   LIG d   1       8.834   2.225  -4.667  0.00  0.00     0.107 C 
BRANCH  50  51
ATOM     51  C   LIG d   1      10.190   1.535  -4.500  0.00  0.00    -0.025 C 
ATOM     52  H   LIG d   1      10.947   2.277  -4.247  0.00  0.00     0.027 H 
ATOM     53  H   LIG d   1      10.125   0.795  -3.702  0.00  0.00     0.027 H 
ATOM     54  H   LIG d   1      10.462   1.040  -5.433  0.00  0.00     0.027 H 
ENDBRANCH  50  51
BRANCH  50  55
ATOM     55  C   LIG d   1       8.176   1.750  -5.963  0.00  0.00    -0.025 C 
ATOM     56  H   LIG d   1       7.455   0.964  -5.738  0.00  0.00     0.027 H 
ATOM     57  H   LIG d   1       7.664   2.587  -6.438  0.00  0.00     0.027 H 
ATOM     58  H   LIG d   1       8.939   1.361  -6.638  0.00  0.00     0.027 H 
ENDBRANCH  50  55
BRANCH  50  59
ATOM     59  C   LIG d   1       9.038   3.740  -4.723  0.00  0.00    -0.025 C 
ATOM     60  H   LIG d   1       8.178   4.240  -4.278  0.00  0.00     0.027 H 
ATOM     61  H   LIG d   1       9.940   4.006  -4.172  0.00  0.00     0.027 H 
ATOM     62  H   LIG d   1       9.142   4.054  -5.762  0.00  0.00     0.027 H 
ENDBRANCH  50  59
ENDBRANCH  49  50
ENDBRANCH  46  49
ENDBRANCH  33  45
ENDBRANCH   1  33
TORSDOF 15
ENDMDL
MODEL 4
REMARK VINA RESULT:      -6.1      4.271      8.431
REMARK  15 active torsions:
REMARK  status: ('A' for Active; 'I' for Inactive)
REMARK    1  A    between atoms: C_1  and  C_2 
REMARK    2  A    between atoms: C_3  and  O_19 
REMARK    3  A    between atoms: C_15  and  O_17 
REMARK    4  A    between atoms: O_17  and  C_18 
REMARK    5  A    between atoms: O_19  and  C_20 
REMARK    6  A    between atoms: C_20  and  C_22 
REMARK    7  A    between atoms: C_22  and  C_24 
REMARK    8  A    between atoms: C_22  and  N_28 
REMARK    9  A    between atoms: C_24  and  C_26 
REMARK   10  A    between atoms: C_24  and  C_27 
REMARK       I    between atoms: N_28  and  C_29 
REMARK   11  A    between atoms: C_29  and  O_31 
REMARK   12  A    between atoms: O_31  and  C_32 
REMARK   13  A    between atoms: C_32  and  C_33 
REMARK   14  A    between atoms: C_32  and  C_34 
REMARK   15  A    between atoms: C_32  and  C_35 
ROOT
ATOM      1  C   LIG d   1       4.849  -0.982  -8.283  0.00  0.00     0.333 C 
ATOM      2  O   LIG d   1       5.501   0.000  -8.550  0.00  0.00    -0.248 OA
ENDROOT
BRANCH   1   3
ATOM      3  O   LIG d   1       5.129  -2.154  -8.874  0.00  0.00    -0.424 OA
BRANCH   3   4
ATOM      4  C   LIG d   1       5.594  -3.152  -8.077  0.00  0.00     0.138 A 
ATOM      5  C   LIG d   1       4.834  -4.293  -7.888  0.00  0.00     0.035 A 
ATOM      6  C   LIG d   1       5.302  -5.316  -7.075  0.00  0.00     0.146 A 
ATOM      7  C   LIG d   1       6.551  -5.178  -6.450  0.00  0.00     0.026 A 
ATOM      8  O   LIG d   1       4.551  -6.426  -6.898  0.00  0.00    -0.421 OA
ATOM      9  C   LIG d   1       7.309  -4.025  -6.646  0.00  0.00    -0.047 A 
ATOM     10  C   LIG d   1       7.045  -6.267  -5.586  0.00  0.00    -0.000 A 
ATOM     11  C   LIG d   1       6.832  -3.018  -7.455  0.00  0.00    -0.018 A 
ATOM     12  H   LIG d   1       8.270  -3.922  -6.164  0.00  0.00     0.063 H 
ATOM     13  H   LIG d   1       7.418  -2.125  -7.608  0.00  0.00     0.066 H 
ATOM     14  C   LIG d   1       6.232  -7.410  -5.426  0.00  0.00     0.071 A 
ATOM     15  C   LIG d   1       8.273  -6.193  -4.939  0.00  0.00    -0.050 A 
ATOM     16  C   LIG d   1       4.939  -7.454  -6.126  0.00  0.00     0.345 A 
ATOM     17  C   LIG d   1       6.667  -8.460  -4.623  0.00  0.00    -0.005 A 
ATOM     18  O   LIG d   1       4.219  -8.426  -6.005  0.00  0.00    -0.244 OA
ATOM     19  C   LIG d   1       7.891  -8.367  -3.981  0.00  0.00     0.121 A 
ATOM     20  H   LIG d   1       6.053  -9.340  -4.498  0.00  0.00     0.066 H 
ATOM     21  C   LIG d   1       8.689  -7.239  -4.143  0.00  0.00    -0.019 A 
ATOM     22  H   LIG d   1       9.643  -7.182  -3.640  0.00  0.00     0.065 H 
ATOM     23  H   LIG d   1       8.897  -5.321  -5.060  0.00  0.00     0.062 H 
BRANCH   5  24
ATOM     24  C   LIG d   1       3.495  -4.424  -8.567  0.00  0.00    -0.033 C 
ATOM     25  H   LIG d   1       3.024  -5.359  -8.264  0.00  0.00     0.028 H 
ATOM     26  H   LIG d   1       2.859  -3.587  -8.281  0.00  0.00     0.028 H 
ATOM     27  H   LIG d   1       3.634  -4.423  -9.648  0.00  0.00     0.028 H 
ENDBRANCH   5  24
BRANCH  19  28
ATOM     28  O   LIG d   1       8.318  -9.388  -3.192  0.00  0.00    -0.495 OA
BRANCH  28  29
ATOM     29  C   LIG d   1       7.440  -9.811  -2.147  0.00  0.00     0.079 C 
ATOM     30  H   LIG d   1       7.030  -8.936  -1.641  0.00  0.00     0.066 H 
ATOM     31  H   LIG d   1       7.994 -10.418  -1.431  0.00  0.00     0.066 H 
ATOM     32  H   LIG d   1       6.627 -10.399  -2.572  0.00  0.00     0.066 H 
ENDBRANCH  28  29
ENDBRANCH  19  28
ENDBRANCH   3   4
ENDBRANCH   1   3
BRANCH   1  33
ATOM     33  C   LIG d   1       3.720  -0.890  -7.289  0.00  0.00     0.126 C 
ATOM     34  H   LIG d   1       3.393  -1.893  -7.017  0.00  0.00     0.062 H 
BRANCH  33  35
ATOM     35  C   LIG d   1       2.551  -0.125  -7.913  0.00  0.00    -0.018 C 
ATOM     36  H   LIG d   1       1.687  -0.177  -7.251  0.00  0.00     0.032 H 
BRANCH  35  37
ATOM     37  C   LIG d   1       2.950   1.339  -8.115  0.00  0.00    -0.060 C 
ATOM     38  H   LIG d   1       3.953   1.499  -7.721  0.00  0.00     0.023 H 
ATOM     39  H   LIG d   1       2.935   1.577  -9.179  0.00  0.00     0.023 H 
ATOM     40  H   LIG d   1       2.246   1.983  -7.588  0.00  0.00     0.023 H 
ENDBRANCH  35  37
BRANCH  35  41
ATOM     41  C   LIG d   1       2.198  -0.748  -9.264  0.00  0.00    -0.060 C 
ATOM     42  H   LIG d   1       2.387  -1.821  -9.232  0.00  0.00     0.023 H 
ATOM     43  H   LIG d   1       1.145  -0.572  -9.482  0.00  0.00     0.023 H 
ATOM     44  H   LIG d   1       2.810  -0.295 -10.045  0.00  0.00     0.023 H 
ENDBRANCH  35  41
ENDBRANCH  33  35
BRANCH  33  45
ATOM     45  N   LIG d   1       4.181  -0.185  -6.090  0.00  0.00    -0.268 N 
ATOM     46  C   LIG d   1       4.531  -0.881  -4.992  0.00  0.00     0.401 C 
ATOM     47  O   LIG d   1       4.464  -2.094  -4.994  0.00  0.00    -0.226 OA
ATOM     48  H   LIG d   1       4.233   0.784  -6.088  0.00  0.00     0.153 HD
BRANCH  46  49
ATOM     49  O   LIG d   1       4.955  -0.232  -3.890  0.00  0.00    -0.445 OA
BRANCH  49  50
ATOM     50  C   LIG d   1       4.098  -0.293  -2.719  0.00  0.00     0.107 C 
BRANCH  50  51
ATOM     51  C   LIG d   1       4.441  -1.540  -1.901  0.00  0.00    -0.025 C 
ATOM     52  H   LIG d   1       5.499  -1.772  -2.018  0.00  0.00     0.027 H 
ATOM     53  H   LIG d   1       4.225  -1.355  -0.849  0.00  0.00     0.027 H 
ATOM     54  H   LIG d   1       3.843  -2.381  -2.252  0.00  0.00     0.027 H 
ENDBRANCH  50  51
BRANCH  50  55
ATOM     55  C   LIG d   1       4.318   0.955  -1.862  0.00  0.00    -0.025 C 
ATOM     56  H   LIG d   1       3.357   1.320  -1.498  0.00  0.00     0.027 H 
ATOM     57  H   LIG d   1       4.957   0.706  -1.015  0.00  0.00     0.027 H 
ATOM     58  H   LIG d   1       4.796   1.729  -2.462  0.00  0.00     0.027 H 
ENDBRANCH  50  55
BRANCH  50  59
ATOM     59  C   LIG d   1       2.635  -0.359  -3.159  0.00  0.00    -0.025 C 
ATOM     60  H   LIG d   1       2.576  -0.777  -4.164  0.00  0.00     0.027 H 
ATOM     61  H   LIG d   1       2.076  -0.989  -2.469  0.00  0.00     0.027 H 
ATOM     62  H   LIG d   1       2.211   0.646  -3.160  0.00  0.00     0.027 H 
ENDBRANCH  50  59
ENDBRANCH  49  50
ENDBRANCH  46  49
ENDBRANCH  33  45
ENDBRANCH   1  33
TORSDOF 15
ENDMDL
MODEL 5
REMARK VINA RESULT:      -6.1      3.650      7.352
REMARK  15 active torsions:
REMARK  status: ('A' for Active; 'I' for Inactive)
REMARK    1  A    between atoms: C_1  and  C_2 
REMARK    2  A    between atoms: C_3  and  O_19 
REMARK    3  A    between atoms: C_15  and  O_17 
REMARK    4  A    between atoms: O_17  and  C_18 
REMARK    5  A    between atoms: O_19  and  C_20 
REMARK    6  A    between atoms: C_20  and  C_22 
REMARK    7  A    between atoms: C_22  and  C_24 
REMARK    8  A    between atoms: C_22  and  N_28 
REMARK    9  A    between atoms: C_24  and  C_26 
REMARK   10  A    between atoms: C_24  and  C_27 
REMARK       I    between atoms: N_28  and  C_29 
REMARK   11  A    between atoms: C_29  and  O_31 
REMARK   12  A    between atoms: O_31  and  C_32 
REMARK   13  A    between atoms: C_32  and  C_33 
REMARK   14  A    between atoms: C_32  and  C_34 
REMARK   15  A    between atoms: C_32  and  C_35 
ROOT
ATOM      1  C   LIG d   1       6.028   0.022  -7.600  0.00  0.00     0.333 C 
ATOM      2  O   LIG d   1       6.323   1.185  -7.456  0.00  0.00    -0.248 OA
ENDROOT
BRANCH   1   3
ATOM      3  O   LIG d   1       6.958  -0.863  -7.994  0.00  0.00    -0.424 OA
BRANCH   3   4
ATOM      4  C   LIG d   1       7.407  -1.742  -7.061  0.00  0.00     0.138 A 
ATOM      5  C   LIG d   1       7.262  -3.103  -7.271  0.00  0.00     0.035 A 
ATOM      6  C   LIG d   1       7.719  -4.008  -6.322  0.00  0.00     0.146 A 
ATOM      7  C   LIG d   1       8.326  -3.526  -5.152  0.00  0.00     0.026 A 
ATOM      8  O   LIG d   1       7.571  -5.334  -6.537  0.00  0.00    -0.421 OA
ATOM      9  C   LIG d   1       8.468  -2.155  -4.950  0.00  0.00    -0.047 A 
ATOM     10  C   LIG d   1       8.810  -4.490  -4.145  0.00  0.00    -0.000 A 
ATOM     11  C   LIG d   1       8.010  -1.268  -5.900  0.00  0.00    -0.018 A 
ATOM     12  H   LIG d   1       8.937  -1.787  -4.049  0.00  0.00     0.063 H 
ATOM     13  H   LIG d   1       8.120  -0.206  -5.744  0.00  0.00     0.066 H 
ATOM     14  C   LIG d   1       8.637  -5.866  -4.407  0.00  0.00     0.071 A 
ATOM     15  C   LIG d   1       9.421  -4.079  -2.967  0.00  0.00    -0.050 A 
ATOM     16  C   LIG d   1       7.987  -6.265  -5.664  0.00  0.00     0.345 A 
ATOM     17  C   LIG d   1       9.086  -6.807  -3.483  0.00  0.00    -0.005 A 
ATOM     18  O   LIG d   1       7.826  -7.444  -5.914  0.00  0.00    -0.244 OA
ATOM     19  C   LIG d   1       9.687  -6.378  -2.312  0.00  0.00     0.121 A 
ATOM     20  H   LIG d   1       8.962  -7.862  -3.677  0.00  0.00     0.066 H 
ATOM     21  C   LIG d   1       9.856  -5.020  -2.059  0.00  0.00    -0.019 A 
ATOM     22  H   LIG d   1      10.331  -4.702  -1.143  0.00  0.00     0.065 H 
ATOM     23  H   LIG d   1       9.555  -3.027  -2.765  0.00  0.00     0.062 H 
BRANCH   5  24
ATOM     24  C   LIG d   1       6.607  -3.602  -8.532  0.00  0.00    -0.033 C 
ATOM     25  H   LIG d   1       6.970  -3.027  -9.383  0.00  0.00     0.028 H 
ATOM     26  H   LIG d   1       6.848  -4.656  -8.675  0.00  0.00     0.028 H 
ATOM     27  H   LIG d   1       5.526  -3.485  -8.451  0.00  0.00     0.028 H 
ENDBRANCH   5  24
BRANCH  19  28
ATOM     28  O   LIG d   1      10.123  -7.293  -1.404  0.00  0.00    -0.495 OA
BRANCH  28  29
ATOM     29  C   LIG d   1       9.927  -8.670  -1.728  0.00  0.00     0.079 C 
ATOM     30  H   LIG d   1       9.674  -8.763  -2.784  0.00  0.00     0.066 H 
ATOM     31  H   LIG d   1       9.116  -9.074  -1.123  0.00  0.00     0.066 H 
ATOM     32  H   LIG d   1      10.843  -9.224  -1.524  0.00  0.00     0.066 H 
ENDBRANCH  28  29
ENDBRANCH  19  28
ENDBRANCH   3   4
ENDBRANCH   1   3
BRANCH   1  33
ATOM     33  C   LIG d   1       4.615  -0.435  -7.341  0.00  0.00     0.126 C 
ATOM     34  H   LIG d   1       4.590  -1.522  -7.281  0.00  0.00     0.062 H 
BRANCH  33  35
ATOM     35  C   LIG d   1       3.709   0.034  -8.481  0.00  0.00    -0.018 C 
ATOM     36  H   LIG d   1       4.314   0.243  -9.363  0.00  0.00     0.032 H 
BRANCH  35  37
ATOM     37  C   LIG d   1       2.693  -1.061  -8.809  0.00  0.00    -0.060 C 
ATOM     38  H   LIG d   1       1.806  -0.932  -8.188  0.00  0.00     0.023 H 
ATOM     39  H   LIG d   1       2.412  -0.994  -9.861  0.00  0.00     0.023 H 
ATOM     40  H   LIG d   1       3.135  -2.038  -8.612  0.00  0.00     0.023 H 
ENDBRANCH  35  37
BRANCH  35  41
ATOM     41  C   LIG d   1       2.971   1.304  -8.056  0.00  0.00    -0.060 C 
ATOM     42  H   LIG d   1       3.606   1.890  -7.391  0.00  0.00     0.023 H 
ATOM     43  H   LIG d   1       2.726   1.895  -8.938  0.00  0.00     0.023 H 
ATOM     44  H   LIG d   1       2.052   1.033  -7.535  0.00  0.00     0.023 H 
ENDBRANCH  35  41
ENDBRANCH  33  35
BRANCH  33  45
ATOM     45  N   LIG d   1       4.143   0.134  -6.076  0.00  0.00    -0.268 N 
ATOM     46  C   LIG d   1       4.055  -0.642  -4.979  0.00  0.00     0.401 C 
ATOM     47  O   LIG d   1       4.367  -1.815  -5.037  0.00  0.00    -0.226 OA
ATOM     48  H   LIG d   1       3.893   1.071  -6.029  0.00  0.00     0.153 HD
BRANCH  46  49
ATOM     49  O   LIG d   1       3.620  -0.119  -3.816  0.00  0.00    -0.445 OA
BRANCH  49  50
ATOM     50  C   LIG d   1       4.564  -0.090  -2.712  0.00  0.00     0.107 C 
BRANCH  50  51
ATOM     51  C   LIG d   1       4.233   1.085  -1.789  0.00  0.00    -0.025 C 
ATOM     52  H   LIG d   1       4.094   0.719  -0.772  0.00  0.00     0.027 H 
ATOM     53  H   LIG d   1       5.053   1.803  -1.808  0.00  0.00     0.027 H 
ATOM     54  H   LIG d   1       3.318   1.568  -2.130  0.00  0.00     0.027 H 
ENDBRANCH  50  51
BRANCH  50  55
ATOM     55  C   LIG d   1       4.468  -1.399  -1.926  0.00  0.00    -0.025 C 
ATOM     56  H   LIG d   1       3.492  -1.854  -2.096  0.00  0.00     0.027 H 
ATOM     57  H   LIG d   1       5.250  -2.080  -2.260  0.00  0.00     0.027 H 
ATOM     58  H   LIG d   1       4.593  -1.195  -0.863  0.00  0.00     0.027 H 
ENDBRANCH  50  55
BRANCH  50  59
ATOM     59  C   LIG d   1       5.983   0.075  -3.258  0.00  0.00    -0.025 C 
ATOM     60  H   LIG d   1       6.013   0.919  -3.947  0.00  0.00     0.027 H 
ATOM     61  H   LIG d   1       6.672   0.254  -2.433  0.00  0.00     0.027 H 
ATOM     62  H   LIG d   1       6.277  -0.833  -3.786  0.00  0.00     0.027 H 
ENDBRANCH  50  59
ENDBRANCH  49  50
ENDBRANCH  46  49
ENDBRANCH  33  45
ENDBRANCH   1  33
TORSDOF 15
ENDMDL
MODEL 6
REMARK VINA RESULT:      -6.1      2.918      5.833
REMARK  15 active torsions:
REMARK  status: ('A' for Active; 'I' for Inactive)
REMARK    1  A    between atoms: C_1  and  C_2 
REMARK    2  A    between atoms: C_3  and  O_19 
REMARK    3  A    between atoms: C_15  and  O_17 
REMARK    4  A    between atoms: O_17  and  C_18 
REMARK    5  A    between atoms: O_19  and  C_20 
REMARK    6  A    between atoms: C_20  and  C_22 
REMARK    7  A    between atoms: C_22  and  C_24 
REMARK    8  A    between atoms: C_22  and  N_28 
REMARK    9  A    between atoms: C_24  and  C_26 
REMARK   10  A    between atoms: C_24  and  C_27 
REMARK       I    between atoms: N_28  and  C_29 
REMARK   11  A    between atoms: C_29  and  O_31 
REMARK   12  A    between atoms: O_31  and  C_32 
REMARK   13  A    between atoms: C_32  and  C_33 
REMARK   14  A    between atoms: C_32  and  C_34 
REMARK   15  A    between atoms: C_32  and  C_35 
ROOT
ATOM      1  C   LIG d   1       8.415   1.490  -6.264  0.00  0.00     0.333 C 
ATOM      2  O   LIG d   1       7.580   1.826  -7.070  0.00  0.00    -0.248 OA
ENDROOT
BRANCH   1   3
ATOM      3  O   LIG d   1       9.595   2.128  -6.212  0.00  0.00    -0.424 OA
BRANCH   3   4
ATOM      4  C   LIG d   1       9.690   3.181  -5.358  0.00  0.00     0.138 A 
ATOM      5  C   LIG d   1       9.747   4.470  -5.858  0.00  0.00     0.035 A 
ATOM      6  C   LIG d   1       9.845   5.551  -4.992  0.00  0.00     0.146 A 
ATOM      7  C   LIG d   1       9.887   5.319  -3.609  0.00  0.00     0.026 A 
ATOM      8  O   LIG d   1       9.900   6.806  -5.492  0.00  0.00    -0.421 OA
ATOM      9  C   LIG d   1       9.830   4.017  -3.115  0.00  0.00    -0.047 A 
ATOM     10  C   LIG d   1       9.992   6.469  -2.691  0.00  0.00    -0.000 A 
ATOM     11  C   LIG d   1       9.732   2.954  -3.986  0.00  0.00    -0.018 A 
ATOM     12  H   LIG d   1       9.861   3.841  -2.050  0.00  0.00     0.063 H 
ATOM     13  H   LIG d   1       9.687   1.945  -3.605  0.00  0.00     0.066 H 
ATOM     14  C   LIG d   1      10.046   7.763  -3.252  0.00  0.00     0.071 A 
ATOM     15  C   LIG d   1      10.037   6.307  -1.312  0.00  0.00    -0.050 A 
ATOM     16  C   LIG d   1       9.996   7.896  -4.715  0.00  0.00     0.345 A 
ATOM     17  C   LIG d   1      10.140   8.874  -2.417  0.00  0.00    -0.005 A 
ATOM     18  O   LIG d   1      10.041   9.000  -5.224  0.00  0.00    -0.244 OA
ATOM     19  C   LIG d   1      10.190   8.693  -1.045  0.00  0.00     0.121 A 
ATOM     20  H   LIG d   1      10.178   9.868  -2.837  0.00  0.00     0.066 H 
ATOM     21  C   LIG d   1      10.135   7.415  -0.497  0.00  0.00    -0.019 A 
ATOM     22  H   LIG d   1      10.169   7.291   0.575  0.00  0.00     0.065 H 
ATOM     23  H   LIG d   1       9.995   5.318  -0.880  0.00  0.00     0.062 H 
BRANCH   5  24
ATOM     24  C   LIG d   1       9.701   4.701  -7.347  0.00  0.00    -0.033 C 
ATOM     25  H   LIG d   1      10.446   5.448  -7.622  0.00  0.00     0.028 H 
ATOM     26  H   LIG d   1       9.914   3.767  -7.867  0.00  0.00     0.028 H 
ATOM     27  H   LIG d   1       8.710   5.056  -7.629  0.00  0.00     0.028 H 
ENDBRANCH   5  24
BRANCH  19  28
ATOM     28  O   LIG d   1      10.286   9.775  -0.226  0.00  0.00    -0.495 OA
BRANCH  28  29
ATOM     29  C   LIG d   1      11.238   9.700   0.836  0.00  0.00     0.079 C 
ATOM     30  H   LIG d   1      11.839   8.798   0.723  0.00  0.00     0.066 H 
ATOM     31  H   LIG d   1      10.715   9.671   1.792  0.00  0.00     0.066 H 
ATOM     32  H   LIG d   1      11.887  10.575   0.804  0.00  0.00     0.066 H 
ENDBRANCH  28  29
ENDBRANCH  19  28
ENDBRANCH   3   4
ENDBRANCH   1   3
BRANCH   1  33
ATOM     33  C   LIG d   1       8.132   0.352  -5.316  0.00  0.00     0.126 C 
ATOM     34  H   LIG d   1       8.596   0.557  -4.352  0.00  0.00     0.062 H 
BRANCH  33  35
ATOM     35  C   LIG d   1       8.705  -0.945  -5.891  0.00  0.00    -0.018 C 
ATOM     36  H   LIG d   1       8.745  -0.875  -6.978  0.00  0.00     0.032 H 
BRANCH  35  37
ATOM     37  C   LIG d   1      10.117  -1.166  -5.344  0.00  0.00    -0.060 C 
ATOM     38  H   LIG d   1      10.317  -2.236  -5.276  0.00  0.00     0.023 H 
ATOM     39  H   LIG d   1      10.843  -0.703  -6.012  0.00  0.00     0.023 H 
ATOM     40  H   LIG d   1      10.197  -0.719  -4.353  0.00  0.00     0.023 H 
ENDBRANCH  35  37
BRANCH  35  41
ATOM     41  C   LIG d   1       7.812  -2.120  -5.488  0.00  0.00    -0.060 C 
ATOM     42  H   LIG d   1       8.428  -2.999  -5.302  0.00  0.00     0.023 H 
ATOM     43  H   LIG d   1       7.261  -1.864  -4.584  0.00  0.00     0.023 H 
ATOM     44  H   LIG d   1       7.109  -2.334  -6.294  0.00  0.00     0.023 H 
ENDBRANCH  35  41
ENDBRANCH  33  35
BRANCH  33  45
ATOM     45  N   LIG d   1       6.685   0.210  -5.141  0.00  0.00    -0.268 N 
ATOM     46  C   LIG d   1       6.074   0.781  -4.085  0.00  0.00     0.401 C 
ATOM     47  O   LIG d   1       6.725   1.413  -3.276  0.00  0.00    -0.226 OA
ATOM     48  H   LIG d   1       6.165  -0.294  -5.787  0.00  0.00     0.153 HD
BRANCH  46  49
ATOM     49  O   LIG d   1       4.743   0.652  -3.924  0.00  0.00    -0.445 OA
BRANCH  49  50
ATOM     50  C   LIG d   1       4.290  -0.153  -2.803  0.00  0.00     0.107 C 
BRANCH  50  51
ATOM     51  C   LIG d   1       5.120  -1.436  -2.728  0.00  0.00    -0.025 C 
ATOM     52  H   LIG d   1       5.086  -1.832  -1.713  0.00  0.00     0.027 H 
ATOM     53  H   LIG d   1       4.713  -2.174  -3.419  0.00  0.00     0.027 H 
ATOM     54  H   LIG d   1       6.153  -1.217  -2.998  0.00  0.00     0.027 H 
ENDBRANCH  50  51
BRANCH  50  55
ATOM     55  C   LIG d   1       4.457   0.640  -1.506  0.00  0.00    -0.025 C 
ATOM     56  H   LIG d   1       3.731   1.453  -1.481  0.00  0.00     0.027 H 
ATOM     57  H   LIG d   1       4.294  -0.020  -0.654  0.00  0.00     0.027 H 
ATOM     58  H   LIG d   1       5.466   1.052  -1.459  0.00  0.00     0.027 H 
ENDBRANCH  50  55
BRANCH  50  59
ATOM     59  C   LIG d   1       2.815  -0.512  -2.996  0.00  0.00    -0.025 C 
ATOM     60  H   LIG d   1       2.243   0.394  -3.196  0.00  0.00     0.027 H 
ATOM     61  H   LIG d   1       2.715  -1.199  -3.835  0.00  0.00     0.027 H 
ATOM     62  H   LIG d   1       2.436  -0.987  -2.090  0.00  0.00     0.027 H 
ENDBRANCH  50  59
ENDBRANCH  49  50
ENDBRANCH  46  49
ENDBRANCH  33  45
ENDBRANCH   1  33
TORSDOF 15
ENDMDL
MODEL 7
REMARK VINA RESULT:      -5.9      3.974      6.917
REMARK  15 active torsions:
REMARK  status: ('A' for Active; 'I' for Inactive)
REMARK    1  A    between atoms: C_1  and  C_2 
REMARK    2  A    between atoms: C_3  and  O_19 
REMARK    3  A    between atoms: C_15  and  O_17 
REMARK    4  A    between atoms: O_17  and  C_18 
REMARK    5  A    between atoms: O_19  and  C_20 
REMARK    6  A    between atoms: C_20  and  C_22 
REMARK    7  A    between atoms: C_22  and  C_24 
REMARK    8  A    between atoms: C_22  and  N_28 
REMARK    9  A    between atoms: C_24  and  C_26 
REMARK   10  A    between atoms: C_24  and  C_27 
REMARK       I    between atoms: N_28  and  C_29 
REMARK   11  A    between atoms: C_29  and  O_31 
REMARK   12  A    between atoms: O_31  and  C_32 
REMARK   13  A    between atoms: C_32  and  C_33 
REMARK   14  A    between atoms: C_32  and  C_34 
REMARK   15  A    between atoms: C_32  and  C_35 
ROOT
ATOM      1  C   LIG d   1       9.674   2.511  -5.718  0.00  0.00     0.333 C 
ATOM      2  O   LIG d   1      10.841   2.323  -5.971  0.00  0.00    -0.248 OA
ENDROOT
BRANCH   1   3
ATOM      3  O   LIG d   1       9.210   3.763  -5.585  0.00  0.00    -0.424 OA
BRANCH   3   4
ATOM      4  C   LIG d   1       9.564   4.437  -4.459  0.00  0.00     0.138 A 
ATOM      5  C   LIG d   1       9.667   5.817  -4.486  0.00  0.00     0.035 A 
ATOM      6  C   LIG d   1      10.030   6.512  -3.340  0.00  0.00     0.146 A 
ATOM      7  C   LIG d   1      10.289   5.800  -2.160  0.00  0.00     0.026 A 
ATOM      8  O   LIG d   1      10.128   7.860  -3.379  0.00  0.00    -0.421 OA
ATOM      9  C   LIG d   1      10.183   4.410  -2.142  0.00  0.00    -0.047 A 
ATOM     10  C   LIG d   1      10.675   6.541  -0.944  0.00  0.00    -0.000 A 
ATOM     11  C   LIG d   1       9.823   3.733  -3.287  0.00  0.00    -0.018 A 
ATOM     12  H   LIG d   1      10.383   3.864  -1.232  0.00  0.00     0.063 H 
ATOM     13  H   LIG d   1       9.739   2.657  -3.274  0.00  0.00     0.066 H 
ATOM     14  C   LIG d   1      10.766   7.947  -1.025  0.00  0.00     0.071 A 
ATOM     15  C   LIG d   1      10.944   5.895   0.257  0.00  0.00    -0.050 A 
ATOM     16  C   LIG d   1      10.474   8.597  -2.311  0.00  0.00     0.345 A 
ATOM     17  C   LIG d   1      11.121   8.682   0.103  0.00  0.00    -0.005 A 
ATOM     18  O   LIG d   1      10.545   9.806  -2.408  0.00  0.00    -0.244 OA
ATOM     19  C   LIG d   1      11.392   8.021   1.290  0.00  0.00     0.121 A 
ATOM     20  H   LIG d   1      11.189   9.759   0.052  0.00  0.00     0.066 H 
ATOM     21  C   LIG d   1      11.300   6.635   1.365  0.00  0.00    -0.019 A 
ATOM     22  H   LIG d   1      11.508   6.135   2.299  0.00  0.00     0.065 H 
ATOM     23  H   LIG d   1      10.874   4.820   0.321  0.00  0.00     0.062 H 
BRANCH   5  24
ATOM     24  C   LIG d   1       9.386   6.566  -5.763  0.00  0.00    -0.033 C 
ATOM     25  H   LIG d   1       9.867   7.543  -5.725  0.00  0.00     0.028 H 
ATOM     26  H   LIG d   1       9.776   6.001  -6.610  0.00  0.00     0.028 H 
ATOM     27  H   LIG d   1       8.309   6.696  -5.878  0.00  0.00     0.028 H 
ENDBRANCH   5  24
BRANCH  19  28
ATOM     28  O   LIG d   1      11.744   8.734   2.393  0.00  0.00    -0.495 OA
BRANCH  28  29
ATOM     29  C   LIG d   1      12.244  10.055   2.178  0.00  0.00     0.079 C 
ATOM     30  H   LIG d   1      13.248  10.136   2.597  0.00  0.00     0.066 H 
ATOM     31  H   LIG d   1      11.588  10.776   2.666  0.00  0.00     0.066 H 
ATOM     32  H   LIG d   1      12.280  10.260   1.109  0.00  0.00     0.066 H 
ENDBRANCH  28  29
ENDBRANCH  19  28
ENDBRANCH   3   4
ENDBRANCH   1   3
BRANCH   1  33
ATOM     33  C   LIG d   1       8.741   1.339  -5.551  0.00  0.00     0.126 C 
ATOM     34  H   LIG d   1       9.216   0.582  -4.928  0.00  0.00     0.062 H 
BRANCH  33  35
ATOM     35  C   LIG d   1       8.421   0.742  -6.923  0.00  0.00    -0.018 C 
ATOM     36  H   LIG d   1       9.234   0.961  -7.614  0.00  0.00     0.032 H 
BRANCH  35  37
ATOM     37  C   LIG d   1       8.257  -0.774  -6.794  0.00  0.00    -0.060 C 
ATOM     38  H   LIG d   1       7.220  -1.008  -6.553  0.00  0.00     0.023 H 
ATOM     39  H   LIG d   1       8.527  -1.251  -7.736  0.00  0.00     0.023 H 
ATOM     40  H   LIG d   1       8.906  -1.143  -6.000  0.00  0.00     0.023 H 
ENDBRANCH  35  37
BRANCH  35  41
ATOM     41  C   LIG d   1       7.122   1.352  -7.454  0.00  0.00    -0.060 C 
ATOM     42  H   LIG d   1       6.272   0.904  -6.939  0.00  0.00     0.023 H 
ATOM     43  H   LIG d   1       7.128   2.427  -7.278  0.00  0.00     0.023 H 
ATOM     44  H   LIG d   1       7.041   1.159  -8.524  0.00  0.00     0.023 H 
ENDBRANCH  35  41
ENDBRANCH  33  35
BRANCH  33  45
ATOM     45  N   LIG d   1       7.502   1.789  -4.913  0.00  0.00    -0.268 N 
ATOM     46  C   LIG d   1       7.044   1.162  -3.812  0.00  0.00     0.401 C 
ATOM     47  O   LIG d   1       7.659   0.223  -3.348  0.00  0.00    -0.226 OA
ATOM     48  H   LIG d   1       7.010   2.539  -5.284  0.00  0.00     0.153 HD
BRANCH  46  49
ATOM     49  O   LIG d   1       5.904   1.576  -3.225  0.00  0.00    -0.445 OA
BRANCH  49  50
ATOM     50  C   LIG d   1       4.782   0.656  -3.242  0.00  0.00     0.107 C 
BRANCH  50  51
ATOM     51  C   LIG d   1       4.833  -0.234  -1.999  0.00  0.00    -0.025 C 
ATOM     52  H   LIG d   1       3.858  -0.694  -1.840  0.00  0.00     0.027 H 
ATOM     53  H   LIG d   1       5.583  -1.013  -2.140  0.00  0.00     0.027 H 
ATOM     54  H   LIG d   1       5.096   0.370  -1.130  0.00  0.00     0.027 H 
ENDBRANCH  50  51
BRANCH  50  55
ATOM     55  C   LIG d   1       3.473   1.448  -3.249  0.00  0.00    -0.025 C 
ATOM     56  H   LIG d   1       2.671   0.826  -2.849  0.00  0.00     0.027 H 
ATOM     57  H   LIG d   1       3.585   2.338  -2.631  0.00  0.00     0.027 H 
ATOM     58  H   LIG d   1       3.231   1.742  -4.270  0.00  0.00     0.027 H 
ENDBRANCH  50  55
BRANCH  50  59
ATOM     59  C   LIG d   1       4.856  -0.217  -4.496  0.00  0.00    -0.025 C 
ATOM     60  H   LIG d   1       3.906  -0.731  -4.640  0.00  0.00     0.027 H 
ATOM     61  H   LIG d   1       5.067   0.409  -5.363  0.00  0.00     0.027 H 
ATOM     62  H   LIG d   1       5.652  -0.954  -4.379  0.00  0.00     0.027 H 
ENDBRANCH  50  59
ENDBRANCH  49  50
ENDBRANCH  46  49
ENDBRANCH  33  45
ENDBRANCH   1  33
TORSDOF 15
ENDMDL
MODEL 8
REMARK VINA RESULT:      -5.9      2.380      5.006
REMARK  15 active torsions:
REMARK  status: ('A' for Active; 'I' for Inactive)
REMARK    1  A    between atoms: C_1  and  C_2 
REMARK    2  A    between atoms: C_3  and  O_19 
REMARK    3  A    between atoms: C_15  and  O_17 
REMARK    4  A    between atoms: O_17  and  C_18 
REMARK    5  A    between atoms: O_19  and  C_20 
REMARK    6  A    between atoms: C_20  and  C_22 
REMARK    7  A    between atoms: C_22  and  C_24 
REMARK    8  A    between atoms: C_22  and  N_28 
REMARK    9  A    between atoms: C_24  and  C_26 
REMARK   10  A    between atoms: C_24  and  C_27 
REMARK       I    between atoms: N_28  and  C_29 
REMARK   11  A    between atoms: C_29  and  O_31 
REMARK   12  A    between atoms: O_31  and  C_32 
REMARK   13  A    between atoms: C_32  and  C_33 
REMARK   14  A    between atoms: C_32  and  C_34 
REMARK   15  A    between atoms: C_32  and  C_35 
ROOT
ATOM      1  C   LIG d   1       8.466  -0.253  -6.013  0.00  0.00     0.333 C 
ATOM      2  O   LIG d   1       8.730  -0.967  -5.074  0.00  0.00    -0.248 OA
ENDROOT
BRANCH   1   3
ATOM      3  O   LIG d   1       9.349   0.673  -6.420  0.00  0.00    -0.424 OA
BRANCH   3   4
ATOM      4  C   LIG d   1       9.482   1.782  -5.646  0.00  0.00     0.138 A 
ATOM      5  C   LIG d   1       9.417   3.038  -6.225  0.00  0.00     0.035 A 
ATOM      6  C   LIG d   1       9.553   4.175  -5.441  0.00  0.00     0.146 A 
ATOM      7  C   LIG d   1       9.756   4.035  -4.060  0.00  0.00     0.026 A 
ATOM      8  O   LIG d   1       9.488   5.396  -6.017  0.00  0.00    -0.421 OA
ATOM      9  C   LIG d   1       9.821   2.766  -3.486  0.00  0.00    -0.047 A 
ATOM     10  C   LIG d   1       9.901   5.246  -3.229  0.00  0.00    -0.000 A 
ATOM     11  C   LIG d   1       9.685   1.647  -4.276  0.00  0.00    -0.018 A 
ATOM     12  H   LIG d   1       9.977   2.661  -2.422  0.00  0.00     0.063 H 
ATOM     13  H   LIG d   1       9.734   0.663  -3.833  0.00  0.00     0.066 H 
ATOM     14  C   LIG d   1       9.827   6.502  -3.868  0.00  0.00     0.071 A 
ATOM     15  C   LIG d   1      10.104   5.176  -1.856  0.00  0.00    -0.050 A 
ATOM     16  C   LIG d   1       9.611   6.538  -5.322  0.00  0.00     0.345 A 
ATOM     17  C   LIG d   1       9.953   7.667  -3.116  0.00  0.00    -0.005 A 
ATOM     18  O   LIG d   1       9.543   7.607  -5.897  0.00  0.00    -0.244 OA
ATOM     19  C   LIG d   1      10.161   7.579  -1.750  0.00  0.00     0.121 A 
ATOM     20  H   LIG d   1       9.893   8.633  -3.596  0.00  0.00     0.066 H 
ATOM     21  C   LIG d   1      10.232   6.338  -1.125  0.00  0.00    -0.019 A 
ATOM     22  H   LIG d   1      10.389   6.284  -0.057  0.00  0.00     0.065 H 
ATOM     23  H   LIG d   1      10.160   4.216  -1.365  0.00  0.00     0.062 H 
BRANCH   5  24
ATOM     24  C   LIG d   1       9.198   3.169  -7.710  0.00  0.00    -0.033 C 
ATOM     25  H   LIG d   1       8.745   2.255  -8.093  0.00  0.00     0.028 H 
ATOM     26  H   LIG d   1       8.536   4.013  -7.907  0.00  0.00     0.028 H 
ATOM     27  H   LIG d   1      10.155   3.335  -8.205  0.00  0.00     0.028 H 
ENDBRANCH   5  24
BRANCH  19  28
ATOM     28  O   LIG d   1      10.289   8.714  -1.012  0.00  0.00    -0.495 OA
BRANCH  28  29
ATOM     29  C   LIG d   1       9.189   9.625  -1.029  0.00  0.00     0.079 C 
ATOM     30  H   LIG d   1       8.266   9.084  -0.817  0.00  0.00     0.066 H 
ATOM     31  H   LIG d   1       9.119  10.092  -2.011  0.00  0.00     0.066 H 
ATOM     32  H   LIG d   1       9.342  10.392  -0.270  0.00  0.00     0.066 H 
ENDBRANCH  28  29
ENDBRANCH  19  28
ENDBRANCH   3   4
ENDBRANCH   1   3
BRANCH   1  33
ATOM     33  C   LIG d   1       7.146  -0.400  -6.724  0.00  0.00     0.126 C 
ATOM     34  H   LIG d   1       6.903  -1.457  -6.826  0.00  0.00     0.062 H 
BRANCH  33  35
ATOM     35  C   LIG d   1       7.241   0.237  -8.113  0.00  0.00    -0.018 C 
ATOM     36  H   LIG d   1       8.119   0.879  -8.158  0.00  0.00     0.032 H 
BRANCH  35  37
ATOM     37  C   LIG d   1       7.358  -0.862  -9.171  0.00  0.00    -0.060 C 
ATOM     38  H   LIG d   1       7.521  -1.822  -8.681  0.00  0.00     0.023 H 
ATOM     39  H   LIG d   1       6.438  -0.904  -9.755  0.00  0.00     0.023 H 
ATOM     40  H   LIG d   1       8.198  -0.644  -9.830  0.00  0.00     0.023 H 
ENDBRANCH  35  37
BRANCH  35  41
ATOM     41  C   LIG d   1       5.985   1.069  -8.378  0.00  0.00    -0.060 C 
ATOM     42  H   LIG d   1       5.101   0.486  -8.124  0.00  0.00     0.023 H 
ATOM     43  H   LIG d   1       6.013   1.972  -7.770  0.00  0.00     0.023 H 
ATOM     44  H   LIG d   1       5.947   1.343  -9.433  0.00  0.00     0.023 H 
ENDBRANCH  35  41
ENDBRANCH  33  35
BRANCH  33  45
ATOM     45  N   LIG d   1       6.097   0.269  -5.951  0.00  0.00    -0.268 N 
ATOM     46  C   LIG d   1       5.238  -0.458  -5.211  0.00  0.00     0.401 C 
ATOM     47  O   LIG d   1       5.331  -1.669  -5.185  0.00  0.00    -0.226 OA
ATOM     48  H   LIG d   1       6.022   1.237  -5.972  0.00  0.00     0.153 HD
BRANCH  46  49
ATOM     49  O   LIG d   1       4.273   0.158  -4.499  0.00  0.00    -0.445 OA
BRANCH  49  50
ATOM     50  C   LIG d   1       4.535   0.379  -3.088  0.00  0.00     0.107 C 
BRANCH  50  51
ATOM     51  C   LIG d   1       3.642   1.512  -2.576  0.00  0.00    -0.025 C 
ATOM     52  H   LIG d   1       4.212   2.441  -2.555  0.00  0.00     0.027 H 
ATOM     53  H   LIG d   1       2.785   1.627  -3.239  0.00  0.00     0.027 H 
ATOM     54  H   LIG d   1       3.295   1.275  -1.571  0.00  0.00     0.027 H 
ENDBRANCH  50  51
BRANCH  50  55
ATOM     55  C   LIG d   1       4.233  -0.901  -2.307  0.00  0.00    -0.025 C 
ATOM     56  H   LIG d   1       3.892  -0.642  -1.304  0.00  0.00     0.027 H 
ATOM     57  H   LIG d   1       3.455  -1.465  -2.821  0.00  0.00     0.027 H 
ATOM     58  H   LIG d   1       5.136  -1.507  -2.238  0.00  0.00     0.027 H 
ENDBRANCH  50  55
BRANCH  50  59
ATOM     59  C   LIG d   1       6.003   0.761  -2.895  0.00  0.00    -0.025 C 
ATOM     60  H   LIG d   1       6.293   1.491  -3.650  0.00  0.00     0.027 H 
ATOM     61  H   LIG d   1       6.140   1.190  -1.903  0.00  0.00     0.027 H 
ATOM     62  H   LIG d   1       6.626  -0.129  -2.995  0.00  0.00     0.027 H 
ENDBRANCH  50  59
ENDBRANCH  49  50
ENDBRANCH  46  49
ENDBRANCH  33  45
ENDBRANCH   1  33
TORSDOF 15
ENDMDL
MODEL 9
REMARK VINA RESULT:      -5.9      1.468      2.139
REMARK  15 active torsions:
REMARK  status: ('A' for Active; 'I' for Inactive)
REMARK    1  A    between atoms: C_1  and  C_2 
REMARK    2  A    between atoms: C_3  and  O_19 
REMARK    3  A    between atoms: C_15  and  O_17 
REMARK    4  A    between atoms: O_17  and  C_18 
REMARK    5  A    between atoms: O_19  and  C_20 
REMARK    6  A    between atoms: C_20  and  C_22 
REMARK    7  A    between atoms: C_22  and  C_24 
REMARK    8  A    between atoms: C_22  and  N_28 
REMARK    9  A    between atoms: C_24  and  C_26 
REMARK   10  A    between atoms: C_24  and  C_27 
REMARK       I    between atoms: N_28  and  C_29 
REMARK   11  A    between atoms: C_29  and  O_31 
REMARK   12  A    between atoms: O_31  and  C_32 
REMARK   13  A    between atoms: C_32  and  C_33 
REMARK   14  A    between atoms: C_32  and  C_34 
REMARK   15  A    between atoms: C_32  and  C_35 
ROOT
ATOM      1  C   LIG d   1       6.394  -0.830  -4.129  0.00  0.00     0.333 C 
ATOM      2  O   LIG d   1       6.751  -1.655  -3.321  0.00  0.00    -0.248 OA
ENDROOT
BRANCH   1   3
ATOM      3  O   LIG d   1       7.207  -0.486  -5.140  0.00  0.00    -0.424 OA
BRANCH   3   4
ATOM      4  C   LIG d   1       7.788   0.741  -5.075  0.00  0.00     0.138 A 
ATOM      5  C   LIG d   1       8.169   1.385  -6.240  0.00  0.00     0.035 A 
ATOM      6  C   LIG d   1       8.764   2.638  -6.181  0.00  0.00     0.146 A 
ATOM      7  C   LIG d   1       8.973   3.239  -4.931  0.00  0.00     0.026 A 
ATOM      8  O   LIG d   1       9.132   3.257  -7.325  0.00  0.00    -0.421 OA
ATOM      9  C   LIG d   1       8.587   2.583  -3.764  0.00  0.00    -0.047 A 
ATOM     10  C   LIG d   1       9.606   4.571  -4.872  0.00  0.00    -0.000 A 
ATOM     11  C   LIG d   1       7.998   1.340  -3.837  0.00  0.00    -0.018 A 
ATOM     12  H   LIG d   1       8.749   3.048  -2.803  0.00  0.00     0.063 H 
ATOM     13  H   LIG d   1       7.698   0.830  -2.934  0.00  0.00     0.066 H 
ATOM     14  C   LIG d   1       9.976   5.185  -6.088  0.00  0.00     0.071 A 
ATOM     15  C   LIG d   1       9.840   5.221  -3.667  0.00  0.00    -0.050 A 
ATOM     16  C   LIG d   1       9.712   4.468  -7.345  0.00  0.00     0.345 A 
ATOM     17  C   LIG d   1      10.570   6.444  -6.073  0.00  0.00    -0.005 A 
ATOM     18  O   LIG d   1      10.020   4.975  -8.406  0.00  0.00    -0.244 OA
ATOM     19  C   LIG d   1      10.802   7.074  -4.862  0.00  0.00     0.121 A 
ATOM     20  H   LIG d   1      10.852   6.923  -6.999  0.00  0.00     0.066 H 
ATOM     21  C   LIG d   1      10.435   6.465  -3.666  0.00  0.00    -0.019 A 
ATOM     22  H   LIG d   1      10.617   6.972  -2.730  0.00  0.00     0.065 H 
ATOM     23  H   LIG d   1       9.558   4.754  -2.735  0.00  0.00     0.062 H 
BRANCH   5  24
ATOM     24  C   LIG d   1       7.937   0.724  -7.574  0.00  0.00    -0.033 C 
ATOM     25  H   LIG d   1       8.830   0.825  -8.190  0.00  0.00     0.028 H 
ATOM     26  H   LIG d   1       7.716  -0.333  -7.423  0.00  0.00     0.028 H 
ATOM     27  H   LIG d   1       7.095   1.203  -8.075  0.00  0.00     0.028 H 
ENDBRANCH   5  24
BRANCH  19  28
ATOM     28  O   LIG d   1      11.386   8.302  -4.842  0.00  0.00    -0.495 OA
BRANCH  28  29
ATOM     29  C   LIG d   1      11.646   8.916  -6.105  0.00  0.00     0.079 C 
ATOM     30  H   LIG d   1      12.287   8.267  -6.701  0.00  0.00     0.066 H 
ATOM     31  H   LIG d   1      12.144   9.873  -5.949  0.00  0.00     0.066 H 
ATOM     32  H   LIG d   1      10.705   9.078  -6.631  0.00  0.00     0.066 H 
ENDBRANCH  28  29
ENDBRANCH  19  28
ENDBRANCH   3   4
ENDBRANCH   1   3
BRANCH   1  33
ATOM     33  C   LIG d   1       5.037  -0.187  -4.000  0.00  0.00     0.126 C 
ATOM     34  H   LIG d   1       5.143   0.896  -4.041  0.00  0.00     0.062 H 
BRANCH  33  35
ATOM     35  C   LIG d   1       4.407  -0.588  -2.665  0.00  0.00    -0.018 C 
ATOM     36  H   LIG d   1       5.117  -1.186  -2.093  0.00  0.00     0.032 H 
BRANCH  35  37
ATOM     37  C   LIG d   1       4.048   0.670  -1.872  0.00  0.00    -0.060 C 
ATOM     38  H   LIG d   1       4.900   0.970  -1.262  0.00  0.00     0.023 H 
ATOM     39  H   LIG d   1       3.794   1.475  -2.562  0.00  0.00     0.023 H 
ATOM     40  H   LIG d   1       3.194   0.462  -1.227  0.00  0.00     0.023 H 
ENDBRANCH  35  37
BRANCH  35  41
ATOM     41  C   LIG d   1       3.141  -1.407  -2.924  0.00  0.00    -0.060 C 
ATOM     42  H   LIG d   1       3.416  -2.399  -3.281  0.00  0.00     0.023 H 
ATOM     43  H   LIG d   1       2.572  -1.499  -1.999  0.00  0.00     0.023 H 
ATOM     44  H   LIG d   1       2.532  -0.906  -3.677  0.00  0.00     0.023 H 
ENDBRANCH  35  41
ENDBRANCH  33  35
BRANCH  33  45
ATOM     45  N   LIG d   1       4.178  -0.636  -5.099  0.00  0.00    -0.268 N 
ATOM     46  C   LIG d   1       3.264   0.202  -5.625  0.00  0.00     0.401 C 
ATOM     47  O   LIG d   1       3.150   1.330  -5.187  0.00  0.00    -0.226 OA
ATOM     48  H   LIG d   1       4.269  -1.537  -5.449  0.00  0.00     0.153 HD
BRANCH  46  49
ATOM     49  O   LIG d   1       2.474  -0.210  -6.636  0.00  0.00    -0.445 OA
BRANCH  49  50
ATOM     50  C   LIG d   1       2.932   0.068  -7.985  0.00  0.00     0.107 C 
BRANCH  50  51
ATOM     51  C   LIG d   1       2.050  -0.681  -8.987  0.00  0.00    -0.025 C 
ATOM     52  H   LIG d   1       2.022  -0.132  -9.928  0.00  0.00     0.027 H 
ATOM     53  H   LIG d   1       2.460  -1.676  -9.159  0.00  0.00     0.027 H 
ATOM     54  H   LIG d   1       1.040  -0.768  -8.587  0.00  0.00     0.027 H 
ENDBRANCH  50  51
BRANCH  50  55
ATOM     55  C   LIG d   1       2.844   1.572  -8.253  0.00  0.00    -0.025 C 
ATOM     56  H   LIG d   1       3.847   1.971  -8.410  0.00  0.00     0.027 H 
ATOM     57  H   LIG d   1       2.240   1.747  -9.142  0.00  0.00     0.027 H 
ATOM     58  H   LIG d   1       2.385   2.067  -7.398  0.00  0.00     0.027 H 
ENDBRANCH  50  55
BRANCH  50  59
ATOM     59  C   LIG d   1       4.382  -0.394  -8.138  0.00  0.00    -0.025 C 
ATOM     60  H   LIG d   1       4.768  -0.068  -9.104  0.00  0.00     0.027 H 
ATOM     61  H   LIG d   1       4.986   0.035  -7.340  0.00  0.00     0.027 H 
ATOM     62  H   LIG d   1       4.424  -1.483  -8.081  0.00  0.00     0.027 H 
ENDBRANCH  50  59
ENDBRANCH  49  50
ENDBRANCH  46  49
ENDBRANCH  33  45
ENDBRANCH   1  33
TORSDOF 15
ENDMDL
MODEL 10
REMARK VINA RESULT:      -5.8      2.826      5.998
REMARK  15 active torsions:
REMARK  status: ('A' for Active; 'I' for Inactive)
REMARK    1  A    between atoms: C_1  and  C_2 
REMARK    2  A    between atoms: C_3  and  O_19 
REMARK    3  A    between atoms: C_15  and  O_17 
REMARK    4  A    between atoms: O_17  and  C_18 
REMARK    5  A    between atoms: O_19  and  C_20 
REMARK    6  A    between atoms: C_20  and  C_22 
REMARK    7  A    between atoms: C_22  and  C_24 
REMARK    8  A    between atoms: C_22  and  N_28 
REMARK    9  A    between atoms: C_24  and  C_26 
REMARK   10  A    between atoms: C_24  and  C_27 
REMARK       I    between atoms: N_28  and  C_29 
REMARK   11  A    between atoms: C_29  and  O_31 
REMARK   12  A    between atoms: O_31  and  C_32 
REMARK   13  A    between atoms: C_32  and  C_33 
REMARK   14  A    between atoms: C_32  and  C_34 
REMARK   15  A    between atoms: C_32  and  C_35 
ROOT
ATOM      1  C   LIG d   1       8.573   1.646  -6.171  0.00  0.00     0.333 C 
ATOM      2  O   LIG d   1       7.775   2.125  -6.942  0.00  0.00    -0.248 OA
ENDROOT
BRANCH   1   3
ATOM      3  O   LIG d   1       9.779   2.214  -6.014  0.00  0.00    -0.424 OA
BRANCH   3   4
ATOM      4  C   LIG d   1       9.806   3.482  -5.528  0.00  0.00     0.138 A 
ATOM      5  C   LIG d   1       9.857   3.695  -4.161  0.00  0.00     0.035 A 
ATOM      6  C   LIG d   1       9.884   4.988  -3.657  0.00  0.00     0.146 A 
ATOM      7  C   LIG d   1       9.858   6.072  -4.548  0.00  0.00     0.026 A 
ATOM      8  O   LIG d   1       9.934   5.184  -2.320  0.00  0.00    -0.421 OA
ATOM      9  C   LIG d   1       9.806   5.848  -5.923  0.00  0.00    -0.047 A 
ATOM     10  C   LIG d   1       9.887   7.445  -4.010  0.00  0.00    -0.000 A 
ATOM     11  C   LIG d   1       9.780   4.559  -6.409  0.00  0.00    -0.018 A 
ATOM     12  H   LIG d   1       9.787   6.684  -6.606  0.00  0.00     0.063 H 
ATOM     13  H   LIG d   1       9.740   4.384  -7.473  0.00  0.00     0.066 H 
ATOM     14  C   LIG d   1       9.939   7.608  -2.608  0.00  0.00     0.071 A 
ATOM     15  C   LIG d   1       9.864   8.560  -4.838  0.00  0.00    -0.050 A 
ATOM     16  C   LIG d   1       9.961   6.405  -1.763  0.00  0.00     0.345 A 
ATOM     17  C   LIG d   1       9.972   8.888  -2.063  0.00  0.00    -0.005 A 
ATOM     18  O   LIG d   1      10.007   6.517  -0.553  0.00  0.00    -0.244 OA
ATOM     19  C   LIG d   1       9.943   9.989  -2.903  0.00  0.00     0.121 A 
ATOM     20  H   LIG d   1      10.017   9.023  -0.992  0.00  0.00     0.066 H 
ATOM     21  C   LIG d   1       9.893   9.823  -4.284  0.00  0.00    -0.019 A 
ATOM     22  H   LIG d   1       9.876  10.691  -4.926  0.00  0.00     0.065 H 
ATOM     23  H   LIG d   1       9.825   8.439  -5.910  0.00  0.00     0.062 H 
BRANCH   5  24
ATOM     24  C   LIG d   1       9.884   2.519  -3.219  0.00  0.00    -0.033 C 
ATOM     25  H   LIG d   1       9.218   2.713  -2.378  0.00  0.00     0.028 H 
ATOM     26  H   LIG d   1       9.555   1.623  -3.745  0.00  0.00     0.028 H 
ATOM     27  H   LIG d   1      10.900   2.372  -2.850  0.00  0.00     0.028 H 
ENDBRANCH   5  24
BRANCH  19  28
ATOM     28  O   LIG d   1       9.971  11.241  -2.375  0.00  0.00    -0.495 OA
BRANCH  28  29
ATOM     29  C   LIG d   1       9.958  12.333  -3.295  0.00  0.00     0.079 C 
ATOM     30  H   LIG d   1      10.015  11.951  -4.315  0.00  0.00     0.066 H 
ATOM     31  H   LIG d   1      10.814  12.981  -3.103  0.00  0.00     0.066 H 
ATOM     32  H   LIG d   1       9.037  12.902  -3.172  0.00  0.00     0.066 H 
ENDBRANCH  28  29
ENDBRANCH  19  28
ENDBRANCH   3   4
ENDBRANCH   1   3
BRANCH   1  33
ATOM     33  C   LIG d   1       8.215   0.409  -5.387  0.00  0.00     0.126 C 
ATOM     34  H   LIG d   1       8.666   0.462  -4.397  0.00  0.00     0.062 H 
BRANCH  33  35
ATOM     35  C   LIG d   1       8.738  -0.829  -6.120  0.00  0.00    -0.018 C 
ATOM     36  H   LIG d   1       9.550  -0.540  -6.787  0.00  0.00     0.032 H 
BRANCH  35  37
ATOM     37  C   LIG d   1       9.255  -1.845  -5.099  0.00  0.00    -0.060 C 
ATOM     38  H   LIG d   1       8.955  -2.848  -5.402  0.00  0.00     0.023 H 
ATOM     39  H   LIG d   1      10.343  -1.791  -5.051  0.00  0.00     0.023 H 
ATOM     40  H   LIG d   1       8.836  -1.621  -4.118  0.00  0.00     0.023 H 
ENDBRANCH  35  37
BRANCH  35  41
ATOM     41  C   LIG d   1       7.606  -1.455  -6.934  0.00  0.00    -0.060 C 
ATOM     42  H   LIG d   1       7.995  -2.289  -7.519  0.00  0.00     0.023 H 
ATOM     43  H   LIG d   1       6.829  -1.815  -6.260  0.00  0.00     0.023 H 
ATOM     44  H   LIG d   1       7.184  -0.707  -7.606  0.00  0.00     0.023 H 
ENDBRANCH  35  41
ENDBRANCH  33  35
BRANCH  33  45
ATOM     45  N   LIG d   1       6.759   0.319  -5.256  0.00  0.00    -0.268 N 
ATOM     46  C   LIG d   1       6.158   0.725  -4.120  0.00  0.00     0.401 C 
ATOM     47  O   LIG d   1       6.824   1.165  -3.204  0.00  0.00    -0.226 OA
ATOM     48  H   LIG d   1       6.227  -0.033  -5.987  0.00  0.00     0.153 HD
BRANCH  46  49
ATOM     49  O   LIG d   1       4.819   0.643  -3.999  0.00  0.00    -0.445 OA
BRANCH  49  50
ATOM     50  C   LIG d   1       4.304  -0.096  -2.860  0.00  0.00     0.107 C 
BRANCH  50  51
ATOM     51  C   LIG d   1       5.098  -1.394  -2.694  0.00  0.00    -0.025 C 
ATOM     52  H   LIG d   1       4.416  -2.209  -2.451  0.00  0.00     0.027 H 
ATOM     53  H   LIG d   1       5.620  -1.623  -3.623  0.00  0.00     0.027 H 
ATOM     54  H   LIG d   1       5.824  -1.276  -1.889  0.00  0.00     0.027 H 
ENDBRANCH  50  51
BRANCH  50  55
ATOM     55  C   LIG d   1       4.445   0.753  -1.596  0.00  0.00    -0.025 C 
ATOM     56  H   LIG d   1       5.311   1.409  -1.693  0.00  0.00     0.027 H 
ATOM     57  H   LIG d   1       3.547   1.355  -1.461  0.00  0.00     0.027 H 
ATOM     58  H   LIG d   1       4.578   0.101  -0.732  0.00  0.00     0.027 H 
ENDBRANCH  50  55
BRANCH  50  59
ATOM     59  C   LIG d   1       2.829  -0.428  -3.091  0.00  0.00    -0.025 C 
ATOM     60  H   LIG d   1       2.219   0.444  -2.857  0.00  0.00     0.027 H 
ATOM     61  H   LIG d   1       2.678  -0.709  -4.133  0.00  0.00     0.027 H 
ATOM     62  H   LIG d   1       2.538  -1.257  -2.446  0.00  0.00     0.027 H 
ENDBRANCH  50  59
ENDBRANCH  49  50
ENDBRANCH  46  49
ENDBRANCH  33  45
ENDBRANCH   1  33
TORSDOF 15
ENDMDL
