MODEL 1
REMARK VINA RESULT:      -6.3      0.000      0.000
REMARK  10 active torsions:
REMARK  status: ('A' for Active; 'I' for Inactive)
REMARK    1  A    between atoms: C_1  and  C_2 
REMARK    2  A    between atoms: C_2  and  C_3 
REMARK    3  A    between atoms: C_2  and  C_4 
REMARK    4  A    between atoms: C_4  and  N_5 
REMARK       I    between atoms: N_5  and  C_6 
REMARK    5  A    between atoms: C_6  and  C_8 
REMARK    6  A    between atoms: C_8  and  O_9 
REMARK    7  A    between atoms: O_9  and  C_10 
REMARK    8  A    between atoms: C_12  and  O_23 
REMARK    9  A    between atoms: C_17  and  C_21 
REMARK   10  A    between atoms: C_17  and  C_22 
ROOT
ATOM      1  C   LIG d   1       9.581   4.249  -4.072  0.00  0.00     0.128 A 
ATOM      2  C   LIG d   1       9.316   5.415  -4.781  0.00  0.00     0.022 A 
ATOM      3  C   LIG d   1       9.427   6.645  -4.157  0.00  0.00     0.134 A 
ATOM      4  C   LIG d   1       9.808   6.704  -2.808  0.00  0.00     0.101 A 
ATOM      5  C   LIG d   1      10.069   5.521  -2.091  0.00  0.00     0.139 A 
ATOM      6  C   LIG d   1       9.954   4.302  -2.735  0.00  0.00     0.023 A 
ATOM      7  O   LIG d   1      10.425   5.565  -0.786  0.00  0.00    -0.485 OA
ATOM      8  C   LIG d   1      10.999   6.769  -0.274  0.00  0.00     0.112 C 
ATOM      9  C   LIG d   1      10.084   7.954  -0.613  0.00  0.00     0.050 C 
ATOM     10  C   LIG d   1       9.945   7.995  -2.125  0.00  0.00     0.174 C 
ATOM     11  O   LIG d   1       9.948   9.043  -2.737  0.00  0.00    -0.292 OA
ATOM     12  H   LIG d   1       9.025   5.360  -5.819  0.00  0.00     0.069 H 
ATOM     13  H   LIG d   1      10.156   3.387  -2.196  0.00  0.00     0.069 H 
ATOM     14  H   LIG d   1      10.492   8.799  -0.271  0.00  0.00     0.038 H 
ATOM     15  H   LIG d   1       9.105   7.811  -0.155  0.00  0.00     0.038 H 
ENDROOT
BRANCH   1  16
ATOM     16  O   LIG d   1       9.468   3.046  -4.691  0.00  0.00    -0.482 OA
BRANCH  16  17
ATOM     17  C   LIG d   1       9.158   1.921  -3.866  0.00  0.00     0.165 C 
ATOM     18  H   LIG d   1       9.855   1.111  -4.080  0.00  0.00     0.080 H 
ATOM     19  H   LIG d   1       9.242   2.205  -2.817  0.00  0.00     0.080 H 
BRANCH  17  20
ATOM     20  C   LIG d   1       7.751   1.461  -4.151  0.00  0.00     0.251 C 
ATOM     21  N   LIG d   1       7.063   0.779  -3.214  0.00  0.00    -0.312 N 
ATOM     22  H   LIG d   1       7.473   0.584  -2.357  0.00  0.00     0.149 HD
ATOM     23  O   LIG d   1       7.239   1.705  -5.223  0.00  0.00    -0.272 OA
BRANCH  21  24
ATOM     24  C   LIG d   1       5.695   0.332  -3.491  0.00  0.00     0.014 C 
ATOM     25  H   LIG d   1       5.232   1.006  -4.211  0.00  0.00     0.046 H 
ATOM     26  H   LIG d   1       5.720  -0.678  -3.902  0.00  0.00     0.046 H 
BRANCH  24  27
ATOM     27  C   LIG d   1       4.886   0.336  -2.193  0.00  0.00    -0.031 C 
ATOM     28  H   LIG d   1       5.522   0.660  -1.370  0.00  0.00     0.031 H 
BRANCH  27  29
ATOM     29  C   LIG d   1       3.703   1.297  -2.333  0.00  0.00    -0.061 C 
ATOM     30  H   LIG d   1       3.896   1.994  -3.149  0.00  0.00     0.023 H 
ATOM     31  H   LIG d   1       2.798   0.730  -2.546  0.00  0.00     0.023 H 
ATOM     32  H   LIG d   1       3.575   1.853  -1.404  0.00  0.00     0.023 H 
ENDBRANCH  27  29
BRANCH  27  33
ATOM     33  C   LIG d   1       4.366  -1.075  -1.912  0.00  0.00    -0.061 C 
ATOM     34  H   LIG d   1       3.719  -1.393  -2.730  0.00  0.00     0.023 H 
ATOM     35  H   LIG d   1       5.207  -1.763  -1.826  0.00  0.00     0.023 H 
ATOM     36  H   LIG d   1       3.800  -1.075  -0.981  0.00  0.00     0.023 H 
ENDBRANCH  27  33
ENDBRANCH  24  27
ENDBRANCH  21  24
ENDBRANCH  17  20
ENDBRANCH  16  17
ENDBRANCH   1  16
BRANCH   3  37
ATOM     37  O   LIG d   1       9.169   7.785  -4.846  0.00  0.00    -0.506 OA
ATOM     38  H   LIG d   1       9.220   8.588  -4.309  0.00  0.00     0.292 HD
ENDBRANCH   3  37
BRANCH   8  39
ATOM     39  C   LIG d   1      11.148   6.656   1.245  0.00  0.00    -0.025 C 
ATOM     40  H   LIG d   1      10.917   5.639   1.558  0.00  0.00     0.027 H 
ATOM     41  H   LIG d   1      12.171   6.901   1.528  0.00  0.00     0.027 H 
ATOM     42  H   LIG d   1      10.461   7.350   1.729  0.00  0.00     0.027 H 
ENDBRANCH   8  39
BRANCH   8  43
ATOM     43  C   LIG d   1      12.375   6.988  -0.906  0.00  0.00    -0.025 C 
ATOM     44  H   LIG d   1      12.341   6.705  -1.958  0.00  0.00     0.027 H 
ATOM     45  H   LIG d   1      12.652   8.039  -0.821  0.00  0.00     0.027 H 
ATOM     46  H   LIG d   1      13.114   6.374  -0.389  0.00  0.00     0.027 H 
ENDBRANCH   8  43
TORSDOF 10
ENDMDL
MODEL 2
REMARK VINA RESULT:      -6.1      6.998      8.961
REMARK  10 active torsions:
REMARK  status: ('A' for Active; 'I' for Inactive)
REMARK    1  A    between atoms: C_1  and  C_2 
REMARK    2  A    between atoms: C_2  and  C_3 
REMARK    3  A    between atoms: C_2  and  C_4 
REMARK    4  A    between atoms: C_4  and  N_5 
REMARK       I    between atoms: N_5  and  C_6 
REMARK    5  A    between atoms: C_6  and  C_8 
REMARK    6  A    between atoms: C_8  and  O_9 
REMARK    7  A    between atoms: O_9  and  C_10 
REMARK    8  A    between atoms: C_12  and  O_23 
REMARK    9  A    between atoms: C_17  and  C_21 
REMARK   10  A    between atoms: C_17  and  C_22 
ROOT
ATOM      1  C   LIG d   1       6.605  -1.086  -7.039  0.00  0.00     0.128 A 
ATOM      2  C   LIG d   1       6.371  -2.434  -6.796  0.00  0.00     0.022 A 
ATOM      3  C   LIG d   1       5.679  -2.824  -5.663  0.00  0.00     0.134 A 
ATOM      4  C   LIG d   1       5.217  -1.848  -4.766  0.00  0.00     0.101 A 
ATOM      5  C   LIG d   1       5.462  -0.485  -5.012  0.00  0.00     0.139 A 
ATOM      6  C   LIG d   1       6.154  -0.117  -6.152  0.00  0.00     0.023 A 
ATOM      7  O   LIG d   1       5.032   0.464  -4.147  0.00  0.00    -0.485 OA
ATOM      8  C   LIG d   1       3.947   0.152  -3.273  0.00  0.00     0.112 C 
ATOM      9  C   LIG d   1       4.259  -1.150  -2.519  0.00  0.00     0.050 C 
ATOM     10  C   LIG d   1       4.470  -2.232  -3.563  0.00  0.00     0.174 C 
ATOM     11  O   LIG d   1       4.043  -3.358  -3.409  0.00  0.00    -0.292 OA
ATOM     12  H   LIG d   1       6.728  -3.178  -7.492  0.00  0.00     0.069 H 
ATOM     13  H   LIG d   1       6.344   0.927  -6.353  0.00  0.00     0.069 H 
ATOM     14  H   LIG d   1       3.493  -1.379  -1.920  0.00  0.00     0.038 H 
ATOM     15  H   LIG d   1       5.163  -1.027  -1.923  0.00  0.00     0.038 H 
ENDROOT
BRANCH   1  16
ATOM     16  O   LIG d   1       7.286  -0.713  -8.152  0.00  0.00    -0.482 OA
BRANCH  16  17
ATOM     17  C   LIG d   1       6.737  -1.106  -9.411  0.00  0.00     0.165 C 
ATOM     18  H   LIG d   1       7.526  -1.127 -10.162  0.00  0.00     0.080 H 
ATOM     19  H   LIG d   1       6.295  -2.099  -9.320  0.00  0.00     0.080 H 
BRANCH  17  20
ATOM     20  C   LIG d   1       5.675  -0.120  -9.826  0.00  0.00     0.251 C 
ATOM     21  N   LIG d   1       4.382  -0.499  -9.864  0.00  0.00    -0.312 N 
ATOM     22  H   LIG d   1       4.135  -1.406  -9.624  0.00  0.00     0.149 HD
ATOM     23  O   LIG d   1       5.984   1.014 -10.125  0.00  0.00    -0.272 OA
BRANCH  21  24
ATOM     24  C   LIG d   1       3.350   0.459 -10.267  0.00  0.00     0.014 C 
ATOM     25  H   LIG d   1       3.823   1.358 -10.662  0.00  0.00     0.046 H 
ATOM     26  H   LIG d   1       2.719   0.012 -11.036  0.00  0.00     0.046 H 
BRANCH  24  27
ATOM     27  C   LIG d   1       2.493   0.825  -9.053  0.00  0.00    -0.031 C 
ATOM     28  H   LIG d   1       1.450   0.911  -9.358  0.00  0.00     0.031 H 
BRANCH  27  29
ATOM     29  C   LIG d   1       2.625  -0.266  -7.989  0.00  0.00    -0.061 C 
ATOM     30  H   LIG d   1       1.828  -0.999  -8.119  0.00  0.00     0.023 H 
ATOM     31  H   LIG d   1       3.592  -0.759  -8.092  0.00  0.00     0.023 H 
ATOM     32  H   LIG d   1       2.548   0.181  -6.998  0.00  0.00     0.023 H 
ENDBRANCH  27  29
BRANCH  27  33
ATOM     33  C   LIG d   1       2.968   2.160  -8.477  0.00  0.00    -0.061 C 
ATOM     34  H   LIG d   1       4.049   2.132  -8.341  0.00  0.00     0.023 H 
ATOM     35  H   LIG d   1       2.709   2.966  -9.163  0.00  0.00     0.023 H 
ATOM     36  H   LIG d   1       2.486   2.333  -7.515  0.00  0.00     0.023 H 
ENDBRANCH  27  33
ENDBRANCH  24  27
ENDBRANCH  21  24
ENDBRANCH  17  20
ENDBRANCH  16  17
ENDBRANCH   1  16
BRANCH   3  37
ATOM     37  O   LIG d   1       5.449  -4.139  -5.422  0.00  0.00    -0.506 OA
ATOM     38  H   LIG d   1       6.253  -4.662  -5.304  0.00  0.00     0.292 HD
ENDBRANCH   3  37
BRANCH   8  39
ATOM     39  C   LIG d   1       3.757   1.291  -2.268  0.00  0.00    -0.025 C 
ATOM     40  H   LIG d   1       3.158   2.080  -2.723  0.00  0.00     0.027 H 
ATOM     41  H   LIG d   1       3.248   0.912  -1.382  0.00  0.00     0.027 H 
ATOM     42  H   LIG d   1       4.730   1.690  -1.985  0.00  0.00     0.027 H 
ENDBRANCH   8  39
BRANCH   8  43
ATOM     43  C   LIG d   1       2.666  -0.025  -4.091  0.00  0.00    -0.025 C 
ATOM     44  H   LIG d   1       1.831   0.431  -3.562  0.00  0.00     0.027 H 
ATOM     45  H   LIG d   1       2.787   0.453  -5.063  0.00  0.00     0.027 H 
ATOM     46  H   LIG d   1       2.469  -1.089  -4.232  0.00  0.00     0.027 H 
ENDBRANCH   8  43
TORSDOF 10
ENDMDL
MODEL 3
REMARK VINA RESULT:      -5.9      7.470     12.203
REMARK  10 active torsions:
REMARK  status: ('A' for Active; 'I' for Inactive)
REMARK    1  A    between atoms: C_1  and  C_2 
REMARK    2  A    between atoms: C_2  and  C_3 
REMARK    3  A    between atoms: C_2  and  C_4 
REMARK    4  A    between atoms: C_4  and  N_5 
REMARK       I    between atoms: N_5  and  C_6 
REMARK    5  A    between atoms: C_6  and  C_8 
REMARK    6  A    between atoms: C_8  and  O_9 
REMARK    7  A    between atoms: O_9  and  C_10 
REMARK    8  A    between atoms: C_12  and  O_23 
REMARK    9  A    between atoms: C_17  and  C_21 
REMARK   10  A    between atoms: C_17  and  C_22 
ROOT
ATOM      1  C   LIG d   1       2.723  -0.056  -9.003  0.00  0.00     0.128 A 
ATOM      2  C   LIG d   1       3.587   0.471  -9.955  0.00  0.00     0.022 A 
ATOM      3  C   LIG d   1       3.595  -0.039 -11.242  0.00  0.00     0.134 A 
ATOM      4  C   LIG d   1       2.724  -1.089 -11.574  0.00  0.00     0.101 A 
ATOM      5  C   LIG d   1       1.856  -1.625 -10.605  0.00  0.00     0.139 A 
ATOM      6  C   LIG d   1       1.863  -1.098  -9.325  0.00  0.00     0.023 A 
ATOM      7  O   LIG d   1       1.022  -2.645 -10.911  0.00  0.00    -0.485 OA
ATOM      8  C   LIG d   1       0.668  -2.854 -12.279  0.00  0.00     0.112 C 
ATOM      9  C   LIG d   1       1.945  -2.942 -13.126  0.00  0.00     0.050 C 
ATOM     10  C   LIG d   1       2.702  -1.640 -12.933  0.00  0.00     0.174 C 
ATOM     11  O   LIG d   1       3.261  -1.084 -13.856  0.00  0.00    -0.292 OA
ATOM     12  H   LIG d   1       4.252   1.279  -9.691  0.00  0.00     0.069 H 
ATOM     13  H   LIG d   1       1.198  -1.499  -8.574  0.00  0.00     0.069 H 
ATOM     14  H   LIG d   1       1.699  -3.071 -14.087  0.00  0.00     0.038 H 
ATOM     15  H   LIG d   1       2.556  -3.780 -12.793  0.00  0.00     0.038 H 
ENDROOT
BRANCH   1  16
ATOM     16  O   LIG d   1       2.724   0.448  -7.743  0.00  0.00    -0.482 OA
BRANCH  16  17
ATOM     17  C   LIG d   1       3.630  -0.143  -6.809  0.00  0.00     0.165 C 
ATOM     18  H   LIG d   1       3.692  -1.215  -6.991  0.00  0.00     0.080 H 
ATOM     19  H   LIG d   1       4.618   0.304  -6.929  0.00  0.00     0.080 H 
BRANCH  17  20
ATOM     20  C   LIG d   1       3.135   0.100  -5.406  0.00  0.00     0.251 C 
ATOM     21  N   LIG d   1       3.268  -0.860  -4.469  0.00  0.00    -0.312 N 
ATOM     22  H   LIG d   1       3.682  -1.707  -4.698  0.00  0.00     0.149 HD
ATOM     23  O   LIG d   1       2.618   1.160  -5.121  0.00  0.00    -0.272 OA
BRANCH  21  24
ATOM     24  C   LIG d   1       2.786  -0.623  -3.106  0.00  0.00     0.014 C 
ATOM     25  H   LIG d   1       2.355   0.376  -3.041  0.00  0.00     0.046 H 
ATOM     26  H   LIG d   1       2.026  -1.364  -2.856  0.00  0.00     0.046 H 
BRANCH  24  27
ATOM     27  C   LIG d   1       3.955  -0.739  -2.126  0.00  0.00    -0.031 C 
ATOM     28  H   LIG d   1       3.611  -1.207  -1.204  0.00  0.00     0.031 H 
BRANCH  27  29
ATOM     29  C   LIG d   1       5.060  -1.595  -2.750  0.00  0.00    -0.061 C 
ATOM     30  H   LIG d   1       4.680  -2.601  -2.934  0.00  0.00     0.023 H 
ATOM     31  H   LIG d   1       5.377  -1.149  -3.692  0.00  0.00     0.023 H 
ATOM     32  H   LIG d   1       5.908  -1.648  -2.068  0.00  0.00     0.023 H 
ENDBRANCH  27  29
BRANCH  27  33
ATOM     33  C   LIG d   1       4.504   0.655  -1.818  0.00  0.00    -0.061 C 
ATOM     34  H   LIG d   1       5.357   0.568  -1.144  0.00  0.00     0.023 H 
ATOM     35  H   LIG d   1       4.820   1.134  -2.744  0.00  0.00     0.023 H 
ATOM     36  H   LIG d   1       3.727   1.255  -1.344  0.00  0.00     0.023 H 
ENDBRANCH  27  33
ENDBRANCH  24  27
ENDBRANCH  21  24
ENDBRANCH  17  20
ENDBRANCH  16  17
ENDBRANCH   1  16
BRANCH   3  37
ATOM     37  O   LIG d   1       4.437   0.473 -12.173  0.00  0.00    -0.506 OA
ATOM     38  H   LIG d   1       5.359   0.207 -12.057  0.00  0.00     0.292 HD
ENDBRANCH   3  37
BRANCH   8  39
ATOM     39  C   LIG d   1      -0.122  -4.158 -12.408  0.00  0.00    -0.025 C 
ATOM     40  H   LIG d   1       0.541  -5.004 -12.231  0.00  0.00     0.027 H 
ATOM     41  H   LIG d   1      -0.929  -4.168 -11.675  0.00  0.00     0.027 H 
ATOM     42  H   LIG d   1      -0.542  -4.230 -13.411  0.00  0.00     0.027 H 
ENDBRANCH   8  39
BRANCH   8  43
ATOM     43  C   LIG d   1      -0.191  -1.686 -12.768  0.00  0.00    -0.025 C 
ATOM     44  H   LIG d   1       0.342  -0.750 -12.606  0.00  0.00     0.027 H 
ATOM     45  H   LIG d   1      -0.400  -1.808 -13.831  0.00  0.00     0.027 H 
ATOM     46  H   LIG d   1      -1.131  -1.669 -12.214  0.00  0.00     0.027 H 
ENDBRANCH   8  43
TORSDOF 10
ENDMDL
MODEL 4
REMARK VINA RESULT:      -5.9      7.261     11.453
REMARK  10 active torsions:
REMARK  status: ('A' for Active; 'I' for Inactive)
REMARK    1  A    between atoms: C_1  and  C_2 
REMARK    2  A    between atoms: C_2  and  C_3 
REMARK    3  A    between atoms: C_2  and  C_4 
REMARK    4  A    between atoms: C_4  and  N_5 
REMARK       I    between atoms: N_5  and  C_6 
REMARK    5  A    between atoms: C_6  and  C_8 
REMARK    6  A    between atoms: C_8  and  O_9 
REMARK    7  A    between atoms: O_9  and  C_10 
REMARK    8  A    between atoms: C_12  and  O_23 
REMARK    9  A    between atoms: C_17  and  C_21 
REMARK   10  A    between atoms: C_17  and  C_22 
ROOT
ATOM      1  C   LIG d   1       2.596  -0.216  -8.890  0.00  0.00     0.128 A 
ATOM      2  C   LIG d   1       1.481  -0.582  -9.632  0.00  0.00     0.022 A 
ATOM      3  C   LIG d   1       1.619  -0.934 -10.963  0.00  0.00     0.134 A 
ATOM      4  C   LIG d   1       2.893  -0.919 -11.553  0.00  0.00     0.101 A 
ATOM      5  C   LIG d   1       4.019  -0.541 -10.799  0.00  0.00     0.139 A 
ATOM      6  C   LIG d   1       3.858  -0.194  -9.470  0.00  0.00     0.023 A 
ATOM      7  O   LIG d   1       5.250  -0.510 -11.361  0.00  0.00    -0.485 OA
ATOM      8  C   LIG d   1       5.490  -1.300 -12.527  0.00  0.00     0.112 C 
ATOM      9  C   LIG d   1       4.419  -0.987 -13.582  0.00  0.00     0.050 C 
ATOM     10  C   LIG d   1       3.071  -1.300 -12.958  0.00  0.00     0.174 C 
ATOM     11  O   LIG d   1       2.185  -1.838 -13.590  0.00  0.00    -0.292 OA
ATOM     12  H   LIG d   1       0.505  -0.592  -9.170  0.00  0.00     0.069 H 
ATOM     13  H   LIG d   1       4.716   0.094  -8.880  0.00  0.00     0.069 H 
ATOM     14  H   LIG d   1       4.576  -1.551 -14.392  0.00  0.00     0.038 H 
ATOM     15  H   LIG d   1       4.465   0.066 -13.858  0.00  0.00     0.038 H 
ENDROOT
BRANCH   1  16
ATOM     16  O   LIG d   1       2.451   0.131  -7.586  0.00  0.00    -0.482 OA
BRANCH  16  17
ATOM     17  C   LIG d   1       3.550  -0.147  -6.715  0.00  0.00     0.165 C 
ATOM     18  H   LIG d   1       3.870  -1.179  -6.852  0.00  0.00     0.080 H 
ATOM     19  H   LIG d   1       4.377   0.525  -6.948  0.00  0.00     0.080 H 
BRANCH  17  20
ATOM     20  C   LIG d   1       3.122   0.061  -5.285  0.00  0.00     0.251 C 
ATOM     21  N   LIG d   1       3.221  -0.950  -4.399  0.00  0.00    -0.312 N 
ATOM     22  H   LIG d   1       3.567  -1.811  -4.682  0.00  0.00     0.149 HD
ATOM     23  O   LIG d   1       2.689   1.137  -4.932  0.00  0.00    -0.272 OA
BRANCH  21  24
ATOM     24  C   LIG d   1       2.804  -0.749  -3.009  0.00  0.00     0.014 C 
ATOM     25  H   LIG d   1       2.316   0.221  -2.913  0.00  0.00     0.046 H 
ATOM     26  H   LIG d   1       2.108  -1.536  -2.720  0.00  0.00     0.046 H 
BRANCH  24  27
ATOM     27  C   LIG d   1       4.033  -0.794  -2.098  0.00  0.00    -0.031 C 
ATOM     28  H   LIG d   1       3.762  -1.251  -1.146  0.00  0.00     0.031 H 
BRANCH  27  29
ATOM     29  C   LIG d   1       5.132  -1.623  -2.767  0.00  0.00    -0.061 C 
ATOM     30  H   LIG d   1       4.717  -2.573  -3.103  0.00  0.00     0.023 H 
ATOM     31  H   LIG d   1       5.529  -1.076  -3.621  0.00  0.00     0.023 H 
ATOM     32  H   LIG d   1       5.933  -1.810  -2.051  0.00  0.00     0.023 H 
ENDBRANCH  27  29
BRANCH  27  33
ATOM     33  C   LIG d   1       4.542   0.628  -1.855  0.00  0.00    -0.061 C 
ATOM     34  H   LIG d   1       5.627   0.611  -1.751  0.00  0.00     0.023 H 
ATOM     35  H   LIG d   1       4.268   1.261  -2.699  0.00  0.00     0.023 H 
ATOM     36  H   LIG d   1       4.095   1.024  -0.944  0.00  0.00     0.023 H 
ENDBRANCH  27  33
ENDBRANCH  24  27
ENDBRANCH  21  24
ENDBRANCH  17  20
ENDBRANCH  16  17
ENDBRANCH   1  16
BRANCH   3  37
ATOM     37  O   LIG d   1       0.532  -1.292 -11.691  0.00  0.00    -0.506 OA
ATOM     38  H   LIG d   1       0.743  -1.791 -12.492  0.00  0.00     0.292 HD
ENDBRANCH   3  37
BRANCH   8  39
ATOM     39  C   LIG d   1       6.874  -0.969 -13.091  0.00  0.00    -0.025 C 
ATOM     40  H   LIG d   1       7.546  -1.810 -12.921  0.00  0.00     0.027 H 
ATOM     41  H   LIG d   1       6.794  -0.777 -14.160  0.00  0.00     0.027 H 
ATOM     42  H   LIG d   1       7.268  -0.084 -12.591  0.00  0.00     0.027 H 
ENDBRANCH   8  39
BRANCH   8  43
ATOM     43  C   LIG d   1       5.430  -2.784 -12.161  0.00  0.00    -0.025 C 
ATOM     44  H   LIG d   1       4.435  -3.026 -11.790  0.00  0.00     0.027 H 
ATOM     45  H   LIG d   1       5.647  -3.385 -13.044  0.00  0.00     0.027 H 
ATOM     46  H   LIG d   1       6.168  -2.997 -11.386  0.00  0.00     0.027 H 
ENDBRANCH   8  43
TORSDOF 10
ENDMDL
MODEL 5
REMARK VINA RESULT:      -5.9      1.085      2.597
REMARK  10 active torsions:
REMARK  status: ('A' for Active; 'I' for Inactive)
REMARK    1  A    between atoms: C_1  and  C_2 
REMARK    2  A    between atoms: C_2  and  C_3 
REMARK    3  A    between atoms: C_2  and  C_4 
REMARK    4  A    between atoms: C_4  and  N_5 
REMARK       I    between atoms: N_5  and  C_6 
REMARK    5  A    between atoms: C_6  and  C_8 
REMARK    6  A    between atoms: C_8  and  O_9 
REMARK    7  A    between atoms: O_9  and  C_10 
REMARK    8  A    between atoms: C_12  and  O_23 
REMARK    9  A    between atoms: C_17  and  C_21 
REMARK   10  A    between atoms: C_17  and  C_22 
ROOT
ATOM      1  C   LIG d   1       9.631   4.493  -3.535  0.00  0.00     0.128 A 
ATOM      2  C   LIG d   1      10.380   4.024  -2.463  0.00  0.00     0.022 A 
ATOM      3  C   LIG d   1      10.974   4.918  -1.588  0.00  0.00     0.134 A 
ATOM      4  C   LIG d   1      10.812   6.296  -1.795  0.00  0.00     0.101 A 
ATOM      5  C   LIG d   1      10.059   6.768  -2.886  0.00  0.00     0.139 A 
ATOM      6  C   LIG d   1       9.473   5.857  -3.746  0.00  0.00     0.023 A 
ATOM      7  O   LIG d   1       9.907   8.095  -3.102  0.00  0.00    -0.485 OA
ATOM      8  C   LIG d   1      10.079   8.991  -2.003  0.00  0.00     0.112 C 
ATOM      9  C   LIG d   1      11.431   8.716  -1.329  0.00  0.00     0.050 C 
ATOM     10  C   LIG d   1      11.419   7.266  -0.877  0.00  0.00     0.174 C 
ATOM     11  O   LIG d   1      11.889   6.927   0.190  0.00  0.00    -0.292 OA
ATOM     12  H   LIG d   1      10.498   2.962  -2.311  0.00  0.00     0.069 H 
ATOM     13  H   LIG d   1       8.889   6.207  -4.585  0.00  0.00     0.069 H 
ATOM     14  H   LIG d   1      11.546   9.330  -0.549  0.00  0.00     0.038 H 
ATOM     15  H   LIG d   1      12.241   8.876  -2.040  0.00  0.00     0.038 H 
ENDROOT
BRANCH   1  16
ATOM     16  O   LIG d   1       9.055   3.610  -4.390  0.00  0.00    -0.482 OA
BRANCH  16  17
ATOM     17  C   LIG d   1       9.104   2.229  -4.025  0.00  0.00     0.165 C 
ATOM     18  H   LIG d   1       9.868   1.724  -4.616  0.00  0.00     0.080 H 
ATOM     19  H   LIG d   1       9.347   2.142  -2.966  0.00  0.00     0.080 H 
BRANCH  17  20
ATOM     20  C   LIG d   1       7.763   1.592  -4.287  0.00  0.00     0.251 C 
ATOM     21  N   LIG d   1       7.035   1.109  -3.261  0.00  0.00    -0.312 N 
ATOM     22  H   LIG d   1       7.374   1.171  -2.354  0.00  0.00     0.149 HD
ATOM     23  O   LIG d   1       7.341   1.515  -5.421  0.00  0.00    -0.272 OA
BRANCH  21  24
ATOM     24  C   LIG d   1       5.732   0.490  -3.516  0.00  0.00     0.014 C 
ATOM     25  H   LIG d   1       5.185   1.084  -4.248  0.00  0.00     0.046 H 
ATOM     26  H   LIG d   1       5.879  -0.519  -3.904  0.00  0.00     0.046 H 
BRANCH  24  27
ATOM     27  C   LIG d   1       4.935   0.425  -2.212  0.00  0.00    -0.031 C 
ATOM     28  H   LIG d   1       5.573   0.729  -1.382  0.00  0.00     0.031 H 
BRANCH  27  29
ATOM     29  C   LIG d   1       3.733   1.367  -2.302  0.00  0.00    -0.061 C 
ATOM     30  H   LIG d   1       3.441   1.682  -1.300  0.00  0.00     0.023 H 
ATOM     31  H   LIG d   1       4.000   2.242  -2.894  0.00  0.00     0.023 H 
ATOM     32  H   LIG d   1       2.899   0.848  -2.776  0.00  0.00     0.023 H 
ENDBRANCH  27  29
BRANCH  27  33
ATOM     33  C   LIG d   1       4.446  -1.006  -1.983  0.00  0.00    -0.061 C 
ATOM     34  H   LIG d   1       4.781  -1.352  -1.005  0.00  0.00     0.023 H 
ATOM     35  H   LIG d   1       3.357  -1.028  -2.022  0.00  0.00     0.023 H 
ATOM     36  H   LIG d   1       4.850  -1.657  -2.757  0.00  0.00     0.023 H 
ENDBRANCH  27  33
ENDBRANCH  24  27
ENDBRANCH  21  24
ENDBRANCH  17  20
ENDBRANCH  16  17
ENDBRANCH   1  16
BRANCH   3  37
ATOM     37  O   LIG d   1      11.705   4.463  -0.541  0.00  0.00    -0.506 OA
ATOM     38  H   LIG d   1      12.027   5.162   0.045  0.00  0.00     0.292 HD
ENDBRANCH   3  37
BRANCH   8  39
ATOM     39  C   LIG d   1      10.046  10.434  -2.511  0.00  0.00    -0.025 C 
ATOM     40  H   LIG d   1      10.816  10.569  -3.271  0.00  0.00     0.027 H 
ATOM     41  H   LIG d   1       9.068  10.645  -2.943  0.00  0.00     0.027 H 
ATOM     42  H   LIG d   1      10.232  11.116  -1.681  0.00  0.00     0.027 H 
ENDBRANCH   8  39
BRANCH   8  43
ATOM     43  C   LIG d   1       8.951   8.781  -0.991  0.00  0.00    -0.025 C 
ATOM     44  H   LIG d   1       7.991   8.965  -1.474  0.00  0.00     0.027 H 
ATOM     45  H   LIG d   1       8.982   7.757  -0.619  0.00  0.00     0.027 H 
ATOM     46  H   LIG d   1       9.076   9.474  -0.158  0.00  0.00     0.027 H 
ENDBRANCH   8  43
TORSDOF 10
ENDMDL
MODEL 6
REMARK VINA RESULT:      -5.7      7.368     10.545
REMARK  10 active torsions:
REMARK  status: ('A' for Active; 'I' for Inactive)
REMARK    1  A    between atoms: C_1  and  C_2 
REMARK    2  A    between atoms: C_2  and  C_3 
REMARK    3  A    between atoms: C_2  and  C_4 
REMARK    4  A    between atoms: C_4  and  N_5 
REMARK       I    between atoms: N_5  and  C_6 
REMARK    5  A    between atoms: C_6  and  C_8 
REMARK    6  A    between atoms: C_8  and  O_9 
REMARK    7  A    between atoms: O_9  and  C_10 
REMARK    8  A    between atoms: C_12  and  O_23 
REMARK    9  A    between atoms: C_17  and  C_21 
REMARK   10  A    between atoms: C_17  and  C_22 
ROOT
ATOM      1  C   LIG d   1       6.181  -5.072  -5.235  0.00  0.00     0.128 A 
ATOM      2  C   LIG d   1       7.413  -4.481  -4.984  0.00  0.00     0.022 A 
ATOM      3  C   LIG d   1       7.474  -3.183  -4.507  0.00  0.00     0.134 A 
ATOM      4  C   LIG d   1       6.285  -2.473  -4.280  0.00  0.00     0.101 A 
ATOM      5  C   LIG d   1       5.039  -3.073  -4.543  0.00  0.00     0.139 A 
ATOM      6  C   LIG d   1       5.001  -4.372  -5.017  0.00  0.00     0.023 A 
ATOM      7  O   LIG d   1       3.886  -2.394  -4.340  0.00  0.00    -0.485 OA
ATOM      8  C   LIG d   1       3.892  -1.292  -3.431  0.00  0.00     0.112 C 
ATOM      9  C   LIG d   1       5.018  -0.321  -3.816  0.00  0.00     0.050 C 
ATOM     10  C   LIG d   1       6.319  -1.101  -3.763  0.00  0.00     0.174 C 
ATOM     11  O   LIG d   1       7.337  -0.613  -3.317  0.00  0.00    -0.292 OA
ATOM     12  H   LIG d   1       8.323  -5.035  -5.160  0.00  0.00     0.069 H 
ATOM     13  H   LIG d   1       4.050  -4.845  -5.218  0.00  0.00     0.069 H 
ATOM     14  H   LIG d   1       5.034   0.442  -3.171  0.00  0.00     0.038 H 
ATOM     15  H   LIG d   1       4.853   0.059  -4.824  0.00  0.00     0.038 H 
ENDROOT
BRANCH   1  16
ATOM     16  O   LIG d   1       6.130  -6.344  -5.705  0.00  0.00    -0.482 OA
BRANCH  16  17
ATOM     17  C   LIG d   1       4.842  -6.852  -6.063  0.00  0.00     0.165 C 
ATOM     18  H   LIG d   1       4.085  -6.412  -5.413  0.00  0.00     0.080 H 
ATOM     19  H   LIG d   1       4.626  -6.594  -7.100  0.00  0.00     0.080 H 
BRANCH  17  20
ATOM     20  C   LIG d   1       4.832  -8.351  -5.904  0.00  0.00     0.251 C 
ATOM     21  N   LIG d   1       5.387  -8.916  -4.814  0.00  0.00    -0.312 N 
ATOM     22  H   LIG d   1       5.793  -8.359  -4.132  0.00  0.00     0.149 HD
ATOM     23  O   LIG d   1       4.324  -9.047  -6.757  0.00  0.00    -0.272 OA
BRANCH  21  24
ATOM     24  C   LIG d   1       5.377 -10.373  -4.660  0.00  0.00     0.014 C 
ATOM     25  H   LIG d   1       4.773 -10.818  -5.450  0.00  0.00     0.046 H 
ATOM     26  H   LIG d   1       6.398 -10.752  -4.726  0.00  0.00     0.046 H 
BRANCH  24  27
ATOM     27  C   LIG d   1       4.784 -10.737  -3.298  0.00  0.00    -0.031 C 
ATOM     28  H   LIG d   1       4.669 -11.819  -3.229  0.00  0.00     0.031 H 
BRANCH  27  29
ATOM     29  C   LIG d   1       5.721 -10.253  -2.189  0.00  0.00    -0.061 C 
ATOM     30  H   LIG d   1       6.750 -10.263  -2.551  0.00  0.00     0.023 H 
ATOM     31  H   LIG d   1       5.448  -9.239  -1.899  0.00  0.00     0.023 H 
ATOM     32  H   LIG d   1       5.635 -10.913  -1.326  0.00  0.00     0.023 H 
ENDBRANCH  27  29
BRANCH  27  33
ATOM     33  C   LIG d   1       3.419 -10.067  -3.140  0.00  0.00    -0.061 C 
ATOM     34  H   LIG d   1       2.962 -10.391  -2.204  0.00  0.00     0.023 H 
ATOM     35  H   LIG d   1       3.544  -8.984  -3.127  0.00  0.00     0.023 H 
ATOM     36  H   LIG d   1       2.776 -10.348  -3.974  0.00  0.00     0.023 H 
ENDBRANCH  27  33
ENDBRANCH  24  27
ENDBRANCH  21  24
ENDBRANCH  17  20
ENDBRANCH  16  17
ENDBRANCH   1  16
BRANCH   3  37
ATOM     37  O   LIG d   1       8.675  -2.603  -4.261  0.00  0.00    -0.506 OA
ATOM     38  H   LIG d   1       9.430  -3.108  -4.591  0.00  0.00     0.292 HD
ENDBRANCH   3  37
BRANCH   8  39
ATOM     39  C   LIG d   1       2.546  -0.567  -3.500  0.00  0.00    -0.025 C 
ATOM     40  H   LIG d   1       2.571   0.308  -2.851  0.00  0.00     0.027 H 
ATOM     41  H   LIG d   1       2.355  -0.253  -4.526  0.00  0.00     0.027 H 
ATOM     42  H   LIG d   1       1.754  -1.240  -3.172  0.00  0.00     0.027 H 
ENDBRANCH   8  39
BRANCH   8  43
ATOM     43  C   LIG d   1       4.123  -1.805  -2.008  0.00  0.00    -0.025 C 
ATOM     44  H   LIG d   1       5.082  -1.440  -1.642  0.00  0.00     0.027 H 
ATOM     45  H   LIG d   1       3.324  -1.446  -1.358  0.00  0.00     0.027 H 
ATOM     46  H   LIG d   1       4.126  -2.895  -2.011  0.00  0.00     0.027 H 
ENDBRANCH   8  43
TORSDOF 10
ENDMDL
MODEL 7
REMARK VINA RESULT:      -5.7      7.269      9.873
REMARK  10 active torsions:
REMARK  status: ('A' for Active; 'I' for Inactive)
REMARK    1  A    between atoms: C_1  and  C_2 
REMARK    2  A    between atoms: C_2  and  C_3 
REMARK    3  A    between atoms: C_2  and  C_4 
REMARK    4  A    between atoms: C_4  and  N_5 
REMARK       I    between atoms: N_5  and  C_6 
REMARK    5  A    between atoms: C_6  and  C_8 
REMARK    6  A    between atoms: C_8  and  O_9 
REMARK    7  A    between atoms: O_9  and  C_10 
REMARK    8  A    between atoms: C_12  and  O_23 
REMARK    9  A    between atoms: C_17  and  C_21 
REMARK   10  A    between atoms: C_17  and  C_22 
ROOT
ATOM      1  C   LIG d   1       3.076  -0.482  -7.570  0.00  0.00     0.128 A 
ATOM      2  C   LIG d   1       3.854  -1.613  -7.782  0.00  0.00     0.022 A 
ATOM      3  C   LIG d   1       4.669  -2.094  -6.771  0.00  0.00     0.134 A 
ATOM      4  C   LIG d   1       4.700  -1.430  -5.535  0.00  0.00     0.101 A 
ATOM      5  C   LIG d   1       3.915  -0.281  -5.326  0.00  0.00     0.139 A 
ATOM      6  C   LIG d   1       3.107   0.181  -6.350  0.00  0.00     0.023 A 
ATOM      7  O   LIG d   1       3.947   0.374  -4.142  0.00  0.00    -0.485 OA
ATOM      8  C   LIG d   1       4.372  -0.336  -2.978  0.00  0.00     0.112 C 
ATOM      9  C   LIG d   1       5.730  -0.998  -3.254  0.00  0.00     0.050 C 
ATOM     10  C   LIG d   1       5.544  -1.924  -4.442  0.00  0.00     0.174 C 
ATOM     11  O   LIG d   1       6.068  -3.018  -4.485  0.00  0.00    -0.292 OA
ATOM     12  H   LIG d   1       3.823  -2.118  -8.736  0.00  0.00     0.069 H 
ATOM     13  H   LIG d   1       2.497   1.060  -6.200  0.00  0.00     0.069 H 
ATOM     14  H   LIG d   1       6.021  -1.509  -2.446  0.00  0.00     0.038 H 
ATOM     15  H   LIG d   1       6.474  -0.237  -3.489  0.00  0.00     0.038 H 
ENDROOT
BRANCH   1  16
ATOM     16  O   LIG d   1       2.282  -0.016  -8.567  0.00  0.00    -0.482 OA
BRANCH  16  17
ATOM     17  C   LIG d   1       2.626   1.251  -9.130  0.00  0.00     0.165 C 
ATOM     18  H   LIG d   1       1.727   1.739  -9.505  0.00  0.00     0.080 H 
ATOM     19  H   LIG d   1       3.086   1.876  -8.364  0.00  0.00     0.080 H 
BRANCH  17  20
ATOM     20  C   LIG d   1       3.599   1.049 -10.265  0.00  0.00     0.251 C 
ATOM     21  N   LIG d   1       3.360   0.104 -11.195  0.00  0.00    -0.312 N 
ATOM     22  H   LIG d   1       2.563  -0.446 -11.135  0.00  0.00     0.149 HD
ATOM     23  O   LIG d   1       4.595   1.737 -10.339  0.00  0.00    -0.272 OA
BRANCH  21  24
ATOM     24  C   LIG d   1       4.305  -0.093 -12.298  0.00  0.00     0.014 C 
ATOM     25  H   LIG d   1       4.210   0.727 -13.008  0.00  0.00     0.046 H 
ATOM     26  H   LIG d   1       5.322  -0.117 -11.904  0.00  0.00     0.046 H 
BRANCH  24  27
ATOM     27  C   LIG d   1       3.998  -1.417 -13.000  0.00  0.00    -0.031 C 
ATOM     28  H   LIG d   1       4.332  -1.364 -14.036  0.00  0.00     0.031 H 
BRANCH  27  29
ATOM     29  C   LIG d   1       4.731  -2.555 -12.286  0.00  0.00    -0.061 C 
ATOM     30  H   LIG d   1       5.462  -2.137 -11.593  0.00  0.00     0.023 H 
ATOM     31  H   LIG d   1       4.013  -3.160 -11.735  0.00  0.00     0.023 H 
ATOM     32  H   LIG d   1       5.242  -3.176 -13.021  0.00  0.00     0.023 H 
ENDBRANCH  27  29
BRANCH  27  33
ATOM     33  C   LIG d   1       2.492  -1.678 -12.962  0.00  0.00    -0.061 C 
ATOM     34  H   LIG d   1       2.030  -1.271 -13.862  0.00  0.00     0.023 H 
ATOM     35  H   LIG d   1       2.310  -2.752 -12.915  0.00  0.00     0.023 H 
ATOM     36  H   LIG d   1       2.061  -1.197 -12.084  0.00  0.00     0.023 H 
ENDBRANCH  27  33
ENDBRANCH  24  27
ENDBRANCH  21  24
ENDBRANCH  17  20
ENDBRANCH  16  17
ENDBRANCH   1  16
BRANCH   3  37
ATOM     37  O   LIG d   1       5.430  -3.198  -6.975  0.00  0.00    -0.506 OA
ATOM     38  H   LIG d   1       5.860  -3.223  -7.841  0.00  0.00     0.292 HD
ENDBRANCH   3  37
BRANCH   8  39
ATOM     39  C   LIG d   1       4.507   0.639  -1.807  0.00  0.00    -0.025 C 
ATOM     40  H   LIG d   1       3.723   1.394  -1.869  0.00  0.00     0.027 H 
ATOM     41  H   LIG d   1       4.413   0.094  -0.868  0.00  0.00     0.027 H 
ATOM     42  H   LIG d   1       5.481   1.125  -1.849  0.00  0.00     0.027 H 
ENDBRANCH   8  39
BRANCH   8  43
ATOM     43  C   LIG d   1       3.340  -1.411  -2.631  0.00  0.00    -0.025 C 
ATOM     44  H   LIG d   1       3.411  -1.653  -1.571  0.00  0.00     0.027 H 
ATOM     45  H   LIG d   1       2.340  -1.040  -2.854  0.00  0.00     0.027 H 
ATOM     46  H   LIG d   1       3.535  -2.306  -3.221  0.00  0.00     0.027 H 
ENDBRANCH   8  43
TORSDOF 10
ENDMDL
MODEL 8
REMARK VINA RESULT:      -5.6      5.751      9.378
REMARK  10 active torsions:
REMARK  status: ('A' for Active; 'I' for Inactive)
REMARK    1  A    between atoms: C_1  and  C_2 
REMARK    2  A    between atoms: C_2  and  C_3 
REMARK    3  A    between atoms: C_2  and  C_4 
REMARK    4  A    between atoms: C_4  and  N_5 
REMARK       I    between atoms: N_5  and  C_6 
REMARK    5  A    between atoms: C_6  and  C_8 
REMARK    6  A    between atoms: C_8  and  O_9 
REMARK    7  A    between atoms: O_9  and  C_10 
REMARK    8  A    between atoms: C_12  and  O_23 
REMARK    9  A    between atoms: C_17  and  C_21 
REMARK   10  A    between atoms: C_17  and  C_22 
ROOT
ATOM      1  C   LIG d   1       6.301  -0.497  -6.848  0.00  0.00     0.128 A 
ATOM      2  C   LIG d   1       6.615   0.670  -7.533  0.00  0.00     0.022 A 
ATOM      3  C   LIG d   1       5.940   0.994  -8.697  0.00  0.00     0.134 A 
ATOM      4  C   LIG d   1       4.939   0.135  -9.176  0.00  0.00     0.101 A 
ATOM      5  C   LIG d   1       4.628  -1.050  -8.484  0.00  0.00     0.139 A 
ATOM      6  C   LIG d   1       5.314  -1.353  -7.321  0.00  0.00     0.023 A 
ATOM      7  O   LIG d   1       3.674  -1.892  -8.944  0.00  0.00    -0.485 OA
ATOM      8  C   LIG d   1       2.670  -1.375  -9.820  0.00  0.00     0.112 C 
ATOM      9  C   LIG d   1       3.344  -0.647 -10.992  0.00  0.00     0.050 C 
ATOM     10  C   LIG d   1       4.199   0.459 -10.401  0.00  0.00     0.174 C 
ATOM     11  O   LIG d   1       4.266   1.557 -10.915  0.00  0.00    -0.292 OA
ATOM     12  H   LIG d   1       7.386   1.326  -7.156  0.00  0.00     0.069 H 
ATOM     13  H   LIG d   1       5.082  -2.258  -6.779  0.00  0.00     0.069 H 
ATOM     14  H   LIG d   1       2.643  -0.270 -11.597  0.00  0.00     0.038 H 
ATOM     15  H   LIG d   1       3.971  -1.342 -11.551  0.00  0.00     0.038 H 
ENDROOT
BRANCH   1  16
ATOM     16  O   LIG d   1       6.969  -0.809  -5.709  0.00  0.00    -0.482 OA
BRANCH  16  17
ATOM     17  C   LIG d   1       7.536   0.277  -4.972  0.00  0.00     0.165 C 
ATOM     18  H   LIG d   1       8.508  -0.018  -4.578  0.00  0.00     0.080 H 
ATOM     19  H   LIG d   1       7.657   1.138  -5.630  0.00  0.00     0.080 H 
BRANCH  17  20
ATOM     20  C   LIG d   1       6.620   0.642  -3.831  0.00  0.00     0.251 C 
ATOM     21  N   LIG d   1       5.804  -0.290  -3.300  0.00  0.00    -0.312 N 
ATOM     22  H   LIG d   1       5.805  -1.194  -3.652  0.00  0.00     0.149 HD
ATOM     23  O   LIG d   1       6.619   1.772  -3.393  0.00  0.00    -0.272 OA
BRANCH  21  24
ATOM     24  C   LIG d   1       4.913   0.064  -2.191  0.00  0.00     0.014 C 
ATOM     25  H   LIG d   1       5.383  -0.210  -1.247  0.00  0.00     0.046 H 
ATOM     26  H   LIG d   1       4.725   1.138  -2.206  0.00  0.00     0.046 H 
BRANCH  24  27
ATOM     27  C   LIG d   1       3.590  -0.688  -2.342  0.00  0.00    -0.031 C 
ATOM     28  H   LIG d   1       2.967  -0.506  -1.466  0.00  0.00     0.031 H 
BRANCH  27  29
ATOM     29  C   LIG d   1       2.864  -0.196  -3.596  0.00  0.00    -0.061 C 
ATOM     30  H   LIG d   1       2.573  -1.052  -4.207  0.00  0.00     0.023 H 
ATOM     31  H   LIG d   1       1.974   0.361  -3.305  0.00  0.00     0.023 H 
ATOM     32  H   LIG d   1       3.527   0.451  -4.170  0.00  0.00     0.023 H 
ENDBRANCH  27  29
BRANCH  27  33
ATOM     33  C   LIG d   1       3.866  -2.187  -2.468  0.00  0.00    -0.061 C 
ATOM     34  H   LIG d   1       4.691  -2.461  -1.809  0.00  0.00     0.023 H 
ATOM     35  H   LIG d   1       2.975  -2.747  -2.184  0.00  0.00     0.023 H 
ATOM     36  H   LIG d   1       4.131  -2.423  -3.499  0.00  0.00     0.023 H 
ENDBRANCH  27  33
ENDBRANCH  24  27
ENDBRANCH  21  24
ENDBRANCH  17  20
ENDBRANCH  16  17
ENDBRANCH   1  16
BRANCH   3  37
ATOM     37  O   LIG d   1       6.244   2.133  -9.368  0.00  0.00    -0.506 OA
ATOM     38  H   LIG d   1       7.193   2.304  -9.440  0.00  0.00     0.292 HD
ENDBRANCH   3  37
BRANCH   8  39
ATOM     39  C   LIG d   1       1.819  -2.528 -10.356  0.00  0.00    -0.025 C 
ATOM     40  H   LIG d   1       2.438  -3.184 -10.967  0.00  0.00     0.027 H 
ATOM     41  H   LIG d   1       1.405  -3.093  -9.521  0.00  0.00     0.027 H 
ATOM     42  H   LIG d   1       1.006  -2.128 -10.962  0.00  0.00     0.027 H 
ENDBRANCH   8  39
BRANCH   8  43
ATOM     43  C   LIG d   1       1.778  -0.396  -9.054  0.00  0.00    -0.025 C 
ATOM     44  H   LIG d   1       0.745  -0.740  -9.091  0.00  0.00     0.027 H 
ATOM     45  H   LIG d   1       2.107  -0.340  -8.016  0.00  0.00     0.027 H 
ATOM     46  H   LIG d   1       1.849   0.592  -9.510  0.00  0.00     0.027 H 
ENDBRANCH   8  43
TORSDOF 10
ENDMDL
MODEL 9
REMARK VINA RESULT:      -5.5      7.278     12.054
REMARK  10 active torsions:
REMARK  status: ('A' for Active; 'I' for Inactive)
REMARK    1  A    between atoms: C_1  and  C_2 
REMARK    2  A    between atoms: C_2  and  C_3 
REMARK    3  A    between atoms: C_2  and  C_4 
REMARK    4  A    between atoms: C_4  and  N_5 
REMARK       I    between atoms: N_5  and  C_6 
REMARK    5  A    between atoms: C_6  and  C_8 
REMARK    6  A    between atoms: C_8  and  O_9 
REMARK    7  A    between atoms: O_9  and  C_10 
REMARK    8  A    between atoms: C_12  and  O_23 
REMARK    9  A    between atoms: C_17  and  C_21 
REMARK   10  A    between atoms: C_17  and  C_22 
ROOT
ATOM      1  C   LIG d   1       5.108  -4.309  -6.255  0.00  0.00     0.128 A 
ATOM      2  C   LIG d   1       6.491  -4.318  -6.390  0.00  0.00     0.022 A 
ATOM      3  C   LIG d   1       7.212  -5.453  -6.065  0.00  0.00     0.134 A 
ATOM      4  C   LIG d   1       6.536  -6.591  -5.599  0.00  0.00     0.101 A 
ATOM      5  C   LIG d   1       5.136  -6.576  -5.456  0.00  0.00     0.139 A 
ATOM      6  C   LIG d   1       4.435  -5.431  -5.789  0.00  0.00     0.023 A 
ATOM      7  O   LIG d   1       4.475  -7.664  -4.995  0.00  0.00    -0.485 OA
ATOM      8  C   LIG d   1       5.097  -8.944  -5.114  0.00  0.00     0.112 C 
ATOM      9  C   LIG d   1       6.505  -8.883  -4.505  0.00  0.00     0.050 C 
ATOM     10  C   LIG d   1       7.274  -7.812  -5.258  0.00  0.00     0.174 C 
ATOM     11  O   LIG d   1       8.440  -7.959  -5.562  0.00  0.00    -0.292 OA
ATOM     12  H   LIG d   1       7.003  -3.438  -6.751  0.00  0.00     0.069 H 
ATOM     13  H   LIG d   1       3.359  -5.410  -5.687  0.00  0.00     0.069 H 
ATOM     14  H   LIG d   1       6.949  -9.774  -4.602  0.00  0.00     0.038 H 
ATOM     15  H   LIG d   1       6.443  -8.622  -3.449  0.00  0.00     0.038 H 
ENDROOT
BRANCH   1  16
ATOM     16  O   LIG d   1       4.409  -3.191  -6.574  0.00  0.00    -0.482 OA
BRANCH  16  17
ATOM     17  C   LIG d   1       5.149  -1.973  -6.685  0.00  0.00     0.165 C 
ATOM     18  H   LIG d   1       6.191  -2.156  -6.426  0.00  0.00     0.080 H 
ATOM     19  H   LIG d   1       5.088  -1.604  -7.709  0.00  0.00     0.080 H 
BRANCH  17  20
ATOM     20  C   LIG d   1       4.570  -0.946  -5.745  0.00  0.00     0.251 C 
ATOM     21  N   LIG d   1       3.631  -1.308  -4.849  0.00  0.00    -0.312 N 
ATOM     22  H   LIG d   1       3.328  -2.228  -4.808  0.00  0.00     0.149 HD
ATOM     23  O   LIG d   1       4.949   0.204  -5.797  0.00  0.00    -0.272 OA
BRANCH  21  24
ATOM     24  C   LIG d   1       3.068  -0.310  -3.936  0.00  0.00     0.014 C 
ATOM     25  H   LIG d   1       3.511   0.664  -4.144  0.00  0.00     0.046 H 
ATOM     26  H   LIG d   1       1.988  -0.256  -4.078  0.00  0.00     0.046 H 
BRANCH  24  27
ATOM     27  C   LIG d   1       3.374  -0.711  -2.492  0.00  0.00    -0.031 C 
ATOM     28  H   LIG d   1       2.464  -0.644  -1.895  0.00  0.00     0.031 H 
BRANCH  27  29
ATOM     29  C   LIG d   1       3.898  -2.149  -2.463  0.00  0.00    -0.061 C 
ATOM     30  H   LIG d   1       3.343  -2.723  -1.719  0.00  0.00     0.023 H 
ATOM     31  H   LIG d   1       3.766  -2.603  -3.444  0.00  0.00     0.023 H 
ATOM     32  H   LIG d   1       4.956  -2.145  -2.202  0.00  0.00     0.023 H 
ENDBRANCH  27  29
BRANCH  27  33
ATOM     33  C   LIG d   1       4.434   0.229  -1.914  0.00  0.00    -0.061 C 
ATOM     34  H   LIG d   1       3.945   1.090  -1.459  0.00  0.00     0.023 H 
ATOM     35  H   LIG d   1       5.015  -0.300  -1.159  0.00  0.00     0.023 H 
ATOM     36  H   LIG d   1       5.095   0.566  -2.712  0.00  0.00     0.023 H 
ENDBRANCH  27  33
ENDBRANCH  24  27
ENDBRANCH  21  24
ENDBRANCH  17  20
ENDBRANCH  16  17
ENDBRANCH   1  16
BRANCH   3  37
ATOM     37  O   LIG d   1       8.562  -5.465  -6.196  0.00  0.00    -0.506 OA
ATOM     38  H   LIG d   1       8.959  -6.339  -6.085  0.00  0.00     0.292 HD
ENDBRANCH   3  37
BRANCH   8  39
ATOM     39  C   LIG d   1       4.262  -9.988  -4.368  0.00  0.00    -0.025 C 
ATOM     40  H   LIG d   1       4.907 -10.804  -4.043  0.00  0.00     0.027 H 
ATOM     41  H   LIG d   1       3.795  -9.525  -3.499  0.00  0.00     0.027 H 
ATOM     42  H   LIG d   1       3.491 -10.377  -5.032  0.00  0.00     0.027 H 
ENDBRANCH   8  39
BRANCH   8  43
ATOM     43  C   LIG d   1       5.195  -9.330  -6.591  0.00  0.00    -0.025 C 
ATOM     44  H   LIG d   1       5.291 -10.411  -6.678  0.00  0.00     0.027 H 
ATOM     45  H   LIG d   1       4.296  -9.001  -7.113  0.00  0.00     0.027 H 
ATOM     46  H   LIG d   1       6.068  -8.850  -7.035  0.00  0.00     0.027 H 
ENDBRANCH   8  43
TORSDOF 10
ENDMDL
