MODEL 1
REMARK VINA RESULT:      -6.1      0.000      0.000
REMARK  13 active torsions:
REMARK  status: ('A' for Active; 'I' for Inactive)
REMARK    1  A    between atoms: C_1  and  C_2 
REMARK    2  A    between atoms: C_3  and  C_4 
REMARK    3  A    between atoms: C_3  and  C_36 
REMARK    4  A    between atoms: C_4  and  C_5 
REMARK    5  A    between atoms: C_5  and  C_6 
REMARK    6  A    between atoms: C_6  and  C_8 
REMARK    7  A    between atoms: C_6  and  C_9 
REMARK    8  A    between atoms: C_15  and  C_35 
REMARK    9  A    between atoms: C_25  and  C_34 
REMARK   10  A    between atoms: C_28  and  O_33 
REMARK   11  A    between atoms: C_30  and  C_32 
REMARK   12  A    between atoms: C_36  and  C_37 
REMARK   13  A    between atoms: C_36  and  C_38 
ROOT
ATOM      1  C   LIG d   1       8.329  -0.223  -4.917  0.00  0.00    -0.033 C 
ATOM      2  H   LIG d   1       9.221  -0.749  -4.575  0.00  0.00     0.031 H 
ATOM      3  C   LIG d   1       8.258  -0.248  -6.457  0.00  0.00    -0.049 C 
ATOM      4  C   LIG d   1       8.844   1.121  -6.890  0.00  0.00    -0.046 C 
ATOM      5  C   LIG d   1       8.285   2.072  -5.809  0.00  0.00    -0.014 C 
ATOM      6  H   LIG d   1       7.252   2.358  -6.011  0.00  0.00     0.035 H 
ATOM      7  C   LIG d   1       8.398   1.262  -4.498  0.00  0.00    -0.022 C 
ATOM      8  C   LIG d   1       9.768   1.508  -3.867  0.00  0.00    -0.046 C 
ATOM      9  C   LIG d   1       9.924   2.936  -3.358  0.00  0.00    -0.045 C 
ATOM     10  C   LIG d   1       9.254   3.917  -4.315  0.00  0.00    -0.014 C 
ATOM     11  H   LIG d   1       8.240   4.092  -3.956  0.00  0.00     0.035 H 
ATOM     12  C   LIG d   1       9.176   3.288  -5.682  0.00  0.00    -0.066 C 
ATOM     13  C   LIG d   1       9.843   3.713  -6.708  0.00  0.00    -0.084 C 
ATOM     14  C   LIG d   1      10.795   4.869  -6.663  0.00  0.00    -0.031 C 
ATOM     15  C   LIG d   1      11.248   5.119  -5.218  0.00  0.00    -0.027 C 
ATOM     16  H   LIG d   1      11.871   4.297  -4.864  0.00  0.00     0.031 H 
ATOM     17  C   LIG d   1       9.999   5.248  -4.340  0.00  0.00    -0.022 C 
ATOM     18  C   LIG d   1      10.405   5.614  -2.910  0.00  0.00    -0.044 C 
ATOM     19  C   LIG d   1      11.180   6.931  -2.907  0.00  0.00    -0.026 C 
ATOM     20  C   LIG d   1      12.445   6.759  -3.749  0.00  0.00     0.058 C 
ATOM     21  H   LIG d   1      13.055   5.950  -3.347  0.00  0.00     0.060 H 
ATOM     22  C   LIG d   1      12.041   6.428  -5.186  0.00  0.00    -0.014 C 
ATOM     23  H   LIG d   1      11.424   7.234  -5.583  0.00  0.00     0.033 H 
ATOM     24  H   LIG d   1       8.863  -1.063  -6.854  0.00  0.00     0.027 H 
ATOM     25  H   LIG d   1       7.225  -0.342  -6.791  0.00  0.00     0.027 H 
ATOM     26  H   LIG d   1       8.483   1.403  -7.879  0.00  0.00     0.027 H 
ATOM     27  H   LIG d   1       9.934   1.102  -6.864  0.00  0.00     0.027 H 
ATOM     28  H   LIG d   1       9.903   0.818  -3.033  0.00  0.00     0.027 H 
ATOM     29  H   LIG d   1      10.540   1.314  -4.612  0.00  0.00     0.027 H 
ATOM     30  H   LIG d   1      10.984   3.177  -3.278  0.00  0.00     0.027 H 
ATOM     31  H   LIG d   1       9.462   3.020  -2.374  0.00  0.00     0.027 H 
ATOM     32  H   LIG d   1       9.704   3.205  -7.650  0.00  0.00     0.057 H 
ATOM     33  H   LIG d   1      10.299   5.762  -7.045  0.00  0.00     0.031 H 
ATOM     34  H   LIG d   1      11.664   4.648  -7.282  0.00  0.00     0.031 H 
ATOM     35  H   LIG d   1       9.511   5.718  -2.296  0.00  0.00     0.027 H 
ATOM     36  H   LIG d   1      11.035   4.823  -2.500  0.00  0.00     0.027 H 
ATOM     37  H   LIG d   1      10.557   7.721  -3.326  0.00  0.00     0.029 H 
ATOM     38  H   LIG d   1      11.458   7.188  -1.885  0.00  0.00     0.029 H 
ENDROOT
BRANCH   1  39
ATOM     39  C   LIG d   1       7.079  -0.877  -4.325  0.00  0.00    -0.040 C 
ATOM     40  H   LIG d   1       6.584  -0.175  -3.653  0.00  0.00     0.030 H 
BRANCH  39  41
ATOM     41  C   LIG d   1       6.121  -1.261  -5.455  0.00  0.00    -0.046 C 
ATOM     42  H   LIG d   1       5.793  -0.360  -5.975  0.00  0.00     0.027 H 
ATOM     43  H   LIG d   1       6.632  -1.919  -6.158  0.00  0.00     0.027 H 
BRANCH  41  44
ATOM     44  C   LIG d   1       4.906  -1.983  -4.871  0.00  0.00    -0.031 C 
ATOM     45  H   LIG d   1       4.457  -2.616  -5.635  0.00  0.00     0.031 H 
ATOM     46  H   LIG d   1       5.220  -2.599  -4.027  0.00  0.00     0.031 H 
BRANCH  44  47
ATOM     47  C   LIG d   1       3.895  -0.968  -4.402  0.00  0.00    -0.071 C 
ATOM     48  C   LIG d   1       3.393  -0.105  -5.250  0.00  0.00    -0.088 C 
ATOM     49  H   LIG d   1       3.702  -0.121  -6.284  0.00  0.00     0.057 H 
BRANCH  48  50
ATOM     50  C   LIG d   1       2.382   0.910  -4.782  0.00  0.00    -0.047 C 
ATOM     51  H   LIG d   1       1.574   0.981  -5.510  0.00  0.00     0.027 H 
ATOM     52  H   LIG d   1       1.976   0.601  -3.818  0.00  0.00     0.027 H 
ATOM     53  H   LIG d   1       2.865   1.882  -4.678  0.00  0.00     0.027 H 
ENDBRANCH  48  50
BRANCH  47  54
ATOM     54  C   LIG d   1       3.463  -0.945  -2.959  0.00  0.00    -0.026 C 
ATOM     55  H   LIG d   1       2.396  -0.735  -2.902  0.00  0.00     0.034 H 
BRANCH  54  56
ATOM     56  C   LIG d   1       3.750  -2.305  -2.319  0.00  0.00    -0.059 C 
ATOM     57  H   LIG d   1       2.969  -2.539  -1.595  0.00  0.00     0.024 H 
ATOM     58  H   LIG d   1       3.770  -3.073  -3.092  0.00  0.00     0.024 H 
ATOM     59  H   LIG d   1       4.716  -2.273  -1.815  0.00  0.00     0.024 H 
ENDBRANCH  54  56
BRANCH  54  60
ATOM     60  C   LIG d   1       4.237   0.143  -2.212  0.00  0.00    -0.059 C 
ATOM     61  H   LIG d   1       4.509   0.937  -2.907  0.00  0.00     0.024 H 
ATOM     62  H   LIG d   1       3.613   0.553  -1.418  0.00  0.00     0.024 H 
ATOM     63  H   LIG d   1       5.141  -0.286  -1.778  0.00  0.00     0.024 H 
ENDBRANCH  54  60
ENDBRANCH  47  54
ENDBRANCH  44  47
ENDBRANCH  41  44
ENDBRANCH  39  41
BRANCH  39  64
ATOM     64  C   LIG d   1       7.478  -2.132  -3.548  0.00  0.00    -0.062 C 
ATOM     65  H   LIG d   1       6.654  -2.437  -2.904  0.00  0.00     0.023 H 
ATOM     66  H   LIG d   1       7.709  -2.935  -4.249  0.00  0.00     0.023 H 
ATOM     67  H   LIG d   1       8.356  -1.918  -2.939  0.00  0.00     0.023 H 
ENDBRANCH  39  64
ENDBRANCH   1  39
BRANCH   7  68
ATOM     68  C   LIG d   1       7.264   1.614  -3.534  0.00  0.00    -0.059 C 
ATOM     69  H   LIG d   1       6.318   1.249  -3.935  0.00  0.00     0.024 H 
ATOM     70  H   LIG d   1       7.451   1.149  -2.566  0.00  0.00     0.024 H 
ATOM     71  H   LIG d   1       7.212   2.696  -3.413  0.00  0.00     0.024 H 
ENDBRANCH   7  68
BRANCH  17  72
ATOM     72  C   LIG d   1       9.085   6.336  -4.908  0.00  0.00    -0.059 C 
ATOM     73  H   LIG d   1       8.491   5.923  -5.723  0.00  0.00     0.024 H 
ATOM     74  H   LIG d   1       8.422   6.699  -4.122  0.00  0.00     0.024 H 
ATOM     75  H   LIG d   1       9.692   7.161  -5.281  0.00  0.00     0.024 H 
ENDBRANCH  17  72
BRANCH  22  76
ATOM     76  C   LIG d   1      13.299   6.282  -6.046  0.00  0.00    -0.060 C 
ATOM     77  H   LIG d   1      13.206   6.904  -6.935  0.00  0.00     0.023 H 
ATOM     78  H   LIG d   1      14.170   6.596  -5.472  0.00  0.00     0.023 H 
ATOM     79  H   LIG d   1      13.416   5.239  -6.342  0.00  0.00     0.023 H 
ENDBRANCH  22  76
BRANCH  20  80
ATOM     80  O   LIG d   1      13.190   7.978  -3.730  0.00  0.00    -0.392 OA
ATOM     81  H   LIG d   1      13.993   7.940  -3.192  0.00  0.00     0.210 HD
ENDBRANCH  20  80
TORSDOF 13
ENDMDL
MODEL 2
REMARK VINA RESULT:      -5.9      5.320      9.315
REMARK  13 active torsions:
REMARK  status: ('A' for Active; 'I' for Inactive)
REMARK    1  A    between atoms: C_1  and  C_2 
REMARK    2  A    between atoms: C_3  and  C_4 
REMARK    3  A    between atoms: C_3  and  C_36 
REMARK    4  A    between atoms: C_4  and  C_5 
REMARK    5  A    between atoms: C_5  and  C_6 
REMARK    6  A    between atoms: C_6  and  C_8 
REMARK    7  A    between atoms: C_6  and  C_9 
REMARK    8  A    between atoms: C_15  and  C_35 
REMARK    9  A    between atoms: C_25  and  C_34 
REMARK   10  A    between atoms: C_28  and  O_33 
REMARK   11  A    between atoms: C_30  and  C_32 
REMARK   12  A    between atoms: C_36  and  C_37 
REMARK   13  A    between atoms: C_36  and  C_38 
ROOT
ATOM      1  C   LIG d   1       7.228  -1.640  -6.189  0.00  0.00    -0.033 C 
ATOM      2  H   LIG d   1       8.111  -1.962  -6.741  0.00  0.00     0.031 H 
ATOM      3  C   LIG d   1       6.697  -2.798  -5.319  0.00  0.00    -0.049 C 
ATOM      4  C   LIG d   1       5.553  -3.418  -6.163  0.00  0.00    -0.046 C 
ATOM      5  C   LIG d   1       4.900  -2.168  -6.795  0.00  0.00    -0.014 C 
ATOM      6  H   LIG d   1       4.226  -1.665  -6.101  0.00  0.00     0.035 H 
ATOM      7  C   LIG d   1       6.097  -1.266  -7.172  0.00  0.00    -0.022 C 
ATOM      8  C   LIG d   1       6.569  -1.614  -8.584  0.00  0.00    -0.046 C 
ATOM      9  C   LIG d   1       5.548  -1.228  -9.647  0.00  0.00    -0.045 C 
ATOM     10  C   LIG d   1       4.132  -1.496  -9.147  0.00  0.00    -0.014 C 
ATOM     11  H   LIG d   1       3.753  -0.574  -8.708  0.00  0.00     0.035 H 
ATOM     12  C   LIG d   1       4.187  -2.551  -8.073  0.00  0.00    -0.066 C 
ATOM     13  C   LIG d   1       3.692  -3.741  -8.208  0.00  0.00    -0.084 C 
ATOM     14  C   LIG d   1       3.023  -4.229  -9.456  0.00  0.00    -0.031 C 
ATOM     15  C   LIG d   1       3.456  -3.371 -10.653  0.00  0.00    -0.027 C 
ATOM     16  H   LIG d   1       4.510  -3.533 -10.880  0.00  0.00     0.031 H 
ATOM     17  C   LIG d   1       3.216  -1.900 -10.298  0.00  0.00    -0.022 C 
ATOM     18  C   LIG d   1       3.525  -1.017 -11.510  0.00  0.00    -0.044 C 
ATOM     19  C   LIG d   1       2.642  -1.418 -12.690  0.00  0.00    -0.026 C 
ATOM     20  C   LIG d   1       2.937  -2.873 -13.053  0.00  0.00     0.058 C 
ATOM     21  H   LIG d   1       3.992  -2.989 -13.303  0.00  0.00     0.060 H 
ATOM     22  C   LIG d   1       2.595  -3.761 -11.857  0.00  0.00    -0.014 C 
ATOM     23  H   LIG d   1       1.542  -3.637 -11.604  0.00  0.00     0.033 H 
ATOM     24  H   LIG d   1       7.481  -3.534  -5.143  0.00  0.00     0.027 H 
ATOM     25  H   LIG d   1       6.310  -2.419  -4.373  0.00  0.00     0.027 H 
ATOM     26  H   LIG d   1       4.844  -3.946  -5.526  0.00  0.00     0.027 H 
ATOM     27  H   LIG d   1       5.952  -4.078  -6.933  0.00  0.00     0.027 H 
ATOM     28  H   LIG d   1       7.504  -1.090  -8.783  0.00  0.00     0.027 H 
ATOM     29  H   LIG d   1       6.748  -2.688  -8.641  0.00  0.00     0.027 H 
ATOM     30  H   LIG d   1       5.729  -1.812 -10.550  0.00  0.00     0.027 H 
ATOM     31  H   LIG d   1       5.653  -0.168  -9.879  0.00  0.00     0.027 H 
ATOM     32  H   LIG d   1       3.766  -4.420  -7.372  0.00  0.00     0.057 H 
ATOM     33  H   LIG d   1       1.941  -4.164  -9.338  0.00  0.00     0.031 H 
ATOM     34  H   LIG d   1       3.304  -5.267  -9.636  0.00  0.00     0.031 H 
ATOM     35  H   LIG d   1       3.338   0.026 -11.254  0.00  0.00     0.027 H 
ATOM     36  H   LIG d   1       4.574  -1.137 -11.786  0.00  0.00     0.027 H 
ATOM     37  H   LIG d   1       1.593  -1.308 -12.413  0.00  0.00     0.029 H 
ATOM     38  H   LIG d   1       2.862  -0.779 -13.544  0.00  0.00     0.029 H 
ENDROOT
BRANCH   1  39
ATOM     39  C   LIG d   1       7.573  -0.439  -5.306  0.00  0.00    -0.040 C 
ATOM     40  H   LIG d   1       7.030   0.439  -5.658  0.00  0.00     0.030 H 
BRANCH  39  41
ATOM     41  C   LIG d   1       7.174  -0.738  -3.859  0.00  0.00    -0.046 C 
ATOM     42  H   LIG d   1       6.757  -1.744  -3.798  0.00  0.00     0.027 H 
ATOM     43  H   LIG d   1       8.053  -0.670  -3.219  0.00  0.00     0.027 H 
BRANCH  41  44
ATOM     44  C   LIG d   1       6.127   0.278  -3.399  0.00  0.00    -0.031 C 
ATOM     45  H   LIG d   1       6.505   0.824  -2.535  0.00  0.00     0.031 H 
ATOM     46  H   LIG d   1       5.918   0.977  -4.209  0.00  0.00     0.031 H 
BRANCH  44  47
ATOM     47  C   LIG d   1       4.859  -0.444  -3.020  0.00  0.00    -0.071 C 
ATOM     48  C   LIG d   1       4.915  -1.679  -2.585  0.00  0.00    -0.088 C 
ATOM     49  H   LIG d   1       5.867  -2.178  -2.496  0.00  0.00     0.057 H 
BRANCH  48  50
ATOM     50  C   LIG d   1       3.647  -2.401  -2.206  0.00  0.00    -0.047 C 
ATOM     51  H   LIG d   1       3.756  -3.464  -2.423  0.00  0.00     0.027 H 
ATOM     52  H   LIG d   1       3.456  -2.266  -1.141  0.00  0.00     0.027 H 
ATOM     53  H   LIG d   1       2.813  -1.996  -2.780  0.00  0.00     0.027 H 
ENDBRANCH  48  50
BRANCH  47  54
ATOM     54  C   LIG d   1       3.529   0.252  -3.143  0.00  0.00    -0.026 C 
ATOM     55  H   LIG d   1       2.794  -0.254  -2.518  0.00  0.00     0.034 H 
BRANCH  54  56
ATOM     56  C   LIG d   1       3.671   1.706  -2.689  0.00  0.00    -0.059 C 
ATOM     57  H   LIG d   1       4.145   1.736  -1.708  0.00  0.00     0.024 H 
ATOM     58  H   LIG d   1       4.285   2.252  -3.406  0.00  0.00     0.024 H 
ATOM     59  H   LIG d   1       2.685   2.167  -2.631  0.00  0.00     0.024 H 
ENDBRANCH  54  56
BRANCH  54  60
ATOM     60  C   LIG d   1       3.068   0.216  -4.602  0.00  0.00    -0.059 C 
ATOM     61  H   LIG d   1       3.268  -0.769  -5.022  0.00  0.00     0.024 H 
ATOM     62  H   LIG d   1       1.998   0.422  -4.650  0.00  0.00     0.024 H 
ATOM     63  H   LIG d   1       3.608   0.972  -5.173  0.00  0.00     0.024 H 
ENDBRANCH  54  60
ENDBRANCH  47  54
ENDBRANCH  44  47
ENDBRANCH  41  44
ENDBRANCH  39  41
BRANCH  39  64
ATOM     64  C   LIG d   1       9.077  -0.171  -5.374  0.00  0.00    -0.062 C 
ATOM     65  H   LIG d   1       9.611  -1.118  -5.450  0.00  0.00     0.023 H 
ATOM     66  H   LIG d   1       9.298   0.442  -6.249  0.00  0.00     0.023 H 
ATOM     67  H   LIG d   1       9.394   0.354  -4.473  0.00  0.00     0.023 H 
ENDBRANCH  39  64
ENDBRANCH   1  39
BRANCH   7  68
ATOM     68  C   LIG d   1       5.730   0.214  -7.050  0.00  0.00    -0.059 C 
ATOM     69  H   LIG d   1       6.527   0.823  -7.476  0.00  0.00     0.024 H 
ATOM     70  H   LIG d   1       4.801   0.404  -7.589  0.00  0.00     0.024 H 
ATOM     71  H   LIG d   1       5.600   0.470  -5.999  0.00  0.00     0.024 H 
ENDBRANCH   7  68
BRANCH  17  72
ATOM     72  C   LIG d   1       1.756  -1.707  -9.883  0.00  0.00    -0.059 C 
ATOM     73  H   LIG d   1       1.137  -1.586 -10.773  0.00  0.00     0.024 H 
ATOM     74  H   LIG d   1       1.420  -2.579  -9.321  0.00  0.00     0.024 H 
ATOM     75  H   LIG d   1       1.671  -0.818  -9.258  0.00  0.00     0.024 H 
ENDBRANCH  17  72
BRANCH  22  76
ATOM     76  C   LIG d   1       2.860  -5.225 -12.218  0.00  0.00    -0.060 C 
ATOM     77  H   LIG d   1       3.708  -5.593 -11.643  0.00  0.00     0.023 H 
ATOM     78  H   LIG d   1       1.978  -5.821 -11.988  0.00  0.00     0.023 H 
ATOM     79  H   LIG d   1       3.082  -5.301 -13.283  0.00  0.00     0.023 H 
ENDBRANCH  22  76
BRANCH  20  80
ATOM     80  O   LIG d   1       2.134  -3.250 -14.174  0.00  0.00    -0.392 OA
ATOM     81  H   LIG d   1       2.618  -3.726 -14.862  0.00  0.00     0.210 HD
ENDBRANCH  20  80
TORSDOF 13
ENDMDL
MODEL 3
REMARK VINA RESULT:      -5.8      6.533     10.559
REMARK  13 active torsions:
REMARK  status: ('A' for Active; 'I' for Inactive)
REMARK    1  A    between atoms: C_1  and  C_2 
REMARK    2  A    between atoms: C_3  and  C_4 
REMARK    3  A    between atoms: C_3  and  C_36 
REMARK    4  A    between atoms: C_4  and  C_5 
REMARK    5  A    between atoms: C_5  and  C_6 
REMARK    6  A    between atoms: C_6  and  C_8 
REMARK    7  A    between atoms: C_6  and  C_9 
REMARK    8  A    between atoms: C_15  and  C_35 
REMARK    9  A    between atoms: C_25  and  C_34 
REMARK   10  A    between atoms: C_28  and  O_33 
REMARK   11  A    between atoms: C_30  and  C_32 
REMARK   12  A    between atoms: C_36  and  C_37 
REMARK   13  A    between atoms: C_36  and  C_38 
ROOT
ATOM      1  C   LIG d   1       4.361  -1.835  -6.853  0.00  0.00    -0.033 C 
ATOM      2  H   LIG d   1       3.803  -2.646  -6.387  0.00  0.00     0.031 H 
ATOM      3  C   LIG d   1       3.649  -0.490  -6.603  0.00  0.00    -0.049 C 
ATOM      4  C   LIG d   1       2.829  -0.244  -7.896  0.00  0.00    -0.046 C 
ATOM      5  C   LIG d   1       3.788  -0.758  -8.993  0.00  0.00    -0.014 C 
ATOM      6  H   LIG d   1       4.555  -0.025  -9.241  0.00  0.00     0.035 H 
ATOM      7  C   LIG d   1       4.408  -2.036  -8.384  0.00  0.00    -0.022 C 
ATOM      8  C   LIG d   1       3.528  -3.239  -8.725  0.00  0.00    -0.046 C 
ATOM      9  C   LIG d   1       3.549  -3.568 -10.213  0.00  0.00    -0.045 C 
ATOM     10  C   LIG d   1       3.575  -2.286 -11.041  0.00  0.00    -0.014 C 
ATOM     11  H   LIG d   1       4.616  -2.054 -11.263  0.00  0.00     0.035 H 
ATOM     12  C   LIG d   1       2.998  -1.164 -10.218  0.00  0.00    -0.066 C 
ATOM     13  C   LIG d   1       1.878  -0.575 -10.491  0.00  0.00    -0.084 C 
ATOM     14  C   LIG d   1       0.999  -0.949 -11.646  0.00  0.00    -0.031 C 
ATOM     15  C   LIG d   1       1.318  -2.378 -12.106  0.00  0.00    -0.027 C 
ATOM     16  H   LIG d   1       1.018  -3.101 -11.348  0.00  0.00     0.031 H 
ATOM     17  C   LIG d   1       2.827  -2.473 -12.357  0.00  0.00    -0.022 C 
ATOM     18  C   LIG d   1       3.171  -3.851 -12.930  0.00  0.00    -0.044 C 
ATOM     19  C   LIG d   1       2.412  -4.079 -14.236  0.00  0.00    -0.026 C 
ATOM     20  C   LIG d   1       0.911  -4.027 -13.949  0.00  0.00     0.058 C 
ATOM     21  H   LIG d   1       0.646  -4.783 -13.210  0.00  0.00     0.060 H 
ATOM     22  C   LIG d   1       0.558  -2.640 -13.410  0.00  0.00    -0.014 C 
ATOM     23  H   LIG d   1       0.833  -1.885 -14.146  0.00  0.00     0.033 H 
ATOM     24  H   LIG d   1       2.985  -0.564  -5.741  0.00  0.00     0.027 H 
ATOM     25  H   LIG d   1       4.377   0.307  -6.457  0.00  0.00     0.027 H 
ATOM     26  H   LIG d   1       2.622   0.818  -8.029  0.00  0.00     0.027 H 
ATOM     27  H   LIG d   1       1.905  -0.823  -7.887  0.00  0.00     0.027 H 
ATOM     28  H   LIG d   1       3.881  -4.105  -8.166  0.00  0.00     0.027 H 
ATOM     29  H   LIG d   1       2.502  -3.021  -8.428  0.00  0.00     0.027 H 
ATOM     30  H   LIG d   1       2.660  -4.144 -10.468  0.00  0.00     0.027 H 
ATOM     31  H   LIG d   1       4.437  -4.160 -10.438  0.00  0.00     0.027 H 
ATOM     32  H   LIG d   1       1.558   0.233  -9.851  0.00  0.00     0.057 H 
ATOM     33  H   LIG d   1       1.170  -0.256 -12.471  0.00  0.00     0.031 H 
ATOM     34  H   LIG d   1      -0.046  -0.892 -11.340  0.00  0.00     0.031 H 
ATOM     35  H   LIG d   1       4.242  -3.906 -13.120  0.00  0.00     0.027 H 
ATOM     36  H   LIG d   1       2.891  -4.622 -12.211  0.00  0.00     0.027 H 
ATOM     37  H   LIG d   1       2.682  -3.304 -14.955  0.00  0.00     0.029 H 
ATOM     38  H   LIG d   1       2.669  -5.057 -14.642  0.00  0.00     0.029 H 
ENDROOT
BRANCH   1  39
ATOM     39  C   LIG d   1       5.782  -1.786  -6.288  0.00  0.00    -0.040 C 
ATOM     40  H   LIG d   1       6.490  -1.612  -7.098  0.00  0.00     0.030 H 
BRANCH  39  41
ATOM     41  C   LIG d   1       5.886  -0.651  -5.267  0.00  0.00    -0.046 C 
ATOM     42  H   LIG d   1       6.760  -0.039  -5.494  0.00  0.00     0.027 H 
ATOM     43  H   LIG d   1       4.989  -0.034  -5.317  0.00  0.00     0.027 H 
BRANCH  41  44
ATOM     44  C   LIG d   1       6.025  -1.239  -3.862  0.00  0.00    -0.031 C 
ATOM     45  H   LIG d   1       5.771  -2.298  -3.884  0.00  0.00     0.031 H 
ATOM     46  H   LIG d   1       7.053  -1.119  -3.517  0.00  0.00     0.031 H 
BRANCH  44  47
ATOM     47  C   LIG d   1       5.094  -0.518  -2.921  0.00  0.00    -0.071 C 
ATOM     48  C   LIG d   1       5.375   0.701  -2.530  0.00  0.00    -0.088 C 
ATOM     49  H   LIG d   1       6.271   1.189  -2.881  0.00  0.00     0.057 H 
BRANCH  48  50
ATOM     50  C   LIG d   1       4.444   1.423  -1.589  0.00  0.00    -0.047 C 
ATOM     51  H   LIG d   1       3.612   0.768  -1.329  0.00  0.00     0.027 H 
ATOM     52  H   LIG d   1       4.985   1.699  -0.684  0.00  0.00     0.027 H 
ATOM     53  H   LIG d   1       4.062   2.321  -2.074  0.00  0.00     0.027 H 
ENDBRANCH  48  50
BRANCH  47  54
ATOM     54  C   LIG d   1       3.842  -1.197  -2.431  0.00  0.00    -0.026 C 
ATOM     55  H   LIG d   1       3.679  -0.948  -1.383  0.00  0.00     0.034 H 
BRANCH  54  56
ATOM     56  C   LIG d   1       2.647  -0.723  -3.260  0.00  0.00    -0.059 C 
ATOM     57  H   LIG d   1       2.497   0.345  -3.104  0.00  0.00     0.024 H 
ATOM     58  H   LIG d   1       2.840  -0.912  -4.316  0.00  0.00     0.024 H 
ATOM     59  H   LIG d   1       1.753  -1.265  -2.952  0.00  0.00     0.024 H 
ENDBRANCH  54  56
BRANCH  54  60
ATOM     60  C   LIG d   1       3.994  -2.713  -2.576  0.00  0.00    -0.059 C 
ATOM     61  H   LIG d   1       4.286  -3.142  -1.618  0.00  0.00     0.024 H 
ATOM     62  H   LIG d   1       3.045  -3.144  -2.894  0.00  0.00     0.024 H 
ATOM     63  H   LIG d   1       4.761  -2.932  -3.321  0.00  0.00     0.024 H 
ENDBRANCH  54  60
ENDBRANCH  47  54
ENDBRANCH  44  47
ENDBRANCH  41  44
ENDBRANCH  39  41
BRANCH  39  64
ATOM     64  C   LIG d   1       6.105  -3.116  -5.604  0.00  0.00    -0.062 C 
ATOM     65  H   LIG d   1       6.436  -3.837  -6.352  0.00  0.00     0.023 H 
ATOM     66  H   LIG d   1       6.895  -2.965  -4.870  0.00  0.00     0.023 H 
ATOM     67  H   LIG d   1       5.212  -3.494  -5.106  0.00  0.00     0.023 H 
ENDBRANCH  39  64
ENDBRANCH   1  39
BRANCH   7  68
ATOM     68  C   LIG d   1       5.845  -2.235  -8.868  0.00  0.00    -0.059 C 
ATOM     69  H   LIG d   1       5.861  -2.979  -9.665  0.00  0.00     0.024 H 
ATOM     70  H   LIG d   1       6.236  -1.290  -9.246  0.00  0.00     0.024 H 
ATOM     71  H   LIG d   1       6.464  -2.579  -8.039  0.00  0.00     0.024 H 
ENDBRANCH   7  68
BRANCH  17  72
ATOM     72  C   LIG d   1       3.251  -1.386 -13.346  0.00  0.00    -0.059 C 
ATOM     73  H   LIG d   1       4.265  -1.059 -13.115  0.00  0.00     0.024 H 
ATOM     74  H   LIG d   1       3.219  -1.786 -14.360  0.00  0.00     0.024 H 
ATOM     75  H   LIG d   1       2.570  -0.539 -13.269  0.00  0.00     0.024 H 
ENDBRANCH  17  72
BRANCH  22  76
ATOM     76  C   LIG d   1      -0.947  -2.566 -13.144  0.00  0.00    -0.060 C 
ATOM     77  H   LIG d   1      -1.381  -3.561 -13.237  0.00  0.00     0.023 H 
ATOM     78  H   LIG d   1      -1.120  -2.186 -12.138  0.00  0.00     0.023 H 
ATOM     79  H   LIG d   1      -1.411  -1.897 -13.869  0.00  0.00     0.023 H 
ENDBRANCH  22  76
BRANCH  20  80
ATOM     80  O   LIG d   1       0.192  -4.265 -15.160  0.00  0.00    -0.392 OA
ATOM     81  H   LIG d   1       0.345  -5.140 -15.542  0.00  0.00     0.210 HD
ENDBRANCH  20  80
TORSDOF 13
ENDMDL
MODEL 4
REMARK VINA RESULT:      -5.7      5.376      8.103
REMARK  13 active torsions:
REMARK  status: ('A' for Active; 'I' for Inactive)
REMARK    1  A    between atoms: C_1  and  C_2 
REMARK    2  A    between atoms: C_3  and  C_4 
REMARK    3  A    between atoms: C_3  and  C_36 
REMARK    4  A    between atoms: C_4  and  C_5 
REMARK    5  A    between atoms: C_5  and  C_6 
REMARK    6  A    between atoms: C_6  and  C_8 
REMARK    7  A    between atoms: C_6  and  C_9 
REMARK    8  A    between atoms: C_15  and  C_35 
REMARK    9  A    between atoms: C_25  and  C_34 
REMARK   10  A    between atoms: C_28  and  O_33 
REMARK   11  A    between atoms: C_30  and  C_32 
REMARK   12  A    between atoms: C_36  and  C_37 
REMARK   13  A    between atoms: C_36  and  C_38 
ROOT
ATOM      1  C   LIG d   1       9.514  -4.329  -5.829  0.00  0.00    -0.033 C 
ATOM      2  H   LIG d   1       9.881  -3.633  -6.584  0.00  0.00     0.031 H 
ATOM      3  C   LIG d   1       8.580  -5.370  -6.477  0.00  0.00    -0.049 C 
ATOM      4  C   LIG d   1       7.153  -4.824  -6.209  0.00  0.00    -0.046 C 
ATOM      5  C   LIG d   1       7.287  -4.250  -4.781  0.00  0.00    -0.014 C 
ATOM      6  H   LIG d   1       7.222  -5.027  -4.021  0.00  0.00     0.035 H 
ATOM      7  C   LIG d   1       8.676  -3.572  -4.775  0.00  0.00    -0.022 C 
ATOM      8  C   LIG d   1       8.535  -2.123  -5.241  0.00  0.00    -0.046 C 
ATOM      9  C   LIG d   1       7.772  -1.265  -4.239  0.00  0.00    -0.045 C 
ATOM     10  C   LIG d   1       6.628  -2.061  -3.620  0.00  0.00    -0.014 C 
ATOM     11  H   LIG d   1       6.992  -2.500  -2.692  0.00  0.00     0.035 H 
ATOM     12  C   LIG d   1       6.246  -3.174  -4.560  0.00  0.00    -0.066 C 
ATOM     13  C   LIG d   1       5.114  -3.230  -5.186  0.00  0.00    -0.084 C 
ATOM     14  C   LIG d   1       4.048  -2.183  -5.076  0.00  0.00    -0.031 C 
ATOM     15  C   LIG d   1       4.658  -0.864  -4.582  0.00  0.00    -0.027 C 
ATOM     16  H   LIG d   1       5.318  -0.439  -5.338  0.00  0.00     0.031 H 
ATOM     17  C   LIG d   1       5.445  -1.153  -3.299  0.00  0.00    -0.022 C 
ATOM     18  C   LIG d   1       5.973   0.157  -2.708  0.00  0.00    -0.044 C 
ATOM     19  C   LIG d   1       4.810   1.100  -2.403  0.00  0.00    -0.026 C 
ATOM     20  C   LIG d   1       4.073   1.410  -3.707  0.00  0.00     0.058 C 
ATOM     21  H   LIG d   1       4.757   1.860  -4.425  0.00  0.00     0.060 H 
ATOM     22  C   LIG d   1       3.513   0.108  -4.280  0.00  0.00    -0.014 C 
ATOM     23  H   LIG d   1       2.836  -0.345  -3.556  0.00  0.00     0.033 H 
ATOM     24  H   LIG d   1       8.766  -5.435  -7.550  0.00  0.00     0.027 H 
ATOM     25  H   LIG d   1       8.709  -6.345  -6.008  0.00  0.00     0.027 H 
ATOM     26  H   LIG d   1       6.419  -5.628  -6.236  0.00  0.00     0.027 H 
ATOM     27  H   LIG d   1       6.898  -4.039  -6.921  0.00  0.00     0.027 H 
ATOM     28  H   LIG d   1       9.530  -1.700  -5.385  0.00  0.00     0.027 H 
ATOM     29  H   LIG d   1       8.005  -2.108  -6.193  0.00  0.00     0.027 H 
ATOM     30  H   LIG d   1       7.369  -0.389  -4.748  0.00  0.00     0.027 H 
ATOM     31  H   LIG d   1       8.453  -0.940  -3.452  0.00  0.00     0.027 H 
ATOM     32  H   LIG d   1       4.926  -4.081  -5.824  0.00  0.00     0.057 H 
ATOM     33  H   LIG d   1       3.284  -2.515  -4.372  0.00  0.00     0.031 H 
ATOM     34  H   LIG d   1       3.591  -2.026  -6.054  0.00  0.00     0.031 H 
ATOM     35  H   LIG d   1       6.518  -0.055  -1.789  0.00  0.00     0.027 H 
ATOM     36  H   LIG d   1       6.644   0.632  -3.425  0.00  0.00     0.027 H 
ATOM     37  H   LIG d   1       4.131   0.624  -1.694  0.00  0.00     0.029 H 
ATOM     38  H   LIG d   1       5.193   2.026  -1.975  0.00  0.00     0.029 H 
ENDROOT
BRANCH   1  39
ATOM     39  C   LIG d   1      10.693  -5.033  -5.154  0.00  0.00    -0.040 C 
ATOM     40  H   LIG d   1      10.623  -4.905  -4.073  0.00  0.00     0.030 H 
BRANCH  39  41
ATOM     41  C   LIG d   1      10.658  -6.525  -5.493  0.00  0.00    -0.046 C 
ATOM     42  H   LIG d   1       9.703  -6.769  -5.959  0.00  0.00     0.027 H 
ATOM     43  H   LIG d   1      11.468  -6.760  -6.183  0.00  0.00     0.027 H 
BRANCH  41  44
ATOM     44  C   LIG d   1      10.825  -7.344  -4.211  0.00  0.00    -0.031 C 
ATOM     45  H   LIG d   1      11.432  -8.224  -4.419  0.00  0.00     0.031 H 
ATOM     46  H   LIG d   1      11.316  -6.734  -3.452  0.00  0.00     0.031 H 
BRANCH  44  47
ATOM     47  C   LIG d   1       9.470  -7.774  -3.710  0.00  0.00    -0.071 C 
ATOM     48  C   LIG d   1       8.568  -8.207  -4.555  0.00  0.00    -0.088 C 
ATOM     49  H   LIG d   1       8.794  -8.257  -5.609  0.00  0.00     0.057 H 
BRANCH  48  50
ATOM     50  C   LIG d   1       7.212  -8.638  -4.054  0.00  0.00    -0.047 C 
ATOM     51  H   LIG d   1       7.289  -8.932  -3.007  0.00  0.00     0.027 H 
ATOM     52  H   LIG d   1       6.511  -7.809  -4.148  0.00  0.00     0.027 H 
ATOM     53  H   LIG d   1       6.859  -9.482  -4.645  0.00  0.00     0.027 H 
ENDBRANCH  48  50
BRANCH  47  54
ATOM     54  C   LIG d   1       9.154  -7.706  -2.239  0.00  0.00    -0.026 C 
ATOM     55  H   LIG d   1       8.074  -7.671  -2.100  0.00  0.00     0.034 H 
BRANCH  54  56
ATOM     56  C   LIG d   1       9.719  -8.943  -1.538  0.00  0.00    -0.059 C 
ATOM     57  H   LIG d   1       9.077  -9.211  -0.700  0.00  0.00     0.024 H 
ATOM     58  H   LIG d   1       9.760  -9.773  -2.244  0.00  0.00     0.024 H 
ATOM     59  H   LIG d   1      10.723  -8.728  -1.173  0.00  0.00     0.024 H 
ENDBRANCH  54  56
BRANCH  54  60
ATOM     60  C   LIG d   1       9.786  -6.448  -1.639  0.00  0.00    -0.059 C 
ATOM     61  H   LIG d   1      10.444  -6.729  -0.817  0.00  0.00     0.024 H 
ATOM     62  H   LIG d   1      10.362  -5.930  -2.405  0.00  0.00     0.024 H 
ATOM     63  H   LIG d   1       9.001  -5.789  -1.266  0.00  0.00     0.024 H 
ENDBRANCH  54  60
ENDBRANCH  47  54
ENDBRANCH  44  47
ENDBRANCH  41  44
ENDBRANCH  39  41
BRANCH  39  64
ATOM     64  C   LIG d   1      12.005  -4.428  -5.655  0.00  0.00    -0.062 C 
ATOM     65  H   LIG d   1      12.146  -3.444  -5.207  0.00  0.00     0.023 H 
ATOM     66  H   LIG d   1      12.835  -5.077  -5.375  0.00  0.00     0.023 H 
ATOM     67  H   LIG d   1      11.969  -4.331  -6.740  0.00  0.00     0.023 H 
ENDBRANCH  39  64
ENDBRANCH   1  39
BRANCH   7  68
ATOM     68  C   LIG d   1       9.324  -3.658  -3.393  0.00  0.00    -0.059 C 
ATOM     69  H   LIG d   1       8.669  -3.198  -2.654  0.00  0.00     0.024 H 
ATOM     70  H   LIG d   1       9.488  -4.704  -3.131  0.00  0.00     0.024 H 
ATOM     71  H   LIG d   1      10.280  -3.133  -3.406  0.00  0.00     0.024 H 
ENDBRANCH   7  68
BRANCH  17  72
ATOM     72  C   LIG d   1       4.531  -1.842  -2.283  0.00  0.00    -0.059 C 
ATOM     73  H   LIG d   1       5.098  -2.597  -1.737  0.00  0.00     0.024 H 
ATOM     74  H   LIG d   1       4.143  -1.101  -1.583  0.00  0.00     0.024 H 
ATOM     75  H   LIG d   1       3.701  -2.317  -2.805  0.00  0.00     0.024 H 
ENDBRANCH  17  72
BRANCH  22  76
ATOM     76  C   LIG d   1       2.749   0.408  -5.571  0.00  0.00    -0.060 C 
ATOM     77  H   LIG d   1       1.760   0.794  -5.326  0.00  0.00     0.023 H 
ATOM     78  H   LIG d   1       3.295   1.151  -6.152  0.00  0.00     0.023 H 
ATOM     79  H   LIG d   1       2.649  -0.506  -6.155  0.00  0.00     0.023 H 
ENDBRANCH  22  76
BRANCH  20  80
ATOM     80  O   LIG d   1       2.999   2.313  -3.435  0.00  0.00    -0.392 OA
ATOM     81  H   LIG d   1       2.403   2.451  -4.184  0.00  0.00     0.210 HD
ENDBRANCH  20  80
TORSDOF 13
ENDMDL
MODEL 5
REMARK VINA RESULT:      -5.4      7.167     10.543
REMARK  13 active torsions:
REMARK  status: ('A' for Active; 'I' for Inactive)
REMARK    1  A    between atoms: C_1  and  C_2 
REMARK    2  A    between atoms: C_3  and  C_4 
REMARK    3  A    between atoms: C_3  and  C_36 
REMARK    4  A    between atoms: C_4  and  C_5 
REMARK    5  A    between atoms: C_5  and  C_6 
REMARK    6  A    between atoms: C_6  and  C_8 
REMARK    7  A    between atoms: C_6  and  C_9 
REMARK    8  A    between atoms: C_15  and  C_35 
REMARK    9  A    between atoms: C_25  and  C_34 
REMARK   10  A    between atoms: C_28  and  O_33 
REMARK   11  A    between atoms: C_30  and  C_32 
REMARK   12  A    between atoms: C_36  and  C_37 
REMARK   13  A    between atoms: C_36  and  C_38 
ROOT
ATOM      1  C   LIG d   1       3.405   0.324  -8.298  0.00  0.00    -0.033 C 
ATOM      2  H   LIG d   1       2.687   1.131  -8.443  0.00  0.00     0.031 H 
ATOM      3  C   LIG d   1       4.843   0.859  -8.455  0.00  0.00    -0.049 C 
ATOM      4  C   LIG d   1       5.225   0.509  -9.917  0.00  0.00    -0.046 C 
ATOM      5  C   LIG d   1       4.576  -0.881 -10.099  0.00  0.00    -0.014 C 
ATOM      6  H   LIG d   1       5.182  -1.675  -9.663  0.00  0.00     0.035 H 
ATOM      7  C   LIG d   1       3.211  -0.757  -9.384  0.00  0.00    -0.022 C 
ATOM      8  C   LIG d   1       2.165  -0.245 -10.374  0.00  0.00    -0.046 C 
ATOM      9  C   LIG d   1       1.849  -1.265 -11.461  0.00  0.00    -0.045 C 
ATOM     10  C   LIG d   1       3.117  -1.999 -11.887  0.00  0.00    -0.014 C 
ATOM     11  H   LIG d   1       3.184  -2.915 -11.301  0.00  0.00     0.035 H 
ATOM     12  C   LIG d   1       4.309  -1.135 -11.567  0.00  0.00    -0.066 C 
ATOM     13  C   LIG d   1       5.069  -0.596 -12.466  0.00  0.00    -0.084 C 
ATOM     14  C   LIG d   1       4.847  -0.742 -13.941  0.00  0.00    -0.031 C 
ATOM     15  C   LIG d   1       3.390  -1.137 -14.215  0.00  0.00    -0.027 C 
ATOM     16  H   LIG d   1       2.716  -0.318 -13.963  0.00  0.00     0.031 H 
ATOM     17  C   LIG d   1       3.061  -2.369 -13.366  0.00  0.00    -0.022 C 
ATOM     18  C   LIG d   1       1.651  -2.866 -13.698  0.00  0.00    -0.044 C 
ATOM     19  C   LIG d   1       1.556  -3.218 -15.182  0.00  0.00    -0.026 C 
ATOM     20  C   LIG d   1       1.840  -1.960 -16.005  0.00  0.00     0.058 C 
ATOM     21  H   LIG d   1       1.129  -1.176 -15.746  0.00  0.00     0.060 H 
ATOM     22  C   LIG d   1       3.261  -1.482 -15.702  0.00  0.00    -0.014 C 
ATOM     23  H   LIG d   1       3.969  -2.272 -15.952  0.00  0.00     0.033 H 
ATOM     24  H   LIG d   1       4.866   1.939  -8.304  0.00  0.00     0.027 H 
ATOM     25  H   LIG d   1       5.514   0.361  -7.756  0.00  0.00     0.027 H 
ATOM     26  H   LIG d   1       6.307   0.450 -10.031  0.00  0.00     0.027 H 
ATOM     27  H   LIG d   1       4.798   1.231 -10.613  0.00  0.00     0.027 H 
ATOM     28  H   LIG d   1       1.248  -0.012  -9.830  0.00  0.00     0.027 H 
ATOM     29  H   LIG d   1       2.538   0.665 -10.843  0.00  0.00     0.027 H 
ATOM     30  H   LIG d   1       1.421  -0.753 -12.323  0.00  0.00     0.027 H 
ATOM     31  H   LIG d   1       1.127  -1.987 -11.079  0.00  0.00     0.027 H 
ATOM     32  H   LIG d   1       5.912  -0.009 -12.135  0.00  0.00     0.057 H 
ATOM     33  H   LIG d   1       5.511  -1.513 -14.333  0.00  0.00     0.031 H 
ATOM     34  H   LIG d   1       5.064   0.205 -14.436  0.00  0.00     0.031 H 
ATOM     35  H   LIG d   1       1.430  -3.750 -13.101  0.00  0.00     0.027 H 
ATOM     36  H   LIG d   1       0.928  -2.083 -13.465  0.00  0.00     0.027 H 
ATOM     37  H   LIG d   1       2.285  -3.993 -15.420  0.00  0.00     0.029 H 
ATOM     38  H   LIG d   1       0.553  -3.579 -15.408  0.00  0.00     0.029 H 
ENDROOT
BRANCH   1  39
ATOM     39  C   LIG d   1       3.225  -0.291  -6.909  0.00  0.00    -0.040 C 
ATOM     40  H   LIG d   1       2.694  -1.240  -6.997  0.00  0.00     0.030 H 
BRANCH  39  41
ATOM     41  C   LIG d   1       4.597  -0.531  -6.275  0.00  0.00    -0.046 C 
ATOM     42  H   LIG d   1       5.140  -1.277  -6.857  0.00  0.00     0.027 H 
ATOM     43  H   LIG d   1       5.161   0.401  -6.266  0.00  0.00     0.027 H 
BRANCH  41  44
ATOM     44  C   LIG d   1       4.416  -1.034  -4.842  0.00  0.00    -0.031 C 
ATOM     45  H   LIG d   1       3.375  -0.916  -4.544  0.00  0.00     0.031 H 
ATOM     46  H   LIG d   1       4.693  -2.088  -4.789  0.00  0.00     0.031 H 
BRANCH  44  47
ATOM     47  C   LIG d   1       5.298  -0.237  -3.915  0.00  0.00    -0.071 C 
ATOM     48  C   LIG d   1       6.411   0.290  -4.363  0.00  0.00    -0.088 C 
ATOM     49  H   LIG d   1       6.696   0.154  -5.396  0.00  0.00     0.057 H 
BRANCH  48  50
ATOM     50  C   LIG d   1       7.293   1.087  -3.437  0.00  0.00    -0.047 C 
ATOM     51  H   LIG d   1       7.505   0.501  -2.543  0.00  0.00     0.027 H 
ATOM     52  H   LIG d   1       8.228   1.327  -3.944  0.00  0.00     0.027 H 
ATOM     53  H   LIG d   1       6.784   2.009  -3.156  0.00  0.00     0.027 H 
ENDBRANCH  48  50
BRANCH  47  54
ATOM     54  C   LIG d   1       4.901  -0.046  -2.475  0.00  0.00    -0.026 C 
ATOM     55  H   LIG d   1       5.780   0.214  -1.886  0.00  0.00     0.034 H 
BRANCH  54  56
ATOM     56  C   LIG d   1       3.869   1.079  -2.376  0.00  0.00    -0.059 C 
ATOM     57  H   LIG d   1       3.839   1.629  -3.316  0.00  0.00     0.024 H 
ATOM     58  H   LIG d   1       2.886   0.654  -2.172  0.00  0.00     0.024 H 
ATOM     59  H   LIG d   1       4.146   1.756  -1.567  0.00  0.00     0.024 H 
ENDBRANCH  54  56
BRANCH  54  60
ATOM     60  C   LIG d   1       4.293  -1.343  -1.937  0.00  0.00    -0.059 C 
ATOM     61  H   LIG d   1       3.374  -1.117  -1.398  0.00  0.00     0.024 H 
ATOM     62  H   LIG d   1       4.071  -2.013  -2.768  0.00  0.00     0.024 H 
ATOM     63  H   LIG d   1       5.002  -1.825  -1.262  0.00  0.00     0.024 H 
ENDBRANCH  54  60
ENDBRANCH  47  54
ENDBRANCH  44  47
ENDBRANCH  41  44
ENDBRANCH  39  41
BRANCH  39  64
ATOM     64  C   LIG d   1       2.418   0.665  -6.028  0.00  0.00    -0.062 C 
ATOM     65  H   LIG d   1       2.586   1.690  -6.358  0.00  0.00     0.023 H 
ATOM     66  H   LIG d   1       1.357   0.426  -6.110  0.00  0.00     0.023 H 
ATOM     67  H   LIG d   1       2.736   0.559  -4.991  0.00  0.00     0.023 H 
ENDBRANCH  39  64
ENDBRANCH   1  39
BRANCH   7  68
ATOM     68  C   LIG d   1       2.793  -2.091  -8.763  0.00  0.00    -0.059 C 
ATOM     69  H   LIG d   1       2.066  -1.912  -7.971  0.00  0.00     0.024 H 
ATOM     70  H   LIG d   1       2.346  -2.726  -9.529  0.00  0.00     0.024 H 
ATOM     71  H   LIG d   1       3.669  -2.588  -8.345  0.00  0.00     0.024 H 
ENDBRANCH   7  68
BRANCH  17  72
ATOM     72  C   LIG d   1       4.076  -3.476 -13.656  0.00  0.00    -0.059 C 
ATOM     73  H   LIG d   1       3.753  -4.400 -13.177  0.00  0.00     0.024 H 
ATOM     74  H   LIG d   1       4.147  -3.630 -14.733  0.00  0.00     0.024 H 
ATOM     75  H   LIG d   1       5.051  -3.186 -13.266  0.00  0.00     0.024 H 
ENDBRANCH  17  72
BRANCH  22  76
ATOM     76  C   LIG d   1       3.568  -0.240 -16.541  0.00  0.00    -0.060 C 
ATOM     77  H   LIG d   1       2.768   0.489 -16.417  0.00  0.00     0.023 H 
ATOM     78  H   LIG d   1       4.511   0.196 -16.212  0.00  0.00     0.023 H 
ATOM     79  H   LIG d   1       3.645  -0.521 -17.591  0.00  0.00     0.023 H 
ENDBRANCH  22  76
BRANCH  20  80
ATOM     80  O   LIG d   1       1.728  -2.273 -17.394  0.00  0.00    -0.392 OA
ATOM     81  H   LIG d   1       0.819  -2.412 -17.693  0.00  0.00     0.210 HD
ENDBRANCH  20  80
TORSDOF 13
ENDMDL
MODEL 6
REMARK VINA RESULT:      -5.4      5.532      8.391
REMARK  13 active torsions:
REMARK  status: ('A' for Active; 'I' for Inactive)
REMARK    1  A    between atoms: C_1  and  C_2 
REMARK    2  A    between atoms: C_3  and  C_4 
REMARK    3  A    between atoms: C_3  and  C_36 
REMARK    4  A    between atoms: C_4  and  C_5 
REMARK    5  A    between atoms: C_5  and  C_6 
REMARK    6  A    between atoms: C_6  and  C_8 
REMARK    7  A    between atoms: C_6  and  C_9 
REMARK    8  A    between atoms: C_15  and  C_35 
REMARK    9  A    between atoms: C_25  and  C_34 
REMARK   10  A    between atoms: C_28  and  O_33 
REMARK   11  A    between atoms: C_30  and  C_32 
REMARK   12  A    between atoms: C_36  and  C_37 
REMARK   13  A    between atoms: C_36  and  C_38 
ROOT
ATOM      1  C   LIG d   1       6.549  -2.015  -6.491  0.00  0.00    -0.033 C 
ATOM      2  H   LIG d   1       6.814  -2.293  -7.511  0.00  0.00     0.031 H 
ATOM      3  C   LIG d   1       7.329  -0.754  -6.066  0.00  0.00    -0.049 C 
ATOM      4  C   LIG d   1       8.538  -1.302  -5.266  0.00  0.00    -0.046 C 
ATOM      5  C   LIG d   1       7.909  -2.481  -4.491  0.00  0.00    -0.014 C 
ATOM      6  H   LIG d   1       7.369  -2.146  -3.605  0.00  0.00     0.035 H 
ATOM      7  C   LIG d   1       6.956  -3.140  -5.515  0.00  0.00    -0.022 C 
ATOM      8  C   LIG d   1       7.721  -4.198  -6.311  0.00  0.00    -0.046 C 
ATOM      9  C   LIG d   1       8.121  -5.392  -5.452  0.00  0.00    -0.045 C 
ATOM     10  C   LIG d   1       8.536  -4.930  -4.059  0.00  0.00    -0.014 C 
ATOM     11  H   LIG d   1       7.660  -4.990  -3.414  0.00  0.00     0.035 H 
ATOM     12  C   LIG d   1       8.978  -3.492  -4.135  0.00  0.00    -0.066 C 
ATOM     13  C   LIG d   1      10.198  -3.103  -3.943  0.00  0.00    -0.084 C 
ATOM     14  C   LIG d   1      11.333  -4.035  -3.646  0.00  0.00    -0.031 C 
ATOM     15  C   LIG d   1      10.977  -5.456  -4.104  0.00  0.00    -0.027 C 
ATOM     16  H   LIG d   1      10.919  -5.506  -5.191  0.00  0.00     0.031 H 
ATOM     17  C   LIG d   1       9.625  -5.832  -3.488  0.00  0.00    -0.022 C 
ATOM     18  C   LIG d   1       9.289  -7.288  -3.825  0.00  0.00    -0.044 C 
ATOM     19  C   LIG d   1      10.379  -8.215  -3.290  0.00  0.00    -0.026 C 
ATOM     20  C   LIG d   1      11.706  -7.850  -3.957  0.00  0.00     0.058 C 
ATOM     21  H   LIG d   1      11.617  -7.940  -5.039  0.00  0.00     0.060 H 
ATOM     22  C   LIG d   1      12.062  -6.408  -3.592  0.00  0.00    -0.014 C 
ATOM     23  H   LIG d   1      12.141  -6.318  -2.509  0.00  0.00     0.033 H 
ATOM     24  H   LIG d   1       7.671  -0.204  -6.943  0.00  0.00     0.027 H 
ATOM     25  H   LIG d   1       6.710  -0.117  -5.434  0.00  0.00     0.027 H 
ATOM     26  H   LIG d   1       8.923  -0.548  -4.579  0.00  0.00     0.027 H 
ATOM     27  H   LIG d   1       9.321  -1.653  -5.938  0.00  0.00     0.027 H 
ATOM     28  H   LIG d   1       7.093  -4.546  -7.131  0.00  0.00     0.027 H 
ATOM     29  H   LIG d   1       8.622  -3.744  -6.725  0.00  0.00     0.027 H 
ATOM     30  H   LIG d   1       8.956  -5.912  -5.924  0.00  0.00     0.027 H 
ATOM     31  H   LIG d   1       7.275  -6.074  -5.369  0.00  0.00     0.027 H 
ATOM     32  H   LIG d   1      10.410  -2.046  -4.001  0.00  0.00     0.057 H 
ATOM     33  H   LIG d   1      11.528  -4.039  -2.573  0.00  0.00     0.031 H 
ATOM     34  H   LIG d   1      12.226  -3.699  -4.173  0.00  0.00     0.031 H 
ATOM     35  H   LIG d   1       8.334  -7.552  -3.372  0.00  0.00     0.027 H 
ATOM     36  H   LIG d   1       9.217  -7.400  -4.908  0.00  0.00     0.027 H 
ATOM     37  H   LIG d   1      10.459  -8.097  -2.209  0.00  0.00     0.029 H 
ATOM     38  H   LIG d   1      10.127  -9.248  -3.526  0.00  0.00     0.029 H 
ENDROOT
BRANCH   1  39
ATOM     39  C   LIG d   1       5.044  -1.757  -6.394  0.00  0.00    -0.040 C 
ATOM     40  H   LIG d   1       4.616  -2.389  -5.615  0.00  0.00     0.030 H 
BRANCH  39  41
ATOM     41  C   LIG d   1       4.800  -0.286  -6.048  0.00  0.00    -0.046 C 
ATOM     42  H   LIG d   1       5.643   0.096  -5.471  0.00  0.00     0.027 H 
ATOM     43  H   LIG d   1       4.699   0.291  -6.967  0.00  0.00     0.027 H 
BRANCH  41  44
ATOM     44  C   LIG d   1       3.518  -0.162  -5.223  0.00  0.00    -0.031 C 
ATOM     45  H   LIG d   1       3.157   0.865  -5.264  0.00  0.00     0.031 H 
ATOM     46  H   LIG d   1       2.759  -0.832  -5.628  0.00  0.00     0.031 H 
BRANCH  44  47
ATOM     47  C   LIG d   1       3.804  -0.537  -3.791  0.00  0.00    -0.071 C 
ATOM     48  C   LIG d   1       3.622  -1.771  -3.389  0.00  0.00    -0.088 C 
ATOM     49  H   LIG d   1       3.268  -2.518  -4.082  0.00  0.00     0.057 H 
BRANCH  48  50
ATOM     50  C   LIG d   1       3.908  -2.146  -1.957  0.00  0.00    -0.047 C 
ATOM     51  H   LIG d   1       3.294  -1.538  -1.293  0.00  0.00     0.027 H 
ATOM     52  H   LIG d   1       3.675  -3.200  -1.805  0.00  0.00     0.027 H 
ATOM     53  H   LIG d   1       4.962  -1.972  -1.740  0.00  0.00     0.027 H 
ENDBRANCH  48  50
BRANCH  47  54
ATOM     54  C   LIG d   1       4.299   0.506  -2.823  0.00  0.00    -0.026 C 
ATOM     55  H   LIG d   1       4.133   0.163  -1.802  0.00  0.00     0.034 H 
BRANCH  54  56
ATOM     56  C   LIG d   1       5.794   0.739  -3.046  0.00  0.00    -0.059 C 
ATOM     57  H   LIG d   1       6.312   0.723  -2.087  0.00  0.00     0.024 H 
ATOM     58  H   LIG d   1       6.193  -0.047  -3.687  0.00  0.00     0.024 H 
ATOM     59  H   LIG d   1       5.944   1.708  -3.523  0.00  0.00     0.024 H 
ENDBRANCH  54  56
BRANCH  54  60
ATOM     60  C   LIG d   1       3.539   1.814  -3.050  0.00  0.00    -0.059 C 
ATOM     61  H   LIG d   1       4.214   2.656  -2.904  0.00  0.00     0.024 H 
ATOM     62  H   LIG d   1       3.148   1.835  -4.067  0.00  0.00     0.024 H 
ATOM     63  H   LIG d   1       2.713   1.883  -2.342  0.00  0.00     0.024 H 
ENDBRANCH  54  60
ENDBRANCH  47  54
ENDBRANCH  44  47
ENDBRANCH  41  44
ENDBRANCH  39  41
BRANCH  39  64
ATOM     64  C   LIG d   1       4.383  -2.081  -7.735  0.00  0.00    -0.062 C 
ATOM     65  H   LIG d   1       3.787  -2.988  -7.635  0.00  0.00     0.023 H 
ATOM     66  H   LIG d   1       3.739  -1.253  -8.032  0.00  0.00     0.023 H 
ATOM     67  H   LIG d   1       5.153  -2.233  -8.492  0.00  0.00     0.023 H 
ENDBRANCH  39  64
ENDBRANCH   1  39
BRANCH   7  68
ATOM     68  C   LIG d   1       5.730  -3.736  -4.821  0.00  0.00    -0.059 C 
ATOM     69  H   LIG d   1       5.291  -4.506  -5.455  0.00  0.00     0.024 H 
ATOM     70  H   LIG d   1       6.029  -4.177  -3.869  0.00  0.00     0.024 H 
ATOM     71  H   LIG d   1       4.996  -2.950  -4.643  0.00  0.00     0.024 H 
ENDBRANCH   7  68
BRANCH  17  72
ATOM     72  C   LIG d   1       9.690  -5.660  -1.969  0.00  0.00    -0.059 C 
ATOM     73  H   LIG d   1       9.995  -4.640  -1.731  0.00  0.00     0.024 H 
ATOM     74  H   LIG d   1       8.706  -5.854  -1.540  0.00  0.00     0.024 H 
ATOM     75  H   LIG d   1      10.412  -6.362  -1.555  0.00  0.00     0.024 H 
ENDBRANCH  17  72
BRANCH  22  76
ATOM     76  C   LIG d   1      13.403  -6.040  -4.231  0.00  0.00    -0.060 C 
ATOM     77  H   LIG d   1      13.760  -6.874  -4.833  0.00  0.00     0.023 H 
ATOM     78  H   LIG d   1      13.275  -5.163  -4.865  0.00  0.00     0.023 H 
ATOM     79  H   LIG d   1      14.129  -5.818  -3.449  0.00  0.00     0.023 H 
ENDBRANCH  22  76
BRANCH  20  80
ATOM     80  O   LIG d   1      12.727  -8.729  -3.482  0.00  0.00    -0.392 OA
ATOM     81  H   LIG d   1      12.499  -9.667  -3.547  0.00  0.00     0.210 HD
ENDBRANCH  20  80
TORSDOF 13
ENDMDL
MODEL 7
REMARK VINA RESULT:      -5.4      1.940      3.329
REMARK  13 active torsions:
REMARK  status: ('A' for Active; 'I' for Inactive)
REMARK    1  A    between atoms: C_1  and  C_2 
REMARK    2  A    between atoms: C_3  and  C_4 
REMARK    3  A    between atoms: C_3  and  C_36 
REMARK    4  A    between atoms: C_4  and  C_5 
REMARK    5  A    between atoms: C_5  and  C_6 
REMARK    6  A    between atoms: C_6  and  C_8 
REMARK    7  A    between atoms: C_6  and  C_9 
REMARK    8  A    between atoms: C_15  and  C_35 
REMARK    9  A    between atoms: C_25  and  C_34 
REMARK   10  A    between atoms: C_28  and  O_33 
REMARK   11  A    between atoms: C_30  and  C_32 
REMARK   12  A    between atoms: C_36  and  C_37 
REMARK   13  A    between atoms: C_36  and  C_38 
ROOT
ATOM      1  C   LIG d   1       7.316   0.486  -5.213  0.00  0.00    -0.033 C 
ATOM      2  H   LIG d   1       6.411   0.643  -5.799  0.00  0.00     0.031 H 
ATOM      3  C   LIG d   1       7.182   1.169  -3.837  0.00  0.00    -0.049 C 
ATOM      4  C   LIG d   1       7.910   2.527  -4.010  0.00  0.00    -0.046 C 
ATOM      5  C   LIG d   1       9.114   2.141  -4.899  0.00  0.00    -0.014 C 
ATOM      6  H   LIG d   1       9.919   1.688  -4.321  0.00  0.00     0.035 H 
ATOM      7  C   LIG d   1       8.524   1.141  -5.920  0.00  0.00    -0.022 C 
ATOM      8  C   LIG d   1       7.997   1.908  -7.133  0.00  0.00    -0.046 C 
ATOM      9  C   LIG d   1       9.117   2.548  -7.944  0.00  0.00    -0.045 C 
ATOM     10  C   LIG d   1      10.203   3.088  -7.018  0.00  0.00    -0.014 C 
ATOM     11  H   LIG d   1      10.965   2.317  -6.913  0.00  0.00     0.035 H 
ATOM     12  C   LIG d   1       9.599   3.353  -5.664  0.00  0.00    -0.066 C 
ATOM     13  C   LIG d   1       9.456   4.537  -5.159  0.00  0.00    -0.084 C 
ATOM     14  C   LIG d   1       9.850   5.798  -5.867  0.00  0.00    -0.031 C 
ATOM     15  C   LIG d   1       9.936   5.545  -7.378  0.00  0.00    -0.027 C 
ATOM     16  H   LIG d   1       8.947   5.351  -7.792  0.00  0.00     0.031 H 
ATOM     17  C   LIG d   1      10.849   4.337  -7.609  0.00  0.00    -0.022 C 
ATOM     18  C   LIG d   1      11.057   4.123  -9.111  0.00  0.00    -0.044 C 
ATOM     19  C   LIG d   1      11.678   5.370  -9.737  0.00  0.00    -0.026 C 
ATOM     20  C   LIG d   1      10.725   6.549  -9.534  0.00  0.00     0.058 C 
ATOM     21  H   LIG d   1       9.759   6.329  -9.987  0.00  0.00     0.060 H 
ATOM     22  C   LIG d   1      10.545   6.788  -8.035  0.00  0.00    -0.014 C 
ATOM     23  H   LIG d   1      11.514   6.998  -7.583  0.00  0.00     0.033 H 
ATOM     24  H   LIG d   1       6.132   1.330  -3.592  0.00  0.00     0.027 H 
ATOM     25  H   LIG d   1       7.667   0.573  -3.065  0.00  0.00     0.027 H 
ATOM     26  H   LIG d   1       8.247   2.913  -3.048  0.00  0.00     0.027 H 
ATOM     27  H   LIG d   1       7.270   3.249  -4.516  0.00  0.00     0.027 H 
ATOM     28  H   LIG d   1       7.445   1.219  -7.773  0.00  0.00     0.027 H 
ATOM     29  H   LIG d   1       7.320   2.690  -6.790  0.00  0.00     0.027 H 
ATOM     30  H   LIG d   1       8.710   3.366  -8.539  0.00  0.00     0.027 H 
ATOM     31  H   LIG d   1       9.551   1.801  -8.610  0.00  0.00     0.027 H 
ATOM     32  H   LIG d   1       9.028   4.621  -4.171  0.00  0.00     0.057 H 
ATOM     33  H   LIG d   1      10.821   6.132  -5.499  0.00  0.00     0.031 H 
ATOM     34  H   LIG d   1       9.106   6.571  -5.671  0.00  0.00     0.031 H 
ATOM     35  H   LIG d   1      11.719   3.271  -9.266  0.00  0.00     0.027 H 
ATOM     36  H   LIG d   1      10.094   3.923  -9.583  0.00  0.00     0.027 H 
ATOM     37  H   LIG d   1      12.636   5.579  -9.259  0.00  0.00     0.029 H 
ATOM     38  H   LIG d   1      11.831   5.206 -10.803  0.00  0.00     0.029 H 
ENDROOT
BRANCH   1  39
ATOM     39  C   LIG d   1       7.566  -1.012  -5.030  0.00  0.00    -0.040 C 
ATOM     40  H   LIG d   1       8.630  -1.186  -4.861  0.00  0.00     0.030 H 
BRANCH  39  41
ATOM     41  C   LIG d   1       6.769  -1.520  -3.827  0.00  0.00    -0.046 C 
ATOM     42  H   LIG d   1       7.361  -2.258  -3.285  0.00  0.00     0.027 H 
ATOM     43  H   LIG d   1       6.538  -0.684  -3.166  0.00  0.00     0.027 H 
BRANCH  41  44
ATOM     44  C   LIG d   1       5.468  -2.163  -4.311  0.00  0.00    -0.031 C 
ATOM     45  H   LIG d   1       5.547  -2.385  -5.374  0.00  0.00     0.031 H 
ATOM     46  H   LIG d   1       5.292  -3.087  -3.759  0.00  0.00     0.031 H 
BRANCH  44  47
ATOM     47  C   LIG d   1       4.321  -1.214  -4.078  0.00  0.00    -0.071 C 
ATOM     48  C   LIG d   1       3.882  -0.465  -5.059  0.00  0.00    -0.088 C 
ATOM     49  H   LIG d   1       4.341  -0.529  -6.035  0.00  0.00     0.057 H 
BRANCH  48  50
ATOM     50  C   LIG d   1       2.734   0.484  -4.827  0.00  0.00    -0.047 C 
ATOM     51  H   LIG d   1       2.599   1.112  -5.708  0.00  0.00     0.027 H 
ATOM     52  H   LIG d   1       1.823  -0.085  -4.643  0.00  0.00     0.027 H 
ATOM     53  H   LIG d   1       2.952   1.112  -3.963  0.00  0.00     0.027 H 
ENDBRANCH  48  50
BRANCH  47  54
ATOM     54  C   LIG d   1       3.680  -1.125  -2.718  0.00  0.00    -0.026 C 
ATOM     55  H   LIG d   1       2.646  -0.799  -2.823  0.00  0.00     0.034 H 
BRANCH  54  56
ATOM     56  C   LIG d   1       3.715  -2.499  -2.047  0.00  0.00    -0.059 C 
ATOM     57  H   LIG d   1       2.772  -2.677  -1.531  0.00  0.00     0.024 H 
ATOM     58  H   LIG d   1       3.866  -3.269  -2.803  0.00  0.00     0.024 H 
ATOM     59  H   LIG d   1       4.535  -2.532  -1.328  0.00  0.00     0.024 H 
ENDBRANCH  54  56
BRANCH  54  60
ATOM     60  C   LIG d   1       4.446  -0.118  -1.857  0.00  0.00    -0.059 C 
ATOM     61  H   LIG d   1       4.014   0.874  -1.988  0.00  0.00     0.024 H 
ATOM     62  H   LIG d   1       4.377  -0.409  -0.809  0.00  0.00     0.024 H 
ATOM     63  H   LIG d   1       5.493  -0.101  -2.162  0.00  0.00     0.024 H 
ENDBRANCH  54  60
ENDBRANCH  47  54
ENDBRANCH  44  47
ENDBRANCH  41  44
ENDBRANCH  39  41
BRANCH  39  64
ATOM     64  C   LIG d   1       7.121  -1.761  -6.288  0.00  0.00    -0.062 C 
ATOM     65  H   LIG d   1       7.335  -2.823  -6.172  0.00  0.00     0.023 H 
ATOM     66  H   LIG d   1       6.051  -1.619  -6.435  0.00  0.00     0.023 H 
ATOM     67  H   LIG d   1       7.662  -1.373  -7.152  0.00  0.00     0.023 H 
ENDBRANCH  39  64
ENDBRANCH   1  39
BRANCH   7  68
ATOM     68  C   LIG d   1       9.560   0.091  -6.324  0.00  0.00    -0.059 C 
ATOM     69  H   LIG d   1       9.557  -0.721  -5.598  0.00  0.00     0.024 H 
ATOM     70  H   LIG d   1       9.314  -0.302  -7.310  0.00  0.00     0.024 H 
ATOM     71  H   LIG d   1      10.549   0.550  -6.352  0.00  0.00     0.024 H 
ENDBRANCH   7  68
BRANCH  17  72
ATOM     72  C   LIG d   1      12.201   4.581  -6.935  0.00  0.00    -0.059 C 
ATOM     73  H   LIG d   1      12.982   4.054  -7.484  0.00  0.00     0.024 H 
ATOM     74  H   LIG d   1      12.417   5.650  -6.931  0.00  0.00     0.024 H 
ATOM     75  H   LIG d   1      12.167   4.214  -5.909  0.00  0.00     0.024 H 
ENDBRANCH  17  72
BRANCH  22  76
ATOM     76  C   LIG d   1       9.614   7.984  -7.820  0.00  0.00    -0.060 C 
ATOM     77  H   LIG d   1       9.970   8.831  -8.404  0.00  0.00     0.023 H 
ATOM     78  H   LIG d   1       8.606   7.720  -8.137  0.00  0.00     0.023 H 
ATOM     79  H   LIG d   1       9.604   8.249  -6.763  0.00  0.00     0.023 H 
ENDBRANCH  22  76
BRANCH  20  80
ATOM     80  O   LIG d   1      11.286   7.715 -10.140  0.00  0.00    -0.392 OA
ATOM     81  H   LIG d   1      11.190   7.744 -11.102  0.00  0.00     0.210 HD
ENDBRANCH  20  80
TORSDOF 13
ENDMDL
MODEL 8
REMARK VINA RESULT:      -5.2      3.809      8.277
REMARK  13 active torsions:
REMARK  status: ('A' for Active; 'I' for Inactive)
REMARK    1  A    between atoms: C_1  and  C_2 
REMARK    2  A    between atoms: C_3  and  C_4 
REMARK    3  A    between atoms: C_3  and  C_36 
REMARK    4  A    between atoms: C_4  and  C_5 
REMARK    5  A    between atoms: C_5  and  C_6 
REMARK    6  A    between atoms: C_6  and  C_8 
REMARK    7  A    between atoms: C_6  and  C_9 
REMARK    8  A    between atoms: C_15  and  C_35 
REMARK    9  A    between atoms: C_25  and  C_34 
REMARK   10  A    between atoms: C_28  and  O_33 
REMARK   11  A    between atoms: C_30  and  C_32 
REMARK   12  A    between atoms: C_36  and  C_37 
REMARK   13  A    between atoms: C_36  and  C_38 
ROOT
ATOM      1  C   LIG d   1      11.180   2.929  -5.421  0.00  0.00    -0.033 C 
ATOM      2  H   LIG d   1      10.734   3.759  -5.970  0.00  0.00     0.031 H 
ATOM      3  C   LIG d   1      11.706   1.865  -6.406  0.00  0.00    -0.049 C 
ATOM      4  C   LIG d   1      10.576   0.804  -6.465  0.00  0.00    -0.046 C 
ATOM      5  C   LIG d   1      10.096   0.758  -4.997  0.00  0.00    -0.014 C 
ATOM      6  H   LIG d   1      10.749   0.148  -4.373  0.00  0.00     0.035 H 
ATOM      7  C   LIG d   1      10.110   2.237  -4.548  0.00  0.00    -0.022 C 
ATOM      8  C   LIG d   1       8.758   2.876  -4.869  0.00  0.00    -0.046 C 
ATOM      9  C   LIG d   1       7.632   2.307  -4.014  0.00  0.00    -0.045 C 
ATOM     10  C   LIG d   1       7.822   0.807  -3.813  0.00  0.00    -0.014 C 
ATOM     11  H   LIG d   1       8.361   0.662  -2.877  0.00  0.00     0.035 H 
ATOM     12  C   LIG d   1       8.666   0.268  -4.939  0.00  0.00    -0.066 C 
ATOM     13  C   LIG d   1       8.222  -0.544  -5.845  0.00  0.00    -0.084 C 
ATOM     14  C   LIG d   1       6.807  -1.035  -5.904  0.00  0.00    -0.031 C 
ATOM     15  C   LIG d   1       5.891  -0.085  -5.120  0.00  0.00    -0.027 C 
ATOM     16  H   LIG d   1       5.819   0.880  -5.622  0.00  0.00     0.031 H 
ATOM     17  C   LIG d   1       6.477   0.095  -3.716  0.00  0.00    -0.022 C 
ATOM     18  C   LIG d   1       5.529   0.943  -2.863  0.00  0.00    -0.044 C 
ATOM     19  C   LIG d   1       4.161   0.269  -2.772  0.00  0.00    -0.026 C 
ATOM     20  C   LIG d   1       3.579   0.146  -4.181  0.00  0.00     0.058 C 
ATOM     21  H   LIG d   1       3.495   1.132  -4.638  0.00  0.00     0.060 H 
ATOM     22  C   LIG d   1       4.505  -0.730  -5.025  0.00  0.00    -0.014 C 
ATOM     23  H   LIG d   1       4.595  -1.713  -4.561  0.00  0.00     0.033 H 
ATOM     24  H   LIG d   1      11.867   2.304  -7.391  0.00  0.00     0.027 H 
ATOM     25  H   LIG d   1      12.627   1.420  -6.032  0.00  0.00     0.027 H 
ATOM     26  H   LIG d   1      10.969  -0.164  -6.776  0.00  0.00     0.027 H 
ATOM     27  H   LIG d   1       9.773   1.129  -7.126  0.00  0.00     0.027 H 
ATOM     28  H   LIG d   1       8.826   3.950  -4.696  0.00  0.00     0.027 H 
ATOM     29  H   LIG d   1       8.526   2.701  -5.919  0.00  0.00     0.027 H 
ATOM     30  H   LIG d   1       6.677   2.486  -4.510  0.00  0.00     0.027 H 
ATOM     31  H   LIG d   1       7.631   2.803  -3.044  0.00  0.00     0.027 H 
ATOM     32  H   LIG d   1       8.911  -0.889  -6.601  0.00  0.00     0.057 H 
ATOM     33  H   LIG d   1       6.751  -2.033  -5.468  0.00  0.00     0.031 H 
ATOM     34  H   LIG d   1       6.481  -1.077  -6.943  0.00  0.00     0.031 H 
ATOM     35  H   LIG d   1       5.946   1.054  -1.863  0.00  0.00     0.027 H 
ATOM     36  H   LIG d   1       5.417   1.928  -3.319  0.00  0.00     0.027 H 
ATOM     37  H   LIG d   1       4.272  -0.720  -2.326  0.00  0.00     0.029 H 
ATOM     38  H   LIG d   1       3.496   0.874  -2.157  0.00  0.00     0.029 H 
ENDROOT
BRANCH   1  39
ATOM     39  C   LIG d   1      12.323   3.438  -4.542  0.00  0.00    -0.040 C 
ATOM     40  H   LIG d   1      12.044   3.345  -3.492  0.00  0.00     0.030 H 
BRANCH  39  41
ATOM     41  C   LIG d   1      13.582   2.610  -4.810  0.00  0.00    -0.046 C 
ATOM     42  H   LIG d   1      13.321   1.738  -5.412  0.00  0.00     0.027 H 
ATOM     43  H   LIG d   1      14.309   3.217  -5.349  0.00  0.00     0.027 H 
BRANCH  41  44
ATOM     44  C   LIG d   1      14.184   2.151  -3.481  0.00  0.00    -0.031 C 
ATOM     45  H   LIG d   1      15.178   2.581  -3.365  0.00  0.00     0.031 H 
ATOM     46  H   LIG d   1      13.547   2.481  -2.660  0.00  0.00     0.031 H 
BRANCH  44  47
ATOM     47  C   LIG d   1      14.281   0.647  -3.466  0.00  0.00    -0.071 C 
ATOM     48  C   LIG d   1      13.252  -0.078  -3.827  0.00  0.00    -0.088 C 
ATOM     49  H   LIG d   1      12.335   0.400  -4.136  0.00  0.00     0.057 H 
BRANCH  48  50
ATOM     50  C   LIG d   1      13.349  -1.583  -3.812  0.00  0.00    -0.047 C 
ATOM     51  H   LIG d   1      13.125  -1.971  -4.806  0.00  0.00     0.027 H 
ATOM     52  H   LIG d   1      14.358  -1.879  -3.525  0.00  0.00     0.027 H 
ATOM     53  H   LIG d   1      12.634  -1.985  -3.094  0.00  0.00     0.027 H 
ENDBRANCH  48  50
BRANCH  47  54
ATOM     54  C   LIG d   1      15.561  -0.021  -3.036  0.00  0.00    -0.026 C 
ATOM     55  H   LIG d   1      15.471  -1.099  -3.169  0.00  0.00     0.034 H 
BRANCH  54  56
ATOM     56  C   LIG d   1      16.720   0.502  -3.886  0.00  0.00    -0.059 C 
ATOM     57  H   LIG d   1      17.588  -0.144  -3.756  0.00  0.00     0.024 H 
ATOM     58  H   LIG d   1      16.427   0.509  -4.936  0.00  0.00     0.024 H 
ATOM     59  H   LIG d   1      16.971   1.516  -3.574  0.00  0.00     0.024 H 
ENDBRANCH  54  56
BRANCH  54  60
ATOM     60  C   LIG d   1      15.829   0.290  -1.562  0.00  0.00    -0.059 C 
ATOM     61  H   LIG d   1      16.873   0.083  -1.331  0.00  0.00     0.024 H 
ATOM     62  H   LIG d   1      15.615   1.341  -1.368  0.00  0.00     0.024 H 
ATOM     63  H   LIG d   1      15.188  -0.333  -0.936  0.00  0.00     0.024 H 
ENDBRANCH  54  60
ENDBRANCH  47  54
ENDBRANCH  44  47
ENDBRANCH  41  44
ENDBRANCH  39  41
BRANCH  39  64
ATOM     64  C   LIG d   1      12.602   4.907  -4.867  0.00  0.00    -0.062 C 
ATOM     65  H   LIG d   1      13.322   4.967  -5.683  0.00  0.00     0.023 H 
ATOM     66  H   LIG d   1      11.674   5.395  -5.165  0.00  0.00     0.023 H 
ATOM     67  H   LIG d   1      13.007   5.403  -3.986  0.00  0.00     0.023 H 
ENDBRANCH  39  64
ENDBRANCH   1  39
BRANCH   7  68
ATOM     68  C   LIG d   1      10.451   2.357  -3.062  0.00  0.00    -0.059 C 
ATOM     69  H   LIG d   1      11.016   1.481  -2.746  0.00  0.00     0.024 H 
ATOM     70  H   LIG d   1      11.049   3.254  -2.897  0.00  0.00     0.024 H 
ATOM     71  H   LIG d   1       9.530   2.423  -2.482  0.00  0.00     0.024 H 
ENDBRANCH   7  68
BRANCH  17  72
ATOM     72  C   LIG d   1       6.668  -1.275  -3.062  0.00  0.00    -0.059 C 
ATOM     73  H   LIG d   1       5.946  -1.395  -2.254  0.00  0.00     0.024 H 
ATOM     74  H   LIG d   1       6.515  -2.057  -3.806  0.00  0.00     0.024 H 
ATOM     75  H   LIG d   1       7.678  -1.348  -2.661  0.00  0.00     0.024 H 
ENDBRANCH  17  72
BRANCH  22  76
ATOM     76  C   LIG d   1       3.918  -0.884  -6.430  0.00  0.00    -0.060 C 
ATOM     77  H   LIG d   1       4.192  -0.020  -7.034  0.00  0.00     0.023 H 
ATOM     78  H   LIG d   1       4.312  -1.790  -6.890  0.00  0.00     0.023 H 
ATOM     79  H   LIG d   1       2.832  -0.953  -6.364  0.00  0.00     0.023 H 
ENDBRANCH  22  76
BRANCH  20  80
ATOM     80  O   LIG d   1       2.287  -0.460  -4.103  0.00  0.00    -0.392 OA
ATOM     81  H   LIG d   1       2.299  -1.423  -4.189  0.00  0.00     0.210 HD
ENDBRANCH  20  80
TORSDOF 13
ENDMDL
MODEL 9
REMARK VINA RESULT:      -5.2      2.423      3.926
REMARK  13 active torsions:
REMARK  status: ('A' for Active; 'I' for Inactive)
REMARK    1  A    between atoms: C_1  and  C_2 
REMARK    2  A    between atoms: C_3  and  C_4 
REMARK    3  A    between atoms: C_3  and  C_36 
REMARK    4  A    between atoms: C_4  and  C_5 
REMARK    5  A    between atoms: C_5  and  C_6 
REMARK    6  A    between atoms: C_6  and  C_8 
REMARK    7  A    between atoms: C_6  and  C_9 
REMARK    8  A    between atoms: C_15  and  C_35 
REMARK    9  A    between atoms: C_25  and  C_34 
REMARK   10  A    between atoms: C_28  and  O_33 
REMARK   11  A    between atoms: C_30  and  C_32 
REMARK   12  A    between atoms: C_36  and  C_37 
REMARK   13  A    between atoms: C_36  and  C_38 
ROOT
ATOM      1  C   LIG d   1       9.737   2.588  -6.220  0.00  0.00    -0.033 C 
ATOM      2  H   LIG d   1      10.724   2.126  -6.238  0.00  0.00     0.031 H 
ATOM      3  C   LIG d   1       9.626   3.645  -7.337  0.00  0.00    -0.049 C 
ATOM      4  C   LIG d   1       9.918   4.990  -6.623  0.00  0.00    -0.046 C 
ATOM      5  C   LIG d   1       9.214   4.795  -5.261  0.00  0.00    -0.014 C 
ATOM      6  H   LIG d   1       8.140   4.969  -5.328  0.00  0.00     0.035 H 
ATOM      7  C   LIG d   1       9.524   3.329  -4.882  0.00  0.00    -0.022 C 
ATOM      8  C   LIG d   1      10.837   3.274  -4.101  0.00  0.00    -0.046 C 
ATOM      9  C   LIG d   1      10.722   3.928  -2.729  0.00  0.00    -0.045 C 
ATOM     10  C   LIG d   1       9.844   5.173  -2.804  0.00  0.00    -0.014 C 
ATOM     11  H   LIG d   1       8.827   4.878  -2.548  0.00  0.00     0.035 H 
ATOM     12  C   LIG d   1       9.852   5.689  -4.220  0.00  0.00    -0.066 C 
ATOM     13  C   LIG d   1      10.390   6.812  -4.573  0.00  0.00    -0.084 C 
ATOM     14  C   LIG d   1      11.096   7.733  -3.624  0.00  0.00    -0.031 C 
ATOM     15  C   LIG d   1      11.534   6.959  -2.373  0.00  0.00    -0.027 C 
ATOM     16  H   LIG d   1      12.317   6.242  -2.619  0.00  0.00     0.031 H 
ATOM     17  C   LIG d   1      10.311   6.229  -1.809  0.00  0.00    -0.022 C 
ATOM     18  C   LIG d   1      10.680   5.540  -0.492  0.00  0.00    -0.044 C 
ATOM     19  C   LIG d   1      11.179   6.572   0.517  0.00  0.00    -0.026 C 
ATOM     20  C   LIG d   1      12.428   7.250  -0.049  0.00  0.00     0.058 C 
ATOM     21  H   LIG d   1      13.196   6.505  -0.254  0.00  0.00     0.060 H 
ATOM     22  C   LIG d   1      12.054   7.969  -1.345  0.00  0.00    -0.014 C 
ATOM     23  H   LIG d   1      11.279   8.707  -1.139  0.00  0.00     0.033 H 
ATOM     24  H   LIG d   1      10.368   3.458  -8.114  0.00  0.00     0.027 H 
ATOM     25  H   LIG d   1       8.622   3.649  -7.761  0.00  0.00     0.027 H 
ATOM     26  H   LIG d   1       9.479   5.823  -7.170  0.00  0.00     0.027 H 
ATOM     27  H   LIG d   1      10.990   5.133  -6.488  0.00  0.00     0.027 H 
ATOM     28  H   LIG d   1      11.129   2.232  -3.974  0.00  0.00     0.027 H 
ATOM     29  H   LIG d   1      11.609   3.789  -4.673  0.00  0.00     0.027 H 
ATOM     30  H   LIG d   1      11.716   4.208  -2.379  0.00  0.00     0.027 H 
ATOM     31  H   LIG d   1      10.282   3.218  -2.028  0.00  0.00     0.027 H 
ATOM     32  H   LIG d   1      10.327   7.103  -5.610  0.00  0.00     0.057 H 
ATOM     33  H   LIG d   1      10.423   8.540  -3.333  0.00  0.00     0.031 H 
ATOM     34  H   LIG d   1      11.974   8.155  -4.113  0.00  0.00     0.031 H 
ATOM     35  H   LIG d   1       9.801   5.036  -0.090  0.00  0.00     0.027 H 
ATOM     36  H   LIG d   1      11.464   4.805  -0.677  0.00  0.00     0.027 H 
ATOM     37  H   LIG d   1      10.400   7.313   0.696  0.00  0.00     0.029 H 
ATOM     38  H   LIG d   1      11.431   6.074   1.454  0.00  0.00     0.029 H 
ENDROOT
BRANCH   1  39
ATOM     39  C   LIG d   1       8.658   1.518  -6.403  0.00  0.00    -0.040 C 
ATOM     40  H   LIG d   1       8.001   1.511  -5.533  0.00  0.00     0.030 H 
BRANCH  39  41
ATOM     41  C   LIG d   1       7.839   1.830  -7.658  0.00  0.00    -0.046 C 
ATOM     42  H   LIG d   1       7.154   2.652  -7.449  0.00  0.00     0.027 H 
ATOM     43  H   LIG d   1       8.510   2.115  -8.469  0.00  0.00     0.027 H 
BRANCH  41  44
ATOM     44  C   LIG d   1       7.041   0.591  -8.067  0.00  0.00    -0.031 C 
ATOM     45  H   LIG d   1       7.522   0.114  -8.921  0.00  0.00     0.031 H 
ATOM     46  H   LIG d   1       7.004  -0.110  -7.233  0.00  0.00     0.031 H 
BRANCH  44  47
ATOM     47  C   LIG d   1       5.639   0.997  -8.442  0.00  0.00    -0.071 C 
ATOM     48  C   LIG d   1       5.431   2.132  -9.062  0.00  0.00    -0.088 C 
ATOM     49  H   LIG d   1       6.263   2.776  -9.306  0.00  0.00     0.057 H 
BRANCH  48  50
ATOM     50  C   LIG d   1       4.028   2.540  -9.437  0.00  0.00    -0.047 C 
ATOM     51  H   LIG d   1       3.898   2.444 -10.515  0.00  0.00     0.027 H 
ATOM     52  H   LIG d   1       3.314   1.894  -8.926  0.00  0.00     0.027 H 
ATOM     53  H   LIG d   1       3.860   3.575  -9.141  0.00  0.00     0.027 H 
ENDBRANCH  48  50
BRANCH  47  54
ATOM     54  C   LIG d   1       4.477   0.100  -8.103  0.00  0.00    -0.026 C 
ATOM     55  H   LIG d   1       3.550   0.669  -8.157  0.00  0.00     0.034 H 
BRANCH  54  56
ATOM     56  C   LIG d   1       4.422  -1.060  -9.099  0.00  0.00    -0.059 C 
ATOM     57  H   LIG d   1       4.996  -0.803  -9.989  0.00  0.00     0.024 H 
ATOM     58  H   LIG d   1       4.846  -1.954  -8.640  0.00  0.00     0.024 H 
ATOM     59  H   LIG d   1       3.386  -1.252  -9.378  0.00  0.00     0.024 H 
ENDBRANCH  54  56
BRANCH  54  60
ATOM     60  C   LIG d   1       4.655  -0.452  -6.687  0.00  0.00    -0.059 C 
ATOM     61  H   LIG d   1       5.697  -0.350  -6.386  0.00  0.00     0.024 H 
ATOM     62  H   LIG d   1       4.021   0.105  -5.998  0.00  0.00     0.024 H 
ATOM     63  H   LIG d   1       4.373  -1.505  -6.669  0.00  0.00     0.024 H 
ENDBRANCH  54  60
ENDBRANCH  47  54
ENDBRANCH  44  47
ENDBRANCH  41  44
ENDBRANCH  39  41
BRANCH  39  64
ATOM     64  C   LIG d   1       9.319   0.147  -6.554  0.00  0.00    -0.062 C 
ATOM     65  H   LIG d   1      10.241   0.123  -5.974  0.00  0.00     0.023 H 
ATOM     66  H   LIG d   1       8.641  -0.625  -6.191  0.00  0.00     0.023 H 
ATOM     67  H   LIG d   1       9.546  -0.033  -7.605  0.00  0.00     0.023 H 
ENDBRANCH  39  64
ENDBRANCH   1  39
BRANCH   7  68
ATOM     68  C   LIG d   1       8.371   2.711  -4.088  0.00  0.00    -0.059 C 
ATOM     69  H   LIG d   1       7.457   3.274  -4.275  0.00  0.00     0.024 H 
ATOM     70  H   LIG d   1       8.230   1.675  -4.399  0.00  0.00     0.024 H 
ATOM     71  H   LIG d   1       8.606   2.743  -3.024  0.00  0.00     0.024 H 
ENDBRANCH   7  68
BRANCH  17  72
ATOM     72  C   LIG d   1       9.184   7.235  -1.563  0.00  0.00    -0.059 C 
ATOM     73  H   LIG d   1       8.240   6.815  -1.911  0.00  0.00     0.024 H 
ATOM     74  H   LIG d   1       9.116   7.449  -0.495  0.00  0.00     0.024 H 
ATOM     75  H   LIG d   1       9.395   8.156  -2.105  0.00  0.00     0.024 H 
ENDBRANCH  17  72
BRANCH  22  76
ATOM     76  C   LIG d   1      13.290   8.676  -1.908  0.00  0.00    -0.060 C 
ATOM     77  H   LIG d   1      14.160   8.422  -1.303  0.00  0.00     0.023 H 
ATOM     78  H   LIG d   1      13.455   8.354  -2.936  0.00  0.00     0.023 H 
ATOM     79  H   LIG d   1      13.133   9.754  -1.886  0.00  0.00     0.023 H 
ENDBRANCH  22  76
BRANCH  20  80
ATOM     80  O   LIG d   1      12.918   8.198   0.900  0.00  0.00    -0.392 OA
ATOM     81  H   LIG d   1      12.577   8.070   1.796  0.00  0.00     0.210 HD
ENDBRANCH  20  80
TORSDOF 13
ENDMDL
MODEL 10
REMARK VINA RESULT:      -5.2      1.609      2.567
REMARK  13 active torsions:
REMARK  status: ('A' for Active; 'I' for Inactive)
REMARK    1  A    between atoms: C_1  and  C_2 
REMARK    2  A    between atoms: C_3  and  C_4 
REMARK    3  A    between atoms: C_3  and  C_36 
REMARK    4  A    between atoms: C_4  and  C_5 
REMARK    5  A    between atoms: C_5  and  C_6 
REMARK    6  A    between atoms: C_6  and  C_8 
REMARK    7  A    between atoms: C_6  and  C_9 
REMARK    8  A    between atoms: C_15  and  C_35 
REMARK    9  A    between atoms: C_25  and  C_34 
REMARK   10  A    between atoms: C_28  and  O_33 
REMARK   11  A    between atoms: C_30  and  C_32 
REMARK   12  A    between atoms: C_36  and  C_37 
REMARK   13  A    between atoms: C_36  and  C_38 
ROOT
ATOM      1  C   LIG d   1       9.578   1.348  -5.766  0.00  0.00    -0.033 C 
ATOM      2  H   LIG d   1      10.585   0.963  -5.926  0.00  0.00     0.031 H 
ATOM      3  C   LIG d   1       9.129   2.179  -6.985  0.00  0.00    -0.049 C 
ATOM      4  C   LIG d   1       9.413   3.647  -6.573  0.00  0.00    -0.046 C 
ATOM      5  C   LIG d   1       9.025   3.647  -5.078  0.00  0.00    -0.014 C 
ATOM      6  H   LIG d   1       7.947   3.728  -4.936  0.00  0.00     0.035 H 
ATOM      7  C   LIG d   1       9.561   2.297  -4.548  0.00  0.00    -0.022 C 
ATOM      8  C   LIG d   1      11.004   2.477  -4.074  0.00  0.00    -0.046 C 
ATOM      9  C   LIG d   1      11.100   3.353  -2.831  0.00  0.00    -0.045 C 
ATOM     10  C   LIG d   1      10.095   4.498  -2.908  0.00  0.00    -0.014 C 
ATOM     11  H   LIG d   1       9.188   4.181  -2.394  0.00  0.00     0.035 H 
ATOM     12  C   LIG d   1       9.760   4.754  -4.355  0.00  0.00    -0.066 C 
ATOM     13  C   LIG d   1      10.091   5.833  -4.990  0.00  0.00    -0.084 C 
ATOM     14  C   LIG d   1      10.871   6.956  -4.375  0.00  0.00    -0.031 C 
ATOM     15  C   LIG d   1      11.635   6.450  -3.143  0.00  0.00    -0.027 C 
ATOM     16  H   LIG d   1      12.424   5.759  -3.438  0.00  0.00     0.031 H 
ATOM     17  C   LIG d   1      10.637   5.745  -2.219  0.00  0.00    -0.022 C 
ATOM     18  C   LIG d   1      11.337   5.329  -0.922  0.00  0.00    -0.044 C 
ATOM     19  C   LIG d   1      11.917   6.557  -0.221  0.00  0.00    -0.026 C 
ATOM     20  C   LIG d   1      12.943   7.211  -1.146  0.00  0.00     0.058 C 
ATOM     21  H   LIG d   1      13.730   6.499  -1.394  0.00  0.00     0.060 H 
ATOM     22  C   LIG d   1      12.240   7.661  -2.427  0.00  0.00    -0.014 C 
ATOM     23  H   LIG d   1      11.447   8.366  -2.176  0.00  0.00     0.033 H 
ATOM     24  H   LIG d   1       9.714   1.911  -7.865  0.00  0.00     0.027 H 
ATOM     25  H   LIG d   1       8.066   2.035  -7.175  0.00  0.00     0.027 H 
ATOM     26  H   LIG d   1       8.785   4.336  -7.137  0.00  0.00     0.027 H 
ATOM     27  H   LIG d   1      10.468   3.889  -6.699  0.00  0.00     0.027 H 
ATOM     28  H   LIG d   1      11.427   1.497  -3.850  0.00  0.00     0.027 H 
ATOM     29  H   LIG d   1      11.584   2.936  -4.874  0.00  0.00     0.027 H 
ATOM     30  H   LIG d   1      12.107   3.762  -2.754  0.00  0.00     0.027 H 
ATOM     31  H   LIG d   1      10.890   2.749  -1.948  0.00  0.00     0.027 H 
ATOM     32  H   LIG d   1       9.788   5.930  -6.021  0.00  0.00     0.057 H 
ATOM     33  H   LIG d   1      10.187   7.751  -4.076  0.00  0.00     0.031 H 
ATOM     34  H   LIG d   1      11.580   7.347  -5.105  0.00  0.00     0.031 H 
ATOM     35  H   LIG d   1      10.618   4.842  -0.264  0.00  0.00     0.027 H 
ATOM     36  H   LIG d   1      12.143   4.631  -1.155  0.00  0.00     0.027 H 
ATOM     37  H   LIG d   1      11.114   7.260   0.003  0.00  0.00     0.029 H 
ATOM     38  H   LIG d   1      12.404   6.252   0.704  0.00  0.00     0.029 H 
ENDROOT
BRANCH   1  39
ATOM     39  C   LIG d   1       8.606   0.188  -5.539  0.00  0.00    -0.040 C 
ATOM     40  H   LIG d   1       8.581  -0.063  -4.477  0.00  0.00     0.030 H 
BRANCH  39  41
ATOM     41  C   LIG d   1       7.206   0.598  -5.999  0.00  0.00    -0.046 C 
ATOM     42  H   LIG d   1       6.902   1.504  -5.474  0.00  0.00     0.027 H 
ATOM     43  H   LIG d   1       7.217   0.787  -7.072  0.00  0.00     0.027 H 
BRANCH  41  44
ATOM     44  C   LIG d   1       6.217  -0.528  -5.689  0.00  0.00    -0.031 C 
ATOM     45  H   LIG d   1       5.336  -0.422  -6.322  0.00  0.00     0.031 H 
ATOM     46  H   LIG d   1       6.690  -1.491  -5.881  0.00  0.00     0.031 H 
BRANCH  44  47
ATOM     47  C   LIG d   1       5.807  -0.451  -4.240  0.00  0.00    -0.071 C 
ATOM     48  C   LIG d   1       5.432   0.694  -3.726  0.00  0.00    -0.088 C 
ATOM     49  H   LIG d   1       5.415   1.582  -4.340  0.00  0.00     0.057 H 
BRANCH  48  50
ATOM     50  C   LIG d   1       5.022   0.771  -2.278  0.00  0.00    -0.047 C 
ATOM     51  H   LIG d   1       3.971   1.053  -2.212  0.00  0.00     0.027 H 
ATOM     52  H   LIG d   1       5.167  -0.202  -1.807  0.00  0.00     0.027 H 
ATOM     53  H   LIG d   1       5.632   1.517  -1.767  0.00  0.00     0.027 H 
ENDBRANCH  48  50
BRANCH  47  54
ATOM     54  C   LIG d   1       5.829  -1.690  -3.384  0.00  0.00    -0.026 C 
ATOM     55  H   LIG d   1       5.563  -1.430  -2.360  0.00  0.00     0.034 H 
BRANCH  54  56
ATOM     56  C   LIG d   1       4.823  -2.705  -3.930  0.00  0.00    -0.059 C 
ATOM     57  H   LIG d   1       4.794  -2.640  -5.018  0.00  0.00     0.024 H 
ATOM     58  H   LIG d   1       5.124  -3.710  -3.635  0.00  0.00     0.024 H 
ATOM     59  H   LIG d   1       3.833  -2.490  -3.527  0.00  0.00     0.024 H 
ENDBRANCH  54  56
BRANCH  54  60
ATOM     60  C   LIG d   1       7.232  -2.301  -3.406  0.00  0.00    -0.059 C 
ATOM     61  H   LIG d   1       7.533  -2.556  -2.390  0.00  0.00     0.024 H 
ATOM     62  H   LIG d   1       7.227  -3.201  -4.021  0.00  0.00     0.024 H 
ATOM     63  H   LIG d   1       7.936  -1.580  -3.824  0.00  0.00     0.024 H 
ENDBRANCH  54  60
ENDBRANCH  47  54
ENDBRANCH  44  47
ENDBRANCH  41  44
ENDBRANCH  39  41
BRANCH  39  64
ATOM     64  C   LIG d   1       9.069  -1.031  -6.339  0.00  0.00    -0.062 C 
ATOM     65  H   LIG d   1       9.913  -1.498  -5.832  0.00  0.00     0.023 H 
ATOM     66  H   LIG d   1       8.250  -1.746  -6.418  0.00  0.00     0.023 H 
ATOM     67  H   LIG d   1       9.373  -0.715  -7.337  0.00  0.00     0.023 H 
ENDBRANCH  39  64
ENDBRANCH   1  39
BRANCH   7  68
ATOM     68  C   LIG d   1       8.667   1.748  -3.435  0.00  0.00    -0.059 C 
ATOM     69  H   LIG d   1       9.215   1.752  -2.493  0.00  0.00     0.024 H 
ATOM     70  H   LIG d   1       7.779   2.373  -3.340  0.00  0.00     0.024 H 
ATOM     71  H   LIG d   1       8.370   0.728  -3.678  0.00  0.00     0.024 H 
ENDBRANCH   7  68
BRANCH  17  72
ATOM     72  C   LIG d   1       9.482   6.695  -1.895  0.00  0.00    -0.059 C 
ATOM     73  H   LIG d   1       9.703   7.237  -0.975  0.00  0.00     0.024 H 
ATOM     74  H   LIG d   1       9.353   7.403  -2.714  0.00  0.00     0.024 H 
ATOM     75  H   LIG d   1       8.565   6.120  -1.765  0.00  0.00     0.024 H 
ENDBRANCH  17  72
BRANCH  22  76
ATOM     76  C   LIG d   1      13.252   8.344  -3.350  0.00  0.00    -0.060 C 
ATOM     77  H   LIG d   1      14.097   8.699  -2.762  0.00  0.00     0.023 H 
ATOM     78  H   LIG d   1      13.602   7.630  -4.096  0.00  0.00     0.023 H 
ATOM     79  H   LIG d   1      12.776   9.187  -3.850  0.00  0.00     0.023 H 
ENDBRANCH  22  76
BRANCH  20  80
ATOM     80  O   LIG d   1      13.511   8.346  -0.489  0.00  0.00    -0.392 OA
ATOM     81  H   LIG d   1      14.414   8.207  -0.174  0.00  0.00     0.210 HD
ENDBRANCH  20  80
TORSDOF 13
ENDMDL
