MODEL 1
REMARK VINA RESULT:      -6.3      0.000      0.000
REMARK  4 active torsions:
REMARK  status: ('A' for Active; 'I' for Inactive)
REMARK    1  A    between atoms: C_1  and  C_2 
REMARK    2  A    between atoms: C_2  and  C_8 
REMARK    3  A    between atoms: N_3  and  N_4 
REMARK       I    between atoms: N_4  and  C_5 
REMARK       I    between atoms: C_5  and  N_7 
REMARK    4  A    between atoms: N_16  and  C_19 
ROOT
ATOM      1  C   LIG d   1       3.713  -0.758  -6.872  0.00  0.00     0.053 A 
ATOM      2  C   LIG d   1       3.373   0.149  -5.835  0.00  0.00     0.198 A 
ATOM      3  C   LIG d   1       3.715  -0.226  -4.451  0.00  0.00     0.046 A 
ATOM      4  C   LIG d   1       3.412   0.616  -3.380  0.00  0.00    -0.049 A 
ATOM      5  C   LIG d   1       3.744   0.235  -2.100  0.00  0.00    -0.061 A 
ATOM      6  C   LIG d   1       4.379  -0.978  -1.871  0.00  0.00    -0.060 A 
ATOM      7  C   LIG d   1       4.685  -1.819  -2.918  0.00  0.00    -0.037 A 
ATOM      8  C   LIG d   1       4.357  -1.454  -4.220  0.00  0.00     0.052 A 
ATOM      9  N   LIG d   1       4.655  -2.285  -5.281  0.00  0.00    -0.356 N 
ATOM     10  C   LIG d   1       4.342  -1.956  -6.557  0.00  0.00    -0.023 A 
ATOM     11  O   LIG d   1       4.654  -2.813  -7.552  0.00  0.00    -0.861 OA
ATOM     12  O   LIG d   1       2.817   1.207  -6.080  0.00  0.00    -0.286 OA
ATOM     13  H   LIG d   1       2.919   1.561  -3.555  0.00  0.00     0.062 H 
ATOM     14  H   LIG d   1       3.511   0.885  -1.269  0.00  0.00     0.062 H 
ATOM     15  H   LIG d   1       4.636  -1.265  -0.862  0.00  0.00     0.062 H 
ATOM     16  H   LIG d   1       5.179  -2.761  -2.729  0.00  0.00     0.064 H 
ENDROOT
BRANCH   1  17
ATOM     17  C   LIG d   1       3.395  -0.435  -8.272  0.00  0.00     0.068 C 
ATOM     18  N   LIG d   1       2.240  -0.764  -8.768  0.00  0.00    -0.183 NA
BRANCH  17  19
ATOM     19  C   LIG d   1       4.408   0.278  -9.130  0.00  0.00    -0.020 C 
ATOM     20  H   LIG d   1       4.606   1.267  -8.714  0.00  0.00     0.029 H 
ATOM     21  H   LIG d   1       5.334  -0.297  -9.152  0.00  0.00     0.029 H 
ATOM     22  H   LIG d   1       4.020   0.381 -10.143  0.00  0.00     0.029 H 
ENDBRANCH  17  19
BRANCH  18  23
ATOM     23  N   LIG d   1       1.938  -0.455 -10.101  0.00  0.00    -0.191 N 
ATOM     24  C   LIG d   1       1.266  -1.341 -10.862  0.00  0.00     0.317 C 
ATOM     25  O   LIG d   1       1.003  -1.074 -12.019  0.00  0.00    -0.251 OA
ATOM     26  N   LIG d   1       0.885  -2.524 -10.341  0.00  0.00    -0.312 N 
ATOM     27  H   LIG d   1       1.094  -2.739  -9.418  0.00  0.00     0.146 HD
ATOM     28  H   LIG d   1       0.401  -3.162 -10.889  0.00  0.00     0.146 HD
ATOM     29  H   LIG d   1       2.212   0.396 -10.476  0.00  0.00     0.179 HD
ENDBRANCH  18  23
ENDBRANCH   1  17
BRANCH   9  30
ATOM     30  C   LIG d   1       5.324  -3.562  -5.018  0.00  0.00     0.011 C 
ATOM     31  H   LIG d   1       6.019  -3.781  -5.829  0.00  0.00     0.045 H 
ATOM     32  H   LIG d   1       5.872  -3.499  -4.078  0.00  0.00     0.045 H 
ATOM     33  H   LIG d   1       4.580  -4.355  -4.952  0.00  0.00     0.045 H 
ENDBRANCH   9  30
TORSDOF 4
ENDMDL
MODEL 2
REMARK VINA RESULT:      -6.0      5.190      7.199
REMARK  4 active torsions:
REMARK  status: ('A' for Active; 'I' for Inactive)
REMARK    1  A    between atoms: C_1  and  C_2 
REMARK    2  A    between atoms: C_2  and  C_8 
REMARK    3  A    between atoms: N_3  and  N_4 
REMARK       I    between atoms: N_4  and  C_5 
REMARK       I    between atoms: C_5  and  N_7 
REMARK    4  A    between atoms: N_16  and  C_19 
ROOT
ATOM      1  C   LIG d   1       7.776   0.526  -4.265  0.00  0.00     0.053 A 
ATOM      2  C   LIG d   1       6.607   0.924  -3.566  0.00  0.00     0.198 A 
ATOM      3  C   LIG d   1       5.629  -0.118  -3.207  0.00  0.00     0.046 A 
ATOM      4  C   LIG d   1       4.457   0.199  -2.519  0.00  0.00    -0.049 A 
ATOM      5  C   LIG d   1       3.563  -0.798  -2.200  0.00  0.00    -0.061 A 
ATOM      6  C   LIG d   1       3.824  -2.114  -2.557  0.00  0.00    -0.060 A 
ATOM      7  C   LIG d   1       4.977  -2.443  -3.235  0.00  0.00    -0.037 A 
ATOM      8  C   LIG d   1       5.893  -1.450  -3.569  0.00  0.00     0.052 A 
ATOM      9  N   LIG d   1       7.052  -1.761  -4.250  0.00  0.00    -0.356 N 
ATOM     10  C   LIG d   1       7.957  -0.813  -4.591  0.00  0.00    -0.023 A 
ATOM     11  O   LIG d   1       9.070  -1.179  -5.262  0.00  0.00    -0.861 OA
ATOM     12  O   LIG d   1       6.417   2.092  -3.271  0.00  0.00    -0.286 OA
ATOM     13  H   LIG d   1       4.251   1.222  -2.240  0.00  0.00     0.062 H 
ATOM     14  H   LIG d   1       2.655  -0.556  -1.667  0.00  0.00     0.062 H 
ATOM     15  H   LIG d   1       3.117  -2.888  -2.299  0.00  0.00     0.062 H 
ATOM     16  H   LIG d   1       5.170  -3.470  -3.508  0.00  0.00     0.064 H 
ENDROOT
BRANCH   1  17
ATOM     17  C   LIG d   1       8.786   1.524  -4.650  0.00  0.00     0.068 C 
ATOM     18  N   LIG d   1       9.754   1.816  -3.835  0.00  0.00    -0.183 NA
BRANCH  17  19
ATOM     19  C   LIG d   1       8.696   2.209  -5.989  0.00  0.00    -0.020 C 
ATOM     20  H   LIG d   1       8.058   1.625  -6.653  0.00  0.00     0.029 H 
ATOM     21  H   LIG d   1       8.271   3.204  -5.860  0.00  0.00     0.029 H 
ATOM     22  H   LIG d   1       9.693   2.293  -6.422  0.00  0.00     0.029 H 
ENDBRANCH  17  19
BRANCH  18  23
ATOM     23  N   LIG d   1      10.716   2.766  -4.202  0.00  0.00    -0.191 N 
ATOM     24  C   LIG d   1      11.334   3.499  -3.255  0.00  0.00     0.317 C 
ATOM     25  O   LIG d   1      12.169   4.325  -3.573  0.00  0.00    -0.251 OA
ATOM     26  N   LIG d   1      11.028   3.317  -1.955  0.00  0.00    -0.312 N 
ATOM     27  H   LIG d   1      10.362   2.659  -1.701  0.00  0.00     0.146 HD
ATOM     28  H   LIG d   1      11.473   3.845  -1.274  0.00  0.00     0.146 HD
ATOM     29  H   LIG d   1      10.937   2.897  -5.137  0.00  0.00     0.179 HD
ENDBRANCH  18  23
ENDBRANCH   1  17
BRANCH   9  30
ATOM     30  C   LIG d   1       7.309  -3.156  -4.618  0.00  0.00     0.011 C 
ATOM     31  H   LIG d   1       7.105  -3.801  -3.764  0.00  0.00     0.045 H 
ATOM     32  H   LIG d   1       6.659  -3.438  -5.448  0.00  0.00     0.045 H 
ATOM     33  H   LIG d   1       8.350  -3.267  -4.919  0.00  0.00     0.045 H 
ENDBRANCH   9  30
TORSDOF 4
ENDMDL
MODEL 3
REMARK VINA RESULT:      -5.7      3.568      4.204
REMARK  4 active torsions:
REMARK  status: ('A' for Active; 'I' for Inactive)
REMARK    1  A    between atoms: C_1  and  C_2 
REMARK    2  A    between atoms: C_2  and  C_8 
REMARK    3  A    between atoms: N_3  and  N_4 
REMARK       I    between atoms: N_4  and  C_5 
REMARK       I    between atoms: C_5  and  N_7 
REMARK    4  A    between atoms: N_16  and  C_19 
ROOT
ATOM      1  C   LIG d   1       5.690  -2.851  -5.192  0.00  0.00     0.053 A 
ATOM      2  C   LIG d   1       4.887  -2.636  -4.042  0.00  0.00     0.198 A 
ATOM      3  C   LIG d   1       4.970  -1.323  -3.378  0.00  0.00     0.046 A 
ATOM      4  C   LIG d   1       4.209  -1.041  -2.242  0.00  0.00    -0.049 A 
ATOM      5  C   LIG d   1       4.310   0.196  -1.645  0.00  0.00    -0.061 A 
ATOM      6  C   LIG d   1       5.162   1.160  -2.168  0.00  0.00    -0.060 A 
ATOM      7  C   LIG d   1       5.918   0.896  -3.288  0.00  0.00    -0.037 A 
ATOM      8  C   LIG d   1       5.832  -0.348  -3.907  0.00  0.00     0.052 A 
ATOM      9  N   LIG d   1       6.583  -0.631  -5.029  0.00  0.00    -0.356 N 
ATOM     10  C   LIG d   1       6.521  -1.835  -5.647  0.00  0.00    -0.023 A 
ATOM     11  O   LIG d   1       7.285  -2.052  -6.738  0.00  0.00    -0.861 OA
ATOM     12  O   LIG d   1       4.151  -3.511  -3.616  0.00  0.00    -0.286 OA
ATOM     13  H   LIG d   1       3.546  -1.788  -1.833  0.00  0.00     0.062 H 
ATOM     14  H   LIG d   1       3.723   0.418  -0.766  0.00  0.00     0.062 H 
ATOM     15  H   LIG d   1       5.231   2.126  -1.692  0.00  0.00     0.062 H 
ATOM     16  H   LIG d   1       6.577   1.652  -3.687  0.00  0.00     0.064 H 
ENDROOT
BRANCH   1  17
ATOM     17  C   LIG d   1       5.648  -4.143  -5.895  0.00  0.00     0.068 C 
ATOM     18  N   LIG d   1       4.746  -4.359  -6.805  0.00  0.00    -0.183 NA
BRANCH  17  19
ATOM     19  C   LIG d   1       6.651  -5.216  -5.558  0.00  0.00    -0.020 C 
ATOM     20  H   LIG d   1       6.125  -6.127  -5.271  0.00  0.00     0.029 H 
ATOM     21  H   LIG d   1       7.275  -5.416  -6.429  0.00  0.00     0.029 H 
ATOM     22  H   LIG d   1       7.278  -4.882  -4.732  0.00  0.00     0.029 H 
ENDBRANCH  17  19
BRANCH  18  23
ATOM     23  N   LIG d   1       4.708  -5.589  -7.474  0.00  0.00    -0.191 N 
ATOM     24  C   LIG d   1       3.768  -5.816  -8.412  0.00  0.00     0.317 C 
ATOM     25  O   LIG d   1       3.733  -6.885  -8.993  0.00  0.00    -0.251 OA
ATOM     26  N   LIG d   1       2.864  -4.860  -8.706  0.00  0.00    -0.312 N 
ATOM     27  H   LIG d   1       2.891  -4.008  -8.243  0.00  0.00     0.146 HD
ATOM     28  H   LIG d   1       2.187  -5.024  -9.381  0.00  0.00     0.146 HD
ATOM     29  H   LIG d   1       5.358  -6.277  -7.262  0.00  0.00     0.179 HD
ENDBRANCH  18  23
ENDBRANCH   1  17
BRANCH   9  30
ATOM     30  C   LIG d   1       7.477   0.400  -5.565  0.00  0.00     0.011 C 
ATOM     31  H   LIG d   1       6.887   1.172  -6.059  0.00  0.00     0.045 H 
ATOM     32  H   LIG d   1       8.048   0.846  -4.750  0.00  0.00     0.045 H 
ATOM     33  H   LIG d   1       8.161  -0.050  -6.283  0.00  0.00     0.045 H 
ENDBRANCH   9  30
TORSDOF 4
ENDMDL
MODEL 4
REMARK VINA RESULT:      -5.6      2.362      6.092
REMARK  4 active torsions:
REMARK  status: ('A' for Active; 'I' for Inactive)
REMARK    1  A    between atoms: C_1  and  C_2 
REMARK    2  A    between atoms: C_2  and  C_8 
REMARK    3  A    between atoms: N_3  and  N_4 
REMARK       I    between atoms: N_4  and  C_5 
REMARK       I    between atoms: C_5  and  N_7 
REMARK    4  A    between atoms: N_16  and  C_19 
ROOT
ATOM      1  C   LIG d   1       4.286  -1.208  -6.922  0.00  0.00     0.053 A 
ATOM      2  C   LIG d   1       3.482  -0.349  -7.716  0.00  0.00     0.198 A 
ATOM      3  C   LIG d   1       2.757  -0.941  -8.855  0.00  0.00     0.046 A 
ATOM      4  C   LIG d   1       1.947  -0.158  -9.679  0.00  0.00    -0.049 A 
ATOM      5  C   LIG d   1       1.284  -0.742 -10.734  0.00  0.00    -0.061 A 
ATOM      6  C   LIG d   1       1.416  -2.102 -10.980  0.00  0.00    -0.060 A 
ATOM      7  C   LIG d   1       2.211  -2.887 -10.175  0.00  0.00    -0.037 A 
ATOM      8  C   LIG d   1       2.891  -2.317  -9.104  0.00  0.00     0.052 A 
ATOM      9  N   LIG d   1       3.693  -3.089  -8.287  0.00  0.00    -0.356 N 
ATOM     10  C   LIG d   1       4.370  -2.558  -7.241  0.00  0.00    -0.023 A 
ATOM     11  O   LIG d   1       5.143  -3.363  -6.482  0.00  0.00    -0.861 OA
ATOM     12  O   LIG d   1       3.392   0.841  -7.464  0.00  0.00    -0.286 OA
ATOM     13  H   LIG d   1       1.842   0.900  -9.490  0.00  0.00     0.062 H 
ATOM     14  H   LIG d   1       0.656  -0.139 -11.374  0.00  0.00     0.062 H 
ATOM     15  H   LIG d   1       0.890  -2.548 -11.810  0.00  0.00     0.062 H 
ATOM     16  H   LIG d   1       2.307  -3.944 -10.375  0.00  0.00     0.064 H 
ENDROOT
BRANCH   1  17
ATOM     17  C   LIG d   1       5.033  -0.671  -5.773  0.00  0.00     0.068 C 
ATOM     18  N   LIG d   1       4.467  -0.600  -4.606  0.00  0.00    -0.183 NA
BRANCH  17  19
ATOM     19  C   LIG d   1       6.454  -0.203  -5.951  0.00  0.00    -0.020 C 
ATOM     20  H   LIG d   1       7.062  -1.024  -6.332  0.00  0.00     0.029 H 
ATOM     21  H   LIG d   1       6.478   0.625  -6.660  0.00  0.00     0.029 H 
ATOM     22  H   LIG d   1       6.851   0.129  -4.992  0.00  0.00     0.029 H 
ENDBRANCH  17  19
BRANCH  18  23
ATOM     23  N   LIG d   1       5.179  -0.090  -3.513  0.00  0.00    -0.191 N 
ATOM     24  C   LIG d   1       4.760   1.036  -2.903  0.00  0.00     0.317 C 
ATOM     25  O   LIG d   1       5.378   1.480  -1.954  0.00  0.00    -0.251 OA
ATOM     26  N   LIG d   1       3.656   1.671  -3.345  0.00  0.00    -0.312 N 
ATOM     27  H   LIG d   1       3.163   1.318  -4.102  0.00  0.00     0.146 HD
ATOM     28  H   LIG d   1       3.355   2.482  -2.906  0.00  0.00     0.146 HD
ATOM     29  H   LIG d   1       5.973  -0.546  -3.195  0.00  0.00     0.179 HD
ENDBRANCH  18  23
ENDBRANCH   1  17
BRANCH   9  30
ATOM     30  C   LIG d   1       3.821  -4.522  -8.564  0.00  0.00     0.011 C 
ATOM     31  H   LIG d   1       4.833  -4.738  -8.905  0.00  0.00     0.045 H 
ATOM     32  H   LIG d   1       3.616  -5.087  -7.654  0.00  0.00     0.045 H 
ATOM     33  H   LIG d   1       3.107  -4.808  -9.337  0.00  0.00     0.045 H 
ENDBRANCH   9  30
TORSDOF 4
ENDMDL
MODEL 5
REMARK VINA RESULT:      -5.5      2.493      6.357
REMARK  4 active torsions:
REMARK  status: ('A' for Active; 'I' for Inactive)
REMARK    1  A    between atoms: C_1  and  C_2 
REMARK    2  A    between atoms: C_2  and  C_8 
REMARK    3  A    between atoms: N_3  and  N_4 
REMARK       I    between atoms: N_4  and  C_5 
REMARK       I    between atoms: C_5  and  N_7 
REMARK    4  A    between atoms: N_16  and  C_19 
ROOT
ATOM      1  C   LIG d   1       3.703  -0.277  -6.837  0.00  0.00     0.053 A 
ATOM      2  C   LIG d   1       3.484   0.631  -7.906  0.00  0.00     0.198 A 
ATOM      3  C   LIG d   1       3.768   0.164  -9.276  0.00  0.00     0.046 A 
ATOM      4  C   LIG d   1       3.576   1.001 -10.376  0.00  0.00    -0.049 A 
ATOM      5  C   LIG d   1       3.852   0.535 -11.642  0.00  0.00    -0.061 A 
ATOM      6  C   LIG d   1       4.316  -0.760 -11.827  0.00  0.00    -0.060 A 
ATOM      7  C   LIG d   1       4.509  -1.598 -10.750  0.00  0.00    -0.037 A 
ATOM      8  C   LIG d   1       4.238  -1.146  -9.462  0.00  0.00     0.052 A 
ATOM      9  N   LIG d   1       4.427  -1.971  -8.372  0.00  0.00    -0.356 N 
ATOM     10  C   LIG d   1       4.176  -1.555  -7.108  0.00  0.00    -0.023 A 
ATOM     11  O   LIG d   1       4.386  -2.407  -6.082  0.00  0.00    -0.861 OA
ATOM     12  O   LIG d   1       3.074   1.761  -7.700  0.00  0.00    -0.286 OA
ATOM     13  H   LIG d   1       3.215   2.009 -10.235  0.00  0.00     0.062 H 
ATOM     14  H   LIG d   1       3.704   1.180 -12.495  0.00  0.00     0.062 H 
ATOM     15  H   LIG d   1       4.527  -1.115 -12.824  0.00  0.00     0.062 H 
ATOM     16  H   LIG d   1       4.870  -2.604 -10.905  0.00  0.00     0.064 H 
ENDROOT
BRANCH   1  17
ATOM     17  C   LIG d   1       3.437   0.135  -5.450  0.00  0.00     0.068 C 
ATOM     18  N   LIG d   1       4.401   0.601  -4.715  0.00  0.00    -0.183 NA
BRANCH  17  19
ATOM     19  C   LIG d   1       2.046   0.017  -4.882  0.00  0.00    -0.020 C 
ATOM     20  H   LIG d   1       1.325   0.404  -5.603  0.00  0.00     0.029 H 
ATOM     21  H   LIG d   1       1.826  -1.030  -4.676  0.00  0.00     0.029 H 
ATOM     22  H   LIG d   1       1.980   0.591  -3.958  0.00  0.00     0.029 H 
ENDBRANCH  17  19
BRANCH  18  23
ATOM     23  N   LIG d   1       4.147   0.994  -3.394  0.00  0.00    -0.191 N 
ATOM     24  C   LIG d   1       5.025   0.687  -2.419  0.00  0.00     0.317 C 
ATOM     25  O   LIG d   1       4.804   1.027  -1.272  0.00  0.00    -0.251 OA
ATOM     26  N   LIG d   1       6.147   0.000  -2.714  0.00  0.00    -0.312 N 
ATOM     27  H   LIG d   1       6.323  -0.272  -3.628  0.00  0.00     0.146 HD
ATOM     28  H   LIG d   1       6.778  -0.221  -2.012  0.00  0.00     0.146 HD
ATOM     29  H   LIG d   1       3.340   1.488  -3.181  0.00  0.00     0.179 HD
ENDBRANCH  18  23
ENDBRANCH   1  17
BRANCH   9  30
ATOM     30  C   LIG d   1       4.919  -3.335  -8.588  0.00  0.00     0.011 C 
ATOM     31  H   LIG d   1       5.627  -3.595  -7.802  0.00  0.00     0.045 H 
ATOM     32  H   LIG d   1       4.080  -4.031  -8.566  0.00  0.00     0.045 H 
ATOM     33  H   LIG d   1       5.413  -3.394  -9.558  0.00  0.00     0.045 H 
ENDBRANCH   9  30
TORSDOF 4
ENDMDL
MODEL 6
REMARK VINA RESULT:      -5.4      5.173      5.778
REMARK  4 active torsions:
REMARK  status: ('A' for Active; 'I' for Inactive)
REMARK    1  A    between atoms: C_1  and  C_2 
REMARK    2  A    between atoms: C_2  and  C_8 
REMARK    3  A    between atoms: N_3  and  N_4 
REMARK       I    between atoms: N_4  and  C_5 
REMARK       I    between atoms: C_5  and  N_7 
REMARK    4  A    between atoms: N_16  and  C_19 
ROOT
ATOM      1  C   LIG d   1       8.173   0.271  -4.922  0.00  0.00     0.053 A 
ATOM      2  C   LIG d   1       7.313   1.062  -4.117  0.00  0.00     0.198 A 
ATOM      3  C   LIG d   1       6.258   0.374  -3.352  0.00  0.00     0.046 A 
ATOM      4  C   LIG d   1       5.375   1.087  -2.540  0.00  0.00    -0.049 A 
ATOM      5  C   LIG d   1       4.400   0.414  -1.838  0.00  0.00    -0.061 A 
ATOM      6  C   LIG d   1       4.294  -0.967  -1.934  0.00  0.00    -0.060 A 
ATOM      7  C   LIG d   1       5.158  -1.684  -2.731  0.00  0.00    -0.037 A 
ATOM      8  C   LIG d   1       6.150  -1.023  -3.450  0.00  0.00     0.052 A 
ATOM      9  N   LIG d   1       7.024  -1.726  -4.254  0.00  0.00    -0.356 N 
ATOM     10  C   LIG d   1       7.995  -1.106  -4.968  0.00  0.00    -0.023 A 
ATOM     11  O   LIG d   1       8.816  -1.848  -5.741  0.00  0.00    -0.861 OA
ATOM     12  O   LIG d   1       7.441   2.274  -4.060  0.00  0.00    -0.286 OA
ATOM     13  H   LIG d   1       5.455   2.161  -2.463  0.00  0.00     0.062 H 
ATOM     14  H   LIG d   1       3.716   0.963  -1.208  0.00  0.00     0.062 H 
ATOM     15  H   LIG d   1       3.526  -1.484  -1.378  0.00  0.00     0.062 H 
ATOM     16  H   LIG d   1       5.067  -2.758  -2.799  0.00  0.00     0.064 H 
ENDROOT
BRANCH   1  17
ATOM     17  C   LIG d   1       9.243   0.905  -5.708  0.00  0.00     0.068 C 
ATOM     18  N   LIG d   1       9.009   1.303  -6.922  0.00  0.00    -0.183 NA
BRANCH  17  19
ATOM     19  C   LIG d   1      10.611   1.093  -5.104  0.00  0.00    -0.020 C 
ATOM     20  H   LIG d   1      10.839   2.158  -5.045  0.00  0.00     0.029 H 
ATOM     21  H   LIG d   1      10.628   0.663  -4.103  0.00  0.00     0.029 H 
ATOM     22  H   LIG d   1      11.355   0.595  -5.726  0.00  0.00     0.029 H 
ENDBRANCH  17  19
BRANCH  18  23
ATOM     23  N   LIG d   1      10.028   1.908  -7.669  0.00  0.00    -0.191 N 
ATOM     24  C   LIG d   1       9.719   2.792  -8.638  0.00  0.00     0.317 C 
ATOM     25  O   LIG d   1      10.603   3.317  -9.288  0.00  0.00    -0.251 OA
ATOM     26  N   LIG d   1       8.429   3.094  -8.888  0.00  0.00    -0.312 N 
ATOM     27  H   LIG d   1       7.723   2.676  -8.370  0.00  0.00     0.146 HD
ATOM     28  H   LIG d   1       8.207   3.731  -9.585  0.00  0.00     0.146 HD
ATOM     29  H   LIG d   1      10.956   1.690  -7.490  0.00  0.00     0.179 HD
ENDBRANCH  18  23
ENDBRANCH   1  17
BRANCH   9  30
ATOM     30  C   LIG d   1       6.895  -3.183  -4.343  0.00  0.00     0.011 C 
ATOM     31  H   LIG d   1       7.851  -3.648  -4.105  0.00  0.00     0.045 H 
ATOM     32  H   LIG d   1       6.139  -3.525  -3.636  0.00  0.00     0.045 H 
ATOM     33  H   LIG d   1       6.597  -3.460  -5.354  0.00  0.00     0.045 H 
ENDBRANCH   9  30
TORSDOF 4
ENDMDL
MODEL 7
REMARK VINA RESULT:      -5.4      4.732      6.007
REMARK  4 active torsions:
REMARK  status: ('A' for Active; 'I' for Inactive)
REMARK    1  A    between atoms: C_1  and  C_2 
REMARK    2  A    between atoms: C_2  and  C_8 
REMARK    3  A    between atoms: N_3  and  N_4 
REMARK       I    between atoms: N_4  and  C_5 
REMARK       I    between atoms: C_5  and  N_7 
REMARK    4  A    between atoms: N_16  and  C_19 
ROOT
ATOM      1  C   LIG d   1       6.287  -2.890  -4.936  0.00  0.00     0.053 A 
ATOM      2  C   LIG d   1       5.159  -2.690  -4.098  0.00  0.00     0.198 A 
ATOM      3  C   LIG d   1       5.028  -1.390  -3.415  0.00  0.00     0.046 A 
ATOM      4  C   LIG d   1       3.945  -1.123  -2.576  0.00  0.00    -0.049 A 
ATOM      5  C   LIG d   1       3.854   0.101  -1.953  0.00  0.00    -0.061 A 
ATOM      6  C   LIG d   1       4.830   1.067  -2.156  0.00  0.00    -0.060 A 
ATOM      7  C   LIG d   1       5.904   0.817  -2.981  0.00  0.00    -0.037 A 
ATOM      8  C   LIG d   1       6.017  -0.414  -3.620  0.00  0.00     0.052 A 
ATOM      9  N   LIG d   1       7.087  -0.681  -4.450  0.00  0.00    -0.356 N 
ATOM     10  C   LIG d   1       7.223  -1.873  -5.080  0.00  0.00    -0.023 A 
ATOM     11  O   LIG d   1       8.295  -2.077  -5.874  0.00  0.00    -0.861 OA
ATOM     12  O   LIG d   1       4.323  -3.565  -3.948  0.00  0.00    -0.286 OA
ATOM     13  H   LIG d   1       3.184  -1.872  -2.417  0.00  0.00     0.062 H 
ATOM     14  H   LIG d   1       3.017   0.312  -1.303  0.00  0.00     0.062 H 
ATOM     15  H   LIG d   1       4.746   2.024  -1.662  0.00  0.00     0.062 H 
ATOM     16  H   LIG d   1       6.658   1.576  -3.132  0.00  0.00     0.064 H 
ENDROOT
BRANCH   1  17
ATOM     17  C   LIG d   1       6.468  -4.168  -5.642  0.00  0.00     0.068 C 
ATOM     18  N   LIG d   1       7.182  -5.111  -5.104  0.00  0.00    -0.183 NA
BRANCH  17  19
ATOM     19  C   LIG d   1       5.827  -4.382  -6.988  0.00  0.00    -0.020 C 
ATOM     20  H   LIG d   1       5.204  -3.522  -7.235  0.00  0.00     0.029 H 
ATOM     21  H   LIG d   1       6.602  -4.498  -7.746  0.00  0.00     0.029 H 
ATOM     22  H   LIG d   1       5.210  -5.281  -6.958  0.00  0.00     0.029 H 
ENDBRANCH  17  19
BRANCH  18  23
ATOM     23  N   LIG d   1       7.353  -6.328  -5.777  0.00  0.00    -0.191 N 
ATOM     24  C   LIG d   1       8.129  -7.290  -5.241  0.00  0.00     0.317 C 
ATOM     25  O   LIG d   1       8.279  -8.347  -5.824  0.00  0.00    -0.251 OA
ATOM     26  N   LIG d   1       8.741  -7.082  -4.058  0.00  0.00    -0.312 N 
ATOM     27  H   LIG d   1       8.622  -6.239  -3.592  0.00  0.00     0.146 HD
ATOM     28  H   LIG d   1       9.300  -7.774  -3.672  0.00  0.00     0.146 HD
ATOM     29  H   LIG d   1       6.913  -6.479  -6.628  0.00  0.00     0.179 HD
ENDBRANCH  18  23
ENDBRANCH   1  17
BRANCH   9  30
ATOM     30  C   LIG d   1       8.108   0.351  -4.650  0.00  0.00     0.011 C 
ATOM     31  H   LIG d   1       7.708   1.137  -5.290  0.00  0.00     0.045 H 
ATOM     32  H   LIG d   1       8.389   0.776  -3.686  0.00  0.00     0.045 H 
ATOM     33  H   LIG d   1       8.985  -0.092  -5.121  0.00  0.00     0.045 H 
ENDBRANCH   9  30
TORSDOF 4
ENDMDL
MODEL 8
REMARK VINA RESULT:      -5.3      2.603      6.688
REMARK  4 active torsions:
REMARK  status: ('A' for Active; 'I' for Inactive)
REMARK    1  A    between atoms: C_1  and  C_2 
REMARK    2  A    between atoms: C_2  and  C_8 
REMARK    3  A    between atoms: N_3  and  N_4 
REMARK       I    between atoms: N_4  and  C_5 
REMARK       I    between atoms: C_5  and  N_7 
REMARK    4  A    between atoms: N_16  and  C_19 
ROOT
ATOM      1  C   LIG d   1       4.628  -0.542  -7.643  0.00  0.00     0.053 A 
ATOM      2  C   LIG d   1       4.017  -1.789  -7.937  0.00  0.00     0.198 A 
ATOM      3  C   LIG d   1       3.318  -1.927  -9.228  0.00  0.00     0.046 A 
ATOM      4  C   LIG d   1       2.695  -3.124  -9.585  0.00  0.00    -0.049 A 
ATOM      5  C   LIG d   1       2.050  -3.220 -10.798  0.00  0.00    -0.061 A 
ATOM      6  C   LIG d   1       2.018  -2.135 -11.663  0.00  0.00    -0.060 A 
ATOM      7  C   LIG d   1       2.630  -0.948 -11.325  0.00  0.00    -0.037 A 
ATOM      8  C   LIG d   1       3.286  -0.829 -10.103  0.00  0.00     0.052 A 
ATOM      9  N   LIG d   1       3.903   0.353  -9.747  0.00  0.00    -0.356 N 
ATOM     10  C   LIG d   1       4.545   0.496  -8.563  0.00  0.00    -0.023 A 
ATOM     11  O   LIG d   1       5.124   1.679  -8.268  0.00  0.00    -0.861 OA
ATOM     12  O   LIG d   1       4.069  -2.718  -7.149  0.00  0.00    -0.286 OA
ATOM     13  H   LIG d   1       2.718  -3.969  -8.914  0.00  0.00     0.062 H 
ATOM     14  H   LIG d   1       1.566  -4.144 -11.077  0.00  0.00     0.062 H 
ATOM     15  H   LIG d   1       1.511  -2.222 -12.612  0.00  0.00     0.062 H 
ATOM     16  H   LIG d   1       2.599  -0.110 -12.005  0.00  0.00     0.064 H 
ENDROOT
BRANCH   1  17
ATOM     17  C   LIG d   1       5.339  -0.348  -6.370  0.00  0.00     0.068 C 
ATOM     18  N   LIG d   1       4.706   0.125  -5.338  0.00  0.00    -0.183 NA
BRANCH  17  19
ATOM     19  C   LIG d   1       6.801  -0.697  -6.262  0.00  0.00    -0.020 C 
ATOM     20  H   LIG d   1       7.355   0.167  -5.895  0.00  0.00     0.029 H 
ATOM     21  H   LIG d   1       6.925  -1.529  -5.568  0.00  0.00     0.029 H 
ATOM     22  H   LIG d   1       7.180  -0.983  -7.243  0.00  0.00     0.029 H 
ENDBRANCH  17  19
BRANCH  18  23
ATOM     23  N   LIG d   1       5.384   0.308  -4.126  0.00  0.00    -0.191 N 
ATOM     24  C   LIG d   1       4.851   1.093  -3.169  0.00  0.00     0.317 C 
ATOM     25  O   LIG d   1       5.438   1.253  -2.116  0.00  0.00    -0.251 OA
ATOM     26  N   LIG d   1       3.666   1.701  -3.378  0.00  0.00    -0.312 N 
ATOM     27  H   LIG d   1       3.197   1.574  -4.218  0.00  0.00     0.146 HD
ATOM     28  H   LIG d   1       3.282   2.266  -2.689  0.00  0.00     0.146 HD
ATOM     29  H   LIG d   1       6.236  -0.129  -3.975  0.00  0.00     0.179 HD
ENDBRANCH  18  23
ENDBRANCH   1  17
BRANCH   9  30
ATOM     30  C   LIG d   1       3.858   1.487 -10.674  0.00  0.00     0.011 C 
ATOM     31  H   LIG d   1       3.876   1.119 -11.700  0.00  0.00     0.045 H 
ATOM     32  H   LIG d   1       2.942   2.055 -10.509  0.00  0.00     0.045 H 
ATOM     33  H   LIG d   1       4.720   2.131 -10.503  0.00  0.00     0.045 H 
ENDBRANCH   9  30
TORSDOF 4
ENDMDL
MODEL 9
REMARK VINA RESULT:      -5.3      2.858      4.865
REMARK  4 active torsions:
REMARK  status: ('A' for Active; 'I' for Inactive)
REMARK    1  A    between atoms: C_1  and  C_2 
REMARK    2  A    between atoms: C_2  and  C_8 
REMARK    3  A    between atoms: N_3  and  N_4 
REMARK       I    between atoms: N_4  and  C_5 
REMARK       I    between atoms: C_5  and  N_7 
REMARK    4  A    between atoms: N_16  and  C_19 
ROOT
ATOM      1  C   LIG d   1       5.335  -2.282  -5.664  0.00  0.00     0.053 A 
ATOM      2  C   LIG d   1       5.630  -2.017  -4.301  0.00  0.00     0.198 A 
ATOM      3  C   LIG d   1       4.928  -0.897  -3.649  0.00  0.00     0.046 A 
ATOM      4  C   LIG d   1       5.167  -0.578  -2.311  0.00  0.00    -0.049 A 
ATOM      5  C   LIG d   1       4.496   0.476  -1.733  0.00  0.00    -0.061 A 
ATOM      6  C   LIG d   1       3.585   1.218  -2.471  0.00  0.00    -0.060 A 
ATOM      7  C   LIG d   1       3.338   0.915  -3.792  0.00  0.00    -0.037 A 
ATOM      8  C   LIG d   1       4.007  -0.145  -4.398  0.00  0.00     0.052 A 
ATOM      9  N   LIG d   1       3.774  -0.462  -5.720  0.00  0.00    -0.356 N 
ATOM     10  C   LIG d   1       4.414  -1.486  -6.334  0.00  0.00    -0.023 A 
ATOM     11  O   LIG d   1       4.147  -1.743  -7.632  0.00  0.00    -0.861 OA
ATOM     12  O   LIG d   1       6.437  -2.695  -3.688  0.00  0.00    -0.286 OA
ATOM     13  H   LIG d   1       5.875  -1.154  -1.734  0.00  0.00     0.062 H 
ATOM     14  H   LIG d   1       4.678   0.725  -0.698  0.00  0.00     0.062 H 
ATOM     15  H   LIG d   1       3.063   2.041  -2.006  0.00  0.00     0.062 H 
ATOM     16  H   LIG d   1       2.628   1.499  -4.358  0.00  0.00     0.064 H 
ENDROOT
BRANCH   1  17
ATOM     17  C   LIG d   1       6.006  -3.388  -6.366  0.00  0.00     0.068 C 
ATOM     18  N   LIG d   1       5.467  -4.569  -6.382  0.00  0.00    -0.183 NA
BRANCH  17  19
ATOM     19  C   LIG d   1       7.319  -3.149  -7.065  0.00  0.00    -0.020 C 
ATOM     20  H   LIG d   1       8.129  -3.174  -6.335  0.00  0.00     0.029 H 
ATOM     21  H   LIG d   1       7.480  -3.927  -7.811  0.00  0.00     0.029 H 
ATOM     22  H   LIG d   1       7.300  -2.175  -7.554  0.00  0.00     0.029 H 
ENDBRANCH  17  19
BRANCH  18  23
ATOM     23  N   LIG d   1       6.106  -5.621  -7.051  0.00  0.00    -0.191 N 
ATOM     24  C   LIG d   1       6.031  -6.875  -6.562  0.00  0.00     0.317 C 
ATOM     25  O   LIG d   1       6.586  -7.788  -7.142  0.00  0.00    -0.251 OA
ATOM     26  N   LIG d   1       5.341  -7.116  -5.430  0.00  0.00    -0.312 N 
ATOM     27  H   LIG d   1       4.898  -6.388  -4.966  0.00  0.00     0.146 HD
ATOM     28  H   LIG d   1       5.287  -8.018  -5.077  0.00  0.00     0.146 HD
ATOM     29  H   LIG d   1       6.602  -5.448  -7.866  0.00  0.00     0.179 HD
ENDBRANCH  18  23
ENDBRANCH   1  17
BRANCH   9  30
ATOM     30  C   LIG d   1       2.809   0.334  -6.483  0.00  0.00     0.011 C 
ATOM     31  H   LIG d   1       2.894   0.091  -7.542  0.00  0.00     0.045 H 
ATOM     32  H   LIG d   1       1.799   0.109  -6.139  0.00  0.00     0.045 H 
ATOM     33  H   LIG d   1       3.014   1.394  -6.335  0.00  0.00     0.045 H 
ENDBRANCH   9  30
TORSDOF 4
ENDMDL
