MODEL 1
REMARK VINA RESULT:      -7.4      0.000      0.000
REMARK  8 active torsions:
REMARK  status: ('A' for Active; 'I' for Inactive)
REMARK    1  A    between atoms: C_3  and  O_29 
REMARK    2  A    between atoms: C_6  and  C_7 
REMARK    3  A    between atoms: C_9  and  C_12 
REMARK    4  A    between atoms: C_21  and  C_22 
REMARK    5  A    between atoms: C_21  and  N_50 
REMARK    6  A    between atoms: C_25  and  C_27 
REMARK    7  A    between atoms: C_27  and  O_28 
REMARK    8  A    between atoms: O_29  and  C_30 
ROOT
ATOM      1  C   LIG d   1       5.711  -7.137  -7.980  0.00  0.00     0.068 C 
ATOM      2  H   LIG d   1       6.661  -6.746  -8.344  0.00  0.00     0.096 H 
ATOM      3  C   LIG d   1       4.800  -7.460  -9.173  0.00  0.00     0.065 C 
ATOM      4  C   LIG d   1       5.361  -8.677  -9.865  0.00  0.00     0.156 A 
ATOM      5  C   LIG d   1       6.276  -9.499  -9.303  0.00  0.00     0.190 A 
ATOM      6  C   LIG d   1       5.846 -10.275 -11.265  0.00  0.00     0.243 A 
ATOM      7  N   LIG d   1       5.088  -9.164 -11.102  0.00  0.00    -0.247 N 
ATOM      8  H   LIG d   1       4.448  -8.779 -11.767  0.00  0.00     0.310 HD
ATOM      9  C   LIG d   1       6.832  -9.294  -7.916  0.00  0.00     0.036 C 
ATOM     10  H   LIG d   1       3.790  -7.669  -8.820  0.00  0.00     0.041 H 
ATOM     11  H   LIG d   1       4.784  -6.617  -9.864  0.00  0.00     0.041 H 
ATOM     12  H   LIG d   1       5.865 -10.900 -12.146  0.00  0.00     0.158 H 
ATOM     13  H   LIG d   1       6.864 -10.247  -7.388  0.00  0.00     0.090 H 
ATOM     14  H   LIG d   1       7.837  -8.876  -7.982  0.00  0.00     0.090 H 
ATOM     15  N   LIG d   1       5.923  -8.372  -7.193  0.00  0.00     0.256 N 
ATOM     16  H   LIG d   1       5.018  -8.838  -7.054  0.00  0.00     0.205 HD
ATOM     17  N   LIG d   1       6.552 -10.463 -10.181  0.00  0.00    -0.243 N 
ATOM     18  H   LIG d   1       7.215 -11.232 -10.030  0.00  0.00     0.311 HD
ENDROOT
BRANCH   1  19
ATOM     19  C   LIG d   1       5.045  -6.105  -7.106  0.00  0.00     0.276 A 
ATOM     20  N   LIG d   1       5.535  -4.937  -6.771  0.00  0.00    -0.186 NA
ATOM     21  C   LIG d   1       4.596  -4.362  -5.986  0.00  0.00     0.202 A 
ATOM     22  N   LIG d   1       3.601  -5.206  -5.890  0.00  0.00    -0.056 NA
ATOM     23  O   LIG d   1       3.843  -6.208  -6.531  0.00  0.00    -0.332 OA
BRANCH  21  24
ATOM     24  C   LIG d   1       4.678  -3.024  -5.351  0.00  0.00     0.023 A 
ATOM     25  C   LIG d   1       4.533  -1.873  -6.125  0.00  0.00    -0.048 A 
ATOM     26  C   LIG d   1       4.604  -0.631  -5.531  0.00  0.00    -0.019 A 
ATOM     27  H   LIG d   1       4.360  -1.955  -7.187  0.00  0.00     0.063 H 
ATOM     28  C   LIG d   1       4.832  -0.525  -4.165  0.00  0.00     0.130 A 
ATOM     29  H   LIG d   1       4.487   0.260  -6.129  0.00  0.00     0.065 H 
ATOM     30  C   LIG d   1       4.982  -1.668  -3.392  0.00  0.00    -0.019 A 
ATOM     31  C   LIG d   1       4.906  -2.914  -3.980  0.00  0.00    -0.048 A 
ATOM     32  H   LIG d   1       5.159  -1.583  -2.330  0.00  0.00     0.065 H 
ATOM     33  H   LIG d   1       5.023  -3.803  -3.378  0.00  0.00     0.063 H 
BRANCH  28  34
ATOM     34  O   LIG d   1       4.907   0.701  -3.583  0.00  0.00    -0.406 OA
BRANCH  34  35
ATOM     35  C   LIG d   1       3.795   1.108  -2.783  0.00  0.00     0.575 C 
ATOM     36  F   LIG d   1       4.168   1.116  -1.435  0.00  0.00    -0.133 F 
ATOM     37  F   LIG d   1       3.393   2.393  -3.163  0.00  0.00    -0.133 F 
ATOM     38  F   LIG d   1       2.734   0.214  -2.968  0.00  0.00    -0.133 F 
ENDBRANCH  34  35
ENDBRANCH  28  34
ENDBRANCH  21  24
ENDBRANCH   1  19
BRANCH  15  39
ATOM     39  C   LIG d   1       6.495  -8.036  -5.872  0.00  0.00     0.029 C 
ATOM     40  H   LIG d   1       7.577  -8.171  -5.876  0.00  0.00     0.090 H 
ATOM     41  H   LIG d   1       6.260  -6.999  -5.637  0.00  0.00     0.090 H 
BRANCH  39  42
ATOM     42  C   LIG d   1       5.880  -8.939  -4.835  0.00  0.00     0.150 A 
ATOM     43  O   LIG d   1       4.597  -9.338  -4.802  0.00  0.00    -0.457 OA
ATOM     44  C   LIG d   1       4.404 -10.138  -3.741  0.00  0.00     0.131 A 
ATOM     45  C   LIG d   1       5.568 -10.250  -3.075  0.00  0.00    -0.018 A 
ATOM     46  C   LIG d   1       6.519  -9.477  -3.780  0.00  0.00    -0.015 A 
ATOM     47  H   LIG d   1       5.743 -10.821  -2.175  0.00  0.00     0.065 H 
ATOM     48  H   LIG d   1       7.559  -9.344  -3.523  0.00  0.00     0.065 H 
BRANCH  44  49
ATOM     49  C   LIG d   1       3.102 -10.792  -3.356  0.00  0.00     0.102 C 
ATOM     50  H   LIG d   1       2.706 -11.341  -4.209  0.00  0.00     0.064 H 
ATOM     51  H   LIG d   1       3.273 -11.480  -2.527  0.00  0.00     0.064 H 
BRANCH  49  52
ATOM     52  O   LIG d   1       2.165  -9.790  -2.957  0.00  0.00    -0.387 OA
ATOM     53  H   LIG d   1       2.527  -9.132  -2.349  0.00  0.00     0.210 HD
ENDBRANCH  49  52
ENDBRANCH  44  49
ENDBRANCH  39  42
ENDBRANCH  15  39
TORSDOF 8
ENDMDL
MODEL 2
REMARK VINA RESULT:      -7.3      7.693     10.187
REMARK  8 active torsions:
REMARK  status: ('A' for Active; 'I' for Inactive)
REMARK    1  A    between atoms: C_3  and  O_29 
REMARK    2  A    between atoms: C_6  and  C_7 
REMARK    3  A    between atoms: C_9  and  C_12 
REMARK    4  A    between atoms: C_21  and  C_22 
REMARK    5  A    between atoms: C_21  and  N_50 
REMARK    6  A    between atoms: C_25  and  C_27 
REMARK    7  A    between atoms: C_27  and  O_28 
REMARK    8  A    between atoms: O_29  and  C_30 
ROOT
ATOM      1  C   LIG d   1       8.635   1.387  -5.692  0.00  0.00     0.068 C 
ATOM      2  H   LIG d   1       9.254   0.505  -5.853  0.00  0.00     0.096 H 
ATOM      3  C   LIG d   1       8.544   2.193  -6.996  0.00  0.00     0.065 C 
ATOM      4  C   LIG d   1       7.684   1.416  -7.960  0.00  0.00     0.156 A 
ATOM      5  C   LIG d   1       6.881   0.395  -7.586  0.00  0.00     0.190 A 
ATOM      6  C   LIG d   1       6.662   0.627  -9.716  0.00  0.00     0.243 A 
ATOM      7  N   LIG d   1       7.548   1.564  -9.303  0.00  0.00    -0.247 N 
ATOM      8  H   LIG d   1       8.011   2.238  -9.878  0.00  0.00     0.310 HD
ATOM      9  C   LIG d   1       6.749  -0.076  -6.159  0.00  0.00     0.036 C 
ATOM     10  H   LIG d   1       8.091   3.164  -6.798  0.00  0.00     0.041 H 
ATOM     11  H   LIG d   1       9.541   2.328  -7.416  0.00  0.00     0.041 H 
ATOM     12  H   LIG d   1       6.334   0.476 -10.734  0.00  0.00     0.158 H 
ATOM     13  H   LIG d   1       5.699  -0.250  -5.925  0.00  0.00     0.090 H 
ATOM     14  H   LIG d   1       7.314  -0.999  -6.024  0.00  0.00     0.090 H 
ATOM     15  N   LIG d   1       7.269   0.996  -5.277  0.00  0.00     0.256 N 
ATOM     16  H   LIG d   1       6.652   1.815  -5.349  0.00  0.00     0.205 HD
ATOM     17  N   LIG d   1       6.271  -0.066  -8.678  0.00  0.00    -0.243 N 
ATOM     18  H   LIG d   1       5.601  -0.843  -8.702  0.00  0.00     0.311 HD
ENDROOT
BRANCH   1  19
ATOM     19  C   LIG d   1       9.251   2.243  -4.615  0.00  0.00     0.276 A 
ATOM     20  N   LIG d   1       9.071   3.529  -4.446  0.00  0.00    -0.186 NA
ATOM     21  C   LIG d   1       9.815   3.860  -3.366  0.00  0.00     0.202 A 
ATOM     22  N   LIG d   1      10.398   2.766  -2.948  0.00  0.00    -0.056 NA
ATOM     23  O   LIG d   1      10.080   1.831  -3.651  0.00  0.00    -0.332 OA
BRANCH  21  24
ATOM     24  C   LIG d   1       9.946   5.212  -2.768  0.00  0.00     0.023 A 
ATOM     25  C   LIG d   1      10.343   5.352  -1.439  0.00  0.00    -0.048 A 
ATOM     26  C   LIG d   1      10.470   6.609  -0.888  0.00  0.00    -0.019 A 
ATOM     27  H   LIG d   1      10.554   4.476  -0.844  0.00  0.00     0.063 H 
ATOM     28  C   LIG d   1      10.191   7.735  -1.652  0.00  0.00     0.130 A 
ATOM     29  H   LIG d   1      10.781   6.718   0.140  0.00  0.00     0.065 H 
ATOM     30  C   LIG d   1       9.791   7.599  -2.974  0.00  0.00    -0.019 A 
ATOM     31  C   LIG d   1       9.668   6.344  -3.533  0.00  0.00    -0.048 A 
ATOM     32  H   LIG d   1       9.576   8.477  -3.566  0.00  0.00     0.065 H 
ATOM     33  H   LIG d   1       9.356   6.239  -4.562  0.00  0.00     0.063 H 
BRANCH  28  34
ATOM     34  O   LIG d   1      10.311   8.972  -1.104  0.00  0.00    -0.406 OA
BRANCH  34  35
ATOM     35  C   LIG d   1       9.100   9.665  -0.794  0.00  0.00     0.575 C 
ATOM     36  F   LIG d   1       9.275  10.409   0.378  0.00  0.00    -0.133 F 
ATOM     37  F   LIG d   1       8.772  10.526  -1.848  0.00  0.00    -0.133 F 
ATOM     38  F   LIG d   1       8.067   8.740  -0.609  0.00  0.00    -0.133 F 
ENDBRANCH  34  35
ENDBRANCH  28  34
ENDBRANCH  21  24
ENDBRANCH   1  19
BRANCH  15  39
ATOM     39  C   LIG d   1       7.283   0.530  -3.874  0.00  0.00     0.029 C 
ATOM     40  H   LIG d   1       7.705  -0.472  -3.807  0.00  0.00     0.090 H 
ATOM     41  H   LIG d   1       7.883   1.217  -3.278  0.00  0.00     0.090 H 
BRANCH  39  42
ATOM     42  C   LIG d   1       5.869   0.517  -3.355  0.00  0.00     0.150 A 
ATOM     43  O   LIG d   1       4.917  -0.368  -3.691  0.00  0.00    -0.457 OA
ATOM     44  C   LIG d   1       3.782  -0.077  -3.035  0.00  0.00     0.131 A 
ATOM     45  C   LIG d   1       3.997   1.012  -2.275  0.00  0.00    -0.018 A 
ATOM     46  C   LIG d   1       5.343   1.395  -2.481  0.00  0.00    -0.015 A 
ATOM     47  H   LIG d   1       3.281   1.500  -1.631  0.00  0.00     0.065 H 
ATOM     48  H   LIG d   1       5.851   2.232  -2.026  0.00  0.00     0.065 H 
BRANCH  44  49
ATOM     49  C   LIG d   1       2.484  -0.836  -3.138  0.00  0.00     0.102 C 
ATOM     50  H   LIG d   1       2.688  -1.906  -3.133  0.00  0.00     0.064 H 
ATOM     51  H   LIG d   1       1.847  -0.582  -2.290  0.00  0.00     0.064 H 
BRANCH  49  52
ATOM     52  O   LIG d   1       1.821  -0.484  -4.354  0.00  0.00    -0.387 OA
ATOM     53  H   LIG d   1       1.601   0.454  -4.425  0.00  0.00     0.210 HD
ENDBRANCH  49  52
ENDBRANCH  44  49
ENDBRANCH  39  42
ENDBRANCH  15  39
TORSDOF 8
ENDMDL
MODEL 3
REMARK VINA RESULT:      -7.1      4.678      6.499
REMARK  8 active torsions:
REMARK  status: ('A' for Active; 'I' for Inactive)
REMARK    1  A    between atoms: C_3  and  O_29 
REMARK    2  A    between atoms: C_6  and  C_7 
REMARK    3  A    between atoms: C_9  and  C_12 
REMARK    4  A    between atoms: C_21  and  C_22 
REMARK    5  A    between atoms: C_21  and  N_50 
REMARK    6  A    between atoms: C_25  and  C_27 
REMARK    7  A    between atoms: C_27  and  O_28 
REMARK    8  A    between atoms: O_29  and  C_30 
ROOT
ATOM      1  C   LIG d   1       2.413  -1.460 -11.544  0.00  0.00     0.068 C 
ATOM      2  H   LIG d   1       2.853  -1.006 -12.433  0.00  0.00     0.096 H 
ATOM      3  C   LIG d   1       0.937  -1.052 -11.440  0.00  0.00     0.065 C 
ATOM      4  C   LIG d   1       0.182  -1.771 -12.529  0.00  0.00     0.156 A 
ATOM      5  C   LIG d   1       0.680  -2.828 -13.209  0.00  0.00     0.190 A 
ATOM      6  C   LIG d   1      -1.289  -2.443 -13.991  0.00  0.00     0.243 A 
ATOM      7  N   LIG d   1      -1.061  -1.526 -13.020  0.00  0.00    -0.247 N 
ATOM      8  H   LIG d   1      -1.688  -0.807 -12.722  0.00  0.00     0.310 HD
ATOM      9  C   LIG d   1       2.046  -3.412 -12.948  0.00  0.00     0.036 C 
ATOM     10  H   LIG d   1       0.542  -1.341 -10.466  0.00  0.00     0.041 H 
ATOM     11  H   LIG d   1       0.841   0.025 -11.574  0.00  0.00     0.041 H 
ATOM     12  H   LIG d   1      -2.189  -2.521 -14.583  0.00  0.00     0.158 H 
ATOM     13  H   LIG d   1       1.984  -4.500 -12.932  0.00  0.00     0.090 H 
ATOM     14  H   LIG d   1       2.736  -3.093 -13.729  0.00  0.00     0.090 H 
ATOM     15  N   LIG d   1       2.497  -2.936 -11.618  0.00  0.00     0.256 N 
ATOM     16  H   LIG d   1       1.888  -3.340 -10.896  0.00  0.00     0.205 HD
ATOM     17  N   LIG d   1      -0.239  -3.215 -14.093  0.00  0.00    -0.243 N 
ATOM     18  H   LIG d   1      -0.139  -3.996 -14.752  0.00  0.00     0.311 HD
ENDROOT
BRANCH   1  19
ATOM     19  C   LIG d   1       3.152  -0.985 -10.320  0.00  0.00     0.276 A 
ATOM     20  N   LIG d   1       2.768  -1.127  -9.076  0.00  0.00    -0.186 NA
ATOM     21  C   LIG d   1       3.738  -0.553  -8.329  0.00  0.00     0.202 A 
ATOM     22  N   LIG d   1       4.645  -0.098  -9.155  0.00  0.00    -0.056 NA
ATOM     23  O   LIG d   1       4.324  -0.343 -10.299  0.00  0.00    -0.332 OA
BRANCH  21  24
ATOM     24  C   LIG d   1       3.768  -0.455  -6.849  0.00  0.00     0.023 A 
ATOM     25  C   LIG d   1       4.780  -1.085  -6.127  0.00  0.00    -0.048 A 
ATOM     26  C   LIG d   1       4.809  -0.988  -4.753  0.00  0.00    -0.019 A 
ATOM     27  H   LIG d   1       5.543  -1.647  -6.646  0.00  0.00     0.063 H 
ATOM     28  C   LIG d   1       3.824  -0.272  -4.085  0.00  0.00     0.130 A 
ATOM     29  H   LIG d   1       5.595  -1.473  -4.194  0.00  0.00     0.065 H 
ATOM     30  C   LIG d   1       2.811   0.354  -4.800  0.00  0.00    -0.019 A 
ATOM     31  C   LIG d   1       2.781   0.264  -6.176  0.00  0.00    -0.048 A 
ATOM     32  H   LIG d   1       2.047   0.911  -4.278  0.00  0.00     0.065 H 
ATOM     33  H   LIG d   1       1.993   0.751  -6.732  0.00  0.00     0.063 H 
BRANCH  28  34
ATOM     34  O   LIG d   1       3.851  -0.182  -2.730  0.00  0.00    -0.406 OA
BRANCH  34  35
ATOM     35  C   LIG d   1       4.249   1.072  -2.171  0.00  0.00     0.575 C 
ATOM     36  F   LIG d   1       4.771   0.867  -0.889  0.00  0.00    -0.133 F 
ATOM     37  F   LIG d   1       5.225   1.657  -2.984  0.00  0.00    -0.133 F 
ATOM     38  F   LIG d   1       3.139   1.921  -2.091  0.00  0.00    -0.133 F 
ENDBRANCH  34  35
ENDBRANCH  28  34
ENDBRANCH  21  24
ENDBRANCH   1  19
BRANCH  15  39
ATOM     39  C   LIG d   1       3.887  -3.374 -11.372  0.00  0.00     0.029 C 
ATOM     40  H   LIG d   1       4.338  -3.754 -12.288  0.00  0.00     0.090 H 
ATOM     41  H   LIG d   1       4.466  -2.527 -11.005  0.00  0.00     0.090 H 
BRANCH  39  42
ATOM     42  C   LIG d   1       3.873  -4.462 -10.330  0.00  0.00     0.150 A 
ATOM     43  O   LIG d   1       4.101  -4.295  -9.016  0.00  0.00    -0.457 OA
ATOM     44  C   LIG d   1       4.005  -5.480  -8.391  0.00  0.00     0.131 A 
ATOM     45  C   LIG d   1       3.722  -6.423  -9.308  0.00  0.00    -0.018 A 
ATOM     46  C   LIG d   1       3.637  -5.767 -10.557  0.00  0.00    -0.015 A 
ATOM     47  H   LIG d   1       3.585  -7.479  -9.125  0.00  0.00     0.065 H 
ATOM     48  H   LIG d   1       3.423  -6.225 -11.512  0.00  0.00     0.065 H 
BRANCH  44  49
ATOM     49  C   LIG d   1       4.190  -5.714  -6.914  0.00  0.00     0.102 C 
ATOM     50  H   LIG d   1       4.184  -6.785  -6.713  0.00  0.00     0.064 H 
ATOM     51  H   LIG d   1       5.143  -5.289  -6.596  0.00  0.00     0.064 H 
BRANCH  49  52
ATOM     52  O   LIG d   1       3.126  -5.089  -6.194  0.00  0.00    -0.387 OA
ATOM     53  H   LIG d   1       3.421  -4.446  -5.536  0.00  0.00     0.210 HD
ENDBRANCH  49  52
ENDBRANCH  44  49
ENDBRANCH  39  42
ENDBRANCH  15  39
TORSDOF 8
ENDMDL
MODEL 4
REMARK VINA RESULT:      -7.1      8.088     13.198
REMARK  8 active torsions:
REMARK  status: ('A' for Active; 'I' for Inactive)
REMARK    1  A    between atoms: C_3  and  O_29 
REMARK    2  A    between atoms: C_6  and  C_7 
REMARK    3  A    between atoms: C_9  and  C_12 
REMARK    4  A    between atoms: C_21  and  C_22 
REMARK    5  A    between atoms: C_21  and  N_50 
REMARK    6  A    between atoms: C_25  and  C_27 
REMARK    7  A    between atoms: C_27  and  O_28 
REMARK    8  A    between atoms: O_29  and  C_30 
ROOT
ATOM      1  C   LIG d   1      10.005   5.275  -5.064  0.00  0.00     0.068 C 
ATOM      2  H   LIG d   1       9.126   5.727  -5.524  0.00  0.00     0.096 H 
ATOM      3  C   LIG d   1      11.105   5.104  -6.121  0.00  0.00     0.065 C 
ATOM      4  C   LIG d   1      11.636   6.475  -6.459  0.00  0.00     0.156 A 
ATOM      5  C   LIG d   1      11.410   7.570  -5.699  0.00  0.00     0.190 A 
ATOM      6  C   LIG d   1      12.608   8.197  -7.375  0.00  0.00     0.243 A 
ATOM      7  N   LIG d   1      12.392   6.868  -7.516  0.00  0.00    -0.247 N 
ATOM      8  H   LIG d   1      12.726   6.286  -8.258  0.00  0.00     0.310 HD
ATOM      9  C   LIG d   1      10.608   7.542  -4.422  0.00  0.00     0.036 C 
ATOM     10  H   LIG d   1      11.909   4.487  -5.720  0.00  0.00     0.041 H 
ATOM     11  H   LIG d   1      10.690   4.639  -7.014  0.00  0.00     0.041 H 
ATOM     12  H   LIG d   1      13.176   8.818  -8.053  0.00  0.00     0.158 H 
ATOM     13  H   LIG d   1      11.115   8.127  -3.656  0.00  0.00     0.090 H 
ATOM     14  H   LIG d   1       9.615   7.955  -4.604  0.00  0.00     0.090 H 
ATOM     15  N   LIG d   1      10.519   6.132  -3.972  0.00  0.00     0.256 N 
ATOM     16  H   LIG d   1      11.457   5.807  -3.709  0.00  0.00     0.205 HD
ATOM     17  N   LIG d   1      12.015   8.604  -6.284  0.00  0.00    -0.243 N 
ATOM     18  H   LIG d   1      12.015   9.569  -5.933  0.00  0.00     0.311 HD
ENDROOT
BRANCH   1  19
ATOM     19  C   LIG d   1       9.638   3.926  -4.500  0.00  0.00     0.276 A 
ATOM     20  N   LIG d   1       8.491   3.310  -4.643  0.00  0.00    -0.186 NA
ATOM     21  C   LIG d   1       8.622   2.142  -3.973  0.00  0.00     0.202 A 
ATOM     22  N   LIG d   1       9.828   2.119  -3.466  0.00  0.00    -0.056 NA
ATOM     23  O   LIG d   1      10.423   3.133  -3.765  0.00  0.00    -0.332 OA
BRANCH  21  24
ATOM     24  C   LIG d   1       7.590   1.085  -3.836  0.00  0.00     0.023 A 
ATOM     25  C   LIG d   1       6.320   1.406  -3.358  0.00  0.00    -0.048 A 
ATOM     26  C   LIG d   1       5.362   0.423  -3.237  0.00  0.00    -0.019 A 
ATOM     27  H   LIG d   1       6.087   2.424  -3.086  0.00  0.00     0.063 H 
ATOM     28  C   LIG d   1       5.663  -0.889  -3.580  0.00  0.00     0.130 A 
ATOM     29  H   LIG d   1       4.377   0.671  -2.871  0.00  0.00     0.065 H 
ATOM     30  C   LIG d   1       6.928  -1.213  -4.053  0.00  0.00    -0.019 A 
ATOM     31  C   LIG d   1       7.889  -0.232  -4.181  0.00  0.00    -0.048 A 
ATOM     32  H   LIG d   1       7.159  -2.234  -4.319  0.00  0.00     0.065 H 
ATOM     33  H   LIG d   1       8.873  -0.485  -4.548  0.00  0.00     0.063 H 
BRANCH  28  34
ATOM     34  O   LIG d   1       4.718  -1.857  -3.455  0.00  0.00    -0.406 OA
BRANCH  34  35
ATOM     35  C   LIG d   1       3.853  -1.776  -2.320  0.00  0.00     0.575 C 
ATOM     36  F   LIG d   1       3.443  -3.063  -1.954  0.00  0.00    -0.133 F 
ATOM     37  F   LIG d   1       4.537  -1.184  -1.253  0.00  0.00    -0.133 F 
ATOM     38  F   LIG d   1       2.732  -1.004  -2.642  0.00  0.00    -0.133 F 
ENDBRANCH  34  35
ENDBRANCH  28  34
ENDBRANCH  21  24
ENDBRANCH   1  19
BRANCH  15  39
ATOM     39  C   LIG d   1       9.631   6.035  -2.794  0.00  0.00     0.029 C 
ATOM     40  H   LIG d   1       9.006   6.923  -2.711  0.00  0.00     0.090 H 
ATOM     41  H   LIG d   1       8.999   5.153  -2.899  0.00  0.00     0.090 H 
BRANCH  39  42
ATOM     42  C   LIG d   1      10.481   5.900  -1.558  0.00  0.00     0.150 A 
ATOM     43  O   LIG d   1      10.075   6.122  -0.297  0.00  0.00    -0.457 OA
ATOM     44  C   LIG d   1      11.096   5.903   0.548  0.00  0.00     0.131 A 
ATOM     45  C   LIG d   1      12.174   5.547  -0.172  0.00  0.00    -0.018 A 
ATOM     46  C   LIG d   1      11.779   5.544  -1.530  0.00  0.00    -0.015 A 
ATOM     47  H   LIG d   1      13.155   5.307   0.212  0.00  0.00     0.065 H 
ATOM     48  H   LIG d   1      12.398   5.303  -2.381  0.00  0.00     0.065 H 
BRANCH  44  49
ATOM     49  C   LIG d   1      11.043   6.042   2.047  0.00  0.00     0.102 C 
ATOM     50  H   LIG d   1      10.034   5.831   2.396  0.00  0.00     0.064 H 
ATOM     51  H   LIG d   1      11.740   5.336   2.501  0.00  0.00     0.064 H 
BRANCH  49  52
ATOM     52  O   LIG d   1      11.407   7.374   2.416  0.00  0.00    -0.387 OA
ATOM     53  H   LIG d   1      12.059   7.421   3.128  0.00  0.00     0.210 HD
ENDBRANCH  49  52
ENDBRANCH  44  49
ENDBRANCH  39  42
ENDBRANCH  15  39
TORSDOF 8
ENDMDL
MODEL 5
REMARK VINA RESULT:      -7.0      3.084      4.238
REMARK  8 active torsions:
REMARK  status: ('A' for Active; 'I' for Inactive)
REMARK    1  A    between atoms: C_3  and  O_29 
REMARK    2  A    between atoms: C_6  and  C_7 
REMARK    3  A    between atoms: C_9  and  C_12 
REMARK    4  A    between atoms: C_21  and  C_22 
REMARK    5  A    between atoms: C_21  and  N_50 
REMARK    6  A    between atoms: C_25  and  C_27 
REMARK    7  A    between atoms: C_27  and  O_28 
REMARK    8  A    between atoms: O_29  and  C_30 
ROOT
ATOM      1  C   LIG d   1       6.423  -7.526  -5.862  0.00  0.00     0.068 C 
ATOM      2  H   LIG d   1       6.645  -7.975  -6.830  0.00  0.00     0.096 H 
ATOM      3  C   LIG d   1       5.036  -7.987  -5.391  0.00  0.00     0.065 C 
ATOM      4  C   LIG d   1       5.139  -9.442  -5.010  0.00  0.00     0.156 A 
ATOM      5  C   LIG d   1       6.314 -10.078  -4.801  0.00  0.00     0.190 A 
ATOM      6  C   LIG d   1       4.748 -11.523  -4.492  0.00  0.00     0.243 A 
ATOM      7  N   LIG d   1       4.150 -10.352  -4.816  0.00  0.00    -0.247 N 
ATOM      8  H   LIG d   1       3.166 -10.189  -4.895  0.00  0.00     0.310 HD
ATOM      9  C   LIG d   1       7.655  -9.397  -4.916  0.00  0.00     0.036 C 
ATOM     10  H   LIG d   1       4.728  -7.401  -4.525  0.00  0.00     0.041 H 
ATOM     11  H   LIG d   1       4.313  -7.866  -6.197  0.00  0.00     0.041 H 
ATOM     12  H   LIG d   1       4.239 -12.451  -4.275  0.00  0.00     0.158 H 
ATOM     13  H   LIG d   1       8.290  -9.693  -4.082  0.00  0.00     0.090 H 
ATOM     14  H   LIG d   1       8.129  -9.679  -5.857  0.00  0.00     0.090 H 
ATOM     15  N   LIG d   1       7.429  -7.933  -4.855  0.00  0.00     0.256 N 
ATOM     16  H   LIG d   1       7.082  -7.688  -3.920  0.00  0.00     0.205 HD
ATOM     17  N   LIG d   1       6.043 -11.344  -4.487  0.00  0.00    -0.243 N 
ATOM     18  H   LIG d   1       6.741 -12.067  -4.275  0.00  0.00     0.311 HD
ENDROOT
BRANCH   1  19
ATOM     19  C   LIG d   1       6.435  -6.025  -5.991  0.00  0.00     0.276 A 
ATOM     20  N   LIG d   1       5.977  -5.165  -5.115  0.00  0.00    -0.186 NA
ATOM     21  C   LIG d   1       6.200  -3.945  -5.653  0.00  0.00     0.202 A 
ATOM     22  N   LIG d   1       6.774  -4.133  -6.814  0.00  0.00    -0.056 NA
ATOM     23  O   LIG d   1       6.920  -5.320  -7.018  0.00  0.00    -0.332 OA
BRANCH  21  24
ATOM     24  C   LIG d   1       5.857  -2.637  -5.043  0.00  0.00     0.023 A 
ATOM     25  C   LIG d   1       4.944  -1.791  -5.671  0.00  0.00    -0.048 A 
ATOM     26  C   LIG d   1       4.623  -0.579  -5.100  0.00  0.00    -0.019 A 
ATOM     27  H   LIG d   1       4.486  -2.087  -6.604  0.00  0.00     0.063 H 
ATOM     28  C   LIG d   1       5.216  -0.194  -3.905  0.00  0.00     0.130 A 
ATOM     29  H   LIG d   1       3.912   0.075  -5.584  0.00  0.00     0.065 H 
ATOM     30  C   LIG d   1       6.130  -1.032  -3.278  0.00  0.00    -0.019 A 
ATOM     31  C   LIG d   1       6.451  -2.248  -3.843  0.00  0.00    -0.048 A 
ATOM     32  H   LIG d   1       6.590  -0.730  -2.349  0.00  0.00     0.065 H 
ATOM     33  H   LIG d   1       7.162  -2.900  -3.356  0.00  0.00     0.063 H 
BRANCH  28  34
ATOM     34  O   LIG d   1       4.903   1.004  -3.346  0.00  0.00    -0.406 OA
BRANCH  34  35
ATOM     35  C   LIG d   1       4.008   0.985  -2.230  0.00  0.00     0.575 C 
ATOM     36  F   LIG d   1       4.741   1.090  -1.044  0.00  0.00    -0.133 F 
ATOM     37  F   LIG d   1       3.120   2.061  -2.327  0.00  0.00    -0.133 F 
ATOM     38  F   LIG d   1       3.289  -0.215  -2.229  0.00  0.00    -0.133 F 
ENDBRANCH  34  35
ENDBRANCH  28  34
ENDBRANCH  21  24
ENDBRANCH   1  19
BRANCH  15  39
ATOM     39  C   LIG d   1       8.700  -7.218  -5.096  0.00  0.00     0.029 C 
ATOM     40  H   LIG d   1       9.386  -7.838  -5.674  0.00  0.00     0.090 H 
ATOM     41  H   LIG d   1       8.492  -6.299  -5.643  0.00  0.00     0.090 H 
BRANCH  39  42
ATOM     42  C   LIG d   1       9.324  -6.882  -3.767  0.00  0.00     0.150 A 
ATOM     43  O   LIG d   1       9.994  -7.735  -2.975  0.00  0.00    -0.457 OA
ATOM     44  C   LIG d   1      10.412  -7.091  -1.873  0.00  0.00     0.131 A 
ATOM     45  C   LIG d   1      10.001  -5.812  -1.947  0.00  0.00    -0.018 A 
ATOM     46  C   LIG d   1       9.300  -5.677  -3.168  0.00  0.00    -0.015 A 
ATOM     47  H   LIG d   1      10.173  -5.037  -1.216  0.00  0.00     0.065 H 
ATOM     48  H   LIG d   1       8.834  -4.780  -3.547  0.00  0.00     0.065 H 
BRANCH  44  49
ATOM     49  C   LIG d   1      11.200  -7.699  -0.742  0.00  0.00     0.102 C 
ATOM     50  H   LIG d   1      11.059  -8.779  -0.741  0.00  0.00     0.064 H 
ATOM     51  H   LIG d   1      12.258  -7.470  -0.873  0.00  0.00     0.064 H 
BRANCH  49  52
ATOM     52  O   LIG d   1      10.746  -7.158   0.500  0.00  0.00    -0.387 OA
ATOM     53  H   LIG d   1      11.237  -6.378   0.792  0.00  0.00     0.210 HD
ENDBRANCH  49  52
ENDBRANCH  44  49
ENDBRANCH  39  42
ENDBRANCH  15  39
TORSDOF 8
ENDMDL
MODEL 6
REMARK VINA RESULT:      -7.0      7.989     13.583
REMARK  8 active torsions:
REMARK  status: ('A' for Active; 'I' for Inactive)
REMARK    1  A    between atoms: C_3  and  O_29 
REMARK    2  A    between atoms: C_6  and  C_7 
REMARK    3  A    between atoms: C_9  and  C_12 
REMARK    4  A    between atoms: C_21  and  C_22 
REMARK    5  A    between atoms: C_21  and  N_50 
REMARK    6  A    between atoms: C_25  and  C_27 
REMARK    7  A    between atoms: C_27  and  O_28 
REMARK    8  A    between atoms: O_29  and  C_30 
ROOT
ATOM      1  C   LIG d   1      10.794   4.823  -3.274  0.00  0.00     0.068 C 
ATOM      2  H   LIG d   1      11.834   4.697  -2.971  0.00  0.00     0.096 H 
ATOM      3  C   LIG d   1      10.002   5.468  -2.128  0.00  0.00     0.065 C 
ATOM      4  C   LIG d   1      10.440   6.907  -2.018  0.00  0.00     0.156 A 
ATOM      5  C   LIG d   1      11.130   7.553  -2.984  0.00  0.00     0.190 A 
ATOM      6  C   LIG d   1      10.832   8.952  -1.375  0.00  0.00     0.243 A 
ATOM      7  N   LIG d   1      10.250   7.788  -1.002  0.00  0.00    -0.247 N 
ATOM      8  H   LIG d   1       9.771   7.612  -0.142  0.00  0.00     0.310 HD
ATOM      9  C   LIG d   1      11.532   6.907  -4.287  0.00  0.00     0.036 C 
ATOM     10  H   LIG d   1       8.935   5.424  -2.347  0.00  0.00     0.041 H 
ATOM     11  H   LIG d   1      10.211   4.946  -1.195  0.00  0.00     0.041 H 
ATOM     12  H   LIG d   1      10.860   9.858  -0.788  0.00  0.00     0.158 H 
ATOM     13  H   LIG d   1      11.341   7.593  -5.112  0.00  0.00     0.090 H 
ATOM     14  H   LIG d   1      12.592   6.652  -4.258  0.00  0.00     0.090 H 
ATOM     15  N   LIG d   1      10.701   5.692  -4.468  0.00  0.00     0.256 N 
ATOM     16  H   LIG d   1       9.722   5.975  -4.598  0.00  0.00     0.205 HD
ATOM     17  N   LIG d   1      11.354   8.797  -2.563  0.00  0.00    -0.243 N 
ATOM     18  H   LIG d   1      11.859   9.521  -3.089  0.00  0.00     0.311 HD
ENDROOT
BRANCH   1  19
ATOM     19  C   LIG d   1      10.200   3.476  -3.598  0.00  0.00     0.276 A 
ATOM     20  N   LIG d   1       8.965   3.099  -3.382  0.00  0.00    -0.186 NA
ATOM     21  C   LIG d   1       8.891   1.825  -3.830  0.00  0.00     0.202 A 
ATOM     22  N   LIG d   1      10.075   1.506  -4.286  0.00  0.00    -0.056 NA
ATOM     23  O   LIG d   1      10.834   2.445  -4.164  0.00  0.00    -0.332 OA
BRANCH  21  24
ATOM     24  C   LIG d   1       7.692   0.951  -3.807  0.00  0.00     0.023 A 
ATOM     25  C   LIG d   1       6.470   1.454  -3.364  0.00  0.00    -0.048 A 
ATOM     26  C   LIG d   1       5.356   0.641  -3.349  0.00  0.00    -0.019 A 
ATOM     27  H   LIG d   1       6.395   2.480  -3.037  0.00  0.00     0.063 H 
ATOM     28  C   LIG d   1       5.454  -0.681  -3.764  0.00  0.00     0.130 A 
ATOM     29  H   LIG d   1       4.409   1.032  -3.011  0.00  0.00     0.065 H 
ATOM     30  C   LIG d   1       6.671  -1.186  -4.201  0.00  0.00    -0.019 A 
ATOM     31  C   LIG d   1       7.787  -0.376  -4.223  0.00  0.00    -0.048 A 
ATOM     32  H   LIG d   1       6.744  -2.215  -4.523  0.00  0.00     0.065 H 
ATOM     33  H   LIG d   1       8.734  -0.770  -4.563  0.00  0.00     0.063 H 
BRANCH  28  34
ATOM     34  O   LIG d   1       4.357  -1.481  -3.743  0.00  0.00    -0.406 OA
BRANCH  34  35
ATOM     35  C   LIG d   1       3.715  -1.670  -2.479  0.00  0.00     0.575 C 
ATOM     36  F   LIG d   1       4.490  -1.085  -1.472  0.00  0.00    -0.133 F 
ATOM     37  F   LIG d   1       2.452  -1.069  -2.504  0.00  0.00    -0.133 F 
ATOM     38  F   LIG d   1       3.577  -3.038  -2.226  0.00  0.00    -0.133 F 
ENDBRANCH  34  35
ENDBRANCH  28  34
ENDBRANCH  21  24
ENDBRANCH   1  19
BRANCH  15  39
ATOM     39  C   LIG d   1      11.148   4.952  -5.667  0.00  0.00     0.029 C 
ATOM     40  H   LIG d   1      12.229   5.028  -5.784  0.00  0.00     0.090 H 
ATOM     41  H   LIG d   1      10.867   3.904  -5.562  0.00  0.00     0.090 H 
BRANCH  39  42
ATOM     42  C   LIG d   1      10.468   5.536  -6.877  0.00  0.00     0.150 A 
ATOM     43  O   LIG d   1      10.501   6.826  -7.251  0.00  0.00    -0.457 OA
ATOM     44  C   LIG d   1       9.787   6.984  -8.378  0.00  0.00     0.131 A 
ATOM     45  C   LIG d   1       9.279   5.790  -8.730  0.00  0.00    -0.018 A 
ATOM     46  C   LIG d   1       9.717   4.856  -7.764  0.00  0.00    -0.015 A 
ATOM     47  H   LIG d   1       8.656   5.582  -9.588  0.00  0.00     0.065 H 
ATOM     48  H   LIG d   1       9.494   3.800  -7.740  0.00  0.00     0.065 H 
BRANCH  44  49
ATOM     49  C   LIG d   1       9.582   8.282  -9.116  0.00  0.00     0.102 C 
ATOM     50  H   LIG d   1      10.439   8.933  -8.949  0.00  0.00     0.064 H 
ATOM     51  H   LIG d   1       9.481   8.080 -10.183  0.00  0.00     0.064 H 
BRANCH  49  52
ATOM     52  O   LIG d   1       8.397   8.921  -8.639  0.00  0.00    -0.387 OA
ATOM     53  H   LIG d   1       8.252   9.804  -9.003  0.00  0.00     0.210 HD
ENDBRANCH  49  52
ENDBRANCH  44  49
ENDBRANCH  39  42
ENDBRANCH  15  39
TORSDOF 8
ENDMDL
MODEL 7
REMARK VINA RESULT:      -7.0      7.439     11.087
REMARK  8 active torsions:
REMARK  status: ('A' for Active; 'I' for Inactive)
REMARK    1  A    between atoms: C_3  and  O_29 
REMARK    2  A    between atoms: C_6  and  C_7 
REMARK    3  A    between atoms: C_9  and  C_12 
REMARK    4  A    between atoms: C_21  and  C_22 
REMARK    5  A    between atoms: C_21  and  N_50 
REMARK    6  A    between atoms: C_25  and  C_27 
REMARK    7  A    between atoms: C_27  and  O_28 
REMARK    8  A    between atoms: O_29  and  C_30 
ROOT
ATOM      1  C   LIG d   1       9.985   3.859  -7.368  0.00  0.00     0.068 C 
ATOM      2  H   LIG d   1      11.016   3.781  -7.713  0.00  0.00     0.096 H 
ATOM      3  C   LIG d   1       9.812   5.154  -6.562  0.00  0.00     0.065 C 
ATOM      4  C   LIG d   1       9.877   6.311  -7.528  0.00  0.00     0.156 A 
ATOM      5  C   LIG d   1       9.752   6.172  -8.867  0.00  0.00     0.190 A 
ATOM      6  C   LIG d   1      10.047   8.269  -8.471  0.00  0.00     0.243 A 
ATOM      7  N   LIG d   1      10.062   7.632  -7.275  0.00  0.00    -0.247 N 
ATOM      8  H   LIG d   1      10.186   8.056  -6.378  0.00  0.00     0.310 HD
ATOM      9  C   LIG d   1       9.526   4.844  -9.545  0.00  0.00     0.036 C 
ATOM     10  H   LIG d   1       8.846   5.149  -6.058  0.00  0.00     0.041 H 
ATOM     11  H   LIG d   1      10.613   5.242  -5.828  0.00  0.00     0.041 H 
ATOM     12  H   LIG d   1      10.169   9.331  -8.620  0.00  0.00     0.158 H 
ATOM     13  H   LIG d   1       8.760   4.948 -10.312  0.00  0.00     0.090 H 
ATOM     14  H   LIG d   1      10.457   4.500  -9.997  0.00  0.00     0.090 H 
ATOM     15  N   LIG d   1       9.053   3.884  -8.518  0.00  0.00     0.256 N 
ATOM     16  H   LIG d   1       8.126   4.180  -8.188  0.00  0.00     0.205 HD
ATOM     17  N   LIG d   1       9.861   7.383  -9.414  0.00  0.00    -0.243 N 
ATOM     18  H   LIG d   1       9.807   7.588 -10.419  0.00  0.00     0.311 HD
ENDROOT
BRANCH   1  19
ATOM     19  C   LIG d   1       9.657   2.677  -6.494  0.00  0.00     0.276 A 
ATOM     20  N   LIG d   1       8.532   2.470  -5.855  0.00  0.00    -0.186 NA
ATOM     21  C   LIG d   1       8.694   1.294  -5.208  0.00  0.00     0.202 A 
ATOM     22  N   LIG d   1       9.896   0.860  -5.488  0.00  0.00    -0.056 NA
ATOM     23  O   LIG d   1      10.457   1.640  -6.228  0.00  0.00    -0.332 OA
BRANCH  21  24
ATOM     24  C   LIG d   1       7.695   0.621  -4.341  0.00  0.00     0.023 A 
ATOM     25  C   LIG d   1       7.719  -0.765  -4.193  0.00  0.00    -0.048 A 
ATOM     26  C   LIG d   1       6.794  -1.387  -3.383  0.00  0.00    -0.019 A 
ATOM     27  H   LIG d   1       8.465  -1.350  -4.710  0.00  0.00     0.063 H 
ATOM     28  C   LIG d   1       5.830  -0.635  -2.724  0.00  0.00     0.130 A 
ATOM     29  H   LIG d   1       6.815  -2.459  -3.264  0.00  0.00     0.065 H 
ATOM     30  C   LIG d   1       5.799   0.745  -2.873  0.00  0.00    -0.019 A 
ATOM     31  C   LIG d   1       6.726   1.373  -3.678  0.00  0.00    -0.048 A 
ATOM     32  H   LIG d   1       5.049   1.327  -2.358  0.00  0.00     0.065 H 
ATOM     33  H   LIG d   1       6.702   2.447  -3.794  0.00  0.00     0.063 H 
BRANCH  28  34
ATOM     34  O   LIG d   1       4.915  -1.251  -1.930  0.00  0.00    -0.406 OA
BRANCH  34  35
ATOM     35  C   LIG d   1       3.727  -1.732  -2.563  0.00  0.00     0.575 C 
ATOM     36  F   LIG d   1       2.732  -0.750  -2.495  0.00  0.00    -0.133 F 
ATOM     37  F   LIG d   1       3.999  -2.028  -3.903  0.00  0.00    -0.133 F 
ATOM     38  F   LIG d   1       3.286  -2.888  -1.910  0.00  0.00    -0.133 F 
ENDBRANCH  34  35
ENDBRANCH  28  34
ENDBRANCH  21  24
ENDBRANCH   1  19
BRANCH  15  39
ATOM     39  C   LIG d   1       8.942   2.533  -9.106  0.00  0.00     0.029 C 
ATOM     40  H   LIG d   1       9.254   2.542 -10.150  0.00  0.00     0.090 H 
ATOM     41  H   LIG d   1       9.576   1.848  -8.543  0.00  0.00     0.090 H 
BRANCH  39  42
ATOM     42  C   LIG d   1       7.508   2.082  -9.013  0.00  0.00     0.150 A 
ATOM     43  O   LIG d   1       6.430   2.821  -9.323  0.00  0.00    -0.457 OA
ATOM     44  C   LIG d   1       5.317   2.096  -9.122  0.00  0.00     0.131 A 
ATOM     45  C   LIG d   1       5.676   0.882  -8.668  0.00  0.00    -0.018 A 
ATOM     46  C   LIG d   1       7.088   0.872  -8.598  0.00  0.00    -0.015 A 
ATOM     47  H   LIG d   1       5.014   0.069  -8.408  0.00  0.00     0.065 H 
ATOM     48  H   LIG d   1       7.711   0.052  -8.274  0.00  0.00     0.065 H 
BRANCH  44  49
ATOM     49  C   LIG d   1       3.905   2.567  -9.356  0.00  0.00     0.102 C 
ATOM     50  H   LIG d   1       3.911   3.629  -9.596  0.00  0.00     0.064 H 
ATOM     51  H   LIG d   1       3.469   2.008 -10.186  0.00  0.00     0.064 H 
BRANCH  49  52
ATOM     52  O   LIG d   1       3.127   2.350  -8.177  0.00  0.00    -0.387 OA
ATOM     53  H   LIG d   1       3.548   1.768  -7.530  0.00  0.00     0.210 HD
ENDBRANCH  49  52
ENDBRANCH  44  49
ENDBRANCH  39  42
ENDBRANCH  15  39
TORSDOF 8
ENDMDL
MODEL 8
REMARK VINA RESULT:      -6.9      2.238      2.700
REMARK  8 active torsions:
REMARK  status: ('A' for Active; 'I' for Inactive)
REMARK    1  A    between atoms: C_3  and  O_29 
REMARK    2  A    between atoms: C_6  and  C_7 
REMARK    3  A    between atoms: C_9  and  C_12 
REMARK    4  A    between atoms: C_21  and  C_22 
REMARK    5  A    between atoms: C_21  and  N_50 
REMARK    6  A    between atoms: C_25  and  C_27 
REMARK    7  A    between atoms: C_27  and  O_28 
REMARK    8  A    between atoms: O_29  and  C_30 
ROOT
ATOM      1  C   LIG d   1       8.402  -7.806  -6.179  0.00  0.00     0.068 C 
ATOM      2  H   LIG d   1       9.391  -7.406  -5.955  0.00  0.00     0.096 H 
ATOM      3  C   LIG d   1       8.347  -8.238  -7.652  0.00  0.00     0.065 C 
ATOM      4  C   LIG d   1       9.193  -9.477  -7.801  0.00  0.00     0.156 A 
ATOM      5  C   LIG d   1       9.607 -10.228  -6.756  0.00  0.00     0.190 A 
ATOM      6  C   LIG d   1      10.385 -11.144  -8.543  0.00  0.00     0.243 A 
ATOM      7  N   LIG d   1       9.682 -10.053  -8.929  0.00  0.00    -0.247 N 
ATOM      8  H   LIG d   1       9.549  -9.734  -9.868  0.00  0.00     0.310 HD
ATOM      9  C   LIG d   1       9.261  -9.914  -5.322  0.00  0.00     0.036 C 
ATOM     10  H   LIG d   1       7.317  -8.459  -7.933  0.00  0.00     0.041 H 
ATOM     11  H   LIG d   1       8.741  -7.443  -8.285  0.00  0.00     0.041 H 
ATOM     12  H   LIG d   1      10.904 -11.825  -9.201  0.00  0.00     0.158 H 
ATOM     13  H   LIG d   1       8.973 -10.828  -4.804  0.00  0.00     0.090 H 
ATOM     14  H   LIG d   1      10.122  -9.466  -4.826  0.00  0.00     0.090 H 
ATOM     15  N   LIG d   1       8.109  -8.979  -5.326  0.00  0.00     0.256 N 
ATOM     16  H   LIG d   1       7.287  -9.467  -5.702  0.00  0.00     0.205 HD
ATOM     17  N   LIG d   1      10.332 -11.236  -7.239  0.00  0.00    -0.243 N 
ATOM     18  H   LIG d   1      10.778 -11.970  -6.677  0.00  0.00     0.311 HD
ENDROOT
BRANCH   1  19
ATOM     19  C   LIG d   1       7.363  -6.743  -5.929  0.00  0.00     0.276 A 
ATOM     20  N   LIG d   1       7.547  -5.608  -5.302  0.00  0.00    -0.186 NA
ATOM     21  C   LIG d   1       6.347  -4.985  -5.321  0.00  0.00     0.202 A 
ATOM     22  N   LIG d   1       5.512  -5.771  -5.950  0.00  0.00    -0.056 NA
ATOM     23  O   LIG d   1       6.082  -6.781  -6.309  0.00  0.00    -0.332 OA
BRANCH  21  24
ATOM     24  C   LIG d   1       6.035  -3.658  -4.735  0.00  0.00     0.023 A 
ATOM     25  C   LIG d   1       4.746  -3.136  -4.836  0.00  0.00    -0.048 A 
ATOM     26  C   LIG d   1       4.457  -1.906  -4.287  0.00  0.00    -0.019 A 
ATOM     27  H   LIG d   1       3.974  -3.697  -5.342  0.00  0.00     0.063 H 
ATOM     28  C   LIG d   1       5.451  -1.180  -3.643  0.00  0.00     0.130 A 
ATOM     29  H   LIG d   1       3.458  -1.503  -4.361  0.00  0.00     0.065 H 
ATOM     30  C   LIG d   1       6.737  -1.695  -3.544  0.00  0.00    -0.019 A 
ATOM     31  C   LIG d   1       7.030  -2.928  -4.087  0.00  0.00    -0.048 A 
ATOM     32  H   LIG d   1       7.508  -1.129  -3.042  0.00  0.00     0.065 H 
ATOM     33  H   LIG d   1       8.031  -3.328  -4.011  0.00  0.00     0.063 H 
BRANCH  28  34
ATOM     34  O   LIG d   1       5.165   0.035  -3.107  0.00  0.00    -0.406 OA
BRANCH  34  35
ATOM     35  C   LIG d   1       4.329   0.052  -1.947  0.00  0.00     0.575 C 
ATOM     36  F   LIG d   1       4.732   1.088  -1.098  0.00  0.00    -0.133 F 
ATOM     37  F   LIG d   1       3.000   0.256  -2.334  0.00  0.00    -0.133 F 
ATOM     38  F   LIG d   1       4.437  -1.171  -1.276  0.00  0.00    -0.133 F 
ENDBRANCH  34  35
ENDBRANCH  28  34
ENDBRANCH  21  24
ENDBRANCH   1  19
BRANCH  15  39
ATOM     39  C   LIG d   1       7.814  -8.538  -3.947  0.00  0.00     0.029 C 
ATOM     40  H   LIG d   1       8.694  -8.648  -3.312  0.00  0.00     0.090 H 
ATOM     41  H   LIG d   1       7.509  -7.492  -3.966  0.00  0.00     0.090 H 
BRANCH  39  42
ATOM     42  C   LIG d   1       6.691  -9.380  -3.400  0.00  0.00     0.150 A 
ATOM     43  O   LIG d   1       5.503  -9.584  -3.992  0.00  0.00    -0.457 OA
ATOM     44  C   LIG d   1       4.751 -10.388  -3.221  0.00  0.00     0.131 A 
ATOM     45  C   LIG d   1       5.454 -10.698  -2.117  0.00  0.00    -0.018 A 
ATOM     46  C   LIG d   1       6.705 -10.049  -2.232  0.00  0.00    -0.015 A 
ATOM     47  H   LIG d   1       5.127 -11.324  -1.300  0.00  0.00     0.065 H 
ATOM     48  H   LIG d   1       7.516 -10.082  -1.520  0.00  0.00     0.065 H 
BRANCH  44  49
ATOM     49  C   LIG d   1       3.353 -10.856  -3.537  0.00  0.00     0.102 C 
ATOM     50  H   LIG d   1       3.241 -10.963  -4.615  0.00  0.00     0.064 H 
ATOM     51  H   LIG d   1       3.176 -11.817  -3.054  0.00  0.00     0.064 H 
BRANCH  49  52
ATOM     52  O   LIG d   1       2.409  -9.898  -3.053  0.00  0.00    -0.387 OA
ATOM     53  H   LIG d   1       1.887 -10.207  -2.300  0.00  0.00     0.210 HD
ENDBRANCH  49  52
ENDBRANCH  44  49
ENDBRANCH  39  42
ENDBRANCH  15  39
TORSDOF 8
ENDMDL
MODEL 9
REMARK VINA RESULT:      -6.9      7.749     12.395
REMARK  8 active torsions:
REMARK  status: ('A' for Active; 'I' for Inactive)
REMARK    1  A    between atoms: C_3  and  O_29 
REMARK    2  A    between atoms: C_6  and  C_7 
REMARK    3  A    between atoms: C_9  and  C_12 
REMARK    4  A    between atoms: C_21  and  C_22 
REMARK    5  A    between atoms: C_21  and  N_50 
REMARK    6  A    between atoms: C_25  and  C_27 
REMARK    7  A    between atoms: C_27  and  O_28 
REMARK    8  A    between atoms: O_29  and  C_30 
ROOT
ATOM      1  C   LIG d   1      12.187   2.601  -4.863  0.00  0.00     0.068 C 
ATOM      2  H   LIG d   1      12.571   2.836  -5.856  0.00  0.00     0.096 H 
ATOM      3  C   LIG d   1      13.013   1.461  -4.252  0.00  0.00     0.065 C 
ATOM      4  C   LIG d   1      14.374   2.012  -3.905  0.00  0.00     0.156 A 
ATOM      5  C   LIG d   1      14.647   3.334  -3.833  0.00  0.00     0.190 A 
ATOM      6  C   LIG d   1      16.471   2.284  -3.378  0.00  0.00     0.243 A 
ATOM      7  N   LIG d   1      15.522   1.347  -3.618  0.00  0.00    -0.247 N 
ATOM      8  H   LIG d   1      15.646   0.355  -3.588  0.00  0.00     0.310 HD
ATOM      9  C   LIG d   1      13.617   4.407  -4.083  0.00  0.00     0.036 C 
ATOM     10  H   LIG d   1      12.524   1.094  -3.349  0.00  0.00     0.041 H 
ATOM     11  H   LIG d   1      13.116   0.651  -4.973  0.00  0.00     0.041 H 
ATOM     12  H   LIG d   1      17.501   2.085  -3.120  0.00  0.00     0.158 H 
ATOM     13  H   LIG d   1      13.706   5.186  -3.327  0.00  0.00     0.090 H 
ATOM     14  H   LIG d   1      13.768   4.837  -5.074  0.00  0.00     0.090 H 
ATOM     15  N   LIG d   1      12.275   3.784  -3.978  0.00  0.00     0.256 N 
ATOM     16  H   LIG d   1      12.123   3.485  -3.007  0.00  0.00     0.205 HD
ATOM     17  N   LIG d   1      15.933   3.468  -3.510  0.00  0.00    -0.243 N 
ATOM     18  H   LIG d   1      16.424   4.361  -3.385  0.00  0.00     0.311 HD
ENDROOT
BRANCH   1  19
ATOM     19  C   LIG d   1      10.746   2.174  -4.971  0.00  0.00     0.276 A 
ATOM     20  N   LIG d   1      10.011   1.666  -4.013  0.00  0.00    -0.186 NA
ATOM     21  C   LIG d   1       8.798   1.440  -4.567  0.00  0.00     0.202 A 
ATOM     22  N   LIG d   1       8.867   1.818  -5.818  0.00  0.00    -0.056 NA
ATOM     23  O   LIG d   1       9.976   2.246  -6.062  0.00  0.00    -0.332 OA
BRANCH  21  24
ATOM     24  C   LIG d   1       7.611   0.868  -3.885  0.00  0.00     0.023 A 
ATOM     25  C   LIG d   1       7.497  -0.511  -3.721  0.00  0.00    -0.048 A 
ATOM     26  C   LIG d   1       6.396  -1.039  -3.082  0.00  0.00    -0.019 A 
ATOM     27  H   LIG d   1       8.273  -1.165  -4.090  0.00  0.00     0.063 H 
ATOM     28  C   LIG d   1       5.395  -0.199  -2.612  0.00  0.00     0.130 A 
ATOM     29  H   LIG d   1       6.310  -2.107  -2.950  0.00  0.00     0.065 H 
ATOM     30  C   LIG d   1       5.503   1.175  -2.778  0.00  0.00    -0.019 A 
ATOM     31  C   LIG d   1       6.605   1.709  -3.412  0.00  0.00    -0.048 A 
ATOM     32  H   LIG d   1       4.723   1.826  -2.411  0.00  0.00     0.065 H 
ATOM     33  H   LIG d   1       6.689   2.779  -3.542  0.00  0.00     0.063 H 
BRANCH  28  34
ATOM     34  O   LIG d   1       4.308  -0.723  -1.988  0.00  0.00    -0.406 OA
BRANCH  34  35
ATOM     35  C   LIG d   1       3.442  -1.545  -2.773  0.00  0.00     0.575 C 
ATOM     36  F   LIG d   1       2.122  -1.103  -2.630  0.00  0.00    -0.133 F 
ATOM     37  F   LIG d   1       3.816  -1.465  -4.119  0.00  0.00    -0.133 F 
ATOM     38  F   LIG d   1       3.538  -2.872  -2.340  0.00  0.00    -0.133 F 
ENDBRANCH  34  35
ENDBRANCH  28  34
ENDBRANCH  21  24
ENDBRANCH   1  19
BRANCH  15  39
ATOM     39  C   LIG d   1      11.234   4.767  -4.344  0.00  0.00     0.029 C 
ATOM     40  H   LIG d   1      11.632   5.507  -5.038  0.00  0.00     0.090 H 
ATOM     41  H   LIG d   1      10.401   4.243  -4.811  0.00  0.00     0.090 H 
BRANCH  39  42
ATOM     42  C   LIG d   1      10.757   5.455  -3.092  0.00  0.00     0.150 A 
ATOM     43  O   LIG d   1      10.239   6.692  -3.024  0.00  0.00    -0.457 OA
ATOM     44  C   LIG d   1       9.922   6.976  -1.750  0.00  0.00     0.131 A 
ATOM     45  C   LIG d   1      10.247   5.919  -0.985  0.00  0.00    -0.018 A 
ATOM     46  C   LIG d   1      10.786   4.938  -1.850  0.00  0.00    -0.015 A 
ATOM     47  H   LIG d   1      10.121   5.834   0.084  0.00  0.00     0.065 H 
ATOM     48  H   LIG d   1      11.150   3.962  -1.568  0.00  0.00     0.065 H 
BRANCH  44  49
ATOM     49  C   LIG d   1       9.312   8.265  -1.260  0.00  0.00     0.102 C 
ATOM     50  H   LIG d   1       9.859   8.615  -0.386  0.00  0.00     0.064 H 
ATOM     51  H   LIG d   1       9.366   9.015  -2.050  0.00  0.00     0.064 H 
BRANCH  49  52
ATOM     52  O   LIG d   1       7.945   8.042  -0.908  0.00  0.00    -0.387 OA
ATOM     53  H   LIG d   1       7.802   7.257  -0.363  0.00  0.00     0.210 HD
ENDBRANCH  49  52
ENDBRANCH  44  49
ENDBRANCH  39  42
ENDBRANCH  15  39
TORSDOF 8
ENDMDL
MODEL 10
REMARK VINA RESULT:      -6.8      6.399      8.241
REMARK  8 active torsions:
REMARK  status: ('A' for Active; 'I' for Inactive)
REMARK    1  A    between atoms: C_3  and  O_29 
REMARK    2  A    between atoms: C_6  and  C_7 
REMARK    3  A    between atoms: C_9  and  C_12 
REMARK    4  A    between atoms: C_21  and  C_22 
REMARK    5  A    between atoms: C_21  and  N_50 
REMARK    6  A    between atoms: C_25  and  C_27 
REMARK    7  A    between atoms: C_27  and  O_28 
REMARK    8  A    between atoms: O_29  and  C_30 
ROOT
ATOM      1  C   LIG d   1       5.936  -0.620  -7.893  0.00  0.00     0.068 C 
ATOM      2  H   LIG d   1       6.265  -1.408  -8.571  0.00  0.00     0.096 H 
ATOM      3  C   LIG d   1       5.218   0.476  -8.694  0.00  0.00     0.065 C 
ATOM      4  C   LIG d   1       3.892  -0.078  -9.148  0.00  0.00     0.156 A 
ATOM      5  C   LIG d   1       3.332  -1.194  -8.628  0.00  0.00     0.190 A 
ATOM      6  C   LIG d   1       1.989  -0.456 -10.141  0.00  0.00     0.243 A 
ATOM      7  N   LIG d   1       3.046   0.389 -10.102  0.00  0.00    -0.247 N 
ATOM      8  H   LIG d   1       3.177   1.203 -10.668  0.00  0.00     0.310 HD
ATOM      9  C   LIG d   1       3.970  -2.005  -7.528  0.00  0.00     0.036 C 
ATOM     10  H   LIG d   1       5.056   1.349  -8.061  0.00  0.00     0.041 H 
ATOM     11  H   LIG d   1       5.818   0.754  -9.560  0.00  0.00     0.041 H 
ATOM     12  H   LIG d   1       1.135  -0.367 -10.797  0.00  0.00     0.158 H 
ATOM     13  H   LIG d   1       3.219  -2.277  -6.789  0.00  0.00     0.090 H 
ATOM     14  H   LIG d   1       4.416  -2.907  -7.950  0.00  0.00     0.090 H 
ATOM     15  N   LIG d   1       5.002  -1.160  -6.880  0.00  0.00     0.256 N 
ATOM     16  H   LIG d   1       4.539  -0.377  -6.403  0.00  0.00     0.205 HD
ATOM     17  N   LIG d   1       2.174  -1.399  -9.254  0.00  0.00    -0.243 N 
ATOM     18  H   LIG d   1       1.528  -2.175  -9.070  0.00  0.00     0.311 HD
ENDROOT
BRANCH   1  19
ATOM     19  C   LIG d   1       7.132  -0.028  -7.194  0.00  0.00     0.276 A 
ATOM     20  N   LIG d   1       7.199   1.153  -6.632  0.00  0.00    -0.186 NA
ATOM     21  C   LIG d   1       8.454   1.249  -6.137  0.00  0.00     0.202 A 
ATOM     22  N   LIG d   1       9.071   0.131  -6.426  0.00  0.00    -0.056 NA
ATOM     23  O   LIG d   1       8.323  -0.612  -7.027  0.00  0.00    -0.332 OA
BRANCH  21  24
ATOM     24  C   LIG d   1       9.026   2.405  -5.404  0.00  0.00     0.023 A 
ATOM     25  C   LIG d   1       9.666   3.428  -6.103  0.00  0.00    -0.048 A 
ATOM     26  C   LIG d   1      10.192   4.504  -5.420  0.00  0.00    -0.019 A 
ATOM     27  H   LIG d   1       9.746   3.379  -7.179  0.00  0.00     0.063 H 
ATOM     28  C   LIG d   1      10.095   4.564  -4.036  0.00  0.00     0.130 A 
ATOM     29  H   LIG d   1      10.683   5.298  -5.962  0.00  0.00     0.065 H 
ATOM     30  C   LIG d   1       9.463   3.545  -3.336  0.00  0.00    -0.019 A 
ATOM     31  C   LIG d   1       8.930   2.469  -4.015  0.00  0.00    -0.048 A 
ATOM     32  H   LIG d   1       9.389   3.594  -2.260  0.00  0.00     0.065 H 
ATOM     33  H   LIG d   1       8.439   1.676  -3.470  0.00  0.00     0.063 H 
BRANCH  28  34
ATOM     34  O   LIG d   1      10.619   5.622  -3.365  0.00  0.00    -0.406 OA
BRANCH  34  35
ATOM     35  C   LIG d   1       9.741   6.717  -3.094  0.00  0.00     0.575 C 
ATOM     36  F   LIG d   1       8.702   6.725  -4.031  0.00  0.00    -0.133 F 
ATOM     37  F   LIG d   1       9.207   6.580  -1.808  0.00  0.00    -0.133 F 
ATOM     38  F   LIG d   1      10.453   7.919  -3.177  0.00  0.00    -0.133 F 
ENDBRANCH  34  35
ENDBRANCH  28  34
ENDBRANCH  21  24
ENDBRANCH   1  19
BRANCH  15  39
ATOM     39  C   LIG d   1       5.747  -1.954  -5.881  0.00  0.00     0.029 C 
ATOM     40  H   LIG d   1       5.627  -3.021  -6.071  0.00  0.00     0.090 H 
ATOM     41  H   LIG d   1       6.803  -1.692  -5.936  0.00  0.00     0.090 H 
BRANCH  39  42
ATOM     42  C   LIG d   1       5.218  -1.625  -4.509  0.00  0.00     0.150 A 
ATOM     43  O   LIG d   1       5.283  -0.425  -3.909  0.00  0.00    -0.457 OA
ATOM     44  C   LIG d   1       4.709  -0.499  -2.697  0.00  0.00     0.131 A 
ATOM     45  C   LIG d   1       4.279  -1.759  -2.506  0.00  0.00    -0.018 A 
ATOM     46  C   LIG d   1       4.606  -2.485  -3.674  0.00  0.00    -0.015 A 
ATOM     47  H   LIG d   1       3.778  -2.143  -1.630  0.00  0.00     0.065 H 
ATOM     48  H   LIG d   1       4.405  -3.529  -3.861  0.00  0.00     0.065 H 
BRANCH  44  49
ATOM     49  C   LIG d   1       4.578   0.636  -1.714  0.00  0.00     0.102 C 
ATOM     50  H   LIG d   1       4.496   0.234  -0.705  0.00  0.00     0.064 H 
ATOM     51  H   LIG d   1       5.457   1.278  -1.782  0.00  0.00     0.064 H 
BRANCH  49  52
ATOM     52  O   LIG d   1       3.408   1.398  -2.019  0.00  0.00    -0.387 OA
ATOM     53  H   LIG d   1       3.169   1.394  -2.956  0.00  0.00     0.210 HD
ENDBRANCH  49  52
ENDBRANCH  44  49
ENDBRANCH  39  42
ENDBRANCH  15  39
TORSDOF 8
ENDMDL
