MODEL 1
REMARK VINA RESULT:      -6.0      0.000      0.000
REMARK  7 active torsions:
REMARK  status: ('A' for Active; 'I' for Inactive)
REMARK    1  A    between atoms: C_1  and  C_2 
REMARK    2  A    between atoms: C_2  and  C_3 
REMARK       I    between atoms: C_3  and  N_5 
REMARK       I    between atoms: N_5  and  C_6 
REMARK       I    between atoms: C_6  and  N_7 
REMARK       I    between atoms: C_6  and  N_8 
REMARK    3  A    between atoms: N_8  and  C_9 
REMARK    4  A    between atoms: C_11  and  C_22 
REMARK    5  A    between atoms: C_15  and  O_19 
REMARK    6  A    between atoms: O_19  and  C_20 
REMARK    7  A    between atoms: C_20  and  C_21 
ROOT
ATOM      1  C   LIG d   1       3.447   0.061  -7.720  0.00  0.00     0.293 A 
ATOM      2  N   LIG d   1       4.610   0.211  -8.347  0.00  0.00    -0.203 NA
ATOM      3  C   LIG d   1       4.730  -0.008  -9.641  0.00  0.00     0.052 A 
ATOM      4  C   LIG d   1       3.591  -0.408 -10.361  0.00  0.00     0.022 A 
ATOM      5  C   LIG d   1       3.636  -0.660 -11.741  0.00  0.00    -0.047 A 
ATOM      6  C   LIG d   1       2.506  -1.045 -12.394  0.00  0.00    -0.019 A 
ATOM      7  C   LIG d   1       1.296  -1.194 -11.709  0.00  0.00     0.122 A 
ATOM      8  C   LIG d   1       1.218  -0.954 -10.355  0.00  0.00     0.006 A 
ATOM      9  C   LIG d   1       2.367  -0.557  -9.658  0.00  0.00     0.081 A 
ATOM     10  N   LIG d   1       2.347  -0.316  -8.340  0.00  0.00    -0.198 NA
ATOM     11  H   LIG d   1       4.564  -0.549 -12.283  0.00  0.00     0.063 H 
ATOM     12  H   LIG d   1       2.545  -1.240 -13.455  0.00  0.00     0.065 H 
ATOM     13  H   LIG d   1       0.279  -1.070  -9.834  0.00  0.00     0.068 H 
ENDROOT
BRANCH   1  14
ATOM     14  N   LIG d   1       3.390   0.307  -6.354  0.00  0.00    -0.213 N 
ATOM     15  C   LIG d   1       3.871  -0.619  -5.472  0.00  0.00     0.384 C 
ATOM     16  N   LIG d   1       3.925  -0.336  -4.178  0.00  0.00    -0.004 NA
ATOM     17  N   LIG d   1       4.296  -1.832  -5.924  0.00  0.00    -0.290 N 
ATOM     18  C   LIG d   1       3.412   0.806  -3.724  0.00  0.00     0.309 C 
ATOM     19  O   LIG d   1       2.989   1.636  -4.505  0.00  0.00    -0.254 OA
ATOM     20  H   LIG d   1       4.562  -2.518  -5.292  0.00  0.00     0.255 HD
ATOM     21  H   LIG d   1       4.333  -2.009  -6.876  0.00  0.00     0.255 HD
ATOM     22  H   LIG d   1       3.007   1.136  -6.026  0.00  0.00     0.268 HD
BRANCH  18  23
ATOM     23  C   LIG d   1       3.353   1.068  -2.240  0.00  0.00     0.040 C 
ATOM     24  H   LIG d   1       2.597   0.427  -1.788  0.00  0.00     0.037 H 
ATOM     25  H   LIG d   1       3.097   2.113  -2.066  0.00  0.00     0.037 H 
BRANCH  23  26
ATOM     26  C   LIG d   1       4.718   0.766  -1.616  0.00  0.00    -0.056 C 
ATOM     27  H   LIG d   1       4.980  -0.274  -1.802  0.00  0.00     0.024 H 
ATOM     28  H   LIG d   1       5.472   1.416  -2.059  0.00  0.00     0.024 H 
ATOM     29  H   LIG d   1       4.672   0.944  -0.541  0.00  0.00     0.024 H 
ENDBRANCH  23  26
ENDBRANCH  18  23
ENDBRANCH   1  14
BRANCH   3  30
ATOM     30  C   LIG d   1       6.057   0.167 -10.333  0.00  0.00    -0.021 C 
ATOM     31  H   LIG d   1       6.129  -0.536 -11.163  0.00  0.00     0.029 H 
ATOM     32  H   LIG d   1       6.137   1.187 -10.712  0.00  0.00     0.029 H 
ATOM     33  H   LIG d   1       6.863  -0.022  -9.624  0.00  0.00     0.029 H 
ENDBRANCH   3  30
BRANCH   7  34
ATOM     34  O   LIG d   1       0.184  -1.580 -12.386  0.00  0.00    -0.492 OA
BRANCH  34  35
ATOM     35  C   LIG d   1       0.263  -2.805 -13.117  0.00  0.00     0.087 C 
ATOM     36  H   LIG d   1      -0.469  -2.794 -13.925  0.00  0.00     0.069 H 
ATOM     37  H   LIG d   1       1.262  -2.916 -13.535  0.00  0.00     0.069 H 
BRANCH  35  38
ATOM     38  C   LIG d   1      -0.033  -3.977 -12.179  0.00  0.00    -0.031 C 
ATOM     39  H   LIG d   1       0.202  -4.915 -12.685  0.00  0.00     0.026 H 
ATOM     40  H   LIG d   1       0.579  -3.887 -11.282  0.00  0.00     0.026 H 
ATOM     41  H   LIG d   1      -1.086  -3.967 -11.903  0.00  0.00     0.026 H 
ENDBRANCH  35  38
ENDBRANCH  34  35
ENDBRANCH   7  34
TORSDOF 7
ENDMDL
MODEL 2
REMARK VINA RESULT:      -5.7      6.665     10.108
REMARK  7 active torsions:
REMARK  status: ('A' for Active; 'I' for Inactive)
REMARK    1  A    between atoms: C_1  and  C_2 
REMARK    2  A    between atoms: C_2  and  C_3 
REMARK       I    between atoms: C_3  and  N_5 
REMARK       I    between atoms: N_5  and  C_6 
REMARK       I    between atoms: C_6  and  N_7 
REMARK       I    between atoms: C_6  and  N_8 
REMARK    3  A    between atoms: N_8  and  C_9 
REMARK    4  A    between atoms: C_11  and  C_22 
REMARK    5  A    between atoms: C_15  and  O_19 
REMARK    6  A    between atoms: O_19  and  C_20 
REMARK    7  A    between atoms: C_20  and  C_21 
ROOT
ATOM      1  C   LIG d   1       7.963   2.151  -4.243  0.00  0.00     0.293 A 
ATOM      2  N   LIG d   1       8.203   2.328  -5.540  0.00  0.00    -0.203 NA
ATOM      3  C   LIG d   1       9.271   2.972  -5.962  0.00  0.00     0.052 A 
ATOM      4  C   LIG d   1      10.171   3.477  -5.007  0.00  0.00     0.022 A 
ATOM      5  C   LIG d   1      11.332   4.174  -5.377  0.00  0.00    -0.047 A 
ATOM      6  C   LIG d   1      12.173   4.644  -4.416  0.00  0.00    -0.019 A 
ATOM      7  C   LIG d   1      11.896   4.442  -3.059  0.00  0.00     0.122 A 
ATOM      8  C   LIG d   1      10.765   3.762  -2.663  0.00  0.00     0.006 A 
ATOM      9  C   LIG d   1       9.883   3.269  -3.633  0.00  0.00     0.081 A 
ATOM     10  N   LIG d   1       8.767   2.606  -3.302  0.00  0.00    -0.198 NA
ATOM     11  H   LIG d   1      11.558   4.337  -6.421  0.00  0.00     0.063 H 
ATOM     12  H   LIG d   1      13.064   5.180  -4.703  0.00  0.00     0.065 H 
ATOM     13  H   LIG d   1      10.560   3.611  -1.614  0.00  0.00     0.068 H 
ENDROOT
BRANCH   1  14
ATOM     14  N   LIG d   1       6.818   1.464  -3.865  0.00  0.00    -0.213 N 
ATOM     15  C   LIG d   1       6.875   0.122  -3.617  0.00  0.00     0.384 C 
ATOM     16  N   LIG d   1       5.811  -0.512  -3.143  0.00  0.00    -0.004 NA
ATOM     17  N   LIG d   1       8.028  -0.565  -3.856  0.00  0.00    -0.290 N 
ATOM     18  C   LIG d   1       4.655   0.136  -3.010  0.00  0.00     0.309 C 
ATOM     19  O   LIG d   1       4.600   1.331  -3.222  0.00  0.00    -0.254 OA
ATOM     20  H   LIG d   1       8.046  -1.530  -3.757  0.00  0.00     0.255 HD
ATOM     21  H   LIG d   1       8.829  -0.090  -4.125  0.00  0.00     0.255 HD
ATOM     22  H   LIG d   1       5.975   1.938  -3.778  0.00  0.00     0.268 HD
BRANCH  18  23
ATOM     23  C   LIG d   1       3.415  -0.614  -2.598  0.00  0.00     0.040 C 
ATOM     24  H   LIG d   1       2.665  -0.536  -3.386  0.00  0.00     0.037 H 
ATOM     25  H   LIG d   1       3.020  -0.186  -1.677  0.00  0.00     0.037 H 
BRANCH  23  26
ATOM     26  C   LIG d   1       3.762  -2.087  -2.370  0.00  0.00    -0.056 C 
ATOM     27  H   LIG d   1       3.389  -2.401  -1.395  0.00  0.00     0.024 H 
ATOM     28  H   LIG d   1       3.300  -2.694  -3.148  0.00  0.00     0.024 H 
ATOM     29  H   LIG d   1       4.844  -2.215  -2.405  0.00  0.00     0.024 H 
ENDBRANCH  23  26
ENDBRANCH  18  23
ENDBRANCH   1  14
BRANCH   3  30
ATOM     30  C   LIG d   1       9.525   3.162  -7.435  0.00  0.00    -0.021 C 
ATOM     31  H   LIG d   1      10.470   2.692  -7.705  0.00  0.00     0.029 H 
ATOM     32  H   LIG d   1       8.715   2.706  -8.005  0.00  0.00     0.029 H 
ATOM     33  H   LIG d   1       9.572   4.228  -7.661  0.00  0.00     0.029 H 
ENDBRANCH   3  30
BRANCH   7  34
ATOM     34  O   LIG d   1      12.753   4.922  -2.121  0.00  0.00    -0.492 OA
BRANCH  34  35
ATOM     35  C   LIG d   1      12.403   6.159  -1.496  0.00  0.00     0.087 C 
ATOM     36  H   LIG d   1      13.215   6.875  -1.627  0.00  0.00     0.069 H 
ATOM     37  H   LIG d   1      11.495   6.553  -1.952  0.00  0.00     0.069 H 
BRANCH  35  38
ATOM     38  C   LIG d   1      12.165   5.926  -0.003  0.00  0.00    -0.031 C 
ATOM     39  H   LIG d   1      13.005   6.328   0.565  0.00  0.00     0.026 H 
ATOM     40  H   LIG d   1      11.248   6.430   0.302  0.00  0.00     0.026 H 
ATOM     41  H   LIG d   1      12.074   4.858   0.189  0.00  0.00     0.026 H 
ENDBRANCH  35  38
ENDBRANCH  34  35
ENDBRANCH   7  34
TORSDOF 7
ENDMDL
MODEL 3
REMARK VINA RESULT:      -5.6      6.172      7.600
REMARK  7 active torsions:
REMARK  status: ('A' for Active; 'I' for Inactive)
REMARK    1  A    between atoms: C_1  and  C_2 
REMARK    2  A    between atoms: C_2  and  C_3 
REMARK       I    between atoms: C_3  and  N_5 
REMARK       I    between atoms: N_5  and  C_6 
REMARK       I    between atoms: C_6  and  N_7 
REMARK       I    between atoms: C_6  and  N_8 
REMARK    3  A    between atoms: N_8  and  C_9 
REMARK    4  A    between atoms: C_11  and  C_22 
REMARK    5  A    between atoms: C_15  and  O_19 
REMARK    6  A    between atoms: O_19  and  C_20 
REMARK    7  A    between atoms: C_20  and  C_21 
ROOT
ATOM      1  C   LIG d   1       7.228   1.167  -3.660  0.00  0.00     0.293 A 
ATOM      2  N   LIG d   1       6.103   1.480  -3.021  0.00  0.00    -0.203 NA
ATOM      3  C   LIG d   1       5.127   0.607  -2.876  0.00  0.00     0.052 A 
ATOM      4  C   LIG d   1       5.293  -0.681  -3.415  0.00  0.00     0.022 A 
ATOM      5  C   LIG d   1       4.300  -1.666  -3.303  0.00  0.00    -0.047 A 
ATOM      6  C   LIG d   1       4.508  -2.899  -3.841  0.00  0.00    -0.019 A 
ATOM      7  C   LIG d   1       5.701  -3.199  -4.507  0.00  0.00     0.122 A 
ATOM      8  C   LIG d   1       6.695  -2.255  -4.634  0.00  0.00     0.006 A 
ATOM      9  C   LIG d   1       6.507  -0.977  -4.090  0.00  0.00     0.081 A 
ATOM     10  N   LIG d   1       7.439  -0.021  -4.190  0.00  0.00    -0.198 NA
ATOM     11  H   LIG d   1       3.374  -1.448  -2.791  0.00  0.00     0.063 H 
ATOM     12  H   LIG d   1       3.742  -3.654  -3.754  0.00  0.00     0.065 H 
ATOM     13  H   LIG d   1       7.613  -2.496  -5.149  0.00  0.00     0.068 H 
ENDROOT
BRANCH   1  14
ATOM     14  N   LIG d   1       8.217   2.134  -3.779  0.00  0.00    -0.213 N 
ATOM     15  C   LIG d   1       8.559   2.616  -5.011  0.00  0.00     0.384 C 
ATOM     16  N   LIG d   1       9.417   3.621  -5.115  0.00  0.00    -0.004 NA
ATOM     17  N   LIG d   1       8.015   2.063  -6.132  0.00  0.00    -0.290 N 
ATOM     18  C   LIG d   1      10.029   4.090  -4.029  0.00  0.00     0.309 C 
ATOM     19  O   LIG d   1       9.723   3.670  -2.931  0.00  0.00    -0.254 OA
ATOM     20  H   LIG d   1       8.317   2.350  -7.008  0.00  0.00     0.255 HD
ATOM     21  H   LIG d   1       7.327   1.385  -6.053  0.00  0.00     0.255 HD
ATOM     22  H   LIG d   1       8.667   2.467  -2.986  0.00  0.00     0.268 HD
BRANCH  18  23
ATOM     23  C   LIG d   1      11.101   5.140  -4.164  0.00  0.00     0.040 C 
ATOM     24  H   LIG d   1      11.217   5.409  -5.214  0.00  0.00     0.037 H 
ATOM     25  H   LIG d   1      12.044   4.748  -3.783  0.00  0.00     0.037 H 
BRANCH  23  26
ATOM     26  C   LIG d   1      10.703   6.381  -3.360  0.00  0.00    -0.056 C 
ATOM     27  H   LIG d   1      11.333   6.457  -2.475  0.00  0.00     0.024 H 
ATOM     28  H   LIG d   1      10.834   7.270  -3.977  0.00  0.00     0.024 H 
ATOM     29  H   LIG d   1       9.659   6.298  -3.059  0.00  0.00     0.024 H 
ENDBRANCH  23  26
ENDBRANCH  18  23
ENDBRANCH   1  14
BRANCH   3  30
ATOM     30  C   LIG d   1       3.861   0.980  -2.149  0.00  0.00    -0.021 C 
ATOM     31  H   LIG d   1       3.339   0.074  -1.840  0.00  0.00     0.029 H 
ATOM     32  H   LIG d   1       4.109   1.576  -1.270  0.00  0.00     0.029 H 
ATOM     33  H   LIG d   1       3.219   1.560  -2.812  0.00  0.00     0.029 H 
ENDBRANCH   3  30
BRANCH   7  34
ATOM     34  O   LIG d   1       5.881  -4.438  -5.035  0.00  0.00    -0.492 OA
BRANCH  34  35
ATOM     35  C   LIG d   1       4.722  -5.100  -5.544  0.00  0.00     0.087 C 
ATOM     36  H   LIG d   1       3.863  -4.865  -4.915  0.00  0.00     0.069 H 
ATOM     37  H   LIG d   1       4.529  -4.764  -6.562  0.00  0.00     0.069 H 
BRANCH  35  38
ATOM     38  C   LIG d   1       4.956  -6.612  -5.541  0.00  0.00    -0.031 C 
ATOM     39  H   LIG d   1       4.368  -7.069  -4.744  0.00  0.00     0.026 H 
ATOM     40  H   LIG d   1       4.652  -7.029  -6.501  0.00  0.00     0.026 H 
ATOM     41  H   LIG d   1       6.013  -6.816  -5.376  0.00  0.00     0.026 H 
ENDBRANCH  35  38
ENDBRANCH  34  35
ENDBRANCH   7  34
TORSDOF 7
ENDMDL
MODEL 4
REMARK VINA RESULT:      -5.5      6.682      8.322
REMARK  7 active torsions:
REMARK  status: ('A' for Active; 'I' for Inactive)
REMARK    1  A    between atoms: C_1  and  C_2 
REMARK    2  A    between atoms: C_2  and  C_3 
REMARK       I    between atoms: C_3  and  N_5 
REMARK       I    between atoms: N_5  and  C_6 
REMARK       I    between atoms: C_6  and  N_7 
REMARK       I    between atoms: C_6  and  N_8 
REMARK    3  A    between atoms: N_8  and  C_9 
REMARK    4  A    between atoms: C_11  and  C_22 
REMARK    5  A    between atoms: C_15  and  O_19 
REMARK    6  A    between atoms: O_19  and  C_20 
REMARK    7  A    between atoms: C_20  and  C_21 
ROOT
ATOM      1  C   LIG d   1       7.949   2.146  -4.271  0.00  0.00     0.293 A 
ATOM      2  N   LIG d   1       8.804   2.573  -3.345  0.00  0.00    -0.203 NA
ATOM      3  C   LIG d   1       9.894   3.238  -3.668  0.00  0.00     0.052 A 
ATOM      4  C   LIG d   1      10.146   3.495  -5.027  0.00  0.00     0.022 A 
ATOM      5  C   LIG d   1      11.285   4.196  -5.452  0.00  0.00    -0.047 A 
ATOM      6  C   LIG d   1      11.484   4.420  -6.779  0.00  0.00    -0.019 A 
ATOM      7  C   LIG d   1      10.568   3.959  -7.730  0.00  0.00     0.122 A 
ATOM      8  C   LIG d   1       9.440   3.268  -7.346  0.00  0.00     0.006 A 
ATOM      9  C   LIG d   1       9.211   3.024  -5.986  0.00  0.00     0.081 A 
ATOM     10  N   LIG d   1       8.134   2.351  -5.559  0.00  0.00    -0.198 NA
ATOM     11  H   LIG d   1      12.001   4.558  -4.728  0.00  0.00     0.063 H 
ATOM     12  H   LIG d   1      12.362   4.959  -7.102  0.00  0.00     0.065 H 
ATOM     13  H   LIG d   1       8.738   2.917  -8.088  0.00  0.00     0.068 H 
ENDROOT
BRANCH   1  14
ATOM     14  N   LIG d   1       6.819   1.450  -3.863  0.00  0.00    -0.213 N 
ATOM     15  C   LIG d   1       6.895   0.109  -3.612  0.00  0.00     0.384 C 
ATOM     16  N   LIG d   1       5.848  -0.532  -3.110  0.00  0.00    -0.004 NA
ATOM     17  N   LIG d   1       8.048  -0.568  -3.876  0.00  0.00    -0.290 N 
ATOM     18  C   LIG d   1       4.690   0.105  -2.952  0.00  0.00     0.309 C 
ATOM     19  O   LIG d   1       4.619   1.299  -3.167  0.00  0.00    -0.254 OA
ATOM     20  H   LIG d   1       8.077  -1.532  -3.774  0.00  0.00     0.255 HD
ATOM     21  H   LIG d   1       8.838  -0.086  -4.165  0.00  0.00     0.255 HD
ATOM     22  H   LIG d   1       5.974   1.916  -3.757  0.00  0.00     0.268 HD
BRANCH  18  23
ATOM     23  C   LIG d   1       3.467  -0.655  -2.508  0.00  0.00     0.040 C 
ATOM     24  H   LIG d   1       2.673  -0.527  -3.244  0.00  0.00     0.037 H 
ATOM     25  H   LIG d   1       3.133  -0.274  -1.543  0.00  0.00     0.037 H 
BRANCH  23  26
ATOM     26  C   LIG d   1       3.809  -2.142  -2.380  0.00  0.00    -0.056 C 
ATOM     27  H   LIG d   1       4.885  -2.276  -2.484  0.00  0.00     0.024 H 
ATOM     28  H   LIG d   1       3.489  -2.505  -1.403  0.00  0.00     0.024 H 
ATOM     29  H   LIG d   1       3.295  -2.701  -3.162  0.00  0.00     0.024 H 
ENDBRANCH  23  26
ENDBRANCH  18  23
ENDBRANCH   1  14
BRANCH   3  30
ATOM     30  C   LIG d   1      10.850   3.714  -2.605  0.00  0.00    -0.021 C 
ATOM     31  H   LIG d   1      11.753   4.104  -3.076  0.00  0.00     0.029 H 
ATOM     32  H   LIG d   1      10.377   4.501  -2.016  0.00  0.00     0.029 H 
ATOM     33  H   LIG d   1      11.112   2.880  -1.953  0.00  0.00     0.029 H 
ENDBRANCH   3  30
BRANCH   7  34
ATOM     34  O   LIG d   1      10.792   4.197  -9.049  0.00  0.00    -0.492 OA
BRANCH  34  35
ATOM     35  C   LIG d   1       9.647   4.440  -9.868  0.00  0.00     0.087 C 
ATOM     36  H   LIG d   1       9.868   4.154 -10.896  0.00  0.00     0.069 H 
ATOM     37  H   LIG d   1       8.807   3.852  -9.501  0.00  0.00     0.069 H 
BRANCH  35  38
ATOM     38  C   LIG d   1       9.291   5.927  -9.817  0.00  0.00    -0.031 C 
ATOM     39  H   LIG d   1       8.429   6.116 -10.457  0.00  0.00     0.026 H 
ATOM     40  H   LIG d   1       9.050   6.208  -8.792  0.00  0.00     0.026 H 
ATOM     41  H   LIG d   1      10.139   6.516 -10.165  0.00  0.00     0.026 H 
ENDBRANCH  35  38
ENDBRANCH  34  35
ENDBRANCH   7  34
TORSDOF 7
ENDMDL
MODEL 5
REMARK VINA RESULT:      -5.4     12.026     15.464
REMARK  7 active torsions:
REMARK  status: ('A' for Active; 'I' for Inactive)
REMARK    1  A    between atoms: C_1  and  C_2 
REMARK    2  A    between atoms: C_2  and  C_3 
REMARK       I    between atoms: C_3  and  N_5 
REMARK       I    between atoms: N_5  and  C_6 
REMARK       I    between atoms: C_6  and  N_7 
REMARK       I    between atoms: C_6  and  N_8 
REMARK    3  A    between atoms: N_8  and  C_9 
REMARK    4  A    between atoms: C_11  and  C_22 
REMARK    5  A    between atoms: C_15  and  O_19 
REMARK    6  A    between atoms: O_19  and  C_20 
REMARK    7  A    between atoms: C_20  and  C_21 
ROOT
ATOM      1  C   LIG d   1      10.241   9.016  -2.546  0.00  0.00     0.293 A 
ATOM      2  N   LIG d   1      10.055   7.792  -3.033  0.00  0.00    -0.203 NA
ATOM      3  C   LIG d   1      10.186   6.721  -2.277  0.00  0.00     0.052 A 
ATOM      4  C   LIG d   1      10.531   6.893  -0.925  0.00  0.00     0.022 A 
ATOM      5  C   LIG d   1      10.689   5.803  -0.055  0.00  0.00    -0.047 A 
ATOM      6  C   LIG d   1      11.024   6.020   1.246  0.00  0.00    -0.019 A 
ATOM      7  C   LIG d   1      11.214   7.319   1.731  0.00  0.00     0.122 A 
ATOM      8  C   LIG d   1      11.065   8.410   0.903  0.00  0.00     0.006 A 
ATOM      9  C   LIG d   1      10.722   8.214  -0.441  0.00  0.00     0.081 A 
ATOM     10  N   LIG d   1      10.571   9.239  -1.290  0.00  0.00    -0.198 NA
ATOM     11  H   LIG d   1      10.546   4.795  -0.417  0.00  0.00     0.063 H 
ATOM     12  H   LIG d   1      11.146   5.180   1.912  0.00  0.00     0.065 H 
ATOM     13  H   LIG d   1      11.213   9.408   1.286  0.00  0.00     0.068 H 
ENDROOT
BRANCH   1  14
ATOM     14  N   LIG d   1      10.088  10.102  -3.397  0.00  0.00    -0.213 N 
ATOM     15  C   LIG d   1       9.113  11.028  -3.156  0.00  0.00     0.384 C 
ATOM     16  N   LIG d   1       9.042  12.125  -3.898  0.00  0.00    -0.004 NA
ATOM     17  N   LIG d   1       8.215  10.824  -2.151  0.00  0.00    -0.290 N 
ATOM     18  C   LIG d   1       9.850  12.274  -4.945  0.00  0.00     0.309 C 
ATOM     19  O   LIG d   1      10.723  11.456  -5.160  0.00  0.00    -0.254 OA
ATOM     20  H   LIG d   1       7.476  11.440  -2.031  0.00  0.00     0.255 HD
ATOM     21  H   LIG d   1       8.316  10.065  -1.557  0.00  0.00     0.255 HD
ATOM     22  H   LIG d   1      10.673  10.203  -4.165  0.00  0.00     0.268 HD
BRANCH  18  23
ATOM     23  C   LIG d   1       9.680  13.455  -5.865  0.00  0.00     0.040 C 
ATOM     24  H   LIG d   1      10.545  14.113  -5.775  0.00  0.00     0.037 H 
ATOM     25  H   LIG d   1       8.778  14.001  -5.592  0.00  0.00     0.037 H 
BRANCH  23  26
ATOM     26  C   LIG d   1       9.562  12.964  -7.310  0.00  0.00    -0.056 C 
ATOM     27  H   LIG d   1       9.102  13.739  -7.921  0.00  0.00     0.024 H 
ATOM     28  H   LIG d   1      10.556  12.737  -7.698  0.00  0.00     0.024 H 
ATOM     29  H   LIG d   1       8.948  12.064  -7.339  0.00  0.00     0.024 H 
ENDBRANCH  23  26
ENDBRANCH  18  23
ENDBRANCH   1  14
BRANCH   3  30
ATOM     30  C   LIG d   1       9.970   5.343  -2.848  0.00  0.00    -0.021 C 
ATOM     31  H   LIG d   1       9.485   4.713  -2.102  0.00  0.00     0.029 H 
ATOM     32  H   LIG d   1       9.339   5.411  -3.734  0.00  0.00     0.029 H 
ATOM     33  H   LIG d   1      10.932   4.909  -3.120  0.00  0.00     0.029 H 
ENDBRANCH   3  30
BRANCH   7  34
ATOM     34  O   LIG d   1      11.548   7.506   3.034  0.00  0.00    -0.492 OA
BRANCH  34  35
ATOM     35  C   LIG d   1      11.074   6.536   3.970  0.00  0.00     0.087 C 
ATOM     36  H   LIG d   1      10.027   6.314   3.764  0.00  0.00     0.069 H 
ATOM     37  H   LIG d   1      11.663   5.625   3.879  0.00  0.00     0.069 H 
BRANCH  35  38
ATOM     38  C   LIG d   1      11.206   7.091   5.390  0.00  0.00    -0.031 C 
ATOM     39  H   LIG d   1      10.241   7.033   5.894  0.00  0.00     0.026 H 
ATOM     40  H   LIG d   1      11.939   6.503   5.942  0.00  0.00     0.026 H 
ATOM     41  H   LIG d   1      11.533   8.130   5.346  0.00  0.00     0.026 H 
ENDBRANCH  35  38
ENDBRANCH  34  35
ENDBRANCH   7  34
TORSDOF 7
ENDMDL
MODEL 6
REMARK VINA RESULT:      -5.4      6.124      8.285
REMARK  7 active torsions:
REMARK  status: ('A' for Active; 'I' for Inactive)
REMARK    1  A    between atoms: C_1  and  C_2 
REMARK    2  A    between atoms: C_2  and  C_3 
REMARK       I    between atoms: C_3  and  N_5 
REMARK       I    between atoms: N_5  and  C_6 
REMARK       I    between atoms: C_6  and  N_7 
REMARK       I    between atoms: C_6  and  N_8 
REMARK    3  A    between atoms: N_8  and  C_9 
REMARK    4  A    between atoms: C_11  and  C_22 
REMARK    5  A    between atoms: C_15  and  O_19 
REMARK    6  A    between atoms: O_19  and  C_20 
REMARK    7  A    between atoms: C_20  and  C_21 
ROOT
ATOM      1  C   LIG d   1       9.016   3.024  -3.940  0.00  0.00     0.293 A 
ATOM      2  N   LIG d   1       9.292   3.146  -5.235  0.00  0.00    -0.203 NA
ATOM      3  C   LIG d   1       8.784   2.322  -6.129  0.00  0.00     0.052 A 
ATOM      4  C   LIG d   1       7.931   1.296  -5.687  0.00  0.00     0.022 A 
ATOM      5  C   LIG d   1       7.349   0.379  -6.577  0.00  0.00    -0.047 A 
ATOM      6  C   LIG d   1       6.530  -0.597  -6.100  0.00  0.00    -0.019 A 
ATOM      7  C   LIG d   1       6.257  -0.701  -4.732  0.00  0.00     0.122 A 
ATOM      8  C   LIG d   1       6.811   0.183  -3.833  0.00  0.00     0.006 A 
ATOM      9  C   LIG d   1       7.659   1.198  -4.297  0.00  0.00     0.081 A 
ATOM     10  N   LIG d   1       8.228   2.080  -3.465  0.00  0.00    -0.198 NA
ATOM     11  H   LIG d   1       7.552   0.448  -7.636  0.00  0.00     0.063 H 
ATOM     12  H   LIG d   1       6.086  -1.302  -6.787  0.00  0.00     0.065 H 
ATOM     13  H   LIG d   1       6.594   0.096  -2.779  0.00  0.00     0.068 H 
ENDROOT
BRANCH   1  14
ATOM     14  N   LIG d   1       9.586   3.925  -3.050  0.00  0.00    -0.213 N 
ATOM     15  C   LIG d   1      10.811   3.665  -2.505  0.00  0.00     0.384 C 
ATOM     16  N   LIG d   1      11.408   4.577  -1.749  0.00  0.00    -0.004 NA
ATOM     17  N   LIG d   1      11.421   2.469  -2.740  0.00  0.00    -0.290 N 
ATOM     18  C   LIG d   1      10.767   5.701  -1.432  0.00  0.00     0.309 C 
ATOM     19  O   LIG d   1       9.680   5.940  -1.919  0.00  0.00    -0.254 OA
ATOM     20  H   LIG d   1      12.252   2.253  -2.289  0.00  0.00     0.255 HD
ATOM     21  H   LIG d   1      11.024   1.836  -3.357  0.00  0.00     0.255 HD
ATOM     22  H   LIG d   1       9.112   4.739  -2.814  0.00  0.00     0.268 HD
BRANCH  18  23
ATOM     23  C   LIG d   1      11.391   6.676  -0.466  0.00  0.00     0.040 C 
ATOM     24  H   LIG d   1      10.950   7.662  -0.609  0.00  0.00     0.037 H 
ATOM     25  H   LIG d   1      12.465   6.728  -0.646  0.00  0.00     0.037 H 
BRANCH  23  26
ATOM     26  C   LIG d   1      11.135   6.207   0.968  0.00  0.00    -0.056 C 
ATOM     27  H   LIG d   1      10.367   5.434   0.966  0.00  0.00     0.024 H 
ATOM     28  H   LIG d   1      12.057   5.802   1.387  0.00  0.00     0.024 H 
ATOM     29  H   LIG d   1      10.802   7.051   1.572  0.00  0.00     0.024 H 
ENDBRANCH  23  26
ENDBRANCH  18  23
ENDBRANCH   1  14
BRANCH   3  30
ATOM     30  C   LIG d   1       9.108   2.477  -7.593  0.00  0.00    -0.021 C 
ATOM     31  H   LIG d   1       8.943   1.529  -8.104  0.00  0.00     0.029 H 
ATOM     32  H   LIG d   1       8.465   3.242  -8.029  0.00  0.00     0.029 H 
ATOM     33  H   LIG d   1      10.152   2.772  -7.703  0.00  0.00     0.029 H 
ENDBRANCH   3  30
BRANCH   7  34
ATOM     34  O   LIG d   1       5.436  -1.686  -4.285  0.00  0.00    -0.492 OA
BRANCH  34  35
ATOM     35  C   LIG d   1       4.180  -1.282  -3.735  0.00  0.00     0.087 C 
ATOM     36  H   LIG d   1       4.210  -0.217  -3.503  0.00  0.00     0.069 H 
ATOM     37  H   LIG d   1       3.388  -1.472  -4.459  0.00  0.00     0.069 H 
BRANCH  35  38
ATOM     38  C   LIG d   1       3.905  -2.074  -2.456  0.00  0.00    -0.031 C 
ATOM     39  H   LIG d   1       3.477  -3.044  -2.714  0.00  0.00     0.026 H 
ATOM     40  H   LIG d   1       4.838  -2.224  -1.914  0.00  0.00     0.026 H 
ATOM     41  H   LIG d   1       3.205  -1.523  -1.829  0.00  0.00     0.026 H 
ENDBRANCH  35  38
ENDBRANCH  34  35
ENDBRANCH   7  34
TORSDOF 7
ENDMDL
MODEL 7
REMARK VINA RESULT:      -5.3      1.912      3.859
REMARK  7 active torsions:
REMARK  status: ('A' for Active; 'I' for Inactive)
REMARK    1  A    between atoms: C_1  and  C_2 
REMARK    2  A    between atoms: C_2  and  C_3 
REMARK       I    between atoms: C_3  and  N_5 
REMARK       I    between atoms: N_5  and  C_6 
REMARK       I    between atoms: C_6  and  N_7 
REMARK       I    between atoms: C_6  and  N_8 
REMARK    3  A    between atoms: N_8  and  C_9 
REMARK    4  A    between atoms: C_11  and  C_22 
REMARK    5  A    between atoms: C_15  and  O_19 
REMARK    6  A    between atoms: O_19  and  C_20 
REMARK    7  A    between atoms: C_20  and  C_21 
ROOT
ATOM      1  C   LIG d   1       3.440  -0.016  -7.770  0.00  0.00     0.293 A 
ATOM      2  N   LIG d   1       2.301  -0.225  -8.424  0.00  0.00    -0.203 NA
ATOM      3  C   LIG d   1       2.284  -0.487  -9.715  0.00  0.00     0.052 A 
ATOM      4  C   LIG d   1       3.509  -0.542 -10.403  0.00  0.00     0.022 A 
ATOM      5  C   LIG d   1       3.575  -0.815 -11.779  0.00  0.00    -0.047 A 
ATOM      6  C   LIG d   1       4.784  -0.858 -12.401  0.00  0.00    -0.019 A 
ATOM      7  C   LIG d   1       5.967  -0.634 -11.687  0.00  0.00     0.122 A 
ATOM      8  C   LIG d   1       5.936  -0.365 -10.337  0.00  0.00     0.006 A 
ATOM      9  C   LIG d   1       4.704  -0.314  -9.672  0.00  0.00     0.081 A 
ATOM     10  N   LIG d   1       4.617  -0.050  -8.362  0.00  0.00    -0.198 NA
ATOM     11  H   LIG d   1       2.670  -0.990 -12.341  0.00  0.00     0.063 H 
ATOM     12  H   LIG d   1       4.832  -1.067 -13.459  0.00  0.00     0.065 H 
ATOM     13  H   LIG d   1       6.854  -0.194  -9.794  0.00  0.00     0.068 H 
ENDROOT
BRANCH   1  14
ATOM     14  N   LIG d   1       3.387   0.256  -6.409  0.00  0.00    -0.213 N 
ATOM     15  C   LIG d   1       3.908  -0.635  -5.513  0.00  0.00     0.384 C 
ATOM     16  N   LIG d   1       3.964  -0.324  -4.225  0.00  0.00    -0.004 NA
ATOM     17  N   LIG d   1       4.370  -1.842  -5.945  0.00  0.00    -0.290 N 
ATOM     18  C   LIG d   1       3.415   0.808  -3.789  0.00  0.00     0.309 C 
ATOM     19  O   LIG d   1       2.958   1.607  -4.583  0.00  0.00    -0.254 OA
ATOM     20  H   LIG d   1       4.666  -2.505  -5.301  0.00  0.00     0.255 HD
ATOM     21  H   LIG d   1       4.405  -2.037  -6.894  0.00  0.00     0.255 HD
ATOM     22  H   LIG d   1       2.979   1.078  -6.094  0.00  0.00     0.268 HD
BRANCH  18  23
ATOM     23  C   LIG d   1       3.362   1.098  -2.311  0.00  0.00     0.040 C 
ATOM     24  H   LIG d   1       2.568   0.508  -1.854  0.00  0.00     0.037 H 
ATOM     25  H   LIG d   1       3.161   2.158  -2.156  0.00  0.00     0.037 H 
BRANCH  23  26
ATOM     26  C   LIG d   1       4.703   0.733  -1.671  0.00  0.00    -0.056 C 
ATOM     27  H   LIG d   1       5.223   1.643  -1.373  0.00  0.00     0.024 H 
ATOM     28  H   LIG d   1       4.528   0.111  -0.793  0.00  0.00     0.024 H 
ATOM     29  H   LIG d   1       5.311   0.184  -2.390  0.00  0.00     0.024 H 
ENDBRANCH  23  26
ENDBRANCH  18  23
ENDBRANCH   1  14
BRANCH   3  30
ATOM     30  C   LIG d   1       0.983  -0.722 -10.437  0.00  0.00    -0.021 C 
ATOM     31  H   LIG d   1       1.177  -0.858 -11.501  0.00  0.00     0.029 H 
ATOM     32  H   LIG d   1       0.501  -1.614 -10.038  0.00  0.00     0.029 H 
ATOM     33  H   LIG d   1       0.329   0.139 -10.296  0.00  0.00     0.029 H 
ENDBRANCH   3  30
BRANCH   7  34
ATOM     34  O   LIG d   1       7.160  -0.684 -12.334  0.00  0.00    -0.492 OA
BRANCH  34  35
ATOM     35  C   LIG d   1       8.336  -0.529 -11.537  0.00  0.00     0.087 C 
ATOM     36  H   LIG d   1       8.147   0.198 -10.747  0.00  0.00     0.069 H 
ATOM     37  H   LIG d   1       8.602  -1.487 -11.091  0.00  0.00     0.069 H 
BRANCH  35  38
ATOM     38  C   LIG d   1       9.487  -0.037 -12.417  0.00  0.00    -0.031 C 
ATOM     39  H   LIG d   1       9.087   0.557 -13.239  0.00  0.00     0.026 H 
ATOM     40  H   LIG d   1      10.162   0.577 -11.822  0.00  0.00     0.026 H 
ATOM     41  H   LIG d   1      10.031  -0.892 -12.816  0.00  0.00     0.026 H 
ENDBRANCH  35  38
ENDBRANCH  34  35
ENDBRANCH   7  34
TORSDOF 7
ENDMDL
MODEL 8
REMARK VINA RESULT:      -5.2      6.815      8.556
REMARK  7 active torsions:
REMARK  status: ('A' for Active; 'I' for Inactive)
REMARK    1  A    between atoms: C_1  and  C_2 
REMARK    2  A    between atoms: C_2  and  C_3 
REMARK       I    between atoms: C_3  and  N_5 
REMARK       I    between atoms: N_5  and  C_6 
REMARK       I    between atoms: C_6  and  N_7 
REMARK       I    between atoms: C_6  and  N_8 
REMARK    3  A    between atoms: N_8  and  C_9 
REMARK    4  A    between atoms: C_11  and  C_22 
REMARK    5  A    between atoms: C_15  and  O_19 
REMARK    6  A    between atoms: O_19  and  C_20 
REMARK    7  A    between atoms: C_20  and  C_21 
ROOT
ATOM      1  C   LIG d   1       8.899   2.375  -4.176  0.00  0.00     0.293 A 
ATOM      2  N   LIG d   1       9.647   1.679  -5.028  0.00  0.00    -0.203 NA
ATOM      3  C   LIG d   1       9.385   0.419  -5.307  0.00  0.00     0.052 A 
ATOM      4  C   LIG d   1       8.285  -0.191  -4.679  0.00  0.00     0.022 A 
ATOM      5  C   LIG d   1       7.940  -1.530  -4.923  0.00  0.00    -0.047 A 
ATOM      6  C   LIG d   1       6.866  -2.076  -4.291  0.00  0.00    -0.019 A 
ATOM      7  C   LIG d   1       6.097  -1.321  -3.399  0.00  0.00     0.122 A 
ATOM      8  C   LIG d   1       6.408  -0.005  -3.139  0.00  0.00     0.006 A 
ATOM      9  C   LIG d   1       7.510   0.582  -3.776  0.00  0.00     0.081 A 
ATOM     10  N   LIG d   1       7.860   1.856  -3.553  0.00  0.00    -0.198 NA
ATOM     11  H   LIG d   1       8.525  -2.125  -5.609  0.00  0.00     0.063 H 
ATOM     12  H   LIG d   1       6.604  -3.106  -4.480  0.00  0.00     0.065 H 
ATOM     13  H   LIG d   1       5.808   0.571  -2.450  0.00  0.00     0.068 H 
ENDROOT
BRANCH   1  14
ATOM     14  N   LIG d   1       9.231   3.700  -3.926  0.00  0.00    -0.213 N 
ATOM     15  C   LIG d   1      10.196   4.001  -3.007  0.00  0.00     0.384 C 
ATOM     16  N   LIG d   1      10.596   5.257  -2.853  0.00  0.00    -0.004 NA
ATOM     17  N   LIG d   1      10.747   3.012  -2.249  0.00  0.00    -0.290 N 
ATOM     18  C   LIG d   1       9.984   6.236  -3.515  0.00  0.00     0.309 C 
ATOM     19  O   LIG d   1       9.130   5.972  -4.338  0.00  0.00    -0.254 OA
ATOM     20  H   LIG d   1      11.373   3.235  -1.543  0.00  0.00     0.255 HD
ATOM     21  H   LIG d   1      10.515   2.086  -2.418  0.00  0.00     0.255 HD
ATOM     22  H   LIG d   1       8.776   4.412  -4.403  0.00  0.00     0.268 HD
BRANCH  18  23
ATOM     23  C   LIG d   1      10.349   7.673  -3.240  0.00  0.00     0.040 C 
ATOM     24  H   LIG d   1      11.403   7.735  -2.973  0.00  0.00     0.037 H 
ATOM     25  H   LIG d   1       9.742   8.051  -2.418  0.00  0.00     0.037 H 
BRANCH  23  26
ATOM     26  C   LIG d   1      10.091   8.513  -4.494  0.00  0.00    -0.056 C 
ATOM     27  H   LIG d   1      10.315   7.920  -5.380  0.00  0.00     0.024 H 
ATOM     28  H   LIG d   1       9.045   8.819  -4.517  0.00  0.00     0.024 H 
ATOM     29  H   LIG d   1      10.727   9.397  -4.476  0.00  0.00     0.024 H 
ENDBRANCH  23  26
ENDBRANCH  18  23
ENDBRANCH   1  14
BRANCH   3  30
ATOM     30  C   LIG d   1      10.244  -0.352  -6.276  0.00  0.00    -0.021 C 
ATOM     31  H   LIG d   1      10.432   0.258  -7.159  0.00  0.00     0.029 H 
ATOM     32  H   LIG d   1      11.192  -0.605  -5.800  0.00  0.00     0.029 H 
ATOM     33  H   LIG d   1       9.729  -1.266  -6.569  0.00  0.00     0.029 H 
ENDBRANCH   3  30
BRANCH   7  34
ATOM     34  O   LIG d   1       5.029  -1.892  -2.783  0.00  0.00    -0.492 OA
BRANCH  34  35
ATOM     35  C   LIG d   1       4.103  -1.012  -2.143  0.00  0.00     0.087 C 
ATOM     36  H   LIG d   1       3.861  -1.397  -1.153  0.00  0.00     0.069 H 
ATOM     37  H   LIG d   1       4.549  -0.022  -2.048  0.00  0.00     0.069 H 
BRANCH  35  38
ATOM     38  C   LIG d   1       2.826  -0.920  -2.980  0.00  0.00    -0.031 C 
ATOM     39  H   LIG d   1       3.066  -0.520  -3.966  0.00  0.00     0.026 H 
ATOM     40  H   LIG d   1       2.391  -1.913  -3.089  0.00  0.00     0.026 H 
ATOM     41  H   LIG d   1       2.112  -0.263  -2.484  0.00  0.00     0.026 H 
ENDBRANCH  35  38
ENDBRANCH  34  35
ENDBRANCH   7  34
TORSDOF 7
ENDMDL
MODEL 9
REMARK VINA RESULT:      -5.2      7.191      9.552
REMARK  7 active torsions:
REMARK  status: ('A' for Active; 'I' for Inactive)
REMARK    1  A    between atoms: C_1  and  C_2 
REMARK    2  A    between atoms: C_2  and  C_3 
REMARK       I    between atoms: C_3  and  N_5 
REMARK       I    between atoms: N_5  and  C_6 
REMARK       I    between atoms: C_6  and  N_7 
REMARK       I    between atoms: C_6  and  N_8 
REMARK    3  A    between atoms: N_8  and  C_9 
REMARK    4  A    between atoms: C_11  and  C_22 
REMARK    5  A    between atoms: C_15  and  O_19 
REMARK    6  A    between atoms: O_19  and  C_20 
REMARK    7  A    between atoms: C_20  and  C_21 
ROOT
ATOM      1  C   LIG d   1       9.883   4.307  -3.095  0.00  0.00     0.293 A 
ATOM      2  N   LIG d   1      10.222   4.796  -4.285  0.00  0.00    -0.203 NA
ATOM      3  C   LIG d   1       9.876   4.192  -5.403  0.00  0.00     0.052 A 
ATOM      4  C   LIG d   1       9.130   3.003  -5.321  0.00  0.00     0.022 A 
ATOM      5  C   LIG d   1       8.723   2.301  -6.466  0.00  0.00    -0.047 A 
ATOM      6  C   LIG d   1       8.002   1.155  -6.334  0.00  0.00    -0.019 A 
ATOM      7  C   LIG d   1       7.659   0.664  -5.070  0.00  0.00     0.122 A 
ATOM      8  C   LIG d   1       8.042   1.330  -3.927  0.00  0.00     0.006 A 
ATOM      9  C   LIG d   1       8.786   2.512  -4.034  0.00  0.00     0.081 A 
ATOM     10  N   LIG d   1       9.189   3.195  -2.954  0.00  0.00    -0.198 NA
ATOM     11  H   LIG d   1       8.982   2.669  -7.448  0.00  0.00     0.063 H 
ATOM     12  H   LIG d   1       7.692   0.616  -7.217  0.00  0.00     0.065 H 
ATOM     13  H   LIG d   1       7.771   0.944  -2.955  0.00  0.00     0.068 H 
ENDROOT
BRANCH   1  14
ATOM     14  N   LIG d   1      10.280   4.992  -1.955  0.00  0.00    -0.213 N 
ATOM     15  C   LIG d   1       9.811   6.253  -1.717  0.00  0.00     0.384 C 
ATOM     16  N   LIG d   1      10.095   6.862  -0.573  0.00  0.00    -0.004 NA
ATOM     17  N   LIG d   1       9.049   6.884  -2.654  0.00  0.00    -0.290 N 
ATOM     18  C   LIG d   1      10.926   6.290   0.296  0.00  0.00     0.309 C 
ATOM     19  O   LIG d   1      11.340   5.166   0.092  0.00  0.00    -0.254 OA
ATOM     20  H   LIG d   1       8.783   7.807  -2.521  0.00  0.00     0.255 HD
ATOM     21  H   LIG d   1       8.773   6.410  -3.454  0.00  0.00     0.255 HD
ATOM     22  H   LIG d   1      10.893   4.576  -1.328  0.00  0.00     0.268 HD
BRANCH  18  23
ATOM     23  C   LIG d   1      11.353   7.038   1.533  0.00  0.00     0.040 C 
ATOM     24  H   LIG d   1      12.320   6.664   1.868  0.00  0.00     0.037 H 
ATOM     25  H   LIG d   1      10.613   6.891   2.320  0.00  0.00     0.037 H 
BRANCH  23  26
ATOM     26  C   LIG d   1      11.468   8.530   1.212  0.00  0.00    -0.056 C 
ATOM     27  H   LIG d   1      12.115   9.010   1.945  0.00  0.00     0.024 H 
ATOM     28  H   LIG d   1      11.891   8.655   0.215  0.00  0.00     0.024 H 
ATOM     29  H   LIG d   1      10.478   8.986   1.245  0.00  0.00     0.024 H 
ENDBRANCH  23  26
ENDBRANCH  18  23
ENDBRANCH   1  14
BRANCH   3  30
ATOM     30  C   LIG d   1      10.271   4.762  -6.741  0.00  0.00    -0.021 C 
ATOM     31  H   LIG d   1      11.157   4.245  -7.110  0.00  0.00     0.029 H 
ATOM     32  H   LIG d   1       9.452   4.629  -7.449  0.00  0.00     0.029 H 
ATOM     33  H   LIG d   1      10.489   5.824  -6.633  0.00  0.00     0.029 H 
ENDBRANCH   3  30
BRANCH   7  34
ATOM     34  O   LIG d   1       6.938  -0.483  -4.968  0.00  0.00    -0.492 OA
BRANCH  34  35
ATOM     35  C   LIG d   1       7.145  -1.277  -3.798  0.00  0.00     0.087 C 
ATOM     36  H   LIG d   1       7.670  -2.193  -4.069  0.00  0.00     0.069 H 
ATOM     37  H   LIG d   1       7.741  -0.716  -3.079  0.00  0.00     0.069 H 
BRANCH  35  38
ATOM     38  C   LIG d   1       5.792  -1.630  -3.177  0.00  0.00    -0.031 C 
ATOM     39  H   LIG d   1       5.001  -1.088  -3.696  0.00  0.00     0.026 H 
ATOM     40  H   LIG d   1       5.619  -2.702  -3.271  0.00  0.00     0.026 H 
ATOM     41  H   LIG d   1       5.792  -1.354  -2.123  0.00  0.00     0.026 H 
ENDBRANCH  35  38
ENDBRANCH  34  35
ENDBRANCH   7  34
TORSDOF 7
ENDMDL
MODEL 10
REMARK VINA RESULT:      -5.0      3.208      7.940
REMARK  7 active torsions:
REMARK  status: ('A' for Active; 'I' for Inactive)
REMARK    1  A    between atoms: C_1  and  C_2 
REMARK    2  A    between atoms: C_2  and  C_3 
REMARK       I    between atoms: C_3  and  N_5 
REMARK       I    between atoms: N_5  and  C_6 
REMARK       I    between atoms: C_6  and  N_7 
REMARK       I    between atoms: C_6  and  N_8 
REMARK    3  A    between atoms: N_8  and  C_9 
REMARK    4  A    between atoms: C_11  and  C_22 
REMARK    5  A    between atoms: C_15  and  O_19 
REMARK    6  A    between atoms: O_19  and  C_20 
REMARK    7  A    between atoms: C_20  and  C_21 
ROOT
ATOM      1  C   LIG d   1       3.774  -0.852  -6.584  0.00  0.00     0.293 A 
ATOM      2  N   LIG d   1       3.370  -0.021  -5.628  0.00  0.00    -0.203 NA
ATOM      3  C   LIG d   1       3.985   0.044  -4.465  0.00  0.00     0.052 A 
ATOM      4  C   LIG d   1       5.094  -0.791  -4.245  0.00  0.00     0.022 A 
ATOM      5  C   LIG d   1       5.803  -0.781  -3.034  0.00  0.00    -0.047 A 
ATOM      6  C   LIG d   1       6.870  -1.609  -2.869  0.00  0.00    -0.019 A 
ATOM      7  C   LIG d   1       7.273  -2.473  -3.893  0.00  0.00     0.122 A 
ATOM      8  C   LIG d   1       6.599  -2.507  -5.094  0.00  0.00     0.006 A 
ATOM      9  C   LIG d   1       5.496  -1.665  -5.289  0.00  0.00     0.081 A 
ATOM     10  N   LIG d   1       4.803  -1.663  -6.435  0.00  0.00    -0.198 NA
ATOM     11  H   LIG d   1       5.503  -0.119  -2.235  0.00  0.00     0.063 H 
ATOM     12  H   LIG d   1       7.413  -1.600  -1.936  0.00  0.00     0.065 H 
ATOM     13  H   LIG d   1       6.918  -3.177  -5.878  0.00  0.00     0.068 H 
ENDROOT
BRANCH   1  14
ATOM     14  N   LIG d   1       3.081  -0.872  -7.787  0.00  0.00    -0.213 N 
ATOM     15  C   LIG d   1       3.064   0.237  -8.585  0.00  0.00     0.384 C 
ATOM     16  N   LIG d   1       2.503   0.182  -9.785  0.00  0.00    -0.004 NA
ATOM     17  N   LIG d   1       3.627   1.399  -8.147  0.00  0.00    -0.290 N 
ATOM     18  C   LIG d   1       1.860  -0.919 -10.170  0.00  0.00     0.309 C 
ATOM     19  O   LIG d   1       1.878  -1.910  -9.467  0.00  0.00    -0.254 OA
ATOM     20  H   LIG d   1       3.545   2.206  -8.679  0.00  0.00     0.255 HD
ATOM     21  H   LIG d   1       4.108   1.417  -7.306  0.00  0.00     0.255 HD
ATOM     22  H   LIG d   1       2.606  -1.673  -8.060  0.00  0.00     0.268 HD
BRANCH  18  23
ATOM     23  C   LIG d   1       1.110  -0.935 -11.477  0.00  0.00     0.040 C 
ATOM     24  H   LIG d   1       0.832   0.083 -11.748  0.00  0.00     0.037 H 
ATOM     25  H   LIG d   1       0.211  -1.542 -11.372  0.00  0.00     0.037 H 
BRANCH  23  26
ATOM     26  C   LIG d   1       2.002  -1.528 -12.570  0.00  0.00    -0.056 C 
ATOM     27  H   LIG d   1       2.592  -0.734 -13.027  0.00  0.00     0.024 H 
ATOM     28  H   LIG d   1       2.669  -2.270 -12.130  0.00  0.00     0.024 H 
ATOM     29  H   LIG d   1       1.380  -2.003 -13.328  0.00  0.00     0.024 H 
ENDBRANCH  23  26
ENDBRANCH  18  23
ENDBRANCH   1  14
BRANCH   3  30
ATOM     30  C   LIG d   1       3.512   0.993  -3.394  0.00  0.00    -0.021 C 
ATOM     31  H   LIG d   1       2.696   0.534  -2.836  0.00  0.00     0.029 H 
ATOM     32  H   LIG d   1       4.336   1.216  -2.716  0.00  0.00     0.029 H 
ATOM     33  H   LIG d   1       3.162   1.916  -3.857  0.00  0.00     0.029 H 
ENDBRANCH   3  30
BRANCH   7  34
ATOM     34  O   LIG d   1       8.342  -3.289  -3.701  0.00  0.00    -0.492 OA
BRANCH  34  35
ATOM     35  C   LIG d   1       9.446  -3.131  -4.594  0.00  0.00     0.087 C 
ATOM     36  H   LIG d   1       9.293  -3.754  -5.475  0.00  0.00     0.069 H 
ATOM     37  H   LIG d   1       9.523  -2.088  -4.897  0.00  0.00     0.069 H 
BRANCH  35  38
ATOM     38  C   LIG d   1      10.736  -3.555  -3.889  0.00  0.00    -0.031 C 
ATOM     39  H   LIG d   1      11.595  -3.213  -4.467  0.00  0.00     0.026 H 
ATOM     40  H   LIG d   1      10.769  -3.112  -2.894  0.00  0.00     0.026 H 
ATOM     41  H   LIG d   1      10.765  -4.641  -3.804  0.00  0.00     0.026 H 
ENDBRANCH  35  38
ENDBRANCH  34  35
ENDBRANCH   7  34
TORSDOF 7
ENDMDL
