MODEL 1
REMARK VINA RESULT:      -5.8      0.000      0.000
REMARK  4 active torsions:
REMARK  status: ('A' for Active; 'I' for Inactive)
REMARK    1  A    between atoms: C_1  and  N_2 
REMARK       I    between atoms: N_2  and  C_3 
REMARK    2  A    between atoms: C_3  and  C_5 
REMARK    3  A    between atoms: C_5  and  C_6 
REMARK    4  A    between atoms: C_6  and  C_7 
ROOT
ATOM      1  C   LIG d   1       5.574  -2.410  -3.976  0.00  0.00    -0.022 A 
ATOM      2  C   LIG d   1       6.867  -2.107  -3.790  0.00  0.00     0.006 A 
ATOM      3  N   LIG d   1       6.976  -0.898  -3.157  0.00  0.00    -0.360 N 
ATOM      4  H   LIG d   1       7.812  -0.467  -2.917  0.00  0.00     0.165 HD
ATOM      5  C   LIG d   1       5.723  -0.385  -2.909  0.00  0.00     0.047 A 
ATOM      6  C   LIG d   1       4.789  -1.310  -3.411  0.00  0.00     0.003 A 
ATOM      7  C   LIG d   1       3.422  -1.050  -3.298  0.00  0.00    -0.052 A 
ATOM      8  C   LIG d   1       2.997   0.102  -2.700  0.00  0.00    -0.061 A 
ATOM      9  C   LIG d   1       3.914   1.017  -2.202  0.00  0.00    -0.060 A 
ATOM     10  C   LIG d   1       5.268   0.782  -2.303  0.00  0.00    -0.038 A 
ATOM     11  H   LIG d   1       7.700  -2.723  -4.094  0.00  0.00     0.081 H 
ATOM     12  H   LIG d   1       2.703  -1.759  -3.682  0.00  0.00     0.062 H 
ATOM     13  H   LIG d   1       1.940   0.302  -2.612  0.00  0.00     0.062 H 
ATOM     14  H   LIG d   1       3.564   1.924  -1.731  0.00  0.00     0.062 H 
ATOM     15  H   LIG d   1       5.974   1.501  -1.914  0.00  0.00     0.064 H 
ENDROOT
BRANCH   1  16
ATOM     16  C   LIG d   1       5.031  -3.651  -4.638  0.00  0.00    -0.017 C 
ATOM     17  H   LIG d   1       4.112  -3.957  -4.137  0.00  0.00     0.032 H 
ATOM     18  H   LIG d   1       5.767  -4.451  -4.567  0.00  0.00     0.032 H 
BRANCH  16  19
ATOM     19  C   LIG d   1       4.736  -3.357  -6.110  0.00  0.00     0.028 C 
ATOM     20  H   LIG d   1       5.667  -3.126  -6.628  0.00  0.00     0.036 H 
ATOM     21  H   LIG d   1       4.059  -2.506  -6.182  0.00  0.00     0.036 H 
BRANCH  19  22
ATOM     22  C   LIG d   1       4.095  -4.564  -6.745  0.00  0.00     0.213 C 
ATOM     23  N   LIG d   1       4.170  -4.744  -8.078  0.00  0.00    -0.318 N 
ATOM     24  H   LIG d   1       4.636  -4.097  -8.630  0.00  0.00     0.148 HD
ATOM     25  O   LIG d   1       3.511  -5.373  -6.055  0.00  0.00    -0.276 OA
BRANCH  23  26
ATOM     26  C   LIG d   1       3.546  -5.917  -8.695  0.00  0.00     0.000 C 
ATOM     27  H   LIG d   1       2.544  -5.657  -9.040  0.00  0.00     0.043 H 
ATOM     28  H   LIG d   1       4.148  -6.247  -9.542  0.00  0.00     0.043 H 
ATOM     29  H   LIG d   1       3.480  -6.721  -7.961  0.00  0.00     0.043 H 
ENDBRANCH  23  26
ENDBRANCH  19  22
ENDBRANCH  16  19
ENDBRANCH   1  16
TORSDOF 4
ENDMDL
MODEL 2
REMARK VINA RESULT:      -5.8      4.555      7.218
REMARK  4 active torsions:
REMARK  status: ('A' for Active; 'I' for Inactive)
REMARK    1  A    between atoms: C_1  and  N_2 
REMARK       I    between atoms: N_2  and  C_3 
REMARK    2  A    between atoms: C_3  and  C_5 
REMARK    3  A    between atoms: C_5  and  C_6 
REMARK    4  A    between atoms: C_6  and  C_7 
ROOT
ATOM      1  C   LIG d   1       7.482   0.827  -3.898  0.00  0.00    -0.022 A 
ATOM      2  C   LIG d   1       7.970  -0.290  -4.458  0.00  0.00     0.006 A 
ATOM      3  N   LIG d   1       7.171  -1.356  -4.143  0.00  0.00    -0.360 N 
ATOM      4  H   LIG d   1       7.322  -2.270  -4.431  0.00  0.00     0.165 HD
ATOM      5  C   LIG d   1       6.120  -0.937  -3.359  0.00  0.00     0.047 A 
ATOM      6  C   LIG d   1       6.269   0.449  -3.171  0.00  0.00     0.003 A 
ATOM      7  C   LIG d   1       5.336   1.152  -2.407  0.00  0.00    -0.052 A 
ATOM      8  C   LIG d   1       4.282   0.489  -1.844  0.00  0.00    -0.061 A 
ATOM      9  C   LIG d   1       4.130  -0.879  -2.027  0.00  0.00    -0.060 A 
ATOM     10  C   LIG d   1       5.039  -1.592  -2.777  0.00  0.00    -0.038 A 
ATOM     11  H   LIG d   1       8.861  -0.342  -5.066  0.00  0.00     0.081 H 
ATOM     12  H   LIG d   1       5.447   2.216  -2.261  0.00  0.00     0.062 H 
ATOM     13  H   LIG d   1       3.560   1.033  -1.253  0.00  0.00     0.062 H 
ATOM     14  H   LIG d   1       3.292  -1.389  -1.576  0.00  0.00     0.062 H 
ATOM     15  H   LIG d   1       4.914  -2.656  -2.913  0.00  0.00     0.064 H 
ENDROOT
BRANCH   1  16
ATOM     16  C   LIG d   1       8.070   2.212  -4.003  0.00  0.00    -0.017 C 
ATOM     17  H   LIG d   1       7.556   2.877  -3.309  0.00  0.00     0.032 H 
ATOM     18  H   LIG d   1       7.947   2.582  -5.020  0.00  0.00     0.032 H 
BRANCH  16  19
ATOM     19  C   LIG d   1       9.559   2.162  -3.654  0.00  0.00     0.028 C 
ATOM     20  H   LIG d   1      10.135   1.942  -4.553  0.00  0.00     0.036 H 
ATOM     21  H   LIG d   1       9.733   1.383  -2.912  0.00  0.00     0.036 H 
BRANCH  19  22
ATOM     22  C   LIG d   1       9.989   3.494  -3.095  0.00  0.00     0.213 C 
ATOM     23  N   LIG d   1      10.849   3.543  -2.058  0.00  0.00    -0.318 N 
ATOM     24  H   LIG d   1      11.191   2.722  -1.671  0.00  0.00     0.148 HD
ATOM     25  O   LIG d   1       9.561   4.520  -3.578  0.00  0.00    -0.276 OA
BRANCH  23  26
ATOM     26  C   LIG d   1      11.266   4.838  -1.514  0.00  0.00     0.000 C 
ATOM     27  H   LIG d   1      12.245   5.102  -1.916  0.00  0.00     0.043 H 
ATOM     28  H   LIG d   1      10.540   5.601  -1.795  0.00  0.00     0.043 H 
ATOM     29  H   LIG d   1      11.325   4.774  -0.427  0.00  0.00     0.043 H 
ENDBRANCH  23  26
ENDBRANCH  19  22
ENDBRANCH  16  19
ENDBRANCH   1  16
TORSDOF 4
ENDMDL
MODEL 3
REMARK VINA RESULT:      -5.7      2.832      4.330
REMARK  4 active torsions:
REMARK  status: ('A' for Active; 'I' for Inactive)
REMARK    1  A    between atoms: C_1  and  N_2 
REMARK       I    between atoms: N_2  and  C_3 
REMARK    2  A    between atoms: C_3  and  C_5 
REMARK    3  A    between atoms: C_5  and  C_6 
REMARK    4  A    between atoms: C_6  and  C_7 
ROOT
ATOM      1  C   LIG d   1       5.894  -2.150  -3.715  0.00  0.00    -0.022 A 
ATOM      2  C   LIG d   1       4.964  -2.979  -4.214  0.00  0.00     0.006 A 
ATOM      3  N   LIG d   1       3.717  -2.442  -4.037  0.00  0.00    -0.360 N 
ATOM      4  H   LIG d   1       2.886  -2.859  -4.314  0.00  0.00     0.165 HD
ATOM      5  C   LIG d   1       3.819  -1.221  -3.410  0.00  0.00     0.047 A 
ATOM      6  C   LIG d   1       5.187  -0.984  -3.181  0.00  0.00     0.003 A 
ATOM      7  C   LIG d   1       5.593   0.194  -2.552  0.00  0.00    -0.052 A 
ATOM      8  C   LIG d   1       4.660   1.112  -2.161  0.00  0.00    -0.061 A 
ATOM      9  C   LIG d   1       3.310   0.884  -2.385  0.00  0.00    -0.060 A 
ATOM     10  C   LIG d   1       2.886  -0.272  -3.004  0.00  0.00    -0.038 A 
ATOM     11  H   LIG d   1       5.168  -3.929  -4.685  0.00  0.00     0.081 H 
ATOM     12  H   LIG d   1       6.643   0.379  -2.375  0.00  0.00     0.062 H 
ATOM     13  H   LIG d   1       4.975   2.023  -1.675  0.00  0.00     0.062 H 
ATOM     14  H   LIG d   1       2.584   1.618  -2.071  0.00  0.00     0.062 H 
ATOM     15  H   LIG d   1       1.832  -0.441  -3.173  0.00  0.00     0.064 H 
ENDROOT
BRANCH   1  16
ATOM     16  C   LIG d   1       7.384  -2.375  -3.710  0.00  0.00    -0.017 C 
ATOM     17  H   LIG d   1       7.740  -2.429  -2.681  0.00  0.00     0.032 H 
ATOM     18  H   LIG d   1       7.877  -1.549  -4.222  0.00  0.00     0.032 H 
BRANCH  16  19
ATOM     19  C   LIG d   1       7.705  -3.686  -4.430  0.00  0.00     0.028 C 
ATOM     20  H   LIG d   1       7.782  -3.502  -5.502  0.00  0.00     0.036 H 
ATOM     21  H   LIG d   1       6.910  -4.408  -4.242  0.00  0.00     0.036 H 
BRANCH  19  22
ATOM     22  C   LIG d   1       9.013  -4.233  -3.919  0.00  0.00     0.213 C 
ATOM     23  N   LIG d   1      10.054  -3.403  -3.709  0.00  0.00    -0.318 N 
ATOM     24  H   LIG d   1       9.962  -2.454  -3.886  0.00  0.00     0.148 HD
ATOM     25  O   LIG d   1       9.128  -5.420  -3.697  0.00  0.00    -0.276 OA
BRANCH  23  26
ATOM     26  C   LIG d   1      11.326  -3.936  -3.212  0.00  0.00     0.000 C 
ATOM     27  H   LIG d   1      11.205  -4.991  -2.965  0.00  0.00     0.043 H 
ATOM     28  H   LIG d   1      12.091  -3.828  -3.981  0.00  0.00     0.043 H 
ATOM     29  H   LIG d   1      11.626  -3.386  -2.320  0.00  0.00     0.043 H 
ENDBRANCH  23  26
ENDBRANCH  19  22
ENDBRANCH  16  19
ENDBRANCH   1  16
TORSDOF 4
ENDMDL
MODEL 4
REMARK VINA RESULT:      -5.7      2.789      4.622
REMARK  4 active torsions:
REMARK  status: ('A' for Active; 'I' for Inactive)
REMARK    1  A    between atoms: C_1  and  N_2 
REMARK       I    between atoms: N_2  and  C_3 
REMARK    2  A    between atoms: C_3  and  C_5 
REMARK    3  A    between atoms: C_5  and  C_6 
REMARK    4  A    between atoms: C_6  and  C_7 
ROOT
ATOM      1  C   LIG d   1       5.956  -2.184  -3.730  0.00  0.00    -0.022 A 
ATOM      2  C   LIG d   1       5.129  -3.033  -4.360  0.00  0.00     0.006 A 
ATOM      3  N   LIG d   1       3.839  -2.590  -4.258  0.00  0.00    -0.360 N 
ATOM      4  H   LIG d   1       3.064  -3.038  -4.632  0.00  0.00     0.165 HD
ATOM      5  C   LIG d   1       3.804  -1.410  -3.548  0.00  0.00     0.047 A 
ATOM      6  C   LIG d   1       5.129  -1.105  -3.187  0.00  0.00     0.003 A 
ATOM      7  C   LIG d   1       5.401   0.050  -2.451  0.00  0.00    -0.052 A 
ATOM      8  C   LIG d   1       4.377   0.878  -2.085  0.00  0.00    -0.061 A 
ATOM      9  C   LIG d   1       3.069   0.582  -2.440  0.00  0.00    -0.060 A 
ATOM     10  C   LIG d   1       2.778  -0.553  -3.166  0.00  0.00    -0.038 A 
ATOM     11  H   LIG d   1       5.436  -3.934  -4.870  0.00  0.00     0.081 H 
ATOM     12  H   LIG d   1       6.417   0.288  -2.172  0.00  0.00     0.062 H 
ATOM     13  H   LIG d   1       4.588   1.772  -1.516  0.00  0.00     0.062 H 
ATOM     14  H   LIG d   1       2.271   1.246  -2.144  0.00  0.00     0.062 H 
ATOM     15  H   LIG d   1       1.756  -0.775  -3.437  0.00  0.00     0.064 H 
ENDROOT
BRANCH   1  16
ATOM     16  C   LIG d   1       7.452  -2.315  -3.610  0.00  0.00    -0.017 C 
ATOM     17  H   LIG d   1       7.714  -3.361  -3.450  0.00  0.00     0.032 H 
ATOM     18  H   LIG d   1       7.802  -1.720  -2.766  0.00  0.00     0.032 H 
BRANCH  16  19
ATOM     19  C   LIG d   1       8.113  -1.814  -4.896  0.00  0.00     0.028 C 
ATOM     20  H   LIG d   1       7.599  -2.239  -5.758  0.00  0.00     0.036 H 
ATOM     21  H   LIG d   1       9.160  -2.120  -4.910  0.00  0.00     0.036 H 
BRANCH  19  22
ATOM     22  C   LIG d   1       8.029  -0.310  -4.952  0.00  0.00     0.213 C 
ATOM     23  N   LIG d   1       8.612   0.433  -3.991  0.00  0.00    -0.318 N 
ATOM     24  H   LIG d   1       9.086   0.002  -3.263  0.00  0.00     0.148 HD
ATOM     25  O   LIG d   1       7.436   0.229  -5.862  0.00  0.00    -0.276 OA
BRANCH  23  26
ATOM     26  C   LIG d   1       8.529   1.895  -4.046  0.00  0.00     0.000 C 
ATOM     27  H   LIG d   1       9.327   2.327  -3.441  0.00  0.00     0.043 H 
ATOM     28  H   LIG d   1       8.635   2.227  -5.078  0.00  0.00     0.043 H 
ATOM     29  H   LIG d   1       7.563   2.219  -3.657  0.00  0.00     0.043 H 
ENDBRANCH  23  26
ENDBRANCH  19  22
ENDBRANCH  16  19
ENDBRANCH   1  16
TORSDOF 4
ENDMDL
MODEL 5
REMARK VINA RESULT:      -5.5      1.601      1.952
REMARK  4 active torsions:
REMARK  status: ('A' for Active; 'I' for Inactive)
REMARK    1  A    between atoms: C_1  and  N_2 
REMARK       I    between atoms: N_2  and  C_3 
REMARK    2  A    between atoms: C_3  and  C_5 
REMARK    3  A    between atoms: C_5  and  C_6 
REMARK    4  A    between atoms: C_6  and  C_7 
ROOT
ATOM      1  C   LIG d   1       5.017  -1.726  -5.256  0.00  0.00    -0.022 A 
ATOM      2  C   LIG d   1       4.459  -1.043  -6.267  0.00  0.00     0.006 A 
ATOM      3  N   LIG d   1       3.788   0.046  -5.779  0.00  0.00    -0.360 N 
ATOM      4  H   LIG d   1       3.303   0.689  -6.319  0.00  0.00     0.165 HD
ATOM      5  C   LIG d   1       3.908   0.093  -4.408  0.00  0.00     0.047 A 
ATOM      6  C   LIG d   1       4.683  -1.015  -4.021  0.00  0.00     0.003 A 
ATOM      7  C   LIG d   1       4.970  -1.225  -2.671  0.00  0.00    -0.052 A 
ATOM      8  C   LIG d   1       4.496  -0.353  -1.732  0.00  0.00    -0.061 A 
ATOM      9  C   LIG d   1       3.732   0.742  -2.109  0.00  0.00    -0.060 A 
ATOM     10  C   LIG d   1       3.435   0.969  -3.436  0.00  0.00    -0.038 A 
ATOM     11  H   LIG d   1       4.528  -1.311  -7.311  0.00  0.00     0.081 H 
ATOM     12  H   LIG d   1       5.565  -2.075  -2.370  0.00  0.00     0.062 H 
ATOM     13  H   LIG d   1       4.719  -0.516  -0.688  0.00  0.00     0.062 H 
ATOM     14  H   LIG d   1       3.364   1.423  -1.356  0.00  0.00     0.062 H 
ATOM     15  H   LIG d   1       2.839   1.823  -3.720  0.00  0.00     0.064 H 
ENDROOT
BRANCH   1  16
ATOM     16  C   LIG d   1       5.838  -2.985  -5.371  0.00  0.00    -0.017 C 
ATOM     17  H   LIG d   1       6.684  -2.932  -4.686  0.00  0.00     0.032 H 
ATOM     18  H   LIG d   1       6.204  -3.088  -6.392  0.00  0.00     0.032 H 
BRANCH  16  19
ATOM     19  C   LIG d   1       4.970  -4.194  -5.016  0.00  0.00     0.028 C 
ATOM     20  H   LIG d   1       4.163  -3.880  -4.354  0.00  0.00     0.036 H 
ATOM     21  H   LIG d   1       5.580  -4.945  -4.514  0.00  0.00     0.036 H 
BRANCH  19  22
ATOM     22  C   LIG d   1       4.387  -4.782  -6.276  0.00  0.00     0.213 C 
ATOM     23  N   LIG d   1       5.039  -4.644  -7.448  0.00  0.00    -0.318 N 
ATOM     24  H   LIG d   1       5.883  -4.168  -7.481  0.00  0.00     0.148 HD
ATOM     25  O   LIG d   1       3.332  -5.378  -6.234  0.00  0.00    -0.276 OA
BRANCH  23  26
ATOM     26  C   LIG d   1       4.471  -5.215  -8.672  0.00  0.00     0.000 C 
ATOM     27  H   LIG d   1       4.583  -4.504  -9.491  0.00  0.00     0.043 H 
ATOM     28  H   LIG d   1       4.994  -6.139  -8.919  0.00  0.00     0.043 H 
ATOM     29  H   LIG d   1       3.413  -5.427  -8.517  0.00  0.00     0.043 H 
ENDBRANCH  23  26
ENDBRANCH  19  22
ENDBRANCH  16  19
ENDBRANCH   1  16
TORSDOF 4
ENDMDL
MODEL 6
REMARK VINA RESULT:      -5.5      3.752      3.993
REMARK  4 active torsions:
REMARK  status: ('A' for Active; 'I' for Inactive)
REMARK    1  A    between atoms: C_1  and  N_2 
REMARK       I    between atoms: N_2  and  C_3 
REMARK    2  A    between atoms: C_3  and  C_5 
REMARK    3  A    between atoms: C_5  and  C_6 
REMARK    4  A    between atoms: C_6  and  C_7 
ROOT
ATOM      1  C   LIG d   1       4.755  -0.493  -5.976  0.00  0.00    -0.022 A 
ATOM      2  C   LIG d   1       6.056  -0.192  -6.114  0.00  0.00     0.006 A 
ATOM      3  N   LIG d   1       6.550   0.289  -4.931  0.00  0.00    -0.360 N 
ATOM      4  H   LIG d   1       7.466   0.575  -4.785  0.00  0.00     0.165 HD
ATOM      5  C   LIG d   1       5.556   0.301  -3.979  0.00  0.00     0.047 A 
ATOM      6  C   LIG d   1       4.388  -0.188  -4.592  0.00  0.00     0.003 A 
ATOM      7  C   LIG d   1       3.206  -0.289  -3.856  0.00  0.00    -0.052 A 
ATOM      8  C   LIG d   1       3.189   0.090  -2.543  0.00  0.00    -0.061 A 
ATOM      9  C   LIG d   1       4.339   0.572  -1.934  0.00  0.00    -0.060 A 
ATOM     10  C   LIG d   1       5.517   0.680  -2.641  0.00  0.00    -0.038 A 
ATOM     11  H   LIG d   1       6.627  -0.309  -7.022  0.00  0.00     0.081 H 
ATOM     12  H   LIG d   1       2.308  -0.664  -4.324  0.00  0.00     0.062 H 
ATOM     13  H   LIG d   1       2.274   0.011  -1.974  0.00  0.00     0.062 H 
ATOM     14  H   LIG d   1       4.311   0.866  -0.896  0.00  0.00     0.062 H 
ATOM     15  H   LIG d   1       6.406   1.058  -2.158  0.00  0.00     0.064 H 
ENDROOT
BRANCH   1  16
ATOM     16  C   LIG d   1       3.846  -1.046  -7.044  0.00  0.00    -0.017 C 
ATOM     17  H   LIG d   1       3.364  -1.953  -6.677  0.00  0.00     0.032 H 
ATOM     18  H   LIG d   1       4.431  -1.281  -7.933  0.00  0.00     0.032 H 
BRANCH  16  19
ATOM     19  C   LIG d   1       2.779  -0.008  -7.394  0.00  0.00     0.028 C 
ATOM     20  H   LIG d   1       2.550   0.589  -6.511  0.00  0.00     0.036 H 
ATOM     21  H   LIG d   1       1.875  -0.515  -7.733  0.00  0.00     0.036 H 
BRANCH  19  22
ATOM     22  C   LIG d   1       3.292   0.891  -8.489  0.00  0.00     0.213 C 
ATOM     23  N   LIG d   1       3.442   0.411  -9.739  0.00  0.00    -0.318 N 
ATOM     24  H   LIG d   1       3.219  -0.512  -9.935  0.00  0.00     0.148 HD
ATOM     25  O   LIG d   1       3.570   2.046  -8.244  0.00  0.00    -0.276 OA
BRANCH  23  26
ATOM     26  C   LIG d   1       3.941   1.286 -10.804  0.00  0.00     0.000 C 
ATOM     27  H   LIG d   1       3.650   2.316 -10.594  0.00  0.00     0.043 H 
ATOM     28  H   LIG d   1       5.028   1.217 -10.851  0.00  0.00     0.043 H 
ATOM     29  H   LIG d   1       3.515   0.975 -11.758  0.00  0.00     0.043 H 
ENDBRANCH  23  26
ENDBRANCH  19  22
ENDBRANCH  16  19
ENDBRANCH   1  16
TORSDOF 4
ENDMDL
MODEL 7
REMARK VINA RESULT:      -5.3      4.070      4.638
REMARK  4 active torsions:
REMARK  status: ('A' for Active; 'I' for Inactive)
REMARK    1  A    between atoms: C_1  and  N_2 
REMARK       I    between atoms: N_2  and  C_3 
REMARK    2  A    between atoms: C_3  and  C_5 
REMARK    3  A    between atoms: C_5  and  C_6 
REMARK    4  A    between atoms: C_6  and  C_7 
ROOT
ATOM      1  C   LIG d   1       4.047  -0.568  -6.212  0.00  0.00    -0.022 A 
ATOM      2  C   LIG d   1       2.886   0.102  -6.259  0.00  0.00     0.006 A 
ATOM      3  N   LIG d   1       2.362   0.214  -4.999  0.00  0.00    -0.360 N 
ATOM      4  H   LIG d   1       1.526   0.656  -4.781  0.00  0.00     0.165 HD
ATOM      5  C   LIG d   1       3.199  -0.391  -4.089  0.00  0.00     0.047 A 
ATOM      6  C   LIG d   1       4.291  -0.907  -4.809  0.00  0.00     0.003 A 
ATOM      7  C   LIG d   1       5.311  -1.582  -4.136  0.00  0.00    -0.052 A 
ATOM      8  C   LIG d   1       5.243  -1.738  -2.780  0.00  0.00    -0.061 A 
ATOM      9  C   LIG d   1       4.168  -1.229  -2.065  0.00  0.00    -0.060 A 
ATOM     10  C   LIG d   1       3.150  -0.560  -2.709  0.00  0.00    -0.038 A 
ATOM     11  H   LIG d   1       2.431   0.494  -7.156  0.00  0.00     0.081 H 
ATOM     12  H   LIG d   1       6.152  -1.980  -4.686  0.00  0.00     0.062 H 
ATOM     13  H   LIG d   1       6.033  -2.259  -2.260  0.00  0.00     0.062 H 
ATOM     14  H   LIG d   1       4.128  -1.359  -0.994  0.00  0.00     0.062 H 
ATOM     15  H   LIG d   1       2.316  -0.169  -2.144  0.00  0.00     0.064 H 
ENDROOT
BRANCH   1  16
ATOM     16  C   LIG d   1       4.935  -0.904  -7.383  0.00  0.00    -0.017 C 
ATOM     17  H   LIG d   1       4.319  -1.165  -8.243  0.00  0.00     0.032 H 
ATOM     18  H   LIG d   1       5.573  -1.748  -7.124  0.00  0.00     0.032 H 
BRANCH  16  19
ATOM     19  C   LIG d   1       5.805   0.307  -7.727  0.00  0.00     0.028 C 
ATOM     20  H   LIG d   1       6.797  -0.032  -8.028  0.00  0.00     0.036 H 
ATOM     21  H   LIG d   1       5.892   0.953  -6.853  0.00  0.00     0.036 H 
BRANCH  19  22
ATOM     22  C   LIG d   1       5.173   1.075  -8.859  0.00  0.00     0.213 C 
ATOM     23  N   LIG d   1       4.589   0.413  -9.878  0.00  0.00    -0.318 N 
ATOM     24  H   LIG d   1       4.576  -0.556  -9.884  0.00  0.00     0.148 HD
ATOM     25  O   LIG d   1       5.190   2.287  -8.852  0.00  0.00    -0.276 OA
BRANCH  23  26
ATOM     26  C   LIG d   1       3.975   1.160 -10.979  0.00  0.00     0.000 C 
ATOM     27  H   LIG d   1       4.740   1.425 -11.710  0.00  0.00     0.043 H 
ATOM     28  H   LIG d   1       3.213   0.544 -11.457  0.00  0.00     0.043 H 
ATOM     29  H   LIG d   1       3.516   2.069 -10.589  0.00  0.00     0.043 H 
ENDBRANCH  23  26
ENDBRANCH  19  22
ENDBRANCH  16  19
ENDBRANCH   1  16
TORSDOF 4
ENDMDL
MODEL 8
REMARK VINA RESULT:      -5.2      3.504      3.988
REMARK  4 active torsions:
REMARK  status: ('A' for Active; 'I' for Inactive)
REMARK    1  A    between atoms: C_1  and  N_2 
REMARK       I    between atoms: N_2  and  C_3 
REMARK    2  A    between atoms: C_3  and  C_5 
REMARK    3  A    between atoms: C_5  and  C_6 
REMARK    4  A    between atoms: C_6  and  C_7 
ROOT
ATOM      1  C   LIG d   1       3.302  -0.124  -5.968  0.00  0.00    -0.022 A 
ATOM      2  C   LIG d   1       2.768   1.083  -5.726  0.00  0.00     0.006 A 
ATOM      3  N   LIG d   1       2.801   1.347  -4.384  0.00  0.00    -0.360 N 
ATOM      4  H   LIG d   1       2.469   2.158  -3.967  0.00  0.00     0.165 HD
ATOM      5  C   LIG d   1       3.379   0.293  -3.713  0.00  0.00     0.047 A 
ATOM      6  C   LIG d   1       3.718  -0.675  -4.676  0.00  0.00     0.003 A 
ATOM      7  C   LIG d   1       4.327  -1.867  -4.280  0.00  0.00    -0.052 A 
ATOM      8  C   LIG d   1       4.591  -2.088  -2.958  0.00  0.00    -0.061 A 
ATOM      9  C   LIG d   1       4.259  -1.136  -2.004  0.00  0.00    -0.060 A 
ATOM     10  C   LIG d   1       3.656   0.047  -2.372  0.00  0.00    -0.038 A 
ATOM     11  H   LIG d   1       2.370   1.747  -6.479  0.00  0.00     0.081 H 
ATOM     12  H   LIG d   1       4.590  -2.612  -5.017  0.00  0.00     0.062 H 
ATOM     13  H   LIG d   1       5.062  -3.010  -2.652  0.00  0.00     0.062 H 
ATOM     14  H   LIG d   1       4.473  -1.325  -0.963  0.00  0.00     0.062 H 
ATOM     15  H   LIG d   1       3.400   0.782  -1.623  0.00  0.00     0.064 H 
ENDROOT
BRANCH   1  16
ATOM     16  C   LIG d   1       3.451  -0.785  -7.314  0.00  0.00    -0.017 C 
ATOM     17  H   LIG d   1       3.251  -1.852  -7.219  0.00  0.00     0.032 H 
ATOM     18  H   LIG d   1       4.467  -0.638  -7.680  0.00  0.00     0.032 H 
BRANCH  16  19
ATOM     19  C   LIG d   1       2.459  -0.165  -8.300  0.00  0.00     0.028 C 
ATOM     20  H   LIG d   1       2.889   0.741  -8.728  0.00  0.00     0.036 H 
ATOM     21  H   LIG d   1       1.535   0.085  -7.777  0.00  0.00     0.036 H 
BRANCH  19  22
ATOM     22  C   LIG d   1       2.163  -1.149  -9.402  0.00  0.00     0.213 C 
ATOM     23  N   LIG d   1       1.457  -0.759 -10.482  0.00  0.00    -0.318 N 
ATOM     24  H   LIG d   1       1.139   0.154 -10.550  0.00  0.00     0.148 HD
ATOM     25  O   LIG d   1       2.560  -2.292  -9.316  0.00  0.00    -0.276 OA
BRANCH  23  26
ATOM     26  C   LIG d   1       1.169  -1.717 -11.553  0.00  0.00     0.000 C 
ATOM     27  H   LIG d   1       1.468  -2.717 -11.235  0.00  0.00     0.043 H 
ATOM     28  H   LIG d   1       0.101  -1.709 -11.771  0.00  0.00     0.043 H 
ATOM     29  H   LIG d   1       1.726  -1.439 -12.448  0.00  0.00     0.043 H 
ENDBRANCH  23  26
ENDBRANCH  19  22
ENDBRANCH  16  19
ENDBRANCH   1  16
TORSDOF 4
ENDMDL
MODEL 9
REMARK VINA RESULT:      -5.1      3.692      4.392
REMARK  4 active torsions:
REMARK  status: ('A' for Active; 'I' for Inactive)
REMARK    1  A    between atoms: C_1  and  N_2 
REMARK       I    between atoms: N_2  and  C_3 
REMARK    2  A    between atoms: C_3  and  C_5 
REMARK    3  A    between atoms: C_5  and  C_6 
REMARK    4  A    between atoms: C_6  and  C_7 
ROOT
ATOM      1  C   LIG d   1       6.895  -1.162  -3.556  0.00  0.00    -0.022 A 
ATOM      2  C   LIG d   1       7.384   0.062  -3.805  0.00  0.00     0.006 A 
ATOM      3  N   LIG d   1       6.393   0.996  -3.670  0.00  0.00    -0.360 N 
ATOM      4  H   LIG d   1       6.504   1.951  -3.803  0.00  0.00     0.165 HD
ATOM      5  C   LIG d   1       5.214   0.380  -3.315  0.00  0.00     0.047 A 
ATOM      6  C   LIG d   1       5.477  -0.999  -3.228  0.00  0.00     0.003 A 
ATOM      7  C   LIG d   1       4.453  -1.883  -2.881  0.00  0.00    -0.052 A 
ATOM      8  C   LIG d   1       3.199  -1.402  -2.629  0.00  0.00    -0.061 A 
ATOM      9  C   LIG d   1       2.934  -0.043  -2.713  0.00  0.00    -0.060 A 
ATOM     10  C   LIG d   1       3.930   0.847  -3.054  0.00  0.00    -0.038 A 
ATOM     11  H   LIG d   1       8.407   0.279  -4.073  0.00  0.00     0.081 H 
ATOM     12  H   LIG d   1       4.651  -2.942  -2.813  0.00  0.00     0.062 H 
ATOM     13  H   LIG d   1       2.407  -2.086  -2.360  0.00  0.00     0.062 H 
ATOM     14  H   LIG d   1       1.939   0.322  -2.510  0.00  0.00     0.062 H 
ATOM     15  H   LIG d   1       3.714   1.904  -3.118  0.00  0.00     0.064 H 
ENDROOT
BRANCH   1  16
ATOM     16  C   LIG d   1       7.661  -2.459  -3.599  0.00  0.00    -0.017 C 
ATOM     17  H   LIG d   1       7.019  -3.272  -3.261  0.00  0.00     0.032 H 
ATOM     18  H   LIG d   1       8.532  -2.389  -2.948  0.00  0.00     0.032 H 
BRANCH  16  19
ATOM     19  C   LIG d   1       8.119  -2.734  -5.034  0.00  0.00     0.028 C 
ATOM     20  H   LIG d   1       7.829  -1.899  -5.673  0.00  0.00     0.036 H 
ATOM     21  H   LIG d   1       7.649  -3.649  -5.396  0.00  0.00     0.036 H 
BRANCH  19  22
ATOM     22  C   LIG d   1       9.617  -2.892  -5.062  0.00  0.00     0.213 C 
ATOM     23  N   LIG d   1      10.321  -2.849  -3.913  0.00  0.00    -0.318 N 
ATOM     24  H   LIG d   1       9.864  -2.716  -3.068  0.00  0.00     0.148 HD
ATOM     25  O   LIG d   1      10.189  -3.058  -6.118  0.00  0.00    -0.276 OA
BRANCH  23  26
ATOM     26  C   LIG d   1      11.778  -3.002  -3.941  0.00  0.00     0.000 C 
ATOM     27  H   LIG d   1      12.248  -2.021  -3.871  0.00  0.00     0.043 H 
ATOM     28  H   LIG d   1      12.095  -3.619  -3.100  0.00  0.00     0.043 H 
ATOM     29  H   LIG d   1      12.074  -3.481  -4.875  0.00  0.00     0.043 H 
ENDBRANCH  23  26
ENDBRANCH  19  22
ENDBRANCH  16  19
ENDBRANCH   1  16
TORSDOF 4
ENDMDL
MODEL 10
REMARK VINA RESULT:      -5.1      4.707      6.613
REMARK  4 active torsions:
REMARK  status: ('A' for Active; 'I' for Inactive)
REMARK    1  A    between atoms: C_1  and  N_2 
REMARK       I    between atoms: N_2  and  C_3 
REMARK    2  A    between atoms: C_3  and  C_5 
REMARK    3  A    between atoms: C_5  and  C_6 
REMARK    4  A    between atoms: C_6  and  C_7 
ROOT
ATOM      1  C   LIG d   1       7.445   0.751  -3.954  0.00  0.00    -0.022 A 
ATOM      2  C   LIG d   1       7.945  -0.363  -4.511  0.00  0.00     0.006 A 
ATOM      3  N   LIG d   1       7.176  -1.442  -4.166  0.00  0.00    -0.360 N 
ATOM      4  H   LIG d   1       7.340  -2.356  -4.447  0.00  0.00     0.165 HD
ATOM      5  C   LIG d   1       6.132  -1.035  -3.366  0.00  0.00     0.047 A 
ATOM      6  C   LIG d   1       6.255   0.356  -3.197  0.00  0.00     0.003 A 
ATOM      7  C   LIG d   1       5.323   1.048  -2.422  0.00  0.00    -0.052 A 
ATOM      8  C   LIG d   1       4.296   0.369  -1.829  0.00  0.00    -0.061 A 
ATOM      9  C   LIG d   1       4.170  -1.003  -1.992  0.00  0.00    -0.060 A 
ATOM     10  C   LIG d   1       5.078  -1.706  -2.753  0.00  0.00    -0.038 A 
ATOM     11  H   LIG d   1       8.824  -0.403  -5.137  0.00  0.00     0.081 H 
ATOM     12  H   LIG d   1       5.415   2.116  -2.291  0.00  0.00     0.062 H 
ATOM     13  H   LIG d   1       3.575   0.906  -1.229  0.00  0.00     0.062 H 
ATOM     14  H   LIG d   1       3.352  -1.525  -1.518  0.00  0.00     0.062 H 
ATOM     15  H   LIG d   1       4.973  -2.774  -2.874  0.00  0.00     0.064 H 
ENDROOT
BRANCH   1  16
ATOM     16  C   LIG d   1       8.000   2.146  -4.087  0.00  0.00    -0.017 C 
ATOM     17  H   LIG d   1       8.758   2.310  -3.321  0.00  0.00     0.032 H 
ATOM     18  H   LIG d   1       7.196   2.870  -3.963  0.00  0.00     0.032 H 
BRANCH  16  19
ATOM     19  C   LIG d   1       8.630   2.315  -5.471  0.00  0.00     0.028 C 
ATOM     20  H   LIG d   1       7.856   2.233  -6.235  0.00  0.00     0.036 H 
ATOM     21  H   LIG d   1       9.378   1.538  -5.628  0.00  0.00     0.036 H 
BRANCH  19  22
ATOM     22  C   LIG d   1       9.285   3.669  -5.564  0.00  0.00     0.213 C 
ATOM     23  N   LIG d   1       9.794   4.092  -6.738  0.00  0.00    -0.318 N 
ATOM     24  H   LIG d   1       9.739   3.526  -7.523  0.00  0.00     0.148 HD
ATOM     25  O   LIG d   1       9.353   4.377  -4.582  0.00  0.00    -0.276 OA
BRANCH  23  26
ATOM     26  C   LIG d   1      10.431   5.409  -6.827  0.00  0.00     0.000 C 
ATOM     27  H   LIG d   1      11.515   5.288  -6.832  0.00  0.00     0.043 H 
ATOM     28  H   LIG d   1      10.116   5.904  -7.746  0.00  0.00     0.043 H 
ATOM     29  H   LIG d   1      10.137   6.013  -5.969  0.00  0.00     0.043 H 
ENDBRANCH  23  26
ENDBRANCH  19  22
ENDBRANCH  16  19
ENDBRANCH   1  16
TORSDOF 4
ENDMDL
