MODEL 1
REMARK VINA RESULT:      -6.3      0.000      0.000
REMARK  11 active torsions:
REMARK  status: ('A' for Active; 'I' for Inactive)
REMARK    1  A    between atoms: C_1  and  C_2 
REMARK    2  A    between atoms: C_2  and  O_3 
REMARK    3  A    between atoms: O_3  and  C_4 
REMARK    4  A    between atoms: C_4  and  C_6 
REMARK    5  A    between atoms: C_6  and  C_7 
REMARK    6  A    between atoms: C_7  and  C_8 
REMARK    7  A    between atoms: C_9  and  C_29 
REMARK    8  A    between atoms: C_13  and  O_20 
REMARK    9  A    between atoms: C_14  and  C_19 
REMARK   10  A    between atoms: O_20  and  C_21 
REMARK   11  A    between atoms: C_21  and  C_22 
ROOT
ATOM      1  C   LIG d   1       5.636  -1.567  -4.125  0.00  0.00     0.041 A 
ATOM      2  C   LIG d   1       6.221  -0.572  -4.842  0.00  0.00    -0.030 A 
ATOM      3  C   LIG d   1       6.102  -0.610  -6.300  0.00  0.00     0.021 A 
ATOM      4  C   LIG d   1       6.682   0.386  -7.096  0.00  0.00    -0.047 A 
ATOM      5  C   LIG d   1       6.557   0.326  -8.454  0.00  0.00    -0.019 A 
ATOM      6  C   LIG d   1       5.855  -0.718  -9.053  0.00  0.00     0.127 A 
ATOM      7  C   LIG d   1       5.275  -1.712  -8.281  0.00  0.00     0.034 A 
ATOM      8  C   LIG d   1       5.393  -1.667  -6.900  0.00  0.00     0.146 A 
ATOM      9  O   LIG d   1       4.836  -2.625  -6.129  0.00  0.00    -0.422 OA
ATOM     10  C   LIG d   1       4.941  -2.597  -4.791  0.00  0.00     0.341 A 
ATOM     11  O   LIG d   1       4.422  -3.482  -4.136  0.00  0.00    -0.245 OA
ATOM     12  H   LIG d   1       7.225   1.198  -6.638  0.00  0.00     0.063 H 
ATOM     13  H   LIG d   1       7.004   1.094  -9.068  0.00  0.00     0.065 H 
ENDROOT
BRANCH   1  14
ATOM     14  C   LIG d   1       5.733  -1.572  -2.621  0.00  0.00    -0.011 C 
ATOM     15  H   LIG d   1       6.046  -2.560  -2.280  0.00  0.00     0.032 H 
ATOM     16  H   LIG d   1       6.463  -0.829  -2.300  0.00  0.00     0.032 H 
BRANCH  14  17
ATOM     17  C   LIG d   1       4.367  -1.234  -2.020  0.00  0.00     0.049 C 
ATOM     18  H   LIG d   1       3.584  -1.713  -2.607  0.00  0.00     0.038 H 
ATOM     19  H   LIG d   1       4.323  -1.596  -0.992  0.00  0.00     0.038 H 
BRANCH  17  20
ATOM     20  C   LIG d   1       4.166   0.260  -2.036  0.00  0.00     0.307 C 
ATOM     21  O   LIG d   1       4.829   0.966  -1.314  0.00  0.00    -0.251 OA
BRANCH  20  22
ATOM     22  O   LIG d   1       3.252   0.804  -2.855  0.00  0.00    -0.465 OA
BRANCH  22  23
ATOM     23  C   LIG d   1       2.518  -0.103  -3.719  0.00  0.00     0.090 C 
ATOM     24  H   LIG d   1       2.954  -1.100  -3.653  0.00  0.00     0.069 H 
ATOM     25  H   LIG d   1       1.475  -0.143  -3.404  0.00  0.00     0.069 H 
BRANCH  23  26
ATOM     26  C   LIG d   1       2.596   0.393  -5.164  0.00  0.00    -0.031 C 
ATOM     27  H   LIG d   1       2.377   1.460  -5.194  0.00  0.00     0.026 H 
ATOM     28  H   LIG d   1       3.598   0.217  -5.555  0.00  0.00     0.026 H 
ATOM     29  H   LIG d   1       1.868  -0.144  -5.772  0.00  0.00     0.026 H 
ENDBRANCH  23  26
ENDBRANCH  22  23
ENDBRANCH  20  22
ENDBRANCH  17  20
ENDBRANCH  14  17
ENDBRANCH   1  14
BRANCH   2  30
ATOM     30  C   LIG d   1       6.971   0.539  -4.154  0.00  0.00    -0.039 C 
ATOM     31  H   LIG d   1       7.086   0.300  -3.096  0.00  0.00     0.028 H 
ATOM     32  H   LIG d   1       7.954   0.651  -4.611  0.00  0.00     0.028 H 
ATOM     33  H   LIG d   1       6.415   1.471  -4.257  0.00  0.00     0.028 H 
ENDBRANCH   2  30
BRANCH   7  34
ATOM     34  C   LIG d   1       4.519  -2.837  -8.939  0.00  0.00    -0.033 C 
ATOM     35  H   LIG d   1       3.556  -2.468  -9.293  0.00  0.00     0.028 H 
ATOM     36  H   LIG d   1       5.094  -3.216  -9.784  0.00  0.00     0.028 H 
ATOM     37  H   LIG d   1       4.359  -3.638  -8.218  0.00  0.00     0.028 H 
ENDBRANCH   7  34
BRANCH   6  38
ATOM     38  O   LIG d   1       5.740  -0.764 -10.405  0.00  0.00    -0.487 OA
BRANCH  38  39
ATOM     39  C   LIG d   1       4.913   0.227 -11.020  0.00  0.00     0.116 C 
ATOM     40  H   LIG d   1       4.826   1.088 -10.358  0.00  0.00     0.075 H 
ATOM     41  H   LIG d   1       5.361   0.537 -11.964  0.00  0.00     0.075 H 
BRANCH  39  42
ATOM     42  C   LIG d   1       3.546  -0.351 -11.278  0.00  0.00     0.004 A 
ATOM     43  C   LIG d   1       2.493  -0.036 -10.439  0.00  0.00     0.024 A 
ATOM     44  C   LIG d   1       1.237  -0.566 -10.675  0.00  0.00    -0.047 A 
ATOM     45 BR   LIG d   1       2.769   1.121  -8.968  0.00  0.00    -0.050 Br
ATOM     46  C   LIG d   1       1.036  -1.411 -11.750  0.00  0.00    -0.061 A 
ATOM     47  H   LIG d   1       0.414  -0.320 -10.020  0.00  0.00     0.063 H 
ATOM     48  C   LIG d   1       2.088  -1.726 -12.589  0.00  0.00    -0.061 A 
ATOM     49  H   LIG d   1       0.056  -1.825 -11.935  0.00  0.00     0.062 H 
ATOM     50  C   LIG d   1       3.342  -1.192 -12.356  0.00  0.00    -0.054 A 
ATOM     51  H   LIG d   1       1.931  -2.386 -13.429  0.00  0.00     0.062 H 
ATOM     52  H   LIG d   1       4.163  -1.435 -13.013  0.00  0.00     0.062 H 
ENDBRANCH  39  42
ENDBRANCH  38  39
ENDBRANCH   6  38
TORSDOF 11
ENDMDL
MODEL 2
REMARK VINA RESULT:      -6.1      1.648      2.560
REMARK  11 active torsions:
REMARK  status: ('A' for Active; 'I' for Inactive)
REMARK    1  A    between atoms: C_1  and  C_2 
REMARK    2  A    between atoms: C_2  and  O_3 
REMARK    3  A    between atoms: O_3  and  C_4 
REMARK    4  A    between atoms: C_4  and  C_6 
REMARK    5  A    between atoms: C_6  and  C_7 
REMARK    6  A    between atoms: C_7  and  C_8 
REMARK    7  A    between atoms: C_9  and  C_29 
REMARK    8  A    between atoms: C_13  and  O_20 
REMARK    9  A    between atoms: C_14  and  C_19 
REMARK   10  A    between atoms: O_20  and  C_21 
REMARK   11  A    between atoms: C_21  and  C_22 
ROOT
ATOM      1  C   LIG d   1       3.557  -1.181  -4.276  0.00  0.00     0.041 A 
ATOM      2  C   LIG d   1       3.204  -0.153  -5.091  0.00  0.00    -0.030 A 
ATOM      3  C   LIG d   1       3.608  -0.215  -6.497  0.00  0.00     0.021 A 
ATOM      4  C   LIG d   1       3.276   0.813  -7.388  0.00  0.00    -0.047 A 
ATOM      5  C   LIG d   1       3.667   0.731  -8.694  0.00  0.00    -0.019 A 
ATOM      6  C   LIG d   1       4.392  -0.370  -9.145  0.00  0.00     0.127 A 
ATOM      7  C   LIG d   1       4.730  -1.396  -8.277  0.00  0.00     0.034 A 
ATOM      8  C   LIG d   1       4.342  -1.328  -6.947  0.00  0.00     0.146 A 
ATOM      9  O   LIG d   1       4.661  -2.316  -6.085  0.00  0.00    -0.422 OA
ATOM     10  C   LIG d   1       4.293  -2.266  -4.795  0.00  0.00     0.341 A 
ATOM     11  O   LIG d   1       4.603  -3.181  -4.053  0.00  0.00    -0.245 OA
ATOM     12  H   LIG d   1       2.712   1.667  -7.044  0.00  0.00     0.063 H 
ATOM     13  H   LIG d   1       3.410   1.523  -9.381  0.00  0.00     0.065 H 
ENDROOT
BRANCH   1  14
ATOM     14  C   LIG d   1       3.164  -1.161  -2.821  0.00  0.00    -0.011 C 
ATOM     15  H   LIG d   1       2.409  -0.391  -2.660  0.00  0.00     0.032 H 
ATOM     16  H   LIG d   1       2.758  -2.133  -2.541  0.00  0.00     0.032 H 
BRANCH  14  17
ATOM     17  C   LIG d   1       4.395  -0.857  -1.964  0.00  0.00     0.049 C 
ATOM     18  H   LIG d   1       4.199  -1.146  -0.933  0.00  0.00     0.038 H 
ATOM     19  H   LIG d   1       5.249  -1.419  -2.344  0.00  0.00     0.038 H 
BRANCH  17  20
ATOM     20  C   LIG d   1       4.697   0.618  -2.025  0.00  0.00     0.307 C 
ATOM     21  O   LIG d   1       3.915   1.415  -1.562  0.00  0.00    -0.251 OA
BRANCH  20  22
ATOM     22  O   LIG d   1       5.836   1.047  -2.592  0.00  0.00    -0.465 OA
BRANCH  22  23
ATOM     23  C   LIG d   1       6.711   0.035  -3.158  0.00  0.00     0.090 C 
ATOM     24  H   LIG d   1       7.672   0.058  -2.645  0.00  0.00     0.069 H 
ATOM     25  H   LIG d   1       6.257  -0.948  -3.034  0.00  0.00     0.069 H 
BRANCH  23  26
ATOM     26  C   LIG d   1       6.921   0.317  -4.647  0.00  0.00    -0.031 C 
ATOM     27  H   LIG d   1       6.600  -0.545  -5.228  0.00  0.00     0.026 H 
ATOM     28  H   LIG d   1       6.336   1.190  -4.938  0.00  0.00     0.026 H 
ATOM     29  H   LIG d   1       7.978   0.509  -4.834  0.00  0.00     0.026 H 
ENDBRANCH  23  26
ENDBRANCH  22  23
ENDBRANCH  20  22
ENDBRANCH  17  20
ENDBRANCH  14  17
ENDBRANCH   1  14
BRANCH   2  30
ATOM     30  C   LIG d   1       2.418   1.019  -4.562  0.00  0.00    -0.039 C 
ATOM     31  H   LIG d   1       2.287   1.756  -5.354  0.00  0.00     0.028 H 
ATOM     32  H   LIG d   1       1.441   0.676  -4.219  0.00  0.00     0.028 H 
ATOM     33  H   LIG d   1       2.956   1.471  -3.730  0.00  0.00     0.028 H 
ENDBRANCH   2  30
BRANCH   7  34
ATOM     34  C   LIG d   1       5.515  -2.581  -8.776  0.00  0.00    -0.033 C 
ATOM     35  H   LIG d   1       4.940  -3.493  -8.612  0.00  0.00     0.028 H 
ATOM     36  H   LIG d   1       5.713  -2.463  -9.842  0.00  0.00     0.028 H 
ATOM     37  H   LIG d   1       6.460  -2.644  -8.236  0.00  0.00     0.028 H 
ENDBRANCH   7  34
BRANCH   6  38
ATOM     38  O   LIG d   1       4.774  -0.437 -10.446  0.00  0.00    -0.487 OA
BRANCH  38  39
ATOM     39  C   LIG d   1       3.990   0.296 -11.391  0.00  0.00     0.116 C 
ATOM     40  H   LIG d   1       3.449   1.090 -10.875  0.00  0.00     0.075 H 
ATOM     41  H   LIG d   1       4.646   0.733 -12.144  0.00  0.00     0.075 H 
BRANCH  39  42
ATOM     42  C   LIG d   1       3.008  -0.633 -12.057  0.00  0.00     0.004 A 
ATOM     43  C   LIG d   1       3.319  -1.210 -13.274  0.00  0.00     0.024 A 
ATOM     44  C   LIG d   1       2.418  -2.063 -13.885  0.00  0.00    -0.047 A 
ATOM     45 BR   LIG d   1       4.978  -0.835 -14.102  0.00  0.00    -0.050 Br
ATOM     46  C   LIG d   1       1.207  -2.337 -13.279  0.00  0.00    -0.061 A 
ATOM     47  H   LIG d   1       2.661  -2.515 -14.836  0.00  0.00     0.063 H 
ATOM     48  C   LIG d   1       0.896  -1.760 -12.062  0.00  0.00    -0.061 A 
ATOM     49  H   LIG d   1       0.503  -3.003 -13.757  0.00  0.00     0.062 H 
ATOM     50  C   LIG d   1       1.798  -0.912 -11.449  0.00  0.00    -0.054 A 
ATOM     51  H   LIG d   1      -0.051  -1.975 -11.589  0.00  0.00     0.062 H 
ATOM     52  H   LIG d   1       1.557  -0.464 -10.496  0.00  0.00     0.062 H 
ENDBRANCH  39  42
ENDBRANCH  38  39
ENDBRANCH   6  38
TORSDOF 11
ENDMDL
MODEL 3
REMARK VINA RESULT:      -5.5      5.348      8.417
REMARK  11 active torsions:
REMARK  status: ('A' for Active; 'I' for Inactive)
REMARK    1  A    between atoms: C_1  and  C_2 
REMARK    2  A    between atoms: C_2  and  O_3 
REMARK    3  A    between atoms: O_3  and  C_4 
REMARK    4  A    between atoms: C_4  and  C_6 
REMARK    5  A    between atoms: C_6  and  C_7 
REMARK    6  A    between atoms: C_7  and  C_8 
REMARK    7  A    between atoms: C_9  and  C_29 
REMARK    8  A    between atoms: C_13  and  O_20 
REMARK    9  A    between atoms: C_14  and  C_19 
REMARK   10  A    between atoms: O_20  and  C_21 
REMARK   11  A    between atoms: C_21  and  C_22 
ROOT
ATOM      1  C   LIG d   1       6.559  -8.499  -5.774  0.00  0.00     0.041 A 
ATOM      2  C   LIG d   1       7.655  -7.721  -5.571  0.00  0.00    -0.030 A 
ATOM      3  C   LIG d   1       7.460  -6.278  -5.421  0.00  0.00     0.021 A 
ATOM      4  C   LIG d   1       8.548  -5.422  -5.210  0.00  0.00    -0.047 A 
ATOM      5  C   LIG d   1       8.339  -4.080  -5.075  0.00  0.00    -0.019 A 
ATOM      6  C   LIG d   1       7.050  -3.557  -5.145  0.00  0.00     0.127 A 
ATOM      7  C   LIG d   1       5.961  -4.388  -5.353  0.00  0.00     0.034 A 
ATOM      8  C   LIG d   1       6.156  -5.755  -5.493  0.00  0.00     0.146 A 
ATOM      9  O   LIG d   1       5.110  -6.583  -5.698  0.00  0.00    -0.422 OA
ATOM     10  C   LIG d   1       5.281  -7.907  -5.835  0.00  0.00     0.341 A 
ATOM     11  O   LIG d   1       4.307  -8.615  -6.018  0.00  0.00    -0.245 OA
ATOM     12  H   LIG d   1       9.550  -5.823  -5.154  0.00  0.00     0.063 H 
ATOM     13  H   LIG d   1       9.178  -3.420  -4.912  0.00  0.00     0.065 H 
ENDROOT
BRANCH   1  14
ATOM     14  C   LIG d   1       6.710  -9.990  -5.935  0.00  0.00    -0.011 C 
ATOM     15  H   LIG d   1       5.780 -10.408  -6.322  0.00  0.00     0.032 H 
ATOM     16  H   LIG d   1       7.520 -10.200  -6.632  0.00  0.00     0.032 H 
BRANCH  14  17
ATOM     17  C   LIG d   1       7.028 -10.620  -4.578  0.00  0.00     0.049 C 
ATOM     18  H   LIG d   1       7.970 -11.165  -4.643  0.00  0.00     0.038 H 
ATOM     19  H   LIG d   1       7.112  -9.836  -3.824  0.00  0.00     0.038 H 
BRANCH  17  20
ATOM     20  C   LIG d   1       5.923 -11.570  -4.194  0.00  0.00     0.307 C 
ATOM     21  O   LIG d   1       5.623 -12.479  -4.932  0.00  0.00    -0.251 OA
BRANCH  20  22
ATOM     22  O   LIG d   1       5.273 -11.407  -3.030  0.00  0.00    -0.465 OA
BRANCH  22  23
ATOM     23  C   LIG d   1       4.357 -10.284  -2.940  0.00  0.00     0.090 C 
ATOM     24  H   LIG d   1       4.348  -9.903  -1.918  0.00  0.00     0.069 H 
ATOM     25  H   LIG d   1       4.682  -9.494  -3.618  0.00  0.00     0.069 H 
BRANCH  23  26
ATOM     26  C   LIG d   1       2.949 -10.741  -3.325  0.00  0.00    -0.031 C 
ATOM     27  H   LIG d   1       2.961 -11.137  -4.340  0.00  0.00     0.026 H 
ATOM     28  H   LIG d   1       2.618 -11.518  -2.636  0.00  0.00     0.026 H 
ATOM     29  H   LIG d   1       2.265  -9.894  -3.274  0.00  0.00     0.026 H 
ENDBRANCH  23  26
ENDBRANCH  22  23
ENDBRANCH  20  22
ENDBRANCH  17  20
ENDBRANCH  14  17
ENDBRANCH   1  14
BRANCH   2  30
ATOM     30  C   LIG d   1       9.032  -8.329  -5.502  0.00  0.00    -0.039 C 
ATOM     31  H   LIG d   1       9.185  -8.981  -6.362  0.00  0.00     0.028 H 
ATOM     32  H   LIG d   1       9.780  -7.535  -5.510  0.00  0.00     0.028 H 
ATOM     33  H   LIG d   1       9.129  -8.908  -4.584  0.00  0.00     0.028 H 
ENDBRANCH   2  30
BRANCH   7  34
ATOM     34  C   LIG d   1       4.571  -3.811  -5.427  0.00  0.00    -0.033 C 
ATOM     35  H   LIG d   1       4.463  -3.028  -4.676  0.00  0.00     0.028 H 
ATOM     36  H   LIG d   1       4.406  -3.389  -6.418  0.00  0.00     0.028 H 
ATOM     37  H   LIG d   1       3.841  -4.598  -5.240  0.00  0.00     0.028 H 
ENDBRANCH   7  34
BRANCH   6  38
ATOM     38  O   LIG d   1       6.858  -2.220  -5.009  0.00  0.00    -0.487 OA
BRANCH  38  39
ATOM     39  C   LIG d   1       7.318  -1.618  -3.797  0.00  0.00     0.116 C 
ATOM     40  H   LIG d   1       7.653  -2.395  -3.110  0.00  0.00     0.075 H 
ATOM     41  H   LIG d   1       8.147  -0.945  -4.017  0.00  0.00     0.075 H 
BRANCH  39  42
ATOM     42  C   LIG d   1       6.193  -0.839  -3.165  0.00  0.00     0.004 A 
ATOM     43  C   LIG d   1       6.214   0.544  -3.184  0.00  0.00     0.024 A 
ATOM     44  C   LIG d   1       5.181   1.259  -2.605  0.00  0.00    -0.047 A 
ATOM     45 BR   LIG d   1       7.653   1.457  -4.003  0.00  0.00    -0.050 Br
ATOM     46  C   LIG d   1       4.130   0.592  -2.007  0.00  0.00    -0.061 A 
ATOM     47  H   LIG d   1       5.197   2.339  -2.619  0.00  0.00     0.063 H 
ATOM     48  C   LIG d   1       4.108  -0.790  -1.988  0.00  0.00    -0.061 A 
ATOM     49  H   LIG d   1       3.324   1.150  -1.554  0.00  0.00     0.062 H 
ATOM     50  C   LIG d   1       5.138  -1.505  -2.571  0.00  0.00    -0.054 A 
ATOM     51  H   LIG d   1       3.286  -1.312  -1.520  0.00  0.00     0.062 H 
ATOM     52  H   LIG d   1       5.119  -2.585  -2.560  0.00  0.00     0.062 H 
ENDBRANCH  39  42
ENDBRANCH  38  39
ENDBRANCH   6  38
TORSDOF 11
ENDMDL
MODEL 4
REMARK VINA RESULT:      -5.5      5.729      8.284
REMARK  11 active torsions:
REMARK  status: ('A' for Active; 'I' for Inactive)
REMARK    1  A    between atoms: C_1  and  C_2 
REMARK    2  A    between atoms: C_2  and  O_3 
REMARK    3  A    between atoms: O_3  and  C_4 
REMARK    4  A    between atoms: C_4  and  C_6 
REMARK    5  A    between atoms: C_6  and  C_7 
REMARK    6  A    between atoms: C_7  and  C_8 
REMARK    7  A    between atoms: C_9  and  C_29 
REMARK    8  A    between atoms: C_13  and  O_20 
REMARK    9  A    between atoms: C_14  and  C_19 
REMARK   10  A    between atoms: O_20  and  C_21 
REMARK   11  A    between atoms: C_21  and  C_22 
ROOT
ATOM      1  C   LIG d   1       6.058  -9.235  -4.476  0.00  0.00     0.041 A 
ATOM      2  C   LIG d   1       7.084  -8.345  -4.499  0.00  0.00    -0.030 A 
ATOM      3  C   LIG d   1       6.818  -6.996  -5.003  0.00  0.00     0.021 A 
ATOM      4  C   LIG d   1       7.833  -6.033  -5.052  0.00  0.00    -0.047 A 
ATOM      5  C   LIG d   1       7.558  -4.783  -5.528  0.00  0.00    -0.019 A 
ATOM      6  C   LIG d   1       6.274  -4.460  -5.962  0.00  0.00     0.127 A 
ATOM      7  C   LIG d   1       5.258  -5.400  -5.920  0.00  0.00     0.034 A 
ATOM      8  C   LIG d   1       5.520  -6.676  -5.441  0.00  0.00     0.146 A 
ATOM      9  O   LIG d   1       4.545  -7.608  -5.392  0.00  0.00    -0.422 OA
ATOM     10  C   LIG d   1       4.781  -8.846  -4.931  0.00  0.00     0.341 A 
ATOM     11  O   LIG d   1       3.871  -9.654  -4.905  0.00  0.00    -0.245 OA
ATOM     12  H   LIG d   1       8.829  -6.277  -4.716  0.00  0.00     0.063 H 
ATOM     13  H   LIG d   1       8.341  -4.040  -5.566  0.00  0.00     0.065 H 
ENDROOT
BRANCH   1  14
ATOM     14  C   LIG d   1       6.284 -10.636  -3.968  0.00  0.00    -0.011 C 
ATOM     15  H   LIG d   1       5.942 -11.353  -4.716  0.00  0.00     0.032 H 
ATOM     16  H   LIG d   1       7.346 -10.787  -3.778  0.00  0.00     0.032 H 
BRANCH  14  17
ATOM     17  C   LIG d   1       5.501 -10.840  -2.670  0.00  0.00     0.049 C 
ATOM     18  H   LIG d   1       4.734 -10.071  -2.583  0.00  0.00     0.038 H 
ATOM     19  H   LIG d   1       5.030 -11.824  -2.681  0.00  0.00     0.038 H 
BRANCH  17  20
ATOM     20  C   LIG d   1       6.441 -10.747  -1.496  0.00  0.00     0.307 C 
ATOM     21  O   LIG d   1       6.763  -9.666  -1.063  0.00  0.00    -0.251 OA
BRANCH  20  22
ATOM     22  O   LIG d   1       6.921 -11.867  -0.930  0.00  0.00    -0.465 OA
BRANCH  22  23
ATOM     23  C   LIG d   1       8.282 -12.243  -1.265  0.00  0.00     0.090 C 
ATOM     24  H   LIG d   1       8.330 -13.317  -1.447  0.00  0.00     0.069 H 
ATOM     25  H   LIG d   1       8.597 -11.710  -2.162  0.00  0.00     0.069 H 
BRANCH  23  26
ATOM     26  C   LIG d   1       9.211 -11.881  -0.104  0.00  0.00    -0.031 C 
ATOM     27  H   LIG d   1      10.239 -12.118  -0.375  0.00  0.00     0.026 H 
ATOM     28  H   LIG d   1       9.128 -10.815   0.109  0.00  0.00     0.026 H 
ATOM     29  H   LIG d   1       8.927 -12.453   0.779  0.00  0.00     0.026 H 
ENDBRANCH  23  26
ENDBRANCH  22  23
ENDBRANCH  20  22
ENDBRANCH  17  20
ENDBRANCH  14  17
ENDBRANCH   1  14
BRANCH   2  30
ATOM     30  C   LIG d   1       8.458  -8.736  -4.019  0.00  0.00    -0.039 C 
ATOM     31  H   LIG d   1       8.636  -9.788  -4.245  0.00  0.00     0.028 H 
ATOM     32  H   LIG d   1       9.206  -8.124  -4.524  0.00  0.00     0.028 H 
ATOM     33  H   LIG d   1       8.526  -8.578  -2.943  0.00  0.00     0.028 H 
ENDBRANCH   2  30
BRANCH   7  34
ATOM     34  C   LIG d   1       3.873  -5.040  -6.393  0.00  0.00    -0.033 C 
ATOM     35  H   LIG d   1       3.330  -4.550  -5.585  0.00  0.00     0.028 H 
ATOM     36  H   LIG d   1       3.945  -4.363  -7.244  0.00  0.00     0.028 H 
ATOM     37  H   LIG d   1       3.344  -5.945  -6.691  0.00  0.00     0.028 H 
ENDBRANCH   7  34
BRANCH   6  38
ATOM     38  O   LIG d   1       6.017  -3.212  -6.432  0.00  0.00    -0.487 OA
BRANCH  38  39
ATOM     39  C   LIG d   1       6.370  -2.115  -5.588  0.00  0.00     0.116 C 
ATOM     40  H   LIG d   1       7.247  -2.378  -4.997  0.00  0.00     0.075 H 
ATOM     41  H   LIG d   1       6.593  -1.242  -6.202  0.00  0.00     0.075 H 
BRANCH  39  42
ATOM     42  C   LIG d   1       5.218  -1.800  -4.667  0.00  0.00     0.004 A 
ATOM     43  C   LIG d   1       4.190  -0.983  -5.102  0.00  0.00     0.024 A 
ATOM     44  C   LIG d   1       3.133  -0.694  -4.257  0.00  0.00    -0.047 A 
ATOM     45 BR   LIG d   1       4.227  -0.264  -6.851  0.00  0.00    -0.050 Br
ATOM     46  C   LIG d   1       3.106  -1.220  -2.980  0.00  0.00    -0.061 A 
ATOM     47  H   LIG d   1       2.329  -0.057  -4.596  0.00  0.00     0.063 H 
ATOM     48  C   LIG d   1       4.134  -2.036  -2.546  0.00  0.00    -0.061 A 
ATOM     49  H   LIG d   1       2.282  -0.994  -2.321  0.00  0.00     0.062 H 
ATOM     50  C   LIG d   1       5.188  -2.329  -3.391  0.00  0.00    -0.054 A 
ATOM     51  H   LIG d   1       4.113  -2.448  -1.547  0.00  0.00     0.062 H 
ATOM     52  H   LIG d   1       5.989  -2.970  -3.054  0.00  0.00     0.062 H 
ENDBRANCH  39  42
ENDBRANCH  38  39
ENDBRANCH   6  38
TORSDOF 11
ENDMDL
MODEL 5
REMARK VINA RESULT:      -5.5      3.521      5.328
REMARK  11 active torsions:
REMARK  status: ('A' for Active; 'I' for Inactive)
REMARK    1  A    between atoms: C_1  and  C_2 
REMARK    2  A    between atoms: C_2  and  O_3 
REMARK    3  A    between atoms: O_3  and  C_4 
REMARK    4  A    between atoms: C_4  and  C_6 
REMARK    5  A    between atoms: C_6  and  C_7 
REMARK    6  A    between atoms: C_7  and  C_8 
REMARK    7  A    between atoms: C_9  and  C_29 
REMARK    8  A    between atoms: C_13  and  O_20 
REMARK    9  A    between atoms: C_14  and  C_19 
REMARK   10  A    between atoms: O_20  and  C_21 
REMARK   11  A    between atoms: C_21  and  C_22 
ROOT
ATOM      1  C   LIG d   1       3.421  -0.569  -4.219  0.00  0.00     0.041 A 
ATOM      2  C   LIG d   1       3.985  -1.749  -3.851  0.00  0.00    -0.030 A 
ATOM      3  C   LIG d   1       4.623  -2.562  -4.887  0.00  0.00     0.021 A 
ATOM      4  C   LIG d   1       5.222  -3.789  -4.573  0.00  0.00    -0.047 A 
ATOM      5  C   LIG d   1       5.809  -4.529  -5.558  0.00  0.00    -0.019 A 
ATOM      6  C   LIG d   1       5.818  -4.070  -6.874  0.00  0.00     0.127 A 
ATOM      7  C   LIG d   1       5.231  -2.859  -7.203  0.00  0.00     0.034 A 
ATOM      8  C   LIG d   1       4.628  -2.095  -6.214  0.00  0.00     0.146 A 
ATOM      9  O   LIG d   1       4.050  -0.913  -6.513  0.00  0.00    -0.422 OA
ATOM     10  C   LIG d   1       3.463  -0.162  -5.568  0.00  0.00     0.341 A 
ATOM     11  O   LIG d   1       2.953   0.898  -5.884  0.00  0.00    -0.245 OA
ATOM     12  H   LIG d   1       5.219  -4.148  -3.554  0.00  0.00     0.063 H 
ATOM     13  H   LIG d   1       6.271  -5.474  -5.316  0.00  0.00     0.065 H 
ENDROOT
BRANCH   1  14
ATOM     14  C   LIG d   1       2.751   0.303  -3.188  0.00  0.00    -0.011 C 
ATOM     15  H   LIG d   1       1.721   0.498  -3.491  0.00  0.00     0.032 H 
ATOM     16  H   LIG d   1       2.755  -0.206  -2.223  0.00  0.00     0.032 H 
BRANCH  14  17
ATOM     17  C   LIG d   1       3.507   1.627  -3.068  0.00  0.00     0.049 C 
ATOM     18  H   LIG d   1       3.651   2.053  -4.060  0.00  0.00     0.038 H 
ATOM     19  H   LIG d   1       2.930   2.320  -2.455  0.00  0.00     0.038 H 
BRANCH  17  20
ATOM     20  C   LIG d   1       4.848   1.383  -2.425  0.00  0.00     0.307 C 
ATOM     21  O   LIG d   1       4.909   0.992  -1.284  0.00  0.00    -0.251 OA
BRANCH  20  22
ATOM     22  O   LIG d   1       5.975   1.600  -3.122  0.00  0.00    -0.465 OA
BRANCH  22  23
ATOM     23  C   LIG d   1       6.831   0.453  -3.363  0.00  0.00     0.090 C 
ATOM     24  H   LIG d   1       7.774   0.584  -2.833  0.00  0.00     0.069 H 
ATOM     25  H   LIG d   1       6.338  -0.451  -3.007  0.00  0.00     0.069 H 
BRANCH  23  26
ATOM     26  C   LIG d   1       7.105   0.327  -4.864  0.00  0.00    -0.031 C 
ATOM     27  H   LIG d   1       8.111   0.682  -5.080  0.00  0.00     0.026 H 
ATOM     28  H   LIG d   1       7.016  -0.718  -5.163  0.00  0.00     0.026 H 
ATOM     29  H   LIG d   1       6.381   0.926  -5.416  0.00  0.00     0.026 H 
ENDBRANCH  23  26
ENDBRANCH  22  23
ENDBRANCH  20  22
ENDBRANCH  17  20
ENDBRANCH  14  17
ENDBRANCH   1  14
BRANCH   2  30
ATOM     30  C   LIG d   1       3.953  -2.207  -2.415  0.00  0.00    -0.039 C 
ATOM     31  H   LIG d   1       3.322  -3.092  -2.331  0.00  0.00     0.028 H 
ATOM     32  H   LIG d   1       4.965  -2.449  -2.089  0.00  0.00     0.028 H 
ATOM     33  H   LIG d   1       3.550  -1.412  -1.789  0.00  0.00     0.028 H 
ENDBRANCH   2  30
BRANCH   7  34
ATOM     34  C   LIG d   1       5.246  -2.374  -8.629  0.00  0.00    -0.033 C 
ATOM     35  H   LIG d   1       6.261  -2.086  -8.904  0.00  0.00     0.028 H 
ATOM     36  H   LIG d   1       4.904  -3.172  -9.288  0.00  0.00     0.028 H 
ATOM     37  H   LIG d   1       4.585  -1.513  -8.727  0.00  0.00     0.028 H 
ENDBRANCH   7  34
BRANCH   6  38
ATOM     38  O   LIG d   1       6.406  -4.817  -7.843  0.00  0.00    -0.487 OA
BRANCH  38  39
ATOM     39  C   LIG d   1       6.793  -6.148  -7.491  0.00  0.00     0.116 C 
ATOM     40  H   LIG d   1       7.783  -6.357  -7.897  0.00  0.00     0.075 H 
ATOM     41  H   LIG d   1       6.818  -6.244  -6.406  0.00  0.00     0.075 H 
BRANCH  39  42
ATOM     42  C   LIG d   1       5.798  -7.127  -8.060  0.00  0.00     0.004 A 
ATOM     43  C   LIG d   1       5.270  -8.120  -7.256  0.00  0.00     0.024 A 
ATOM     44  C   LIG d   1       4.356  -9.019  -7.778  0.00  0.00    -0.047 A 
ATOM     45 BR   LIG d   1       5.793  -8.249  -5.444  0.00  0.00    -0.050 Br
ATOM     46  C   LIG d   1       3.974  -8.924  -9.102  0.00  0.00    -0.061 A 
ATOM     47  H   LIG d   1       3.943  -9.795  -7.150  0.00  0.00     0.063 H 
ATOM     48  C   LIG d   1       4.502  -7.931  -9.906  0.00  0.00    -0.061 A 
ATOM     49  H   LIG d   1       3.261  -9.625  -9.509  0.00  0.00     0.062 H 
ATOM     50  C   LIG d   1       5.411  -7.030  -9.383  0.00  0.00    -0.054 A 
ATOM     51  H   LIG d   1       4.203  -7.857 -10.941  0.00  0.00     0.062 H 
ATOM     52  H   LIG d   1       5.822  -6.252 -10.010  0.00  0.00     0.062 H 
ENDBRANCH  39  42
ENDBRANCH  38  39
ENDBRANCH   6  38
TORSDOF 11
ENDMDL
MODEL 6
REMARK VINA RESULT:      -5.4      4.646      7.247
REMARK  11 active torsions:
REMARK  status: ('A' for Active; 'I' for Inactive)
REMARK    1  A    between atoms: C_1  and  C_2 
REMARK    2  A    between atoms: C_2  and  O_3 
REMARK    3  A    between atoms: O_3  and  C_4 
REMARK    4  A    between atoms: C_4  and  C_6 
REMARK    5  A    between atoms: C_6  and  C_7 
REMARK    6  A    between atoms: C_7  and  C_8 
REMARK    7  A    between atoms: C_9  and  C_29 
REMARK    8  A    between atoms: C_13  and  O_20 
REMARK    9  A    between atoms: C_14  and  C_19 
REMARK   10  A    between atoms: O_20  and  C_21 
REMARK   11  A    between atoms: C_21  and  C_22 
ROOT
ATOM      1  C   LIG d   1       9.564   3.935  -4.962  0.00  0.00     0.041 A 
ATOM      2  C   LIG d   1       9.216   3.323  -6.124  0.00  0.00    -0.030 A 
ATOM      3  C   LIG d   1       8.519   2.038  -6.047  0.00  0.00     0.021 A 
ATOM      4  C   LIG d   1       8.135   1.356  -7.208  0.00  0.00    -0.047 A 
ATOM      5  C   LIG d   1       7.487   0.159  -7.108  0.00  0.00    -0.019 A 
ATOM      6  C   LIG d   1       7.206  -0.389  -5.857  0.00  0.00     0.127 A 
ATOM      7  C   LIG d   1       7.579   0.272  -4.698  0.00  0.00     0.034 A 
ATOM      8  C   LIG d   1       8.239   1.490  -4.782  0.00  0.00     0.146 A 
ATOM      9  O   LIG d   1       8.612   2.150  -3.665  0.00  0.00    -0.422 OA
ATOM     10  C   LIG d   1       9.251   3.328  -3.729  0.00  0.00     0.341 A 
ATOM     11  O   LIG d   1       9.568   3.888  -2.695  0.00  0.00    -0.245 OA
ATOM     12  H   LIG d   1       8.349   1.776  -8.179  0.00  0.00     0.063 H 
ATOM     13  H   LIG d   1       7.191  -0.367  -8.003  0.00  0.00     0.065 H 
ENDROOT
BRANCH   1  14
ATOM     14  C   LIG d   1      10.284   5.259  -4.991  0.00  0.00    -0.011 C 
ATOM     15  H   LIG d   1      10.988   5.308  -4.160  0.00  0.00     0.032 H 
ATOM     16  H   LIG d   1      10.826   5.358  -5.932  0.00  0.00     0.032 H 
BRANCH  14  17
ATOM     17  C   LIG d   1       9.268   6.396  -4.867  0.00  0.00     0.049 C 
ATOM     18  H   LIG d   1       8.312   6.075  -5.279  0.00  0.00     0.038 H 
ATOM     19  H   LIG d   1       9.141   6.657  -3.816  0.00  0.00     0.038 H 
BRANCH  17  20
ATOM     20  C   LIG d   1       9.765   7.599  -5.627  0.00  0.00     0.307 C 
ATOM     21  O   LIG d   1      10.935   7.897  -5.589  0.00  0.00    -0.251 OA
BRANCH  20  22
ATOM     22  O   LIG d   1       8.906   8.340  -6.346  0.00  0.00    -0.465 OA
BRANCH  22  23
ATOM     23  C   LIG d   1       9.319   8.708  -7.688  0.00  0.00     0.090 C 
ATOM     24  H   LIG d   1       8.696   9.526  -8.049  0.00  0.00     0.069 H 
ATOM     25  H   LIG d   1      10.362   9.026  -7.674  0.00  0.00     0.069 H 
BRANCH  23  26
ATOM     26  C   LIG d   1       9.166   7.503  -8.618  0.00  0.00    -0.031 C 
ATOM     27  H   LIG d   1       8.904   7.846  -9.618  0.00  0.00     0.026 H 
ATOM     28  H   LIG d   1      10.106   6.952  -8.658  0.00  0.00     0.026 H 
ATOM     29  H   LIG d   1       8.378   6.851  -8.241  0.00  0.00     0.026 H 
ENDBRANCH  23  26
ENDBRANCH  22  23
ENDBRANCH  20  22
ENDBRANCH  17  20
ENDBRANCH  14  17
ENDBRANCH   1  14
BRANCH   2  30
ATOM     30  C   LIG d   1       9.540   3.950  -7.456  0.00  0.00    -0.039 C 
ATOM     31  H   LIG d   1      10.212   3.296  -8.012  0.00  0.00     0.028 H 
ATOM     32  H   LIG d   1       8.619   4.094  -8.023  0.00  0.00     0.028 H 
ATOM     33  H   LIG d   1      10.021   4.915  -7.296  0.00  0.00     0.028 H 
ENDBRANCH   2  30
BRANCH   7  34
ATOM     34  C   LIG d   1       7.270  -0.329  -3.352  0.00  0.00    -0.033 C 
ATOM     35  H   LIG d   1       8.015  -1.089  -3.113  0.00  0.00     0.028 H 
ATOM     36  H   LIG d   1       7.292   0.452  -2.592  0.00  0.00     0.028 H 
ATOM     37  H   LIG d   1       6.281  -0.786  -3.376  0.00  0.00     0.028 H 
ENDBRANCH   7  34
BRANCH   6  38
ATOM     38  O   LIG d   1       6.562  -1.581  -5.774  0.00  0.00    -0.487 OA
BRANCH  38  39
ATOM     39  C   LIG d   1       5.216  -1.626  -6.254  0.00  0.00     0.116 C 
ATOM     40  H   LIG d   1       5.096  -0.909  -7.066  0.00  0.00     0.075 H 
ATOM     41  H   LIG d   1       4.995  -2.629  -6.620  0.00  0.00     0.075 H 
BRANCH  39  42
ATOM     42  C   LIG d   1       4.271  -1.281  -5.132  0.00  0.00     0.004 A 
ATOM     43  C   LIG d   1       3.305  -0.309  -5.316  0.00  0.00     0.024 A 
ATOM     44  C   LIG d   1       2.437   0.008  -4.287  0.00  0.00    -0.047 A 
ATOM     45 BR   LIG d   1       3.169   0.587  -6.977  0.00  0.00    -0.050 Br
ATOM     46  C   LIG d   1       2.537  -0.647  -3.074  0.00  0.00    -0.061 A 
ATOM     47  H   LIG d   1       1.682   0.767  -4.430  0.00  0.00     0.063 H 
ATOM     48  C   LIG d   1       3.502  -1.619  -2.890  0.00  0.00    -0.061 A 
ATOM     49  H   LIG d   1       1.860  -0.399  -2.270  0.00  0.00     0.062 H 
ATOM     50  C   LIG d   1       4.366  -1.939  -3.920  0.00  0.00    -0.054 A 
ATOM     51  H   LIG d   1       3.580  -2.130  -1.942  0.00  0.00     0.062 H 
ATOM     52  H   LIG d   1       5.118  -2.701  -3.778  0.00  0.00     0.062 H 
ENDBRANCH  39  42
ENDBRANCH  38  39
ENDBRANCH   6  38
TORSDOF 11
ENDMDL
MODEL 7
REMARK VINA RESULT:      -5.4      5.805      9.189
REMARK  11 active torsions:
REMARK  status: ('A' for Active; 'I' for Inactive)
REMARK    1  A    between atoms: C_1  and  C_2 
REMARK    2  A    between atoms: C_2  and  O_3 
REMARK    3  A    between atoms: O_3  and  C_4 
REMARK    4  A    between atoms: C_4  and  C_6 
REMARK    5  A    between atoms: C_6  and  C_7 
REMARK    6  A    between atoms: C_7  and  C_8 
REMARK    7  A    between atoms: C_9  and  C_29 
REMARK    8  A    between atoms: C_13  and  O_20 
REMARK    9  A    between atoms: C_14  and  C_19 
REMARK   10  A    between atoms: O_20  and  C_21 
REMARK   11  A    between atoms: C_21  and  C_22 
ROOT
ATOM      1  C   LIG d   1      10.376   4.948  -9.183  0.00  0.00     0.041 A 
ATOM      2  C   LIG d   1      10.426   4.867  -7.828  0.00  0.00    -0.030 A 
ATOM      3  C   LIG d   1       9.619   3.841  -7.166  0.00  0.00     0.021 A 
ATOM      4  C   LIG d   1       9.627   3.706  -5.772  0.00  0.00    -0.047 A 
ATOM      5  C   LIG d   1       8.863   2.742  -5.180  0.00  0.00    -0.019 A 
ATOM      6  C   LIG d   1       8.078   1.890  -5.954  0.00  0.00     0.127 A 
ATOM      7  C   LIG d   1       8.057   2.009  -7.334  0.00  0.00     0.034 A 
ATOM      8  C   LIG d   1       8.827   2.984  -7.952  0.00  0.00     0.146 A 
ATOM      9  O   LIG d   1       8.821   3.118  -9.295  0.00  0.00    -0.422 OA
ATOM     10  C   LIG d   1       9.559   4.056  -9.909  0.00  0.00     0.341 A 
ATOM     11  O   LIG d   1       9.523   4.139 -11.123  0.00  0.00    -0.245 OA
ATOM     12  H   LIG d   1      10.235   4.363  -5.167  0.00  0.00     0.063 H 
ATOM     13  H   LIG d   1       8.870   2.638  -4.105  0.00  0.00     0.065 H 
ENDROOT
BRANCH   1  14
ATOM     14  C   LIG d   1      11.188   5.989  -9.909  0.00  0.00    -0.011 C 
ATOM     15  H   LIG d   1      11.974   6.360  -9.250  0.00  0.00     0.032 H 
ATOM     16  H   LIG d   1      11.638   5.545 -10.797  0.00  0.00     0.032 H 
BRANCH  14  17
ATOM     17  C   LIG d   1      10.280   7.148 -10.324  0.00  0.00     0.049 C 
ATOM     18  H   LIG d   1      10.206   7.179 -11.411  0.00  0.00     0.038 H 
ATOM     19  H   LIG d   1       9.288   7.002  -9.895  0.00  0.00     0.038 H 
BRANCH  17  20
ATOM     20  C   LIG d   1      10.860   8.445  -9.821  0.00  0.00     0.307 C 
ATOM     21  O   LIG d   1      11.960   8.794 -10.179  0.00  0.00    -0.251 OA
BRANCH  20  22
ATOM     22  O   LIG d   1      10.152   9.212  -8.976  0.00  0.00    -0.465 OA
BRANCH  22  23
ATOM     23  C   LIG d   1       9.033   8.585  -8.298  0.00  0.00     0.090 C 
ATOM     24  H   LIG d   1       8.108   9.088  -8.580  0.00  0.00     0.069 H 
ATOM     25  H   LIG d   1       8.976   7.535  -8.583  0.00  0.00     0.069 H 
BRANCH  23  26
ATOM     26  C   LIG d   1       9.229   8.693  -6.784  0.00  0.00    -0.031 C 
ATOM     27  H   LIG d   1       8.646   7.919  -6.286  0.00  0.00     0.026 H 
ATOM     28  H   LIG d   1      10.284   8.564  -6.544  0.00  0.00     0.026 H 
ATOM     29  H   LIG d   1       8.895   9.673  -6.444  0.00  0.00     0.026 H 
ENDBRANCH  23  26
ENDBRANCH  22  23
ENDBRANCH  20  22
ENDBRANCH  17  20
ENDBRANCH  14  17
ENDBRANCH   1  14
BRANCH   2  30
ATOM     30  C   LIG d   1      11.290   5.808  -7.029  0.00  0.00    -0.039 C 
ATOM     31  H   LIG d   1      10.675   6.616  -6.631  0.00  0.00     0.028 H 
ATOM     32  H   LIG d   1      11.754   5.265  -6.205  0.00  0.00     0.028 H 
ATOM     33  H   LIG d   1      12.065   6.225  -7.671  0.00  0.00     0.028 H 
ENDBRANCH   2  30
BRANCH   7  34
ATOM     34  C   LIG d   1       7.204   1.082  -8.161  0.00  0.00    -0.033 C 
ATOM     35  H   LIG d   1       6.652   1.661  -8.901  0.00  0.00     0.028 H 
ATOM     36  H   LIG d   1       7.841   0.358  -8.668  0.00  0.00     0.028 H 
ATOM     37  H   LIG d   1       6.503   0.558  -7.512  0.00  0.00     0.028 H 
ENDBRANCH   7  34
BRANCH   6  38
ATOM     38  O   LIG d   1       7.324   0.936  -5.350  0.00  0.00    -0.487 OA
BRANCH  38  39
ATOM     39  C   LIG d   1       7.630   0.633  -3.987  0.00  0.00     0.116 C 
ATOM     40  H   LIG d   1       8.362  -0.174  -3.950  0.00  0.00     0.075 H 
ATOM     41  H   LIG d   1       8.041   1.519  -3.502  0.00  0.00     0.075 H 
BRANCH  39  42
ATOM     42  C   LIG d   1       6.374   0.206  -3.273  0.00  0.00     0.004 A 
ATOM     43  C   LIG d   1       6.088  -1.139  -3.121  0.00  0.00     0.024 A 
ATOM     44  C   LIG d   1       4.935  -1.531  -2.466  0.00  0.00    -0.047 A 
ATOM     45 BR   LIG d   1       7.275  -2.441  -3.809  0.00  0.00    -0.050 Br
ATOM     46  C   LIG d   1       4.069  -0.579  -1.963  0.00  0.00    -0.061 A 
ATOM     47  H   LIG d   1       4.711  -2.582  -2.347  0.00  0.00     0.063 H 
ATOM     48  C   LIG d   1       4.354   0.765  -2.115  0.00  0.00    -0.061 A 
ATOM     49  H   LIG d   1       3.168  -0.885  -1.452  0.00  0.00     0.062 H 
ATOM     50  C   LIG d   1       5.509   1.157  -2.766  0.00  0.00    -0.054 A 
ATOM     51  H   LIG d   1       3.677   1.509  -1.722  0.00  0.00     0.062 H 
ATOM     52  H   LIG d   1       5.734   2.207  -2.881  0.00  0.00     0.062 H 
ENDBRANCH  39  42
ENDBRANCH  38  39
ENDBRANCH   6  38
TORSDOF 11
ENDMDL
MODEL 8
REMARK VINA RESULT:      -5.3      5.295      8.471
REMARK  11 active torsions:
REMARK  status: ('A' for Active; 'I' for Inactive)
REMARK    1  A    between atoms: C_1  and  C_2 
REMARK    2  A    between atoms: C_2  and  O_3 
REMARK    3  A    between atoms: O_3  and  C_4 
REMARK    4  A    between atoms: C_4  and  C_6 
REMARK    5  A    between atoms: C_6  and  C_7 
REMARK    6  A    between atoms: C_7  and  C_8 
REMARK    7  A    between atoms: C_9  and  C_29 
REMARK    8  A    between atoms: C_13  and  O_20 
REMARK    9  A    between atoms: C_14  and  C_19 
REMARK   10  A    between atoms: O_20  and  C_21 
REMARK   11  A    between atoms: C_21  and  C_22 
ROOT
ATOM      1  C   LIG d   1       9.636   4.466  -8.018  0.00  0.00     0.041 A 
ATOM      2  C   LIG d   1       9.747   4.134  -6.706  0.00  0.00    -0.030 A 
ATOM      3  C   LIG d   1       9.090   2.909  -6.245  0.00  0.00     0.021 A 
ATOM      4  C   LIG d   1       9.167   2.512  -4.904  0.00  0.00    -0.047 A 
ATOM      5  C   LIG d   1       8.544   1.366  -4.500  0.00  0.00    -0.019 A 
ATOM      6  C   LIG d   1       7.834   0.590  -5.413  0.00  0.00     0.127 A 
ATOM      7  C   LIG d   1       7.748   0.968  -6.743  0.00  0.00     0.034 A 
ATOM      8  C   LIG d   1       8.374   2.129  -7.171  0.00  0.00     0.146 A 
ATOM      9  O   LIG d   1       8.302   2.516  -8.462  0.00  0.00    -0.422 OA
ATOM     10  C   LIG d   1       8.902   3.638  -8.892  0.00  0.00     0.341 A 
ATOM     11  O   LIG d   1       8.810   3.947 -10.066  0.00  0.00    -0.245 OA
ATOM     12  H   LIG d   1       9.717   3.109  -4.192  0.00  0.00     0.063 H 
ATOM     13  H   LIG d   1       8.604   1.060  -3.466  0.00  0.00     0.065 H 
ENDROOT
BRANCH   1  14
ATOM     14  C   LIG d   1      10.294   5.718  -8.539  0.00  0.00    -0.011 C 
ATOM     15  H   LIG d   1      11.059   6.046  -7.835  0.00  0.00     0.032 H 
ATOM     16  H   LIG d   1      10.755   5.511  -9.505  0.00  0.00     0.032 H 
BRANCH  14  17
ATOM     17  C   LIG d   1       9.243   6.818  -8.701  0.00  0.00     0.049 C 
ATOM     18  H   LIG d   1       8.684   6.653  -9.622  0.00  0.00     0.038 H 
ATOM     19  H   LIG d   1       8.559   6.794  -7.852  0.00  0.00     0.038 H 
BRANCH  17  20
ATOM     20  C   LIG d   1       9.925   8.160  -8.760  0.00  0.00     0.307 C 
ATOM     21  O   LIG d   1       9.984   8.763  -9.806  0.00  0.00    -0.251 OA
BRANCH  20  22
ATOM     22  O   LIG d   1      10.467   8.686  -7.650  0.00  0.00    -0.465 OA
BRANCH  22  23
ATOM     23  C   LIG d   1       9.568   9.373  -6.741  0.00  0.00     0.090 C 
ATOM     24  H   LIG d   1       9.931  10.386  -6.566  0.00  0.00     0.069 H 
ATOM     25  H   LIG d   1       8.570   9.416  -7.178  0.00  0.00     0.069 H 
BRANCH  23  26
ATOM     26  C   LIG d   1       9.511   8.617  -5.412  0.00  0.00    -0.031 C 
ATOM     27  H   LIG d   1       8.779   7.813  -5.482  0.00  0.00     0.026 H 
ATOM     28  H   LIG d   1      10.492   8.197  -5.190  0.00  0.00     0.026 H 
ATOM     29  H   LIG d   1       9.220   9.303  -4.616  0.00  0.00     0.026 H 
ENDBRANCH  23  26
ENDBRANCH  22  23
ENDBRANCH  20  22
ENDBRANCH  17  20
ENDBRANCH  14  17
ENDBRANCH   1  14
BRANCH   2  30
ATOM     30  C   LIG d   1      10.525   5.002  -5.751  0.00  0.00    -0.039 C 
ATOM     31  H   LIG d   1      11.592   4.894  -5.949  0.00  0.00     0.028 H 
ATOM     32  H   LIG d   1      10.234   6.044  -5.889  0.00  0.00     0.028 H 
ATOM     33  H   LIG d   1      10.313   4.698  -4.727  0.00  0.00     0.028 H 
ENDBRANCH   2  30
BRANCH   7  34
ATOM     34  C   LIG d   1       6.977   0.120  -7.722  0.00  0.00    -0.033 C 
ATOM     35  H   LIG d   1       6.274  -0.512  -7.180  0.00  0.00     0.028 H 
ATOM     36  H   LIG d   1       6.429   0.766  -8.409  0.00  0.00     0.028 H 
ATOM     37  H   LIG d   1       7.669  -0.505  -8.285  0.00  0.00     0.028 H 
ENDBRANCH   7  34
BRANCH   6  38
ATOM     38  O   LIG d   1       7.220  -0.547  -4.996  0.00  0.00    -0.487 OA
BRANCH  38  39
ATOM     39  C   LIG d   1       7.070  -0.723  -3.585  0.00  0.00     0.116 C 
ATOM     40  H   LIG d   1       7.301  -1.755  -3.322  0.00  0.00     0.075 H 
ATOM     41  H   LIG d   1       7.752  -0.053  -3.061  0.00  0.00     0.075 H 
BRANCH  39  42
ATOM     42  C   LIG d   1       5.651  -0.407  -3.188  0.00  0.00     0.004 A 
ATOM     43  C   LIG d   1       4.645  -1.324  -3.431  0.00  0.00     0.024 A 
ATOM     44  C   LIG d   1       3.342  -1.034  -3.067  0.00  0.00    -0.047 A 
ATOM     45 BR   LIG d   1       5.050  -2.975  -4.260  0.00  0.00    -0.050 Br
ATOM     46  C   LIG d   1       3.047   0.172  -2.461  0.00  0.00    -0.061 A 
ATOM     47  H   LIG d   1       2.556  -1.751  -3.256  0.00  0.00     0.063 H 
ATOM     48  C   LIG d   1       4.053   1.089  -2.218  0.00  0.00    -0.061 A 
ATOM     49  H   LIG d   1       2.030   0.398  -2.177  0.00  0.00     0.062 H 
ATOM     50  C   LIG d   1       5.355   0.797  -2.578  0.00  0.00    -0.054 A 
ATOM     51  H   LIG d   1       3.821   2.032  -1.745  0.00  0.00     0.062 H 
ATOM     52  H   LIG d   1       6.141   1.512  -2.385  0.00  0.00     0.062 H 
ENDBRANCH  39  42
ENDBRANCH  38  39
ENDBRANCH   6  38
TORSDOF 11
ENDMDL
MODEL 9
REMARK VINA RESULT:      -5.3      5.406      8.655
REMARK  11 active torsions:
REMARK  status: ('A' for Active; 'I' for Inactive)
REMARK    1  A    between atoms: C_1  and  C_2 
REMARK    2  A    between atoms: C_2  and  O_3 
REMARK    3  A    between atoms: O_3  and  C_4 
REMARK    4  A    between atoms: C_4  and  C_6 
REMARK    5  A    between atoms: C_6  and  C_7 
REMARK    6  A    between atoms: C_7  and  C_8 
REMARK    7  A    between atoms: C_9  and  C_29 
REMARK    8  A    between atoms: C_13  and  O_20 
REMARK    9  A    between atoms: C_14  and  C_19 
REMARK   10  A    between atoms: O_20  and  C_21 
REMARK   11  A    between atoms: C_21  and  C_22 
ROOT
ATOM      1  C   LIG d   1       9.995   5.008  -6.712  0.00  0.00     0.041 A 
ATOM      2  C   LIG d   1       9.817   4.572  -5.438  0.00  0.00    -0.030 A 
ATOM      3  C   LIG d   1       9.168   3.275  -5.236  0.00  0.00     0.021 A 
ATOM      4  C   LIG d   1       8.954   2.769  -3.948  0.00  0.00    -0.047 A 
ATOM      5  C   LIG d   1       8.346   1.557  -3.788  0.00  0.00    -0.019 A 
ATOM      6  C   LIG d   1       7.938   0.821  -4.898  0.00  0.00     0.127 A 
ATOM      7  C   LIG d   1       8.141   1.306  -6.180  0.00  0.00     0.034 A 
ATOM      8  C   LIG d   1       8.757   2.536  -6.360  0.00  0.00     0.146 A 
ATOM      9  O   LIG d   1       8.964   3.027  -7.600  0.00  0.00    -0.422 OA
ATOM     10  C   LIG d   1       9.559   4.215  -7.793  0.00  0.00     0.341 A 
ATOM     11  O   LIG d   1       9.725   4.619  -8.930  0.00  0.00    -0.245 OA
ATOM     12  H   LIG d   1       9.270   3.335  -3.084  0.00  0.00     0.063 H 
ATOM     13  H   LIG d   1       8.181   1.167  -2.794  0.00  0.00     0.065 H 
ENDROOT
BRANCH   1  14
ATOM     14  C   LIG d   1      10.657   6.338  -6.969  0.00  0.00    -0.011 C 
ATOM     15  H   LIG d   1      11.324   6.578  -6.140  0.00  0.00     0.032 H 
ATOM     16  H   LIG d   1      11.232   6.285  -7.893  0.00  0.00     0.032 H 
BRANCH  14  17
ATOM     17  C   LIG d   1       9.588   7.424  -7.096  0.00  0.00     0.049 C 
ATOM     18  H   LIG d   1       8.601   6.963  -7.114  0.00  0.00     0.038 H 
ATOM     19  H   LIG d   1       9.657   8.103  -6.245  0.00  0.00     0.038 H 
BRANCH  17  20
ATOM     20  C   LIG d   1       9.805   8.196  -8.373  0.00  0.00     0.307 C 
ATOM     21  O   LIG d   1       9.144   9.180  -8.604  0.00  0.00    -0.251 OA
BRANCH  20  22
ATOM     22  O   LIG d   1      10.735   7.788  -9.252  0.00  0.00    -0.465 OA
BRANCH  22  23
ATOM     23  C   LIG d   1      10.409   7.917 -10.661  0.00  0.00     0.090 C 
ATOM     24  H   LIG d   1       9.326   7.886 -10.788  0.00  0.00     0.069 H 
ATOM     25  H   LIG d   1      10.791   8.865 -11.039  0.00  0.00     0.069 H 
BRANCH  23  26
ATOM     26  C   LIG d   1      11.045   6.763 -11.439  0.00  0.00    -0.031 C 
ATOM     27  H   LIG d   1      11.788   7.158 -12.131  0.00  0.00     0.026 H 
ATOM     28  H   LIG d   1      11.526   6.076 -10.742  0.00  0.00     0.026 H 
ATOM     29  H   LIG d   1      10.274   6.233 -11.999  0.00  0.00     0.026 H 
ENDBRANCH  23  26
ENDBRANCH  22  23
ENDBRANCH  20  22
ENDBRANCH  17  20
ENDBRANCH  14  17
ENDBRANCH   1  14
BRANCH   2  30
ATOM     30  C   LIG d   1      10.274   5.400  -4.265  0.00  0.00    -0.039 C 
ATOM     31  H   LIG d   1      10.325   6.449  -4.559  0.00  0.00     0.028 H 
ATOM     32  H   LIG d   1       9.566   5.287  -3.443  0.00  0.00     0.028 H 
ATOM     33  H   LIG d   1      11.259   5.064  -3.944  0.00  0.00     0.028 H 
ENDBRANCH   2  30
BRANCH   7  34
ATOM     34  C   LIG d   1       7.695   0.501  -7.373  0.00  0.00    -0.033 C 
ATOM     35  H   LIG d   1       8.333   0.733  -8.226  0.00  0.00     0.028 H 
ATOM     36  H   LIG d   1       7.770  -0.562  -7.142  0.00  0.00     0.028 H 
ATOM     37  H   LIG d   1       6.662   0.749  -7.613  0.00  0.00     0.028 H 
ENDBRANCH   7  34
BRANCH   6  38
ATOM     38  O   LIG d   1       7.334  -0.382  -4.722  0.00  0.00    -0.487 OA
BRANCH  38  39
ATOM     39  C   LIG d   1       7.003  -0.753  -3.382  0.00  0.00     0.116 C 
ATOM     40  H   LIG d   1       7.213  -1.813  -3.237  0.00  0.00     0.075 H 
ATOM     41  H   LIG d   1       7.602  -0.166  -2.685  0.00  0.00     0.075 H 
BRANCH  39  42
ATOM     42  C   LIG d   1       5.540  -0.490  -3.134  0.00  0.00     0.004 A 
ATOM     43  C   LIG d   1       4.595  -1.419  -3.528  0.00  0.00     0.024 A 
ATOM     44  C   LIG d   1       3.252  -1.178  -3.300  0.00  0.00    -0.047 A 
ATOM     45 BR   LIG d   1       5.138  -3.020  -4.375  0.00  0.00    -0.050 Br
ATOM     46  C   LIG d   1       2.856  -0.008  -2.680  0.00  0.00    -0.061 A 
ATOM     47  H   LIG d   1       2.513  -1.903  -3.607  0.00  0.00     0.063 H 
ATOM     48  C   LIG d   1       3.801   0.921  -2.287  0.00  0.00    -0.061 A 
ATOM     49  H   LIG d   1       1.808   0.181  -2.503  0.00  0.00     0.062 H 
ATOM     50  C   LIG d   1       5.144   0.678  -2.510  0.00  0.00    -0.054 A 
ATOM     51  H   LIG d   1       3.492   1.835  -1.803  0.00  0.00     0.062 H 
ATOM     52  H   LIG d   1       5.883   1.401  -2.199  0.00  0.00     0.062 H 
ENDBRANCH  39  42
ENDBRANCH  38  39
ENDBRANCH   6  38
TORSDOF 11
ENDMDL
