MODEL 1
REMARK VINA RESULT:      -5.3      0.000      0.000
REMARK  18 active torsions:
REMARK  status: ('A' for Active; 'I' for Inactive)
REMARK    1  A    between atoms: C_1  and  C_2 
REMARK    2  A    between atoms: C_2  and  C_3 
REMARK    3  A    between atoms: C_3  and  C_4 
REMARK    4  A    between atoms: C_4  and  C_5 
REMARK    5  A    between atoms: C_5  and  C_6 
REMARK    6  A    between atoms: C_7  and  C_8 
REMARK    7  A    between atoms: C_8  and  C_9 
REMARK    8  A    between atoms: C_9  and  C_10 
REMARK    9  A    between atoms: C_10  and  C_11 
REMARK   10  A    between atoms: C_11  and  C_12 
REMARK   11  A    between atoms: C_12  and  C_13 
REMARK   12  A    between atoms: C_13  and  C_14 
REMARK   13  A    between atoms: C_14  and  C_15 
REMARK   14  A    between atoms: C_15  and  C_16 
REMARK   15  A    between atoms: C_16  and  C_17 
REMARK   16  A    between atoms: C_17  and  C_18 
REMARK   17  A    between atoms: C_18  and  C_19 
REMARK   18  A    between atoms: C_19  and  C_20 
ROOT
ATOM      1  C   LIG d   1       2.730  -1.065  -2.780  0.00  0.00    -0.053 C 
ATOM      2  H   LIG d   1       1.875  -1.207  -2.118  0.00  0.00     0.026 H 
ATOM      3  H   LIG d   1       2.417  -1.211  -3.813  0.00  0.00     0.026 H 
ENDROOT
BRANCH   1   4
ATOM      4  C   LIG d   1       3.278   0.353  -2.608  0.00  0.00    -0.053 C 
ATOM      5  H   LIG d   1       4.333   0.304  -2.339  0.00  0.00     0.026 H 
ATOM      6  H   LIG d   1       2.725   0.863  -1.819  0.00  0.00     0.026 H 
BRANCH   4   7
ATOM      7  C   LIG d   1       3.121   1.123  -3.921  0.00  0.00    -0.050 C 
ATOM      8  H   LIG d   1       4.059   1.621  -4.165  0.00  0.00     0.027 H 
ATOM      9  H   LIG d   1       2.331   1.867  -3.813  0.00  0.00     0.027 H 
BRANCH   7  10
ATOM     10  C   LIG d   1       2.754   0.149  -5.042  0.00  0.00    -0.035 C 
ATOM     11  H   LIG d   1       1.935   0.563  -5.630  0.00  0.00     0.031 H 
ATOM     12  H   LIG d   1       2.445  -0.803  -4.610  0.00  0.00     0.031 H 
BRANCH  10  13
ATOM     13  C   LIG d   1       3.950  -0.067  -5.932  0.00  0.00    -0.088 C 
ATOM     14  C   LIG d   1       3.781  -0.346  -7.201  0.00  0.00    -0.088 C 
ATOM     15  H   LIG d   1       4.629  -0.620  -7.811  0.00  0.00     0.057 H 
ATOM     16  H   LIG d   1       4.948   0.007  -5.523  0.00  0.00     0.057 H 
BRANCH  14  17
ATOM     17  C   LIG d   1       2.404  -0.282  -7.809  0.00  0.00    -0.035 C 
ATOM     18  H   LIG d   1       1.701   0.110  -7.076  0.00  0.00     0.031 H 
ATOM     19  H   LIG d   1       2.094  -1.283  -8.111  0.00  0.00     0.031 H 
BRANCH  17  20
ATOM     20  C   LIG d   1       2.429   0.634  -9.034  0.00  0.00    -0.050 C 
ATOM     21  H   LIG d   1       3.153   0.255  -9.756  0.00  0.00     0.027 H 
ATOM     22  H   LIG d   1       1.441   0.658  -9.491  0.00  0.00     0.027 H 
BRANCH  20  23
ATOM     23  C   LIG d   1       2.828   2.048  -8.606  0.00  0.00    -0.053 C 
ATOM     24  H   LIG d   1       1.967   2.709  -8.689  0.00  0.00     0.026 H 
ATOM     25  H   LIG d   1       3.174   2.030  -7.572  0.00  0.00     0.026 H 
BRANCH  23  26
ATOM     26  C   LIG d   1       3.952   2.557  -9.511  0.00  0.00    -0.056 C 
ATOM     27  H   LIG d   1       3.602   3.426 -10.070  0.00  0.00     0.026 H 
ATOM     28  H   LIG d   1       4.810   2.841  -8.901  0.00  0.00     0.026 H 
BRANCH  26  29
ATOM     29  C   LIG d   1       4.361   1.454 -10.487  0.00  0.00    -0.065 C 
ATOM     30  H   LIG d   1       4.714   1.901 -11.415  0.00  0.00     0.023 H 
ATOM     31  H   LIG d   1       5.160   0.857 -10.046  0.00  0.00     0.023 H 
ATOM     32  H   LIG d   1       3.503   0.815 -10.694  0.00  0.00     0.023 H 
ENDBRANCH  26  29
ENDBRANCH  23  26
ENDBRANCH  20  23
ENDBRANCH  17  20
ENDBRANCH  14  17
ENDBRANCH  10  13
ENDBRANCH   7  10
ENDBRANCH   4   7
ENDBRANCH   1   4
BRANCH   1  33
ATOM     33  C   LIG d   1       3.820  -2.080  -2.428  0.00  0.00    -0.053 C 
ATOM     34  H   LIG d   1       3.586  -2.547  -1.471  0.00  0.00     0.026 H 
ATOM     35  H   LIG d   1       3.868  -2.845  -3.203  0.00  0.00     0.026 H 
BRANCH  33  36
ATOM     36  C   LIG d   1       5.170  -1.366  -2.331  0.00  0.00    -0.053 C 
ATOM     37  H   LIG d   1       5.024  -0.294  -2.471  0.00  0.00     0.026 H 
ATOM     38  H   LIG d   1       5.608  -1.549  -1.349  0.00  0.00     0.026 H 
BRANCH  36  39
ATOM     39  C   LIG d   1       6.108  -1.900  -3.415  0.00  0.00    -0.053 C 
ATOM     40  H   LIG d   1       6.398  -1.086  -4.079  0.00  0.00     0.026 H 
ATOM     41  H   LIG d   1       6.997  -2.323  -2.949  0.00  0.00     0.026 H 
BRANCH  39  42
ATOM     42  C   LIG d   1       5.389  -2.984  -4.222  0.00  0.00    -0.053 C 
ATOM     43  H   LIG d   1       4.970  -3.726  -3.542  0.00  0.00     0.026 H 
ATOM     44  H   LIG d   1       4.588  -2.532  -4.805  0.00  0.00     0.026 H 
BRANCH  42  45
ATOM     45  C   LIG d   1       6.385  -3.663  -5.164  0.00  0.00    -0.053 C 
ATOM     46  H   LIG d   1       7.392  -3.570  -4.757  0.00  0.00     0.026 H 
ATOM     47  H   LIG d   1       6.130  -4.718  -5.264  0.00  0.00     0.026 H 
BRANCH  45  48
ATOM     48  C   LIG d   1       6.327  -2.992  -6.538  0.00  0.00    -0.053 C 
ATOM     49  H   LIG d   1       5.632  -2.153  -6.503  0.00  0.00     0.026 H 
ATOM     50  H   LIG d   1       7.320  -2.630  -6.807  0.00  0.00     0.026 H 
BRANCH  48  51
ATOM     51  C   LIG d   1       5.853  -4.005  -7.581  0.00  0.00    -0.048 C 
ATOM     52  H   LIG d   1       6.357  -3.814  -8.529  0.00  0.00     0.027 H 
ATOM     53  H   LIG d   1       6.089  -5.014  -7.241  0.00  0.00     0.027 H 
BRANCH  51  54
ATOM     54  C   LIG d   1       4.341  -3.872  -7.771  0.00  0.00    -0.013 C 
ATOM     55  H   LIG d   1       3.972  -3.037  -7.176  0.00  0.00     0.033 H 
ATOM     56  H   LIG d   1       4.121  -3.693  -8.824  0.00  0.00     0.033 H 
BRANCH  54  57
ATOM     57  C   LIG d   1       3.664  -5.143  -7.326  0.00  0.00     0.042 C 
ATOM     58  O   LIG d   1       3.326  -5.966  -8.144  0.00  0.00    -0.550 OA
ATOM     59  O   LIG d   1       3.438  -5.361  -6.022  0.00  0.00    -0.550 OA
ENDBRANCH  54  57
ENDBRANCH  51  54
ENDBRANCH  48  51
ENDBRANCH  45  48
ENDBRANCH  42  45
ENDBRANCH  39  42
ENDBRANCH  36  39
ENDBRANCH  33  36
ENDBRANCH   1  33
TORSDOF 18
ENDMDL
MODEL 2
REMARK VINA RESULT:      -5.3      1.222      4.937
REMARK  18 active torsions:
REMARK  status: ('A' for Active; 'I' for Inactive)
REMARK    1  A    between atoms: C_1  and  C_2 
REMARK    2  A    between atoms: C_2  and  C_3 
REMARK    3  A    between atoms: C_3  and  C_4 
REMARK    4  A    between atoms: C_4  and  C_5 
REMARK    5  A    between atoms: C_5  and  C_6 
REMARK    6  A    between atoms: C_7  and  C_8 
REMARK    7  A    between atoms: C_8  and  C_9 
REMARK    8  A    between atoms: C_9  and  C_10 
REMARK    9  A    between atoms: C_10  and  C_11 
REMARK   10  A    between atoms: C_11  and  C_12 
REMARK   11  A    between atoms: C_12  and  C_13 
REMARK   12  A    between atoms: C_13  and  C_14 
REMARK   13  A    between atoms: C_14  and  C_15 
REMARK   14  A    between atoms: C_15  and  C_16 
REMARK   15  A    between atoms: C_16  and  C_17 
REMARK   16  A    between atoms: C_17  and  C_18 
REMARK   17  A    between atoms: C_18  and  C_19 
REMARK   18  A    between atoms: C_19  and  C_20 
ROOT
ATOM      1  C   LIG d   1       3.368  -0.026  -6.105  0.00  0.00    -0.053 C 
ATOM      2  H   LIG d   1       4.252   0.610  -6.156  0.00  0.00     0.026 H 
ATOM      3  H   LIG d   1       3.676  -1.070  -6.044  0.00  0.00     0.026 H 
ENDROOT
BRANCH   1   4
ATOM      4  C   LIG d   1       2.549   0.337  -4.865  0.00  0.00    -0.053 C 
ATOM      5  H   LIG d   1       2.169  -0.573  -4.402  0.00  0.00     0.026 H 
ATOM      6  H   LIG d   1       1.713   0.973  -5.156  0.00  0.00     0.026 H 
BRANCH   4   7
ATOM      7  C   LIG d   1       3.436   1.085  -3.869  0.00  0.00    -0.050 C 
ATOM      8  H   LIG d   1       3.212   2.151  -3.910  0.00  0.00     0.027 H 
ATOM      9  H   LIG d   1       4.485   0.923  -4.123  0.00  0.00     0.027 H 
BRANCH   7  10
ATOM     10  C   LIG d   1       3.169   0.563  -2.455  0.00  0.00    -0.035 C 
ATOM     11  H   LIG d   1       2.476  -0.277  -2.504  0.00  0.00     0.031 H 
ATOM     12  H   LIG d   1       2.735   1.358  -1.850  0.00  0.00     0.031 H 
BRANCH  10  13
ATOM     13  C   LIG d   1       4.464   0.109  -1.834  0.00  0.00    -0.088 C 
ATOM     14  C   LIG d   1       4.745  -1.169  -1.762  0.00  0.00    -0.088 C 
ATOM     15  H   LIG d   1       5.611  -1.501  -1.212  0.00  0.00     0.057 H 
ATOM     16  H   LIG d   1       5.162   0.838  -1.447  0.00  0.00     0.057 H 
BRANCH  14  17
ATOM     17  C   LIG d   1       3.858  -2.174  -2.452  0.00  0.00    -0.035 C 
ATOM     18  H   LIG d   1       2.903  -1.710  -2.694  0.00  0.00     0.031 H 
ATOM     19  H   LIG d   1       3.691  -3.024  -1.790  0.00  0.00     0.031 H 
BRANCH  17  20
ATOM     20  C   LIG d   1       4.534  -2.654  -3.736  0.00  0.00    -0.050 C 
ATOM     21  H   LIG d   1       4.395  -3.731  -3.839  0.00  0.00     0.027 H 
ATOM     22  H   LIG d   1       4.090  -2.149  -4.593  0.00  0.00     0.027 H 
BRANCH  20  23
ATOM     23  C   LIG d   1       6.030  -2.336  -3.676  0.00  0.00    -0.053 C 
ATOM     24  H   LIG d   1       6.220  -1.641  -2.859  0.00  0.00     0.026 H 
ATOM     25  H   LIG d   1       6.590  -3.257  -3.508  0.00  0.00     0.026 H 
BRANCH  23  26
ATOM     26  C   LIG d   1       6.472  -1.704  -4.997  0.00  0.00    -0.056 C 
ATOM     27  H   LIG d   1       7.327  -2.252  -5.393  0.00  0.00     0.026 H 
ATOM     28  H   LIG d   1       5.651  -1.748  -5.713  0.00  0.00     0.026 H 
BRANCH  26  29
ATOM     29  C   LIG d   1       6.865  -0.246  -4.758  0.00  0.00    -0.065 C 
ATOM     30  H   LIG d   1       7.593  -0.193  -3.949  0.00  0.00     0.023 H 
ATOM     31  H   LIG d   1       7.303   0.165  -5.668  0.00  0.00     0.023 H 
ATOM     32  H   LIG d   1       5.980   0.331  -4.490  0.00  0.00     0.023 H 
ENDBRANCH  26  29
ENDBRANCH  23  26
ENDBRANCH  20  23
ENDBRANCH  17  20
ENDBRANCH  14  17
ENDBRANCH  10  13
ENDBRANCH   7  10
ENDBRANCH   4   7
ENDBRANCH   1   4
BRANCH   1  33
ATOM     33  C   LIG d   1       2.517   0.183  -7.359  0.00  0.00    -0.053 C 
ATOM     34  H   LIG d   1       2.405  -0.766  -7.884  0.00  0.00     0.026 H 
ATOM     35  H   LIG d   1       1.534   0.558  -7.073  0.00  0.00     0.026 H 
BRANCH  33  36
ATOM     36  C   LIG d   1       3.201   1.197  -8.278  0.00  0.00    -0.053 C 
ATOM     37  H   LIG d   1       2.790   2.190  -8.093  0.00  0.00     0.026 H 
ATOM     38  H   LIG d   1       4.273   1.204  -8.076  0.00  0.00     0.026 H 
BRANCH  36  39
ATOM     39  C   LIG d   1       2.960   0.807  -9.737  0.00  0.00    -0.053 C 
ATOM     40  H   LIG d   1       2.085   1.337 -10.115  0.00  0.00     0.026 H 
ATOM     41  H   LIG d   1       3.832   1.075 -10.333  0.00  0.00     0.026 H 
BRANCH  39  42
ATOM     42  C   LIG d   1       2.722  -0.702  -9.829  0.00  0.00    -0.053 C 
ATOM     43  H   LIG d   1       2.521  -1.099  -8.834  0.00  0.00     0.026 H 
ATOM     44  H   LIG d   1       1.869  -0.897 -10.477  0.00  0.00     0.026 H 
BRANCH  42  45
ATOM     45  C   LIG d   1       3.966  -1.379 -10.407  0.00  0.00    -0.053 C 
ATOM     46  H   LIG d   1       3.673  -2.051 -11.213  0.00  0.00     0.026 H 
ATOM     47  H   LIG d   1       4.646  -0.620 -10.795  0.00  0.00     0.026 H 
BRANCH  45  48
ATOM     48  C   LIG d   1       4.670  -2.178  -9.308  0.00  0.00    -0.053 C 
ATOM     49  H   LIG d   1       5.451  -2.796  -9.751  0.00  0.00     0.026 H 
ATOM     50  H   LIG d   1       5.114  -1.491  -8.587  0.00  0.00     0.026 H 
BRANCH  48  51
ATOM     51  C   LIG d   1       3.652  -3.073  -8.597  0.00  0.00    -0.048 C 
ATOM     52  H   LIG d   1       2.778  -2.483  -8.322  0.00  0.00     0.027 H 
ATOM     53  H   LIG d   1       3.350  -3.880  -9.265  0.00  0.00     0.027 H 
BRANCH  51  54
ATOM     54  C   LIG d   1       4.286  -3.665  -7.337  0.00  0.00    -0.013 C 
ATOM     55  H   LIG d   1       5.361  -3.768  -7.485  0.00  0.00     0.033 H 
ATOM     56  H   LIG d   1       4.097  -3.005  -6.491  0.00  0.00     0.033 H 
BRANCH  54  57
ATOM     57  C   LIG d   1       3.686  -5.019  -7.061  0.00  0.00     0.042 C 
ATOM     58  O   LIG d   1       3.578  -5.412  -5.923  0.00  0.00    -0.550 OA
ATOM     59  O   LIG d   1       3.270  -5.789  -8.078  0.00  0.00    -0.550 OA
ENDBRANCH  54  57
ENDBRANCH  51  54
ENDBRANCH  48  51
ENDBRANCH  45  48
ENDBRANCH  42  45
ENDBRANCH  39  42
ENDBRANCH  36  39
ENDBRANCH  33  36
ENDBRANCH   1  33
TORSDOF 18
ENDMDL
MODEL 3
REMARK VINA RESULT:      -5.3      2.139      3.898
REMARK  18 active torsions:
REMARK  status: ('A' for Active; 'I' for Inactive)
REMARK    1  A    between atoms: C_1  and  C_2 
REMARK    2  A    between atoms: C_2  and  C_3 
REMARK    3  A    between atoms: C_3  and  C_4 
REMARK    4  A    between atoms: C_4  and  C_5 
REMARK    5  A    between atoms: C_5  and  C_6 
REMARK    6  A    between atoms: C_7  and  C_8 
REMARK    7  A    between atoms: C_8  and  C_9 
REMARK    8  A    between atoms: C_9  and  C_10 
REMARK    9  A    between atoms: C_10  and  C_11 
REMARK   10  A    between atoms: C_11  and  C_12 
REMARK   11  A    between atoms: C_12  and  C_13 
REMARK   12  A    between atoms: C_13  and  C_14 
REMARK   13  A    between atoms: C_14  and  C_15 
REMARK   14  A    between atoms: C_15  and  C_16 
REMARK   15  A    between atoms: C_16  and  C_17 
REMARK   16  A    between atoms: C_17  and  C_18 
REMARK   17  A    between atoms: C_18  and  C_19 
REMARK   18  A    between atoms: C_19  and  C_20 
ROOT
ATOM      1  C   LIG d   1       7.761   1.150  -3.947  0.00  0.00    -0.053 C 
ATOM      2  H   LIG d   1       8.674   0.696  -3.560  0.00  0.00     0.026 H 
ATOM      3  H   LIG d   1       7.698   2.184  -3.609  0.00  0.00     0.026 H 
ENDROOT
BRANCH   1   4
ATOM      4  C   LIG d   1       7.781   1.113  -5.476  0.00  0.00    -0.053 C 
ATOM      5  H   LIG d   1       8.794   0.908  -5.821  0.00  0.00     0.026 H 
ATOM      6  H   LIG d   1       7.452   2.076  -5.867  0.00  0.00     0.026 H 
BRANCH   4   7
ATOM      7  C   LIG d   1       6.840   0.013  -5.972  0.00  0.00    -0.050 C 
ATOM      8  H   LIG d   1       5.859   0.141  -5.516  0.00  0.00     0.027 H 
ATOM      9  H   LIG d   1       7.245  -0.962  -5.699  0.00  0.00     0.027 H 
BRANCH   7  10
ATOM     10  C   LIG d   1       6.711   0.101  -7.494  0.00  0.00    -0.035 C 
ATOM     11  H   LIG d   1       5.677  -0.086  -7.782  0.00  0.00     0.031 H 
ATOM     12  H   LIG d   1       7.358  -0.644  -7.958  0.00  0.00     0.031 H 
BRANCH  10  13
ATOM     13  C   LIG d   1       7.119   1.476  -7.955  0.00  0.00    -0.088 C 
ATOM     14  C   LIG d   1       6.434   2.084  -8.892  0.00  0.00    -0.088 C 
ATOM     15  H   LIG d   1       6.794   3.013  -9.307  0.00  0.00     0.057 H 
ATOM     16  H   LIG d   1       7.977   1.962  -7.512  0.00  0.00     0.057 H 
BRANCH  14  17
ATOM     17  C   LIG d   1       5.142   1.486  -9.388  0.00  0.00    -0.035 C 
ATOM     18  H   LIG d   1       4.856   0.655  -8.745  0.00  0.00     0.031 H 
ATOM     19  H   LIG d   1       5.278   1.124 -10.408  0.00  0.00     0.031 H 
BRANCH  17  20
ATOM     20  C   LIG d   1       4.046   2.551  -9.368  0.00  0.00    -0.050 C 
ATOM     21  H   LIG d   1       4.470   3.503  -9.048  0.00  0.00     0.027 H 
ATOM     22  H   LIG d   1       3.624   2.659 -10.366  0.00  0.00     0.027 H 
BRANCH  20  23
ATOM     23  C   LIG d   1       2.944   2.131  -8.392  0.00  0.00    -0.053 C 
ATOM     24  H   LIG d   1       3.088   2.642  -7.441  0.00  0.00     0.026 H 
ATOM     25  H   LIG d   1       1.971   2.399  -8.805  0.00  0.00     0.026 H 
BRANCH  23  26
ATOM     26  C   LIG d   1       3.006   0.618  -8.172  0.00  0.00    -0.056 C 
ATOM     27  H   LIG d   1       2.173   0.142  -8.689  0.00  0.00     0.026 H 
ATOM     28  H   LIG d   1       3.946   0.232  -8.567  0.00  0.00     0.026 H 
BRANCH  26  29
ATOM     29  C   LIG d   1       2.918   0.315  -6.676  0.00  0.00    -0.065 C 
ATOM     30  H   LIG d   1       2.028   0.787  -6.261  0.00  0.00     0.023 H 
ATOM     31  H   LIG d   1       2.861  -0.763  -6.526  0.00  0.00     0.023 H 
ATOM     32  H   LIG d   1       3.803   0.704  -6.173  0.00  0.00     0.023 H 
ENDBRANCH  26  29
ENDBRANCH  23  26
ENDBRANCH  20  23
ENDBRANCH  17  20
ENDBRANCH  14  17
ENDBRANCH  10  13
ENDBRANCH   7  10
ENDBRANCH   4   7
ENDBRANCH   1   4
BRANCH   1  33
ATOM     33  C   LIG d   1       6.548   0.370  -3.433  0.00  0.00    -0.053 C 
ATOM     34  H   LIG d   1       6.056  -0.127  -4.269  0.00  0.00     0.026 H 
ATOM     35  H   LIG d   1       6.876  -0.375  -2.708  0.00  0.00     0.026 H 
BRANCH  33  36
ATOM     36  C   LIG d   1       5.567   1.335  -2.764  0.00  0.00    -0.053 C 
ATOM     37  H   LIG d   1       6.118   2.032  -2.132  0.00  0.00     0.026 H 
ATOM     38  H   LIG d   1       5.025   1.890  -3.531  0.00  0.00     0.026 H 
BRANCH  36  39
ATOM     39  C   LIG d   1       4.575   0.543  -1.910  0.00  0.00    -0.053 C 
ATOM     40  H   LIG d   1       4.948  -0.471  -1.767  0.00  0.00     0.026 H 
ATOM     41  H   LIG d   1       4.463   1.029  -0.941  0.00  0.00     0.026 H 
BRANCH  39  42
ATOM     42  C   LIG d   1       3.219   0.494  -2.618  0.00  0.00    -0.053 C 
ATOM     43  H   LIG d   1       2.446   0.873  -1.950  0.00  0.00     0.026 H 
ATOM     44  H   LIG d   1       3.257   1.109  -3.517  0.00  0.00     0.026 H 
BRANCH  42  45
ATOM     45  C   LIG d   1       2.897  -0.951  -3.002  0.00  0.00    -0.053 C 
ATOM     46  H   LIG d   1       1.879  -1.191  -2.695  0.00  0.00     0.026 H 
ATOM     47  H   LIG d   1       2.987  -1.069  -4.082  0.00  0.00     0.026 H 
BRANCH  45  48
ATOM     48  C   LIG d   1       3.876  -1.896  -2.302  0.00  0.00    -0.053 C 
ATOM     49  H   LIG d   1       4.720  -1.324  -1.916  0.00  0.00     0.026 H 
ATOM     50  H   LIG d   1       3.369  -2.398  -1.477  0.00  0.00     0.026 H 
BRANCH  48  51
ATOM     51  C   LIG d   1       4.380  -2.939  -3.300  0.00  0.00    -0.048 C 
ATOM     52  H   LIG d   1       5.368  -3.286  -2.997  0.00  0.00     0.027 H 
ATOM     53  H   LIG d   1       3.691  -3.783  -3.323  0.00  0.00     0.027 H 
BRANCH  51  54
ATOM     54  C   LIG d   1       4.466  -2.313  -4.694  0.00  0.00    -0.013 C 
ATOM     55  H   LIG d   1       3.547  -1.764  -4.902  0.00  0.00     0.033 H 
ATOM     56  H   LIG d   1       5.314  -1.629  -4.733  0.00  0.00     0.033 H 
BRANCH  54  57
ATOM     57  C   LIG d   1       4.646  -3.398  -5.723  0.00  0.00     0.042 C 
ATOM     58  O   LIG d   1       5.257  -3.170  -6.741  0.00  0.00    -0.550 OA
ATOM     59  O   LIG d   1       4.130  -4.619  -5.509  0.00  0.00    -0.550 OA
ENDBRANCH  54  57
ENDBRANCH  51  54
ENDBRANCH  48  51
ENDBRANCH  45  48
ENDBRANCH  42  45
ENDBRANCH  39  42
ENDBRANCH  36  39
ENDBRANCH  33  36
ENDBRANCH   1  33
TORSDOF 18
ENDMDL
MODEL 4
REMARK VINA RESULT:      -5.2      2.732      6.146
REMARK  18 active torsions:
REMARK  status: ('A' for Active; 'I' for Inactive)
REMARK    1  A    between atoms: C_1  and  C_2 
REMARK    2  A    between atoms: C_2  and  C_3 
REMARK    3  A    between atoms: C_3  and  C_4 
REMARK    4  A    between atoms: C_4  and  C_5 
REMARK    5  A    between atoms: C_5  and  C_6 
REMARK    6  A    between atoms: C_7  and  C_8 
REMARK    7  A    between atoms: C_8  and  C_9 
REMARK    8  A    between atoms: C_9  and  C_10 
REMARK    9  A    between atoms: C_10  and  C_11 
REMARK   10  A    between atoms: C_11  and  C_12 
REMARK   11  A    between atoms: C_12  and  C_13 
REMARK   12  A    between atoms: C_13  and  C_14 
REMARK   13  A    between atoms: C_14  and  C_15 
REMARK   14  A    between atoms: C_15  and  C_16 
REMARK   15  A    between atoms: C_16  and  C_17 
REMARK   16  A    between atoms: C_17  and  C_18 
REMARK   17  A    between atoms: C_18  and  C_19 
REMARK   18  A    between atoms: C_19  and  C_20 
ROOT
ATOM      1  C   LIG d   1       3.651  -0.684  -7.079  0.00  0.00    -0.053 C 
ATOM      2  H   LIG d   1       4.504  -0.515  -7.736  0.00  0.00     0.026 H 
ATOM      3  H   LIG d   1       3.496  -1.755  -6.953  0.00  0.00     0.026 H 
ENDROOT
BRANCH   1   4
ATOM      4  C   LIG d   1       3.923  -0.044  -5.716  0.00  0.00    -0.053 C 
ATOM      5  H   LIG d   1       4.491   0.876  -5.853  0.00  0.00     0.026 H 
ATOM      6  H   LIG d   1       4.495  -0.736  -5.098  0.00  0.00     0.026 H 
BRANCH   4   7
ATOM      7  C   LIG d   1       2.594   0.275  -5.028  0.00  0.00    -0.050 C 
ATOM      8  H   LIG d   1       1.769  -0.044  -5.665  0.00  0.00     0.027 H 
ATOM      9  H   LIG d   1       2.525   1.349  -4.852  0.00  0.00     0.027 H 
BRANCH   7  10
ATOM     10  C   LIG d   1       2.521  -0.466  -3.691  0.00  0.00    -0.035 C 
ATOM     11  H   LIG d   1       2.976  -1.451  -3.796  0.00  0.00     0.031 H 
ATOM     12  H   LIG d   1       1.478  -0.578  -3.394  0.00  0.00     0.031 H 
BRANCH  10  13
ATOM     13  C   LIG d   1       3.261   0.319  -2.640  0.00  0.00    -0.088 C 
ATOM     14  C   LIG d   1       4.230  -0.244  -1.962  0.00  0.00    -0.088 C 
ATOM     15  H   LIG d   1       4.679   0.275  -1.128  0.00  0.00     0.057 H 
ATOM     16  H   LIG d   1       2.993   1.348  -2.445  0.00  0.00     0.057 H 
BRANCH  14  17
ATOM     17  C   LIG d   1       4.719  -1.617  -2.347  0.00  0.00    -0.035 C 
ATOM     18  H   LIG d   1       4.005  -2.080  -3.025  0.00  0.00     0.031 H 
ATOM     19  H   LIG d   1       4.819  -2.231  -1.451  0.00  0.00     0.031 H 
BRANCH  17  20
ATOM     20  C   LIG d   1       6.079  -1.499  -3.037  0.00  0.00    -0.050 C 
ATOM     21  H   LIG d   1       6.186  -0.499  -3.458  0.00  0.00     0.027 H 
ATOM     22  H   LIG d   1       6.872  -1.674  -2.312  0.00  0.00     0.027 H 
BRANCH  20  23
ATOM     23  C   LIG d   1       6.174  -2.537  -4.158  0.00  0.00    -0.053 C 
ATOM     24  H   LIG d   1       6.398  -2.035  -5.099  0.00  0.00     0.026 H 
ATOM     25  H   LIG d   1       6.967  -3.249  -3.927  0.00  0.00     0.026 H 
BRANCH  23  26
ATOM     26  C   LIG d   1       4.842  -3.279  -4.281  0.00  0.00    -0.056 C 
ATOM     27  H   LIG d   1       4.773  -4.033  -3.497  0.00  0.00     0.026 H 
ATOM     28  H   LIG d   1       4.020  -2.570  -4.176  0.00  0.00     0.026 H 
BRANCH  26  29
ATOM     29  C   LIG d   1       4.759  -3.957  -5.649  0.00  0.00    -0.065 C 
ATOM     30  H   LIG d   1       4.867  -3.208  -6.433  0.00  0.00     0.023 H 
ATOM     31  H   LIG d   1       5.559  -4.693  -5.738  0.00  0.00     0.023 H 
ATOM     32  H   LIG d   1       3.796  -4.454  -5.752  0.00  0.00     0.023 H 
ENDBRANCH  26  29
ENDBRANCH  23  26
ENDBRANCH  20  23
ENDBRANCH  17  20
ENDBRANCH  14  17
ENDBRANCH  10  13
ENDBRANCH   7  10
ENDBRANCH   4   7
ENDBRANCH   1   4
BRANCH   1  33
ATOM     33  C   LIG d   1       2.400  -0.056  -7.697  0.00  0.00    -0.053 C 
ATOM     34  H   LIG d   1       1.671  -0.837  -7.913  0.00  0.00     0.026 H 
ATOM     35  H   LIG d   1       1.968   0.659  -6.997  0.00  0.00     0.026 H 
BRANCH  33  36
ATOM     36  C   LIG d   1       2.777   0.663  -8.993  0.00  0.00    -0.053 C 
ATOM     37  H   LIG d   1       3.636   0.168  -9.447  0.00  0.00     0.026 H 
ATOM     38  H   LIG d   1       1.933   0.632  -9.684  0.00  0.00     0.026 H 
BRANCH  36  39
ATOM     39  C   LIG d   1       3.129   2.119  -8.685  0.00  0.00    -0.053 C 
ATOM     40  H   LIG d   1       2.412   2.778  -9.175  0.00  0.00     0.026 H 
ATOM     41  H   LIG d   1       3.094   2.280  -7.608  0.00  0.00     0.026 H 
BRANCH  39  42
ATOM     42  C   LIG d   1       4.538   2.423  -9.202  0.00  0.00    -0.053 C 
ATOM     43  H   LIG d   1       4.499   3.267  -9.889  0.00  0.00     0.026 H 
ATOM     44  H   LIG d   1       5.188   2.666  -8.362  0.00  0.00     0.026 H 
BRANCH  42  45
ATOM     45  C   LIG d   1       5.087   1.196  -9.932  0.00  0.00    -0.053 C 
ATOM     46  H   LIG d   1       4.511   0.315  -9.648  0.00  0.00     0.026 H 
ATOM     47  H   LIG d   1       5.010   1.348 -11.008  0.00  0.00     0.026 H 
BRANCH  45  48
ATOM     48  C   LIG d   1       6.554   0.989  -9.550  0.00  0.00    -0.053 C 
ATOM     49  H   LIG d   1       6.842  -0.041  -9.758  0.00  0.00     0.026 H 
ATOM     50  H   LIG d   1       7.180   1.667 -10.132  0.00  0.00     0.026 H 
BRANCH  48  51
ATOM     51  C   LIG d   1       6.739   1.278  -8.059  0.00  0.00    -0.048 C 
ATOM     52  H   LIG d   1       7.458   2.088  -7.932  0.00  0.00     0.027 H 
ATOM     53  H   LIG d   1       5.782   1.571  -7.625  0.00  0.00     0.027 H 
BRANCH  51  54
ATOM     54  C   LIG d   1       7.255   0.022  -7.355  0.00  0.00    -0.013 C 
ATOM     55  H   LIG d   1       6.451  -0.710  -7.281  0.00  0.00     0.033 H 
ATOM     56  H   LIG d   1       8.080  -0.402  -7.928  0.00  0.00     0.033 H 
BRANCH  54  57
ATOM     57  C   LIG d   1       7.736   0.381  -5.973  0.00  0.00     0.042 C 
ATOM     58  O   LIG d   1       7.200   1.276  -5.361  0.00  0.00    -0.550 OA
ATOM     59  O   LIG d   1       8.757  -0.291  -5.422  0.00  0.00    -0.550 OA
ENDBRANCH  54  57
ENDBRANCH  51  54
ENDBRANCH  48  51
ENDBRANCH  45  48
ENDBRANCH  42  45
ENDBRANCH  39  42
ENDBRANCH  36  39
ENDBRANCH  33  36
ENDBRANCH   1  33
TORSDOF 18
ENDMDL
MODEL 5
REMARK VINA RESULT:      -5.2      2.894      5.921
REMARK  18 active torsions:
REMARK  status: ('A' for Active; 'I' for Inactive)
REMARK    1  A    between atoms: C_1  and  C_2 
REMARK    2  A    between atoms: C_2  and  C_3 
REMARK    3  A    between atoms: C_3  and  C_4 
REMARK    4  A    between atoms: C_4  and  C_5 
REMARK    5  A    between atoms: C_5  and  C_6 
REMARK    6  A    between atoms: C_7  and  C_8 
REMARK    7  A    between atoms: C_8  and  C_9 
REMARK    8  A    between atoms: C_9  and  C_10 
REMARK    9  A    between atoms: C_10  and  C_11 
REMARK   10  A    between atoms: C_11  and  C_12 
REMARK   11  A    between atoms: C_12  and  C_13 
REMARK   12  A    between atoms: C_13  and  C_14 
REMARK   13  A    between atoms: C_14  and  C_15 
REMARK   14  A    between atoms: C_15  and  C_16 
REMARK   15  A    between atoms: C_16  and  C_17 
REMARK   16  A    between atoms: C_17  and  C_18 
REMARK   17  A    between atoms: C_18  and  C_19 
REMARK   18  A    between atoms: C_19  and  C_20 
ROOT
ATOM      1  C   LIG d   1       6.673  -3.120  -5.913  0.00  0.00    -0.053 C 
ATOM      2  H   LIG d   1       7.523  -2.445  -6.009  0.00  0.00     0.026 H 
ATOM      3  H   LIG d   1       6.951  -4.108  -6.282  0.00  0.00     0.026 H 
ENDROOT
BRANCH   1   4
ATOM      4  C   LIG d   1       6.266  -3.223  -4.441  0.00  0.00    -0.053 C 
ATOM      5  H   LIG d   1       6.660  -2.366  -3.895  0.00  0.00     0.026 H 
ATOM      6  H   LIG d   1       6.670  -4.142  -4.016  0.00  0.00     0.026 H 
BRANCH   4   7
ATOM      7  C   LIG d   1       4.740  -3.240  -4.334  0.00  0.00    -0.050 C 
ATOM      8  H   LIG d   1       4.382  -4.266  -4.412  0.00  0.00     0.027 H 
ATOM      9  H   LIG d   1       4.313  -2.642  -5.141  0.00  0.00     0.027 H 
BRANCH   7  10
ATOM     10  C   LIG d   1       4.317  -2.652  -2.987  0.00  0.00    -0.035 C 
ATOM     11  H   LIG d   1       5.174  -2.171  -2.515  0.00  0.00     0.031 H 
ATOM     12  H   LIG d   1       3.948  -3.450  -2.342  0.00  0.00     0.031 H 
BRANCH  10  13
ATOM     13  C   LIG d   1       3.227  -1.635  -3.202  0.00  0.00    -0.088 C 
ATOM     14  C   LIG d   1       3.271  -0.484  -2.577  0.00  0.00    -0.088 C 
ATOM     15  H   LIG d   1       2.433   0.194  -2.635  0.00  0.00     0.057 H 
ATOM     16  H   LIG d   1       2.408  -1.854  -3.872  0.00  0.00     0.057 H 
BRANCH  14  17
ATOM     17  C   LIG d   1       4.492  -0.107  -1.779  0.00  0.00    -0.035 C 
ATOM     18  H   LIG d   1       5.307  -0.789  -2.019  0.00  0.00     0.031 H 
ATOM     19  H   LIG d   1       4.265  -0.175  -0.714  0.00  0.00     0.031 H 
BRANCH  17  20
ATOM     20  C   LIG d   1       4.904   1.325  -2.122  0.00  0.00    -0.050 C 
ATOM     21  H   LIG d   1       4.015   1.913  -2.351  0.00  0.00     0.027 H 
ATOM     22  H   LIG d   1       5.423   1.768  -1.273  0.00  0.00     0.027 H 
BRANCH  20  23
ATOM     23  C   LIG d   1       5.834   1.311  -3.337  0.00  0.00    -0.053 C 
ATOM     24  H   LIG d   1       5.238   1.277  -4.249  0.00  0.00     0.026 H 
ATOM     25  H   LIG d   1       6.445   2.214  -3.336  0.00  0.00     0.026 H 
BRANCH  23  26
ATOM     26  C   LIG d   1       6.740   0.081  -3.273  0.00  0.00    -0.056 C 
ATOM     27  H   LIG d   1       7.191   0.013  -2.283  0.00  0.00     0.026 H 
ATOM     28  H   LIG d   1       6.149  -0.816  -3.465  0.00  0.00     0.026 H 
BRANCH  26  29
ATOM     29  C   LIG d   1       7.841   0.202  -4.327  0.00  0.00    -0.065 C 
ATOM     30  H   LIG d   1       8.511  -0.653  -4.254  0.00  0.00     0.023 H 
ATOM     31  H   LIG d   1       7.392   0.226  -5.320  0.00  0.00     0.023 H 
ATOM     32  H   LIG d   1       8.404   1.120  -4.162  0.00  0.00     0.023 H 
ENDBRANCH  26  29
ENDBRANCH  23  26
ENDBRANCH  20  23
ENDBRANCH  17  20
ENDBRANCH  14  17
ENDBRANCH  10  13
ENDBRANCH   7  10
ENDBRANCH   4   7
ENDBRANCH   1   4
BRANCH   1  33
ATOM     33  C   LIG d   1       5.499  -2.581  -6.731  0.00  0.00    -0.053 C 
ATOM     34  H   LIG d   1       5.112  -3.371  -7.375  0.00  0.00     0.026 H 
ATOM     35  H   LIG d   1       4.711  -2.243  -6.058  0.00  0.00     0.026 H 
BRANCH  33  36
ATOM     36  C   LIG d   1       5.972  -1.408  -7.591  0.00  0.00    -0.053 C 
ATOM     37  H   LIG d   1       7.061  -1.359  -7.571  0.00  0.00     0.026 H 
ATOM     38  H   LIG d   1       5.633  -1.551  -8.618  0.00  0.00     0.026 H 
BRANCH  36  39
ATOM     39  C   LIG d   1       5.391  -0.104  -7.040  0.00  0.00    -0.053 C 
ATOM     40  H   LIG d   1       6.118   0.367  -6.378  0.00  0.00     0.026 H 
ATOM     41  H   LIG d   1       5.162   0.569  -7.866  0.00  0.00     0.026 H 
BRANCH  39  42
ATOM     42  C   LIG d   1       4.111  -0.408  -6.258  0.00  0.00    -0.053 C 
ATOM     43  H   LIG d   1       3.912  -1.479  -6.287  0.00  0.00     0.026 H 
ATOM     44  H   LIG d   1       4.232  -0.089  -5.224  0.00  0.00     0.026 H 
BRANCH  42  45
ATOM     45  C   LIG d   1       2.938   0.345  -6.889  0.00  0.00    -0.053 C 
ATOM     46  H   LIG d   1       2.097   0.356  -6.195  0.00  0.00     0.026 H 
ATOM     47  H   LIG d   1       3.240   1.368  -7.111  0.00  0.00     0.026 H 
BRANCH  45  48
ATOM     48  C   LIG d   1       2.519  -0.355  -8.184  0.00  0.00    -0.053 C 
ATOM     49  H   LIG d   1       3.306  -1.041  -8.497  0.00  0.00     0.026 H 
ATOM     50  H   LIG d   1       1.597  -0.912  -8.014  0.00  0.00     0.026 H 
BRANCH  48  51
ATOM     51  C   LIG d   1       2.289   0.690  -9.277  0.00  0.00    -0.048 C 
ATOM     52  H   LIG d   1       2.655   0.306 -10.229  0.00  0.00     0.027 H 
ATOM     53  H   LIG d   1       1.223   0.903  -9.357  0.00  0.00     0.027 H 
BRANCH  51  54
ATOM     54  C   LIG d   1       3.041   1.974  -8.922  0.00  0.00    -0.013 C 
ATOM     55  H   LIG d   1       2.412   2.836  -9.141  0.00  0.00     0.033 H 
ATOM     56  H   LIG d   1       3.291   1.967  -7.861  0.00  0.00     0.033 H 
BRANCH  54  57
ATOM     57  C   LIG d   1       4.307   2.057  -9.735  0.00  0.00     0.042 C 
ATOM     58  O   LIG d   1       4.387   1.471 -10.789  0.00  0.00    -0.550 OA
ATOM     59  O   LIG d   1       5.345   2.781  -9.289  0.00  0.00    -0.550 OA
ENDBRANCH  54  57
ENDBRANCH  51  54
ENDBRANCH  48  51
ENDBRANCH  45  48
ENDBRANCH  42  45
ENDBRANCH  39  42
ENDBRANCH  36  39
ENDBRANCH  33  36
ENDBRANCH   1  33
TORSDOF 18
ENDMDL
MODEL 6
REMARK VINA RESULT:      -5.1      1.891      3.910
REMARK  18 active torsions:
REMARK  status: ('A' for Active; 'I' for Inactive)
REMARK    1  A    between atoms: C_1  and  C_2 
REMARK    2  A    between atoms: C_2  and  C_3 
REMARK    3  A    between atoms: C_3  and  C_4 
REMARK    4  A    between atoms: C_4  and  C_5 
REMARK    5  A    between atoms: C_5  and  C_6 
REMARK    6  A    between atoms: C_7  and  C_8 
REMARK    7  A    between atoms: C_8  and  C_9 
REMARK    8  A    between atoms: C_9  and  C_10 
REMARK    9  A    between atoms: C_10  and  C_11 
REMARK   10  A    between atoms: C_11  and  C_12 
REMARK   11  A    between atoms: C_12  and  C_13 
REMARK   12  A    between atoms: C_13  and  C_14 
REMARK   13  A    between atoms: C_14  and  C_15 
REMARK   14  A    between atoms: C_15  and  C_16 
REMARK   15  A    between atoms: C_16  and  C_17 
REMARK   16  A    between atoms: C_17  and  C_18 
REMARK   17  A    between atoms: C_18  and  C_19 
REMARK   18  A    between atoms: C_19  and  C_20 
ROOT
ATOM      1  C   LIG d   1       3.408  -0.114  -5.742  0.00  0.00    -0.053 C 
ATOM      2  H   LIG d   1       3.561  -1.178  -5.561  0.00  0.00     0.026 H 
ATOM      3  H   LIG d   1       4.363   0.407  -5.670  0.00  0.00     0.026 H 
ENDROOT
BRANCH   1   4
ATOM      4  C   LIG d   1       2.821   0.086  -7.140  0.00  0.00    -0.053 C 
ATOM      5  H   LIG d   1       1.785  -0.250  -7.151  0.00  0.00     0.026 H 
ATOM      6  H   LIG d   1       3.398  -0.491  -7.863  0.00  0.00     0.026 H 
BRANCH   4   7
ATOM      7  C   LIG d   1       2.880   1.570  -7.510  0.00  0.00    -0.050 C 
ATOM      8  H   LIG d   1       3.874   1.960  -7.291  0.00  0.00     0.027 H 
ATOM      9  H   LIG d   1       2.137   2.119  -6.931  0.00  0.00     0.027 H 
BRANCH   7  10
ATOM     10  C   LIG d   1       2.586   1.735  -9.003  0.00  0.00    -0.035 C 
ATOM     11  H   LIG d   1       3.413   2.261  -9.480  0.00  0.00     0.031 H 
ATOM     12  H   LIG d   1       1.669   2.310  -9.130  0.00  0.00     0.031 H 
BRANCH  10  13
ATOM     13  C   LIG d   1       2.422   0.378  -9.636  0.00  0.00    -0.088 C 
ATOM     14  C   LIG d   1       3.221   0.006 -10.605  0.00  0.00    -0.088 C 
ATOM     15  H   LIG d   1       3.030  -0.912 -11.140  0.00  0.00     0.057 H 
ATOM     16  H   LIG d   1       1.644  -0.288  -9.292  0.00  0.00     0.057 H 
BRANCH  14  17
ATOM     17  C   LIG d   1       4.410   0.858 -10.970  0.00  0.00    -0.035 C 
ATOM     18  H   LIG d   1       4.249   1.876 -10.617  0.00  0.00     0.031 H 
ATOM     19  H   LIG d   1       4.531   0.866 -12.054  0.00  0.00     0.031 H 
BRANCH  17  20
ATOM     20  C   LIG d   1       5.669   0.283 -10.320  0.00  0.00    -0.050 C 
ATOM     21  H   LIG d   1       5.424  -0.655  -9.822  0.00  0.00     0.027 H 
ATOM     22  H   LIG d   1       6.423   0.102 -11.085  0.00  0.00     0.027 H 
BRANCH  20  23
ATOM     23  C   LIG d   1       6.213   1.279  -9.293  0.00  0.00    -0.053 C 
ATOM     24  H   LIG d   1       7.166   1.675  -9.642  0.00  0.00     0.026 H 
ATOM     25  H   LIG d   1       5.503   2.097  -9.169  0.00  0.00     0.026 H 
BRANCH  23  26
ATOM     26  C   LIG d   1       6.414   0.571  -7.952  0.00  0.00    -0.056 C 
ATOM     27  H   LIG d   1       7.407   0.802  -7.565  0.00  0.00     0.026 H 
ATOM     28  H   LIG d   1       5.660   0.914  -7.243  0.00  0.00     0.026 H 
BRANCH  26  29
ATOM     29  C   LIG d   1       6.282  -0.940  -8.148  0.00  0.00    -0.065 C 
ATOM     30  H   LIG d   1       5.230  -1.203  -8.252  0.00  0.00     0.023 H 
ATOM     31  H   LIG d   1       6.820  -1.238  -9.048  0.00  0.00     0.023 H 
ATOM     32  H   LIG d   1       6.702  -1.457  -7.286  0.00  0.00     0.023 H 
ENDBRANCH  26  29
ENDBRANCH  23  26
ENDBRANCH  20  23
ENDBRANCH  17  20
ENDBRANCH  14  17
ENDBRANCH  10  13
ENDBRANCH   7  10
ENDBRANCH   4   7
ENDBRANCH   1   4
BRANCH   1  33
ATOM     33  C   LIG d   1       2.441   0.446  -4.697  0.00  0.00    -0.053 C 
ATOM     34  H   LIG d   1       2.542   1.530  -4.654  0.00  0.00     0.026 H 
ATOM     35  H   LIG d   1       1.419   0.187  -4.972  0.00  0.00     0.026 H 
BRANCH  33  36
ATOM     36  C   LIG d   1       2.767  -0.152  -3.327  0.00  0.00    -0.053 C 
ATOM     37  H   LIG d   1       1.844  -0.469  -2.840  0.00  0.00     0.026 H 
ATOM     38  H   LIG d   1       3.426  -1.012  -3.454  0.00  0.00     0.026 H 
BRANCH  36  39
ATOM     39  C   LIG d   1       3.464   0.902  -2.464  0.00  0.00    -0.053 C 
ATOM     40  H   LIG d   1       3.547   1.833  -3.023  0.00  0.00     0.026 H 
ATOM     41  H   LIG d   1       2.882   1.071  -1.558  0.00  0.00     0.026 H 
BRANCH  39  42
ATOM     42  C   LIG d   1       4.863   0.407  -2.087  0.00  0.00    -0.053 C 
ATOM     43  H   LIG d   1       5.107   0.738  -1.078  0.00  0.00     0.026 H 
ATOM     44  H   LIG d   1       4.887  -0.682  -2.129  0.00  0.00     0.026 H 
BRANCH  42  45
ATOM     45  C   LIG d   1       5.887   0.976  -3.072  0.00  0.00    -0.053 C 
ATOM     46  H   LIG d   1       5.372   1.342  -3.961  0.00  0.00     0.026 H 
ATOM     47  H   LIG d   1       6.426   1.798  -2.600  0.00  0.00     0.026 H 
BRANCH  45  48
ATOM     48  C   LIG d   1       6.876  -0.120  -3.471  0.00  0.00    -0.053 C 
ATOM     49  H   LIG d   1       7.137  -0.009  -4.523  0.00  0.00     0.026 H 
ATOM     50  H   LIG d   1       7.777  -0.036  -2.861  0.00  0.00     0.026 H 
BRANCH  48  51
ATOM     51  C   LIG d   1       6.236  -1.491  -3.247  0.00  0.00    -0.048 C 
ATOM     52  H   LIG d   1       6.859  -2.078  -2.572  0.00  0.00     0.027 H 
ATOM     53  H   LIG d   1       5.246  -1.363  -2.808  0.00  0.00     0.027 H 
BRANCH  51  54
ATOM     54  C   LIG d   1       6.109  -2.220  -4.586  0.00  0.00    -0.013 C 
ATOM     55  H   LIG d   1       5.813  -1.511  -5.359  0.00  0.00     0.033 H 
ATOM     56  H   LIG d   1       7.068  -2.665  -4.850  0.00  0.00     0.033 H 
BRANCH  54  57
ATOM     57  C   LIG d   1       5.067  -3.302  -4.472  0.00  0.00     0.042 C 
ATOM     58  O   LIG d   1       5.073  -4.231  -5.246  0.00  0.00    -0.550 OA
ATOM     59  O   LIG d   1       4.131  -3.236  -3.512  0.00  0.00    -0.550 OA
ENDBRANCH  54  57
ENDBRANCH  51  54
ENDBRANCH  48  51
ENDBRANCH  45  48
ENDBRANCH  42  45
ENDBRANCH  39  42
ENDBRANCH  36  39
ENDBRANCH  33  36
ENDBRANCH   1  33
TORSDOF 18
ENDMDL
MODEL 7
REMARK VINA RESULT:      -5.1      3.056      5.770
REMARK  18 active torsions:
REMARK  status: ('A' for Active; 'I' for Inactive)
REMARK    1  A    between atoms: C_1  and  C_2 
REMARK    2  A    between atoms: C_2  and  C_3 
REMARK    3  A    between atoms: C_3  and  C_4 
REMARK    4  A    between atoms: C_4  and  C_5 
REMARK    5  A    between atoms: C_5  and  C_6 
REMARK    6  A    between atoms: C_7  and  C_8 
REMARK    7  A    between atoms: C_8  and  C_9 
REMARK    8  A    between atoms: C_9  and  C_10 
REMARK    9  A    between atoms: C_10  and  C_11 
REMARK   10  A    between atoms: C_11  and  C_12 
REMARK   11  A    between atoms: C_12  and  C_13 
REMARK   12  A    between atoms: C_13  and  C_14 
REMARK   13  A    between atoms: C_14  and  C_15 
REMARK   14  A    between atoms: C_15  and  C_16 
REMARK   15  A    between atoms: C_16  and  C_17 
REMARK   16  A    between atoms: C_17  and  C_18 
REMARK   17  A    between atoms: C_18  and  C_19 
REMARK   18  A    between atoms: C_19  and  C_20 
ROOT
ATOM      1  C   LIG d   1       2.847   0.748  -4.564  0.00  0.00    -0.053 C 
ATOM      2  H   LIG d   1       2.159   1.545  -4.283  0.00  0.00     0.026 H 
ATOM      3  H   LIG d   1       3.871   1.118  -4.511  0.00  0.00     0.026 H 
ENDROOT
BRANCH   1   4
ATOM      4  C   LIG d   1       2.681  -0.432  -3.604  0.00  0.00    -0.053 C 
ATOM      5  H   LIG d   1       2.956  -1.355  -4.113  0.00  0.00     0.026 H 
ATOM      6  H   LIG d   1       1.642  -0.492  -3.279  0.00  0.00     0.026 H 
BRANCH   4   7
ATOM      7  C   LIG d   1       3.585  -0.231  -2.387  0.00  0.00    -0.050 C 
ATOM      8  H   LIG d   1       2.982   0.073  -1.531  0.00  0.00     0.027 H 
ATOM      9  H   LIG d   1       4.322   0.544  -2.605  0.00  0.00     0.027 H 
BRANCH   7  10
ATOM     10  C   LIG d   1       4.305  -1.542  -2.064  0.00  0.00    -0.035 C 
ATOM     11  H   LIG d   1       3.756  -2.077  -1.290  0.00  0.00     0.031 H 
ATOM     12  H   LIG d   1       5.313  -1.325  -1.710  0.00  0.00     0.031 H 
BRANCH  10  13
ATOM     13  C   LIG d   1       4.381  -2.392  -3.305  0.00  0.00    -0.088 C 
ATOM     14  C   LIG d   1       5.517  -2.517  -3.946  0.00  0.00    -0.088 C 
ATOM     15  H   LIG d   1       5.546  -3.025  -4.898  0.00  0.00     0.057 H 
ATOM     16  H   LIG d   1       3.498  -2.899  -3.667  0.00  0.00     0.057 H 
BRANCH  14  17
ATOM     17  C   LIG d   1       6.782  -1.954  -3.351  0.00  0.00    -0.035 C 
ATOM     18  H   LIG d   1       7.425  -2.771  -3.026  0.00  0.00     0.031 H 
ATOM     19  H   LIG d   1       6.533  -1.326  -2.496  0.00  0.00     0.031 H 
BRANCH  17  20
ATOM     20  C   LIG d   1       7.511  -1.117  -4.403  0.00  0.00    -0.050 C 
ATOM     21  H   LIG d   1       8.491  -0.829  -4.022  0.00  0.00     0.027 H 
ATOM     22  H   LIG d   1       7.633  -1.701  -5.314  0.00  0.00     0.027 H 
BRANCH  20  23
ATOM     23  C   LIG d   1       6.694   0.141  -4.709  0.00  0.00    -0.053 C 
ATOM     24  H   LIG d   1       7.033   0.574  -5.649  0.00  0.00     0.026 H 
ATOM     25  H   LIG d   1       5.639  -0.122  -4.789  0.00  0.00     0.026 H 
BRANCH  23  26
ATOM     26  C   LIG d   1       6.883   1.159  -3.582  0.00  0.00    -0.056 C 
ATOM     27  H   LIG d   1       6.043   1.855  -3.578  0.00  0.00     0.026 H 
ATOM     28  H   LIG d   1       6.927   0.638  -2.626  0.00  0.00     0.026 H 
BRANCH  26  29
ATOM     29  C   LIG d   1       8.184   1.931  -3.804  0.00  0.00    -0.065 C 
ATOM     30  H   LIG d   1       8.896   1.299  -4.332  0.00  0.00     0.023 H 
ATOM     31  H   LIG d   1       7.980   2.823  -4.397  0.00  0.00     0.023 H 
ATOM     32  H   LIG d   1       8.602   2.224  -2.841  0.00  0.00     0.023 H 
ENDBRANCH  26  29
ENDBRANCH  23  26
ENDBRANCH  20  23
ENDBRANCH  17  20
ENDBRANCH  14  17
ENDBRANCH  10  13
ENDBRANCH   7  10
ENDBRANCH   4   7
ENDBRANCH   1   4
BRANCH   1  33
ATOM     33  C   LIG d   1       2.543   0.292  -5.992  0.00  0.00    -0.053 C 
ATOM     34  H   LIG d   1       1.677  -0.370  -5.984  0.00  0.00     0.026 H 
ATOM     35  H   LIG d   1       2.331   1.161  -6.614  0.00  0.00     0.026 H 
BRANCH  33  36
ATOM     36  C   LIG d   1       3.751  -0.457  -6.557  0.00  0.00    -0.053 C 
ATOM     37  H   LIG d   1       4.591   0.232  -6.657  0.00  0.00     0.026 H 
ATOM     38  H   LIG d   1       4.025  -1.268  -5.881  0.00  0.00     0.026 H 
BRANCH  36  39
ATOM     39  C   LIG d   1       3.398  -1.035  -7.929  0.00  0.00    -0.053 C 
ATOM     40  H   LIG d   1       4.251  -0.929  -8.599  0.00  0.00     0.026 H 
ATOM     41  H   LIG d   1       3.146  -2.090  -7.824  0.00  0.00     0.026 H 
BRANCH  39  42
ATOM     42  C   LIG d   1       2.199  -0.278  -8.506  0.00  0.00    -0.053 C 
ATOM     43  H   LIG d   1       1.276  -0.739  -8.156  0.00  0.00     0.026 H 
ATOM     44  H   LIG d   1       2.234   0.761  -8.180  0.00  0.00     0.026 H 
BRANCH  42  45
ATOM     45  C   LIG d   1       2.250  -0.334 -10.034  0.00  0.00    -0.053 C 
ATOM     46  H   LIG d   1       1.591  -1.127 -10.391  0.00  0.00     0.026 H 
ATOM     47  H   LIG d   1       1.923   0.621 -10.444  0.00  0.00     0.026 H 
BRANCH  45  48
ATOM     48  C   LIG d   1       3.683  -0.620 -10.488  0.00  0.00    -0.053 C 
ATOM     49  H   LIG d   1       4.234  -1.092  -9.674  0.00  0.00     0.026 H 
ATOM     50  H   LIG d   1       3.664  -1.287 -11.350  0.00  0.00     0.026 H 
BRANCH  48  51
ATOM     51  C   LIG d   1       4.367   0.693 -10.874  0.00  0.00    -0.048 C 
ATOM     52  H   LIG d   1       4.527   0.716 -11.952  0.00  0.00     0.027 H 
ATOM     53  H   LIG d   1       3.735   1.531 -10.582  0.00  0.00     0.027 H 
BRANCH  51  54
ATOM     54  C   LIG d   1       5.714   0.796 -10.156  0.00  0.00    -0.013 C 
ATOM     55  H   LIG d   1       6.018  -0.191  -9.810  0.00  0.00     0.033 H 
ATOM     56  H   LIG d   1       6.464   1.186 -10.845  0.00  0.00     0.033 H 
BRANCH  54  57
ATOM     57  C   LIG d   1       5.585   1.724  -8.976  0.00  0.00     0.042 C 
ATOM     58  O   LIG d   1       6.475   1.792  -8.161  0.00  0.00    -0.550 OA
ATOM     59  O   LIG d   1       4.483   2.475  -8.830  0.00  0.00    -0.550 OA
ENDBRANCH  54  57
ENDBRANCH  51  54
ENDBRANCH  48  51
ENDBRANCH  45  48
ENDBRANCH  42  45
ENDBRANCH  39  42
ENDBRANCH  36  39
ENDBRANCH  33  36
ENDBRANCH   1  33
TORSDOF 18
ENDMDL
MODEL 8
REMARK VINA RESULT:      -5.1      2.831      6.457
REMARK  18 active torsions:
REMARK  status: ('A' for Active; 'I' for Inactive)
REMARK    1  A    between atoms: C_1  and  C_2 
REMARK    2  A    between atoms: C_2  and  C_3 
REMARK    3  A    between atoms: C_3  and  C_4 
REMARK    4  A    between atoms: C_4  and  C_5 
REMARK    5  A    between atoms: C_5  and  C_6 
REMARK    6  A    between atoms: C_7  and  C_8 
REMARK    7  A    between atoms: C_8  and  C_9 
REMARK    8  A    between atoms: C_9  and  C_10 
REMARK    9  A    between atoms: C_10  and  C_11 
REMARK   10  A    between atoms: C_11  and  C_12 
REMARK   11  A    between atoms: C_12  and  C_13 
REMARK   12  A    between atoms: C_13  and  C_14 
REMARK   13  A    between atoms: C_14  and  C_15 
REMARK   14  A    between atoms: C_15  and  C_16 
REMARK   15  A    between atoms: C_16  and  C_17 
REMARK   16  A    between atoms: C_17  and  C_18 
REMARK   17  A    between atoms: C_18  and  C_19 
REMARK   18  A    between atoms: C_19  and  C_20 
ROOT
ATOM      1  C   LIG d   1       5.250  -2.893  -7.310  0.00  0.00    -0.053 C 
ATOM      2  H   LIG d   1       5.959  -2.368  -6.671  0.00  0.00     0.026 H 
ATOM      3  H   LIG d   1       5.790  -3.416  -8.099  0.00  0.00     0.026 H 
ENDROOT
BRANCH   1   4
ATOM      4  C   LIG d   1       4.462  -3.904  -6.474  0.00  0.00    -0.053 C 
ATOM      5  H   LIG d   1       4.390  -4.846  -7.016  0.00  0.00     0.026 H 
ATOM      6  H   LIG d   1       3.461  -3.517  -6.284  0.00  0.00     0.026 H 
BRANCH   4   7
ATOM      7  C   LIG d   1       5.179  -4.135  -5.143  0.00  0.00    -0.050 C 
ATOM      8  H   LIG d   1       6.257  -4.108  -5.301  0.00  0.00     0.027 H 
ATOM      9  H   LIG d   1       4.895  -5.108  -4.740  0.00  0.00     0.027 H 
BRANCH   7  10
ATOM     10  C   LIG d   1       4.782  -3.038  -4.152  0.00  0.00    -0.035 C 
ATOM     11  H   LIG d   1       4.360  -3.493  -3.257  0.00  0.00     0.031 H 
ATOM     12  H   LIG d   1       4.041  -2.384  -4.612  0.00  0.00     0.031 H 
BRANCH  10  13
ATOM     13  C   LIG d   1       6.000  -2.233  -3.779  0.00  0.00    -0.088 C 
ATOM     14  C   LIG d   1       5.909  -1.287  -2.877  0.00  0.00    -0.088 C 
ATOM     15  H   LIG d   1       6.747  -0.631  -2.696  0.00  0.00     0.057 H 
ATOM     16  H   LIG d   1       6.948  -2.435  -4.256  0.00  0.00     0.057 H 
BRANCH  14  17
ATOM     17  C   LIG d   1       4.635  -1.118  -2.089  0.00  0.00    -0.035 C 
ATOM     18  H   LIG d   1       4.683  -1.725  -1.186  0.00  0.00     0.031 H 
ATOM     19  H   LIG d   1       3.788  -1.438  -2.697  0.00  0.00     0.031 H 
BRANCH  17  20
ATOM     20  C   LIG d   1       4.462   0.353  -1.709  0.00  0.00    -0.050 C 
ATOM     21  H   LIG d   1       4.017   0.422  -0.717  0.00  0.00     0.027 H 
ATOM     22  H   LIG d   1       5.434   0.845  -1.705  0.00  0.00     0.027 H 
BRANCH  20  23
ATOM     23  C   LIG d   1       3.547   1.039  -2.727  0.00  0.00    -0.053 C 
ATOM     24  H   LIG d   1       2.868   1.714  -2.207  0.00  0.00     0.026 H 
ATOM     25  H   LIG d   1       4.153   1.606  -3.435  0.00  0.00     0.026 H 
BRANCH  23  26
ATOM     26  C   LIG d   1       2.738  -0.018  -3.480  0.00  0.00    -0.056 C 
ATOM     27  H   LIG d   1       3.198  -0.996  -3.339  0.00  0.00     0.026 H 
ATOM     28  H   LIG d   1       1.718  -0.039  -3.094  0.00  0.00     0.026 H 
BRANCH  26  29
ATOM     29  C   LIG d   1       2.712   0.324  -4.970  0.00  0.00    -0.065 C 
ATOM     30  H   LIG d   1       3.682   0.098  -5.412  0.00  0.00     0.023 H 
ATOM     31  H   LIG d   1       1.941  -0.267  -5.465  0.00  0.00     0.023 H 
ATOM     32  H   LIG d   1       2.494   1.384  -5.097  0.00  0.00     0.023 H 
ENDBRANCH  26  29
ENDBRANCH  23  26
ENDBRANCH  20  23
ENDBRANCH  17  20
ENDBRANCH  14  17
ENDBRANCH  10  13
ENDBRANCH   7  10
ENDBRANCH   4   7
ENDBRANCH   1   4
BRANCH   1  33
ATOM     33  C   LIG d   1       4.284  -1.884  -7.935  0.00  0.00    -0.053 C 
ATOM     34  H   LIG d   1       3.723  -1.382  -7.146  0.00  0.00     0.026 H 
ATOM     35  H   LIG d   1       4.847  -1.147  -8.506  0.00  0.00     0.026 H 
BRANCH  33  36
ATOM     36  C   LIG d   1       3.313  -2.616  -8.864  0.00  0.00    -0.053 C 
ATOM     37  H   LIG d   1       3.872  -3.093  -9.669  0.00  0.00     0.026 H 
ATOM     38  H   LIG d   1       2.771  -3.374  -8.298  0.00  0.00     0.026 H 
BRANCH  36  39
ATOM     39  C   LIG d   1       2.320  -1.613  -9.455  0.00  0.00    -0.053 C 
ATOM     40  H   LIG d   1       2.651  -1.317 -10.450  0.00  0.00     0.026 H 
ATOM     41  H   LIG d   1       1.335  -2.076  -9.522  0.00  0.00     0.026 H 
BRANCH  39  42
ATOM     42  C   LIG d   1       2.244  -0.379  -8.553  0.00  0.00    -0.053 C 
ATOM     43  H   LIG d   1       1.284  -0.363  -8.038  0.00  0.00     0.026 H 
ATOM     44  H   LIG d   1       3.050  -0.415  -7.820  0.00  0.00     0.026 H 
BRANCH  42  45
ATOM     45  C   LIG d   1       2.387   0.884  -9.405  0.00  0.00    -0.053 C 
ATOM     46  H   LIG d   1       3.095   0.699 -10.213  0.00  0.00     0.026 H 
ATOM     47  H   LIG d   1       1.417   1.150  -9.825  0.00  0.00     0.026 H 
BRANCH  45  48
ATOM     48  C   LIG d   1       2.897   2.033  -8.533  0.00  0.00    -0.053 C 
ATOM     49  H   LIG d   1       2.098   2.760  -8.386  0.00  0.00     0.026 H 
ATOM     50  H   LIG d   1       3.215   1.641  -7.566  0.00  0.00     0.026 H 
BRANCH  48  51
ATOM     51  C   LIG d   1       4.083   2.709  -9.223  0.00  0.00    -0.048 C 
ATOM     52  H   LIG d   1       3.733   3.245 -10.105  0.00  0.00     0.027 H 
ATOM     53  H   LIG d   1       4.552   3.411  -8.534  0.00  0.00     0.027 H 
BRANCH  51  54
ATOM     54  C   LIG d   1       5.102   1.648  -9.642  0.00  0.00    -0.013 C 
ATOM     55  H   LIG d   1       4.686   0.656  -9.469  0.00  0.00     0.033 H 
ATOM     56  H   LIG d   1       5.333   1.765 -10.701  0.00  0.00     0.033 H 
BRANCH  54  57
ATOM     57  C   LIG d   1       6.361   1.813  -8.832  0.00  0.00     0.042 C 
ATOM     58  O   LIG d   1       6.398   1.427  -7.687  0.00  0.00    -0.550 OA
ATOM     59  O   LIG d   1       7.442   2.388  -9.381  0.00  0.00    -0.550 OA
ENDBRANCH  54  57
ENDBRANCH  51  54
ENDBRANCH  48  51
ENDBRANCH  45  48
ENDBRANCH  42  45
ENDBRANCH  39  42
ENDBRANCH  36  39
ENDBRANCH  33  36
ENDBRANCH   1  33
TORSDOF 18
ENDMDL
MODEL 9
REMARK VINA RESULT:      -5.1      3.029      6.023
REMARK  18 active torsions:
REMARK  status: ('A' for Active; 'I' for Inactive)
REMARK    1  A    between atoms: C_1  and  C_2 
REMARK    2  A    between atoms: C_2  and  C_3 
REMARK    3  A    between atoms: C_3  and  C_4 
REMARK    4  A    between atoms: C_4  and  C_5 
REMARK    5  A    between atoms: C_5  and  C_6 
REMARK    6  A    between atoms: C_7  and  C_8 
REMARK    7  A    between atoms: C_8  and  C_9 
REMARK    8  A    between atoms: C_9  and  C_10 
REMARK    9  A    between atoms: C_10  and  C_11 
REMARK   10  A    between atoms: C_11  and  C_12 
REMARK   11  A    between atoms: C_12  and  C_13 
REMARK   12  A    between atoms: C_13  and  C_14 
REMARK   13  A    between atoms: C_14  and  C_15 
REMARK   14  A    between atoms: C_15  and  C_16 
REMARK   15  A    between atoms: C_16  and  C_17 
REMARK   16  A    between atoms: C_17  and  C_18 
REMARK   17  A    between atoms: C_18  and  C_19 
REMARK   18  A    between atoms: C_19  and  C_20 
ROOT
ATOM      1  C   LIG d   1       5.424  -2.593  -5.731  0.00  0.00    -0.053 C 
ATOM      2  H   LIG d   1       6.483  -2.675  -5.484  0.00  0.00     0.026 H 
ATOM      3  H   LIG d   1       5.213  -3.182  -6.624  0.00  0.00     0.026 H 
ENDROOT
BRANCH   1   4
ATOM      4  C   LIG d   1       4.585  -3.117  -4.564  0.00  0.00    -0.053 C 
ATOM      5  H   LIG d   1       4.725  -4.193  -4.470  0.00  0.00     0.026 H 
ATOM      6  H   LIG d   1       3.533  -2.902  -4.748  0.00  0.00     0.026 H 
BRANCH   4   7
ATOM      7  C   LIG d   1       5.027  -2.430  -3.270  0.00  0.00    -0.050 C 
ATOM      8  H   LIG d   1       5.530  -1.493  -3.509  0.00  0.00     0.027 H 
ATOM      9  H   LIG d   1       5.712  -3.083  -2.728  0.00  0.00     0.027 H 
BRANCH   7  10
ATOM     10  C   LIG d   1       3.801  -2.144  -2.401  0.00  0.00    -0.035 C 
ATOM     11  H   LIG d   1       4.123  -1.764  -1.431  0.00  0.00     0.031 H 
ATOM     12  H   LIG d   1       3.233  -3.063  -2.260  0.00  0.00     0.031 H 
BRANCH  10  13
ATOM     13  C   LIG d   1       2.933  -1.115  -3.078  0.00  0.00    -0.088 C 
ATOM     14  C   LIG d   1       3.081   0.156  -2.796  0.00  0.00    -0.088 C 
ATOM     15  H   LIG d   1       2.382   0.880  -3.187  0.00  0.00     0.057 H 
ATOM     16  H   LIG d   1       2.188  -1.426  -3.797  0.00  0.00     0.057 H 
BRANCH  14  17
ATOM     17  C   LIG d   1       4.227   0.606  -1.927  0.00  0.00    -0.035 C 
ATOM     18  H   LIG d   1       4.760  -0.266  -1.549  0.00  0.00     0.031 H 
ATOM     19  H   LIG d   1       3.841   1.186  -1.089  0.00  0.00     0.031 H 
BRANCH  17  20
ATOM     20  C   LIG d   1       5.181   1.473  -2.750  0.00  0.00    -0.050 C 
ATOM     21  H   LIG d   1       4.678   1.802  -3.659  0.00  0.00     0.027 H 
ATOM     22  H   LIG d   1       5.479   2.342  -2.165  0.00  0.00     0.027 H 
BRANCH  20  23
ATOM     23  C   LIG d   1       6.422   0.657  -3.120  0.00  0.00    -0.053 C 
ATOM     24  H   LIG d   1       6.868   0.244  -2.216  0.00  0.00     0.026 H 
ATOM     25  H   LIG d   1       6.135  -0.156  -3.788  0.00  0.00     0.026 H 
BRANCH  23  26
ATOM     26  C   LIG d   1       7.436   1.560  -3.823  0.00  0.00    -0.056 C 
ATOM     27  H   LIG d   1       6.919   2.414  -4.262  0.00  0.00     0.026 H 
ATOM     28  H   LIG d   1       8.170   1.915  -3.099  0.00  0.00     0.026 H 
BRANCH  26  29
ATOM     29  C   LIG d   1       8.145   0.772  -4.925  0.00  0.00    -0.065 C 
ATOM     30  H   LIG d   1       8.315   1.420  -5.784  0.00  0.00     0.023 H 
ATOM     31  H   LIG d   1       9.102   0.406  -4.551  0.00  0.00     0.023 H 
ATOM     32  H   LIG d   1       7.526  -0.073  -5.224  0.00  0.00     0.023 H 
ENDBRANCH  26  29
ENDBRANCH  23  26
ENDBRANCH  20  23
ENDBRANCH  17  20
ENDBRANCH  14  17
ENDBRANCH  10  13
ENDBRANCH   7  10
ENDBRANCH   4   7
ENDBRANCH   1   4
BRANCH   1  33
ATOM     33  C   LIG d   1       5.075  -1.126  -5.993  0.00  0.00    -0.053 C 
ATOM     34  H   LIG d   1       4.541  -0.721  -5.134  0.00  0.00     0.026 H 
ATOM     35  H   LIG d   1       5.991  -0.557  -6.153  0.00  0.00     0.026 H 
BRANCH  33  36
ATOM     36  C   LIG d   1       4.190  -1.027  -7.237  0.00  0.00    -0.053 C 
ATOM     37  H   LIG d   1       4.800  -0.746  -8.096  0.00  0.00     0.026 H 
ATOM     38  H   LIG d   1       3.720  -1.993  -7.426  0.00  0.00     0.026 H 
BRANCH  36  39
ATOM     39  C   LIG d   1       3.108   0.031  -7.010  0.00  0.00    -0.053 C 
ATOM     40  H   LIG d   1       2.274  -0.413  -6.467  0.00  0.00     0.026 H 
ATOM     41  H   LIG d   1       3.523   0.854  -6.429  0.00  0.00     0.026 H 
BRANCH  39  42
ATOM     42  C   LIG d   1       2.616   0.555  -8.362  0.00  0.00    -0.053 C 
ATOM     43  H   LIG d   1       3.170   0.067  -9.164  0.00  0.00     0.026 H 
ATOM     44  H   LIG d   1       1.554   0.340  -8.470  0.00  0.00     0.026 H 
BRANCH  42  45
ATOM     45  C   LIG d   1       2.841   2.066  -8.434  0.00  0.00    -0.053 C 
ATOM     46  H   LIG d   1       1.878   2.578  -8.420  0.00  0.00     0.026 H 
ATOM     47  H   LIG d   1       3.434   2.387  -7.577  0.00  0.00     0.026 H 
BRANCH  45  48
ATOM     48  C   LIG d   1       3.583   2.411  -9.726  0.00  0.00    -0.053 C 
ATOM     49  H   LIG d   1       2.917   2.270 -10.577  0.00  0.00     0.026 H 
ATOM     50  H   LIG d   1       3.912   3.450  -9.690  0.00  0.00     0.026 H 
BRANCH  48  51
ATOM     51  C   LIG d   1       4.801   1.497  -9.875  0.00  0.00    -0.048 C 
ATOM     52  H   LIG d   1       4.539   0.488  -9.556  0.00  0.00     0.027 H 
ATOM     53  H   LIG d   1       5.116   1.478 -10.918  0.00  0.00     0.027 H 
BRANCH  51  54
ATOM     54  C   LIG d   1       5.944   2.025  -9.006  0.00  0.00    -0.013 C 
ATOM     55  H   LIG d   1       6.093   3.085  -9.207  0.00  0.00     0.033 H 
ATOM     56  H   LIG d   1       5.695   1.886  -7.954  0.00  0.00     0.033 H 
BRANCH  54  57
ATOM     57  C   LIG d   1       7.208   1.271  -9.327  0.00  0.00     0.042 C 
ATOM     58  O   LIG d   1       8.160   1.856  -9.789  0.00  0.00    -0.550 OA
ATOM     59  O   LIG d   1       7.279  -0.050  -9.100  0.00  0.00    -0.550 OA
ENDBRANCH  54  57
ENDBRANCH  51  54
ENDBRANCH  48  51
ENDBRANCH  45  48
ENDBRANCH  42  45
ENDBRANCH  39  42
ENDBRANCH  36  39
ENDBRANCH  33  36
ENDBRANCH   1  33
TORSDOF 18
ENDMDL
MODEL 10
REMARK VINA RESULT:      -5.0      2.754      5.546
REMARK  18 active torsions:
REMARK  status: ('A' for Active; 'I' for Inactive)
REMARK    1  A    between atoms: C_1  and  C_2 
REMARK    2  A    between atoms: C_2  and  C_3 
REMARK    3  A    between atoms: C_3  and  C_4 
REMARK    4  A    between atoms: C_4  and  C_5 
REMARK    5  A    between atoms: C_5  and  C_6 
REMARK    6  A    between atoms: C_7  and  C_8 
REMARK    7  A    between atoms: C_8  and  C_9 
REMARK    8  A    between atoms: C_9  and  C_10 
REMARK    9  A    between atoms: C_10  and  C_11 
REMARK   10  A    between atoms: C_11  and  C_12 
REMARK   11  A    between atoms: C_12  and  C_13 
REMARK   12  A    between atoms: C_13  and  C_14 
REMARK   13  A    between atoms: C_14  and  C_15 
REMARK   14  A    between atoms: C_15  and  C_16 
REMARK   15  A    between atoms: C_16  and  C_17 
REMARK   16  A    between atoms: C_17  and  C_18 
REMARK   17  A    between atoms: C_18  and  C_19 
REMARK   18  A    between atoms: C_19  and  C_20 
ROOT
ATOM      1  C   LIG d   1       3.437   0.944  -2.409  0.00  0.00    -0.053 C 
ATOM      2  H   LIG d   1       2.819   1.342  -1.604  0.00  0.00     0.026 H 
ATOM      3  H   LIG d   1       3.350   1.587  -3.285  0.00  0.00     0.026 H 
ENDROOT
BRANCH   1   4
ATOM      4  C   LIG d   1       4.897   0.895  -1.955  0.00  0.00    -0.053 C 
ATOM      5  H   LIG d   1       5.138  -0.112  -1.614  0.00  0.00     0.026 H 
ATOM      6  H   LIG d   1       5.047   1.601  -1.138  0.00  0.00     0.026 H 
BRANCH   4   7
ATOM      7  C   LIG d   1       5.808   1.269  -3.126  0.00  0.00    -0.050 C 
ATOM      8  H   LIG d   1       6.292   2.224  -2.920  0.00  0.00     0.027 H 
ATOM      9  H   LIG d   1       5.214   1.351  -4.037  0.00  0.00     0.027 H 
BRANCH   7  10
ATOM     10  C   LIG d   1       6.874   0.186  -3.308  0.00  0.00    -0.035 C 
ATOM     11  H   LIG d   1       6.685  -0.631  -2.613  0.00  0.00     0.031 H 
ATOM     12  H   LIG d   1       7.859   0.610  -3.112  0.00  0.00     0.031 H 
BRANCH  10  13
ATOM     13  C   LIG d   1       6.823  -0.335  -4.721  0.00  0.00    -0.088 C 
ATOM     14  C   LIG d   1       6.483  -1.580  -4.948  0.00  0.00    -0.088 C 
ATOM     15  H   LIG d   1       6.563  -1.988  -5.944  0.00  0.00     0.057 H 
ATOM     16  H   LIG d   1       7.068   0.317  -5.547  0.00  0.00     0.057 H 
BRANCH  14  17
ATOM     17  C   LIG d   1       5.978  -2.441  -3.818  0.00  0.00    -0.035 C 
ATOM     18  H   LIG d   1       5.726  -1.810  -2.966  0.00  0.00     0.031 H 
ATOM     19  H   LIG d   1       6.754  -3.150  -3.528  0.00  0.00     0.031 H 
BRANCH  17  20
ATOM     20  C   LIG d   1       4.735  -3.205  -4.276  0.00  0.00    -0.050 C 
ATOM     21  H   LIG d   1       4.559  -4.046  -3.605  0.00  0.00     0.027 H 
ATOM     22  H   LIG d   1       3.872  -2.541  -4.258  0.00  0.00     0.027 H 
BRANCH  20  23
ATOM     23  C   LIG d   1       4.950  -3.724  -5.700  0.00  0.00    -0.053 C 
ATOM     24  H   LIG d   1       4.268  -3.213  -6.378  0.00  0.00     0.026 H 
ATOM     25  H   LIG d   1       5.979  -3.530  -6.005  0.00  0.00     0.026 H 
BRANCH  23  26
ATOM     26  C   LIG d   1       4.680  -5.229  -5.741  0.00  0.00    -0.056 C 
ATOM     27  H   LIG d   1       4.104  -5.518  -4.862  0.00  0.00     0.026 H 
ATOM     28  H   LIG d   1       4.114  -5.472  -6.641  0.00  0.00     0.026 H 
BRANCH  26  29
ATOM     29  C   LIG d   1       6.009  -5.986  -5.753  0.00  0.00    -0.065 C 
ATOM     30  H   LIG d   1       6.285  -6.220  -6.780  0.00  0.00     0.023 H 
ATOM     31  H   LIG d   1       6.784  -5.366  -5.301  0.00  0.00     0.023 H 
ATOM     32  H   LIG d   1       5.907  -6.909  -5.184  0.00  0.00     0.023 H 
ENDBRANCH  26  29
ENDBRANCH  23  26
ENDBRANCH  20  23
ENDBRANCH  17  20
ENDBRANCH  14  17
ENDBRANCH  10  13
ENDBRANCH   7  10
ENDBRANCH   4   7
ENDBRANCH   1   4
BRANCH   1  33
ATOM     33  C   LIG d   1       2.965  -0.467  -2.763  0.00  0.00    -0.053 C 
ATOM     34  H   LIG d   1       3.828  -1.093  -2.989  0.00  0.00     0.026 H 
ATOM     35  H   LIG d   1       2.420  -0.892  -1.920  0.00  0.00     0.026 H 
BRANCH  33  36
ATOM     36  C   LIG d   1       2.046  -0.406  -3.985  0.00  0.00    -0.053 C 
ATOM     37  H   LIG d   1       2.000  -1.390  -4.454  0.00  0.00     0.026 H 
ATOM     38  H   LIG d   1       1.045  -0.106  -3.671  0.00  0.00     0.026 H 
BRANCH  36  39
ATOM     39  C   LIG d   1       2.594   0.613  -4.985  0.00  0.00    -0.053 C 
ATOM     40  H   LIG d   1       1.766   1.148  -5.449  0.00  0.00     0.026 H 
ATOM     41  H   LIG d   1       3.238   1.321  -4.465  0.00  0.00     0.026 H 
BRANCH  39  42
ATOM     42  C   LIG d   1       3.400  -0.115  -6.064  0.00  0.00    -0.053 C 
ATOM     43  H   LIG d   1       4.464   0.000  -5.862  0.00  0.00     0.026 H 
ATOM     44  H   LIG d   1       3.141  -1.173  -6.059  0.00  0.00     0.026 H 
BRANCH  42  45
ATOM     45  C   LIG d   1       3.073   0.482  -7.434  0.00  0.00    -0.053 C 
ATOM     46  H   LIG d   1       2.274   1.217  -7.329  0.00  0.00     0.026 H 
ATOM     47  H   LIG d   1       3.960   0.966  -7.841  0.00  0.00     0.026 H 
BRANCH  45  48
ATOM     48  C   LIG d   1       2.620  -0.631  -8.381  0.00  0.00    -0.053 C 
ATOM     49  H   LIG d   1       3.476  -1.248  -8.652  0.00  0.00     0.026 H 
ATOM     50  H   LIG d   1       1.869  -1.247  -7.885  0.00  0.00     0.026 H 
BRANCH  48  51
ATOM     51  C   LIG d   1       2.017  -0.012  -9.644  0.00  0.00    -0.048 C 
ATOM     52  H   LIG d   1       0.956  -0.255  -9.697  0.00  0.00     0.027 H 
ATOM     53  H   LIG d   1       2.140   1.071  -9.612  0.00  0.00     0.027 H 
BRANCH  51  54
ATOM     54  C   LIG d   1       2.731  -0.571 -10.876  0.00  0.00    -0.013 C 
ATOM     55  H   LIG d   1       3.167  -1.540 -10.636  0.00  0.00     0.033 H 
ATOM     56  H   LIG d   1       2.014  -0.686 -11.690  0.00  0.00     0.033 H 
BRANCH  54  57
ATOM     57  C   LIG d   1       3.822   0.378 -11.299  0.00  0.00     0.042 C 
ATOM     58  O   LIG d   1       4.670   0.015 -12.081  0.00  0.00    -0.550 OA
ATOM     59  O   LIG d   1       3.853   1.627 -10.808  0.00  0.00    -0.550 OA
ENDBRANCH  54  57
ENDBRANCH  51  54
ENDBRANCH  48  51
ENDBRANCH  45  48
ENDBRANCH  42  45
ENDBRANCH  39  42
ENDBRANCH  36  39
ENDBRANCH  33  36
ENDBRANCH   1  33
TORSDOF 18
ENDMDL
