MODEL 1
REMARK VINA RESULT:      -6.7      0.000      0.000
REMARK  6 active torsions:
REMARK  status: ('A' for Active; 'I' for Inactive)
REMARK    1  A    between atoms: C_1  and  C_2 
REMARK    2  A    between atoms: C_4  and  C_31 
REMARK    3  A    between atoms: C_6  and  N_8 
REMARK    4  A    between atoms: C_20  and  C_21 
REMARK    5  A    between atoms: C_24  and  O_27 
REMARK    6  A    between atoms: O_27  and  C_28 
ROOT
ATOM      1  N   LIG d   1       9.534   2.126  -3.945  0.00  0.00    -0.293 NA
ATOM      2  C   LIG d   1       8.106   1.927  -4.229  0.00  0.00     0.047 C 
ATOM      3  C   LIG d   1       7.888   0.541  -4.780  0.00  0.00     0.054 A 
ATOM      4  C   LIG d   1       8.945  -0.195  -5.283  0.00  0.00     0.131 A 
ATOM      5  C   LIG d   1       8.729  -1.476  -5.798  0.00  0.00    -0.019 A 
ATOM      6  C   LIG d   1       7.476  -2.015  -5.806  0.00  0.00    -0.047 A 
ATOM      7  C   LIG d   1       6.401  -1.283  -5.299  0.00  0.00     0.026 A 
ATOM      8  C   LIG d   1       6.605   0.006  -4.781  0.00  0.00     0.148 A 
ATOM      9  O   LIG d   1       5.575   0.722  -4.289  0.00  0.00    -0.422 OA
ATOM     10  C   LIG d   1       4.336   0.219  -4.283  0.00  0.00     0.338 A 
ATOM     11  O   LIG d   1       3.433   0.901  -3.830  0.00  0.00    -0.245 OA
ATOM     12  C   LIG d   1       4.026  -1.057  -4.777  0.00  0.00     0.031 A 
ATOM     13  C   LIG d   1       5.038  -1.845  -5.297  0.00  0.00    -0.001 A 
ATOM     14  O   LIG d   1      10.206   0.311  -5.287  0.00  0.00    -0.473 OA
ATOM     15  C   LIG d   1      10.342   1.722  -5.106  0.00  0.00     0.157 C 
ATOM     16  H   LIG d   1       7.533   2.047  -3.309  0.00  0.00     0.052 H 
ATOM     17  H   LIG d   1       7.775   2.665  -4.960  0.00  0.00     0.052 H 
ATOM     18  H   LIG d   1       9.560  -2.042  -6.190  0.00  0.00     0.065 H 
ATOM     19  H   LIG d   1       7.316  -3.007  -6.205  0.00  0.00     0.063 H 
ATOM     20  H   LIG d   1       3.010  -1.421  -4.750  0.00  0.00     0.070 H 
ATOM     21  H   LIG d   1       9.989   2.241  -5.997  0.00  0.00     0.091 H 
ATOM     22  H   LIG d   1      11.389   1.968  -4.928  0.00  0.00     0.091 H 
ENDROOT
BRANCH   1  23
ATOM     23  C   LIG d   1       9.794   3.453  -3.591  0.00  0.00     0.033 A 
ATOM     24  C   LIG d   1      10.446   3.740  -2.400  0.00  0.00    -0.038 A 
ATOM     25  C   LIG d   1      10.707   5.051  -2.056  0.00  0.00    -0.049 A 
ATOM     26  H   LIG d   1      10.754   2.938  -1.744  0.00  0.00     0.064 H 
ATOM     27  C   LIG d   1      10.314   6.079  -2.893  0.00  0.00    -0.056 A 
ATOM     28  C   LIG d   1       9.659   5.797  -4.078  0.00  0.00    -0.049 A 
ATOM     29  H   LIG d   1      10.519   7.104  -2.622  0.00  0.00     0.062 H 
ATOM     30  C   LIG d   1       9.395   4.487  -4.428  0.00  0.00    -0.038 A 
ATOM     31  H   LIG d   1       8.884   4.268  -5.354  0.00  0.00     0.064 H 
BRANCH  25  32
ATOM     32  C   LIG d   1      11.420   5.364  -0.765  0.00  0.00    -0.040 C 
ATOM     33  H   LIG d   1      11.054   6.311  -0.368  0.00  0.00     0.028 H 
ATOM     34  H   LIG d   1      11.233   4.570  -0.044  0.00  0.00     0.028 H 
ATOM     35  H   LIG d   1      12.492   5.440  -0.952  0.00  0.00     0.028 H 
ENDBRANCH  25  32
BRANCH  28  36
ATOM     36  C   LIG d   1       9.232   6.920  -4.989  0.00  0.00    -0.040 C 
ATOM     37  H   LIG d   1      10.056   7.182  -5.652  0.00  0.00     0.028 H 
ATOM     38  H   LIG d   1       8.376   6.601  -5.581  0.00  0.00     0.028 H 
ATOM     39  H   LIG d   1       8.958   7.788  -4.389  0.00  0.00     0.028 H 
ENDBRANCH  28  36
ENDBRANCH   1  23
BRANCH  13  40
ATOM     40  C   LIG d   1       4.764  -3.197  -5.827  0.00  0.00    -0.017 A 
ATOM     41  C   LIG d   1       4.352  -3.359  -7.152  0.00  0.00    -0.051 A 
ATOM     42  C   LIG d   1       4.097  -4.621  -7.642  0.00  0.00    -0.019 A 
ATOM     43  H   LIG d   1       4.233  -2.497  -7.791  0.00  0.00     0.062 H 
ATOM     44  C   LIG d   1       4.250  -5.732  -6.822  0.00  0.00     0.120 A 
ATOM     45  H   LIG d   1       3.778  -4.747  -8.667  0.00  0.00     0.065 H 
ATOM     46  C   LIG d   1       4.660  -5.574  -5.503  0.00  0.00    -0.019 A 
ATOM     47  C   LIG d   1       4.921  -4.317  -5.007  0.00  0.00    -0.051 A 
ATOM     48  H   LIG d   1       4.777  -6.440  -4.868  0.00  0.00     0.065 H 
ATOM     49  H   LIG d   1       5.244  -4.195  -3.984  0.00  0.00     0.062 H 
BRANCH  44  50
ATOM     50  O   LIG d   1       3.998  -6.974  -7.309  0.00  0.00    -0.495 OA
BRANCH  50  51
ATOM     51  C   LIG d   1       4.709  -8.061  -6.713  0.00  0.00     0.079 C 
ATOM     52  H   LIG d   1       4.808  -8.870  -7.436  0.00  0.00     0.066 H 
ATOM     53  H   LIG d   1       5.699  -7.724  -6.408  0.00  0.00     0.066 H 
ATOM     54  H   LIG d   1       4.161  -8.417  -5.840  0.00  0.00     0.066 H 
ENDBRANCH  50  51
ENDBRANCH  44  50
ENDBRANCH  13  40
TORSDOF 6
ENDMDL
MODEL 2
REMARK VINA RESULT:      -6.7      0.178      1.772
REMARK  6 active torsions:
REMARK  status: ('A' for Active; 'I' for Inactive)
REMARK    1  A    between atoms: C_1  and  C_2 
REMARK    2  A    between atoms: C_4  and  C_31 
REMARK    3  A    between atoms: C_6  and  N_8 
REMARK    4  A    between atoms: C_20  and  C_21 
REMARK    5  A    between atoms: C_24  and  O_27 
REMARK    6  A    between atoms: O_27  and  C_28 
ROOT
ATOM      1  N   LIG d   1       9.492   2.207  -4.027  0.00  0.00    -0.293 NA
ATOM      2  C   LIG d   1       8.051   1.967  -4.184  0.00  0.00     0.047 C 
ATOM      3  C   LIG d   1       7.828   0.600  -4.781  0.00  0.00     0.054 A 
ATOM      4  C   LIG d   1       8.856  -0.071  -5.418  0.00  0.00     0.131 A 
ATOM      5  C   LIG d   1       8.635  -1.333  -5.974  0.00  0.00    -0.019 A 
ATOM      6  C   LIG d   1       7.406  -1.919  -5.890  0.00  0.00    -0.047 A 
ATOM      7  C   LIG d   1       6.361  -1.254  -5.248  0.00  0.00     0.026 A 
ATOM      8  C   LIG d   1       6.570   0.016  -4.688  0.00  0.00     0.148 A 
ATOM      9  O   LIG d   1       5.568   0.668  -4.065  0.00  0.00    -0.422 OA
ATOM     10  C   LIG d   1       4.353   0.118  -3.968  0.00  0.00     0.338 A 
ATOM     11  O   LIG d   1       3.476   0.743  -3.397  0.00  0.00    -0.245 OA
ATOM     12  C   LIG d   1       4.041  -1.144  -4.493  0.00  0.00     0.031 A 
ATOM     13  C   LIG d   1       5.025  -1.867  -5.145  0.00  0.00    -0.001 A 
ATOM     14  O   LIG d   1      10.093   0.483  -5.516  0.00  0.00    -0.473 OA
ATOM     15  C   LIG d   1      10.198   1.889  -5.278  0.00  0.00     0.157 C 
ATOM     16  H   LIG d   1       7.565   2.021  -3.209  0.00  0.00     0.052 H 
ATOM     17  H   LIG d   1       7.626   2.725  -4.842  0.00  0.00     0.052 H 
ATOM     18  H   LIG d   1       9.443  -1.848  -6.471  0.00  0.00     0.065 H 
ATOM     19  H   LIG d   1       7.242  -2.897  -6.322  0.00  0.00     0.063 H 
ATOM     20  H   LIG d   1       3.045  -1.548  -4.389  0.00  0.00     0.070 H 
ATOM     21  H   LIG d   1       9.743   2.435  -6.104  0.00  0.00     0.091 H 
ATOM     22  H   LIG d   1      11.248   2.167  -5.187  0.00  0.00     0.091 H 
ENDROOT
BRANCH   1  23
ATOM     23  C   LIG d   1       9.740   3.525  -3.633  0.00  0.00     0.033 A 
ATOM     24  C   LIG d   1       9.352   4.579  -4.449  0.00  0.00    -0.038 A 
ATOM     25  C   LIG d   1       9.593   5.880  -4.055  0.00  0.00    -0.049 A 
ATOM     26  H   LIG d   1       8.859   4.382  -5.390  0.00  0.00     0.064 H 
ATOM     27  C   LIG d   1      10.225   6.134  -2.851  0.00  0.00    -0.056 A 
ATOM     28  C   LIG d   1      10.618   5.086  -2.039  0.00  0.00    -0.049 A 
ATOM     29  H   LIG d   1      10.413   7.152  -2.545  0.00  0.00     0.062 H 
ATOM     30  C   LIG d   1      10.380   3.782  -2.427  0.00  0.00    -0.038 A 
ATOM     31  H   LIG d   1      10.686   2.964  -1.792  0.00  0.00     0.064 H 
BRANCH  25  32
ATOM     32  C   LIG d   1       9.168   7.026  -4.937  0.00  0.00    -0.040 C 
ATOM     33  H   LIG d   1       9.122   6.690  -5.972  0.00  0.00     0.028 H 
ATOM     34  H   LIG d   1       8.186   7.381  -4.625  0.00  0.00     0.028 H 
ATOM     35  H   LIG d   1       9.891   7.838  -4.851  0.00  0.00     0.028 H 
ENDBRANCH  25  32
BRANCH  28  36
ATOM     36  C   LIG d   1      11.306   5.366  -0.728  0.00  0.00    -0.040 C 
ATOM     37  H   LIG d   1      11.870   4.486  -0.418  0.00  0.00     0.028 H 
ATOM     38  H   LIG d   1      11.985   6.210  -0.847  0.00  0.00     0.028 H 
ATOM     39  H   LIG d   1      10.559   5.604   0.030  0.00  0.00     0.028 H 
ENDBRANCH  28  36
ENDBRANCH   1  23
BRANCH  13  40
ATOM     40  C   LIG d   1       4.746  -3.202  -5.715  0.00  0.00    -0.017 A 
ATOM     41  C   LIG d   1       4.929  -4.348  -4.937  0.00  0.00    -0.051 A 
ATOM     42  C   LIG d   1       4.668  -5.590  -5.473  0.00  0.00    -0.019 A 
ATOM     43  H   LIG d   1       5.274  -4.260  -3.918  0.00  0.00     0.062 H 
ATOM     44  C   LIG d   1       4.222  -5.705  -6.784  0.00  0.00     0.120 A 
ATOM     45  H   LIG d   1       4.810  -6.477  -4.872  0.00  0.00     0.065 H 
ATOM     46  C   LIG d   1       4.039  -4.567  -7.560  0.00  0.00    -0.019 A 
ATOM     47  C   LIG d   1       4.293  -3.321  -7.031  0.00  0.00    -0.051 A 
ATOM     48  H   LIG d   1       3.693  -4.660  -8.579  0.00  0.00     0.065 H 
ATOM     49  H   LIG d   1       4.146  -2.437  -7.634  0.00  0.00     0.062 H 
BRANCH  44  50
ATOM     50  O   LIG d   1       3.966  -6.931  -7.308  0.00  0.00    -0.495 OA
BRANCH  50  51
ATOM     51  C   LIG d   1       4.668  -8.039  -6.741  0.00  0.00     0.079 C 
ATOM     52  H   LIG d   1       5.705  -7.757  -6.559  0.00  0.00     0.066 H 
ATOM     53  H   LIG d   1       4.199  -8.323  -5.799  0.00  0.00     0.066 H 
ATOM     54  H   LIG d   1       4.635  -8.881  -7.432  0.00  0.00     0.066 H 
ENDBRANCH  50  51
ENDBRANCH  44  50
ENDBRANCH  13  40
TORSDOF 6
ENDMDL
MODEL 3
REMARK VINA RESULT:      -6.7      1.375      1.639
REMARK  6 active torsions:
REMARK  status: ('A' for Active; 'I' for Inactive)
REMARK    1  A    between atoms: C_1  and  C_2 
REMARK    2  A    between atoms: C_4  and  C_31 
REMARK    3  A    between atoms: C_6  and  N_8 
REMARK    4  A    between atoms: C_20  and  C_21 
REMARK    5  A    between atoms: C_24  and  O_27 
REMARK    6  A    between atoms: O_27  and  C_28 
ROOT
ATOM      1  N   LIG d   1       9.658   3.018  -4.384  0.00  0.00    -0.293 NA
ATOM      2  C   LIG d   1       8.360   2.415  -4.049  0.00  0.00     0.047 C 
ATOM      3  C   LIG d   1       8.280   1.029  -4.636  0.00  0.00     0.054 A 
ATOM      4  C   LIG d   1       9.144   0.634  -5.641  0.00  0.00     0.131 A 
ATOM      5  C   LIG d   1       9.055  -0.650  -6.182  0.00  0.00    -0.019 A 
ATOM      6  C   LIG d   1       8.119  -1.530  -5.723  0.00  0.00    -0.047 A 
ATOM      7  C   LIG d   1       7.242  -1.145  -4.708  0.00  0.00     0.026 A 
ATOM      8  C   LIG d   1       7.320   0.145  -4.157  0.00  0.00     0.148 A 
ATOM      9  O   LIG d   1       6.479   0.528  -3.177  0.00  0.00    -0.422 OA
ATOM     10  C   LIG d   1       5.551  -0.313  -2.707  0.00  0.00     0.338 A 
ATOM     11  O   LIG d   1       4.810   0.075  -1.820  0.00  0.00    -0.245 OA
ATOM     12  C   LIG d   1       5.391  -1.620  -3.188  0.00  0.00     0.031 A 
ATOM     13  C   LIG d   1       6.222  -2.078  -4.195  0.00  0.00    -0.001 A 
ATOM     14  O   LIG d   1      10.091   1.484  -6.119  0.00  0.00    -0.473 OA
ATOM     15  C   LIG d   1       9.928   2.873  -5.823  0.00  0.00     0.157 C 
ATOM     16  H   LIG d   1       8.256   2.358  -2.965  0.00  0.00     0.052 H 
ATOM     17  H   LIG d   1       7.558   3.030  -4.458  0.00  0.00     0.052 H 
ATOM     18  H   LIG d   1       9.733  -0.949  -6.967  0.00  0.00     0.065 H 
ATOM     19  H   LIG d   1       8.056  -2.523  -6.145  0.00  0.00     0.063 H 
ATOM     20  H   LIG d   1       4.627  -2.264  -2.776  0.00  0.00     0.070 H 
ATOM     21  H   LIG d   1       9.090   3.273  -6.395  0.00  0.00     0.091 H 
ATOM     22  H   LIG d   1      10.840   3.411  -6.081  0.00  0.00     0.091 H 
ENDROOT
BRANCH   1  23
ATOM     23  C   LIG d   1       9.700   4.361  -3.999  0.00  0.00     0.033 A 
ATOM     24  C   LIG d   1       9.977   4.698  -2.681  0.00  0.00    -0.038 A 
ATOM     25  C   LIG d   1      10.024   6.026  -2.305  0.00  0.00    -0.049 A 
ATOM     26  H   LIG d   1      10.160   3.923  -1.951  0.00  0.00     0.064 H 
ATOM     27  C   LIG d   1       9.790   7.020  -3.238  0.00  0.00    -0.056 A 
ATOM     28  C   LIG d   1       9.508   6.687  -4.551  0.00  0.00    -0.049 A 
ATOM     29  H   LIG d   1       9.827   8.057  -2.942  0.00  0.00     0.062 H 
ATOM     30  C   LIG d   1       9.459   5.360  -4.934  0.00  0.00    -0.038 A 
ATOM     31  H   LIG d   1       9.240   5.102  -5.959  0.00  0.00     0.064 H 
BRANCH  25  32
ATOM     32  C   LIG d   1      10.330   6.394  -0.876  0.00  0.00    -0.040 C 
ATOM     33  H   LIG d   1      10.160   5.531  -0.233  0.00  0.00     0.028 H 
ATOM     34  H   LIG d   1      11.370   6.709  -0.795  0.00  0.00     0.028 H 
ATOM     35  H   LIG d   1       9.679   7.212  -0.565  0.00  0.00     0.028 H 
ENDBRANCH  25  32
BRANCH  28  36
ATOM     36  C   LIG d   1       9.254   7.772  -5.565  0.00  0.00    -0.040 C 
ATOM     37  H   LIG d   1       8.180   7.880  -5.720  0.00  0.00     0.028 H 
ATOM     38  H   LIG d   1       9.665   8.713  -5.201  0.00  0.00     0.028 H 
ATOM     39  H   LIG d   1       9.732   7.506  -6.508  0.00  0.00     0.028 H 
ENDBRANCH  28  36
ENDBRANCH   1  23
BRANCH  13  40
ATOM     40  C   LIG d   1       6.094  -3.447  -4.735  0.00  0.00    -0.017 A 
ATOM     41  C   LIG d   1       7.227  -4.251  -4.884  0.00  0.00    -0.051 A 
ATOM     42  C   LIG d   1       7.102  -5.527  -5.388  0.00  0.00    -0.019 A 
ATOM     43  H   LIG d   1       8.198  -3.873  -4.606  0.00  0.00     0.062 H 
ATOM     44  C   LIG d   1       5.851  -6.016  -5.746  0.00  0.00     0.120 A 
ATOM     45  H   LIG d   1       7.978  -6.149  -5.504  0.00  0.00     0.065 H 
ATOM     46  C   LIG d   1       4.722  -5.220  -5.598  0.00  0.00    -0.019 A 
ATOM     47  C   LIG d   1       4.838  -3.945  -5.092  0.00  0.00    -0.051 A 
ATOM     48  H   LIG d   1       3.752  -5.603  -5.878  0.00  0.00     0.065 H 
ATOM     49  H   LIG d   1       3.959  -3.328  -4.973  0.00  0.00     0.062 H 
BRANCH  44  50
ATOM     50  O   LIG d   1       5.732  -7.275  -6.241  0.00  0.00    -0.495 OA
BRANCH  50  51
ATOM     51  C   LIG d   1       5.044  -8.229  -5.430  0.00  0.00     0.079 C 
ATOM     52  H   LIG d   1       4.638  -7.732  -4.550  0.00  0.00     0.066 H 
ATOM     53  H   LIG d   1       4.232  -8.675  -6.004  0.00  0.00     0.066 H 
ATOM     54  H   LIG d   1       5.739  -9.010  -5.119  0.00  0.00     0.066 H 
ENDBRANCH  50  51
ENDBRANCH  44  50
ENDBRANCH  13  40
TORSDOF 6
ENDMDL
MODEL 4
REMARK VINA RESULT:      -6.6      1.516      2.302
REMARK  6 active torsions:
REMARK  status: ('A' for Active; 'I' for Inactive)
REMARK    1  A    between atoms: C_1  and  C_2 
REMARK    2  A    between atoms: C_4  and  C_31 
REMARK    3  A    between atoms: C_6  and  N_8 
REMARK    4  A    between atoms: C_20  and  C_21 
REMARK    5  A    between atoms: C_24  and  O_27 
REMARK    6  A    between atoms: O_27  and  C_28 
ROOT
ATOM      1  N   LIG d   1      10.521   2.902  -3.607  0.00  0.00    -0.293 NA
ATOM      2  C   LIG d   1       9.076   2.693  -3.435  0.00  0.00     0.047 C 
ATOM      3  C   LIG d   1       8.642   1.488  -4.231  0.00  0.00     0.054 A 
ATOM      4  C   LIG d   1       9.440   0.979  -5.239  0.00  0.00     0.131 A 
ATOM      5  C   LIG d   1       9.024  -0.132  -5.975  0.00  0.00    -0.019 A 
ATOM      6  C   LIG d   1       7.828  -0.731  -5.704  0.00  0.00    -0.047 A 
ATOM      7  C   LIG d   1       7.013  -0.228  -4.689  0.00  0.00     0.026 A 
ATOM      8  C   LIG d   1       7.420   0.890  -3.944  0.00  0.00     0.148 A 
ATOM      9  O   LIG d   1       6.642   1.384  -2.960  0.00  0.00    -0.422 OA
ATOM     10  C   LIG d   1       5.465   0.818  -2.673  0.00  0.00     0.338 A 
ATOM     11  O   LIG d   1       4.793   1.298  -1.776  0.00  0.00    -0.245 OA
ATOM     12  C   LIG d   1       4.967  -0.300  -3.356  0.00  0.00     0.031 A 
ATOM     13  C   LIG d   1       5.717  -0.858  -4.378  0.00  0.00    -0.001 A 
ATOM     14  O   LIG d   1      10.639   1.549  -5.532  0.00  0.00    -0.473 OA
ATOM     15  C   LIG d   1      10.871   2.869  -5.035  0.00  0.00     0.157 C 
ATOM     16  H   LIG d   1       8.857   2.529  -2.380  0.00  0.00     0.052 H 
ATOM     17  H   LIG d   1       8.538   3.573  -3.785  0.00  0.00     0.052 H 
ATOM     18  H   LIG d   1       9.653  -0.521  -6.761  0.00  0.00     0.065 H 
ATOM     19  H   LIG d   1       7.511  -1.591  -6.277  0.00  0.00     0.063 H 
ATOM     20  H   LIG d   1       4.011  -0.724  -3.088  0.00  0.00     0.070 H 
ATOM     21  H   LIG d   1      10.250   3.580  -5.581  0.00  0.00     0.091 H 
ATOM     22  H   LIG d   1      11.923   3.127  -5.161  0.00  0.00     0.091 H 
ENDROOT
BRANCH   1  23
ATOM     23  C   LIG d   1      10.926   4.103  -3.019  0.00  0.00     0.033 A 
ATOM     24  C   LIG d   1       9.979   5.038  -2.624  0.00  0.00    -0.038 A 
ATOM     25  C   LIG d   1      10.381   6.222  -2.038  0.00  0.00    -0.049 A 
ATOM     26  H   LIG d   1       8.927   4.838  -2.770  0.00  0.00     0.064 H 
ATOM     27  C   LIG d   1      11.727   6.480  -1.850  0.00  0.00    -0.056 A 
ATOM     28  C   LIG d   1      12.673   5.553  -2.248  0.00  0.00    -0.049 A 
ATOM     29  H   LIG d   1      12.040   7.405  -1.392  0.00  0.00     0.062 H 
ATOM     30  C   LIG d   1      12.277   4.367  -2.834  0.00  0.00    -0.038 A 
ATOM     31  H   LIG d   1      13.017   3.643  -3.144  0.00  0.00     0.064 H 
BRANCH  25  32
ATOM     32  C   LIG d   1       9.354   7.236  -1.603  0.00  0.00    -0.040 C 
ATOM     33  H   LIG d   1       9.846   8.186  -1.396  0.00  0.00     0.028 H 
ATOM     34  H   LIG d   1       8.619   7.372  -2.395  0.00  0.00     0.028 H 
ATOM     35  H   LIG d   1       8.855   6.882  -0.701  0.00  0.00     0.028 H 
ENDBRANCH  25  32
BRANCH  28  36
ATOM     36  C   LIG d   1      14.139   5.836  -2.041  0.00  0.00    -0.040 C 
ATOM     37  H   LIG d   1      14.704   4.907  -2.117  0.00  0.00     0.028 H 
ATOM     38  H   LIG d   1      14.485   6.535  -2.802  0.00  0.00     0.028 H 
ATOM     39  H   LIG d   1      14.288   6.272  -1.052  0.00  0.00     0.028 H 
ENDBRANCH  28  36
ENDBRANCH   1  23
BRANCH  13  40
ATOM     40  C   LIG d   1       5.237  -2.037  -5.128  0.00  0.00    -0.017 A 
ATOM     41  C   LIG d   1       5.279  -3.305  -4.541  0.00  0.00    -0.051 A 
ATOM     42  C   LIG d   1       4.831  -4.402  -5.244  0.00  0.00    -0.019 A 
ATOM     43  H   LIG d   1       5.663  -3.425  -3.540  0.00  0.00     0.062 H 
ATOM     44  C   LIG d   1       4.335  -4.249  -6.533  0.00  0.00     0.120 A 
ATOM     45  H   LIG d   1       4.864  -5.382  -4.792  0.00  0.00     0.065 H 
ATOM     46  C   LIG d   1       4.291  -2.989  -7.119  0.00  0.00    -0.019 A 
ATOM     47  C   LIG d   1       4.733  -1.887  -6.422  0.00  0.00    -0.051 A 
ATOM     48  H   LIG d   1       3.906  -2.875  -8.122  0.00  0.00     0.065 H 
ATOM     49  H   LIG d   1       4.694  -0.909  -6.877  0.00  0.00     0.062 H 
BRANCH  44  50
ATOM     50  O   LIG d   1       3.893  -5.333  -7.222  0.00  0.00    -0.495 OA
BRANCH  50  51
ATOM     51  C   LIG d   1       3.525  -5.128  -8.588  0.00  0.00     0.079 C 
ATOM     52  H   LIG d   1       3.445  -4.059  -8.785  0.00  0.00     0.066 H 
ATOM     53  H   LIG d   1       4.285  -5.561  -9.238  0.00  0.00     0.066 H 
ATOM     54  H   LIG d   1       2.565  -5.607  -8.781  0.00  0.00     0.066 H 
ENDBRANCH  50  51
ENDBRANCH  44  50
ENDBRANCH  13  40
TORSDOF 6
ENDMDL
MODEL 5
REMARK VINA RESULT:      -6.4      3.700     10.669
REMARK  6 active torsions:
REMARK  status: ('A' for Active; 'I' for Inactive)
REMARK    1  A    between atoms: C_1  and  C_2 
REMARK    2  A    between atoms: C_4  and  C_31 
REMARK    3  A    between atoms: C_6  and  N_8 
REMARK    4  A    between atoms: C_20  and  C_21 
REMARK    5  A    between atoms: C_24  and  O_27 
REMARK    6  A    between atoms: O_27  and  C_28 
ROOT
ATOM      1  N   LIG d   1       7.740   1.862  -4.822  0.00  0.00    -0.293 NA
ATOM      2  C   LIG d   1       8.567   2.637  -3.886  0.00  0.00     0.047 C 
ATOM      3  C   LIG d   1       9.314   3.708  -4.639  0.00  0.00     0.054 A 
ATOM      4  C   LIG d   1       9.459   3.638  -6.013  0.00  0.00     0.131 A 
ATOM      5  C   LIG d   1      10.160   4.633  -6.699  0.00  0.00    -0.019 A 
ATOM      6  C   LIG d   1      10.706   5.684  -6.023  0.00  0.00    -0.047 A 
ATOM      7  C   LIG d   1      10.566   5.767  -4.636  0.00  0.00     0.026 A 
ATOM      8  C   LIG d   1       9.865   4.773  -3.935  0.00  0.00     0.148 A 
ATOM      9  O   LIG d   1       9.723   4.843  -2.597  0.00  0.00    -0.422 OA
ATOM     10  C   LIG d   1      10.247   5.862  -1.908  0.00  0.00     0.338 A 
ATOM     11  O   LIG d   1      10.096   5.885  -0.698  0.00  0.00    -0.245 OA
ATOM     12  C   LIG d   1      10.964   6.904  -2.512  0.00  0.00     0.031 A 
ATOM     13  C   LIG d   1      11.147   6.894  -3.884  0.00  0.00    -0.001 A 
ATOM     14  O   LIG d   1       8.925   2.606  -6.717  0.00  0.00    -0.473 OA
ATOM     15  C   LIG d   1       8.545   1.442  -5.980  0.00  0.00     0.157 C 
ATOM     16  H   LIG d   1       7.927   3.100  -3.135  0.00  0.00     0.052 H 
ATOM     17  H   LIG d   1       9.279   1.973  -3.395  0.00  0.00     0.052 H 
ATOM     18  H   LIG d   1      10.269   4.569  -7.770  0.00  0.00     0.065 H 
ATOM     19  H   LIG d   1      11.247   6.451  -6.559  0.00  0.00     0.063 H 
ATOM     20  H   LIG d   1      11.368   7.708  -1.913  0.00  0.00     0.070 H 
ATOM     21  H   LIG d   1       9.437   0.919  -5.636  0.00  0.00     0.091 H 
ATOM     22  H   LIG d   1       7.954   0.783  -6.617  0.00  0.00     0.091 H 
ENDROOT
BRANCH   1  23
ATOM     23  C   LIG d   1       7.164   0.759  -4.186  0.00  0.00     0.033 A 
ATOM     24  C   LIG d   1       6.110   0.939  -3.301  0.00  0.00    -0.038 A 
ATOM     25  C   LIG d   1       5.539  -0.153  -2.678  0.00  0.00    -0.049 A 
ATOM     26  H   LIG d   1       5.732   1.932  -3.103  0.00  0.00     0.064 H 
ATOM     27  C   LIG d   1       6.020  -1.425  -2.930  0.00  0.00    -0.056 A 
ATOM     28  C   LIG d   1       7.075  -1.607  -3.806  0.00  0.00    -0.049 A 
ATOM     29  H   LIG d   1       5.573  -2.278  -2.442  0.00  0.00     0.062 H 
ATOM     30  C   LIG d   1       7.651  -0.519  -4.432  0.00  0.00    -0.038 A 
ATOM     31  H   LIG d   1       8.473  -0.662  -5.117  0.00  0.00     0.064 H 
BRANCH  25  32
ATOM     32  C   LIG d   1       4.389   0.039  -1.722  0.00  0.00    -0.040 C 
ATOM     33  H   LIG d   1       4.605  -0.475  -0.786  0.00  0.00     0.028 H 
ATOM     34  H   LIG d   1       4.250   1.103  -1.530  0.00  0.00     0.028 H 
ATOM     35  H   LIG d   1       3.480  -0.373  -2.160  0.00  0.00     0.028 H 
ENDBRANCH  25  32
BRANCH  28  36
ATOM     36  C   LIG d   1       7.597  -2.994  -4.079  0.00  0.00    -0.040 C 
ATOM     37  H   LIG d   1       8.563  -3.122  -3.589  0.00  0.00     0.028 H 
ATOM     38  H   LIG d   1       6.893  -3.730  -3.691  0.00  0.00     0.028 H 
ATOM     39  H   LIG d   1       7.714  -3.133  -5.154  0.00  0.00     0.028 H 
ENDBRANCH  28  36
ENDBRANCH   1  23
BRANCH  13  40
ATOM     40  C   LIG d   1      11.893   7.971  -4.568  0.00  0.00    -0.017 A 
ATOM     41  C   LIG d   1      13.273   7.858  -4.752  0.00  0.00    -0.051 A 
ATOM     42  C   LIG d   1      13.965   8.864  -5.390  0.00  0.00    -0.019 A 
ATOM     43  H   LIG d   1      13.797   6.984  -4.396  0.00  0.00     0.062 H 
ATOM     44  C   LIG d   1      13.293   9.989  -5.851  0.00  0.00     0.120 A 
ATOM     45  H   LIG d   1      15.033   8.778  -5.533  0.00  0.00     0.065 H 
ATOM     46  C   LIG d   1      11.919  10.105  -5.669  0.00  0.00    -0.019 A 
ATOM     47  C   LIG d   1      11.220   9.102  -5.037  0.00  0.00    -0.051 A 
ATOM     48  H   LIG d   1      11.400  10.981  -6.028  0.00  0.00     0.065 H 
ATOM     49  H   LIG d   1      10.152   9.190  -4.900  0.00  0.00     0.062 H 
BRANCH  44  50
ATOM     50  O   LIG d   1      13.978  10.979  -6.480  0.00  0.00    -0.495 OA
BRANCH  50  51
ATOM     51  C   LIG d   1      13.263  11.750  -7.447  0.00  0.00     0.079 C 
ATOM     52  H   LIG d   1      13.372  12.810  -7.219  0.00  0.00     0.066 H 
ATOM     53  H   LIG d   1      13.664  11.549  -8.440  0.00  0.00     0.066 H 
ATOM     54  H   LIG d   1      12.208  11.478  -7.419  0.00  0.00     0.066 H 
ENDBRANCH  50  51
ENDBRANCH  44  50
ENDBRANCH  13  40
TORSDOF 6
ENDMDL
MODEL 6
REMARK VINA RESULT:      -6.4      3.703     10.679
REMARK  6 active torsions:
REMARK  status: ('A' for Active; 'I' for Inactive)
REMARK    1  A    between atoms: C_1  and  C_2 
REMARK    2  A    between atoms: C_4  and  C_31 
REMARK    3  A    between atoms: C_6  and  N_8 
REMARK    4  A    between atoms: C_20  and  C_21 
REMARK    5  A    between atoms: C_24  and  O_27 
REMARK    6  A    between atoms: O_27  and  C_28 
ROOT
ATOM      1  N   LIG d   1       7.741   1.862  -4.826  0.00  0.00    -0.293 NA
ATOM      2  C   LIG d   1       8.568   2.635  -3.889  0.00  0.00     0.047 C 
ATOM      3  C   LIG d   1       9.314   3.707  -4.641  0.00  0.00     0.054 A 
ATOM      4  C   LIG d   1       9.458   3.641  -6.015  0.00  0.00     0.131 A 
ATOM      5  C   LIG d   1      10.158   4.637  -6.700  0.00  0.00    -0.019 A 
ATOM      6  C   LIG d   1      10.704   5.687  -6.022  0.00  0.00    -0.047 A 
ATOM      7  C   LIG d   1      10.566   5.768  -4.635  0.00  0.00     0.026 A 
ATOM      8  C   LIG d   1       9.866   4.771  -3.936  0.00  0.00     0.148 A 
ATOM      9  O   LIG d   1       9.725   4.838  -2.598  0.00  0.00    -0.422 OA
ATOM     10  C   LIG d   1      10.250   5.856  -1.906  0.00  0.00     0.338 A 
ATOM     11  O   LIG d   1      10.100   5.877  -0.697  0.00  0.00    -0.245 OA
ATOM     12  C   LIG d   1      10.966   6.900  -2.509  0.00  0.00     0.031 A 
ATOM     13  C   LIG d   1      11.147   6.893  -3.882  0.00  0.00    -0.001 A 
ATOM     14  O   LIG d   1       8.923   2.610  -6.721  0.00  0.00    -0.473 OA
ATOM     15  C   LIG d   1       8.544   1.445  -5.986  0.00  0.00     0.157 C 
ATOM     16  H   LIG d   1       7.929   3.097  -3.137  0.00  0.00     0.052 H 
ATOM     17  H   LIG d   1       9.281   1.970  -3.401  0.00  0.00     0.052 H 
ATOM     18  H   LIG d   1      10.266   4.575  -7.771  0.00  0.00     0.065 H 
ATOM     19  H   LIG d   1      11.244   6.455  -6.558  0.00  0.00     0.063 H 
ATOM     20  H   LIG d   1      11.370   7.703  -1.910  0.00  0.00     0.070 H 
ATOM     21  H   LIG d   1       9.437   0.921  -5.644  0.00  0.00     0.091 H 
ATOM     22  H   LIG d   1       7.953   0.786  -6.623  0.00  0.00     0.091 H 
ENDROOT
BRANCH   1  23
ATOM     23  C   LIG d   1       7.166   0.757  -4.191  0.00  0.00     0.033 A 
ATOM     24  C   LIG d   1       7.650  -0.519  -4.443  0.00  0.00    -0.038 A 
ATOM     25  C   LIG d   1       7.084  -1.608  -3.810  0.00  0.00    -0.049 A 
ATOM     26  H   LIG d   1       8.472  -0.661  -5.130  0.00  0.00     0.064 H 
ATOM     27  C   LIG d   1       6.031  -1.429  -2.931  0.00  0.00    -0.056 A 
ATOM     28  C   LIG d   1       5.543  -0.159  -2.683  0.00  0.00    -0.049 A 
ATOM     29  H   LIG d   1       5.589  -2.282  -2.438  0.00  0.00     0.062 H 
ATOM     30  C   LIG d   1       6.104   0.934  -3.313  0.00  0.00    -0.038 A 
ATOM     31  H   LIG d   1       5.723   1.925  -3.117  0.00  0.00     0.064 H 
BRANCH  25  32
ATOM     32  C   LIG d   1       7.612  -2.995  -4.078  0.00  0.00    -0.040 C 
ATOM     33  H   LIG d   1       8.649  -2.931  -4.405  0.00  0.00     0.028 H 
ATOM     34  H   LIG d   1       7.553  -3.589  -3.167  0.00  0.00     0.028 H 
ATOM     35  H   LIG d   1       7.014  -3.466  -4.858  0.00  0.00     0.028 H 
ENDBRANCH  25  32
BRANCH  28  36
ATOM     36  C   LIG d   1       4.396   0.032  -1.724  0.00  0.00    -0.040 C 
ATOM     37  H   LIG d   1       4.611   0.871  -1.062  0.00  0.00     0.028 H 
ATOM     38  H   LIG d   1       3.484   0.236  -2.284  0.00  0.00     0.028 H 
ATOM     39  H   LIG d   1       4.264  -0.873  -1.131  0.00  0.00     0.028 H 
ENDBRANCH  28  36
ENDBRANCH   1  23
BRANCH  13  40
ATOM     40  C   LIG d   1      11.893   7.971  -4.564  0.00  0.00    -0.017 A 
ATOM     41  C   LIG d   1      13.273   7.860  -4.748  0.00  0.00    -0.051 A 
ATOM     42  C   LIG d   1      13.964   8.868  -5.385  0.00  0.00    -0.019 A 
ATOM     43  H   LIG d   1      13.797   6.987  -4.392  0.00  0.00     0.062 H 
ATOM     44  C   LIG d   1      13.290   9.992  -5.845  0.00  0.00     0.120 A 
ATOM     45  H   LIG d   1      15.032   8.783  -5.527  0.00  0.00     0.065 H 
ATOM     46  C   LIG d   1      11.917  10.106  -5.664  0.00  0.00    -0.019 A 
ATOM     47  C   LIG d   1      11.218   9.101  -5.032  0.00  0.00    -0.051 A 
ATOM     48  H   LIG d   1      11.396  10.982  -6.022  0.00  0.00     0.065 H 
ATOM     49  H   LIG d   1      10.150   9.188  -4.896  0.00  0.00     0.062 H 
BRANCH  44  50
ATOM     50  O   LIG d   1      13.975  10.983  -6.472  0.00  0.00    -0.495 OA
BRANCH  50  51
ATOM     51  C   LIG d   1      13.211  12.081  -6.977  0.00  0.00     0.079 C 
ATOM     52  H   LIG d   1      12.335  12.234  -6.346  0.00  0.00     0.066 H 
ATOM     53  H   LIG d   1      13.824  12.982  -6.972  0.00  0.00     0.066 H 
ATOM     54  H   LIG d   1      12.893  11.863  -7.996  0.00  0.00     0.066 H 
ENDBRANCH  50  51
ENDBRANCH  44  50
ENDBRANCH  13  40
TORSDOF 6
ENDMDL
MODEL 7
REMARK VINA RESULT:      -6.1      5.212      8.144
REMARK  6 active torsions:
REMARK  status: ('A' for Active; 'I' for Inactive)
REMARK    1  A    between atoms: C_1  and  C_2 
REMARK    2  A    between atoms: C_4  and  C_31 
REMARK    3  A    between atoms: C_6  and  N_8 
REMARK    4  A    between atoms: C_20  and  C_21 
REMARK    5  A    between atoms: C_24  and  O_27 
REMARK    6  A    between atoms: O_27  and  C_28 
ROOT
ATOM      1  N   LIG d   1       4.360  -0.344  -6.511  0.00  0.00    -0.293 NA
ATOM      2  C   LIG d   1       4.130  -1.604  -7.232  0.00  0.00     0.047 C 
ATOM      3  C   LIG d   1       3.336  -1.333  -8.484  0.00  0.00     0.054 A 
ATOM      4  C   LIG d   1       2.636  -0.150  -8.637  0.00  0.00     0.131 A 
ATOM      5  C   LIG d   1       1.898   0.087  -9.799  0.00  0.00    -0.019 A 
ATOM      6  C   LIG d   1       1.863  -0.843 -10.796  0.00  0.00    -0.047 A 
ATOM      7  C   LIG d   1       2.566  -2.040 -10.655  0.00  0.00     0.026 A 
ATOM      8  C   LIG d   1       3.310  -2.291  -9.491  0.00  0.00     0.148 A 
ATOM      9  O   LIG d   1       3.993  -3.443  -9.344  0.00  0.00    -0.422 OA
ATOM     10  C   LIG d   1       3.976  -4.373 -10.305  0.00  0.00     0.338 A 
ATOM     11  O   LIG d   1       4.608  -5.401 -10.130  0.00  0.00    -0.245 OA
ATOM     12  C   LIG d   1       3.265  -4.221 -11.504  0.00  0.00     0.031 A 
ATOM     13  C   LIG d   1       2.542  -3.060 -11.719  0.00  0.00    -0.001 A 
ATOM     14  O   LIG d   1       2.654   0.799  -7.664  0.00  0.00    -0.473 OA
ATOM     15  C   LIG d   1       3.095   0.395  -6.367  0.00  0.00     0.157 C 
ATOM     16  H   LIG d   1       5.089  -2.049  -7.499  0.00  0.00     0.052 H 
ATOM     17  H   LIG d   1       3.577  -2.292  -6.592  0.00  0.00     0.052 H 
ATOM     18  H   LIG d   1       1.354   1.013  -9.908  0.00  0.00     0.065 H 
ATOM     19  H   LIG d   1       1.290  -0.653 -11.693  0.00  0.00     0.063 H 
ATOM     20  H   LIG d   1       3.283  -5.000 -12.252  0.00  0.00     0.070 H 
ATOM     21  H   LIG d   1       2.345  -0.250  -5.909  0.00  0.00     0.091 H 
ATOM     22  H   LIG d   1       3.254   1.275  -5.744  0.00  0.00     0.091 H 
ENDROOT
BRANCH   1  23
ATOM     23  C   LIG d   1       4.947  -0.580  -5.265  0.00  0.00     0.033 A 
ATOM     24  C   LIG d   1       4.466   0.069  -4.136  0.00  0.00    -0.038 A 
ATOM     25  C   LIG d   1       5.044  -0.170  -2.905  0.00  0.00    -0.049 A 
ATOM     26  H   LIG d   1       3.637   0.757  -4.218  0.00  0.00     0.064 H 
ATOM     27  C   LIG d   1       6.106  -1.050  -2.796  0.00  0.00    -0.056 A 
ATOM     28  C   LIG d   1       6.591  -1.694  -3.921  0.00  0.00    -0.049 A 
ATOM     29  H   LIG d   1       6.556  -1.236  -1.834  0.00  0.00     0.062 H 
ATOM     30  C   LIG d   1       6.017  -1.459  -5.155  0.00  0.00    -0.038 A 
ATOM     31  H   LIG d   1       6.396  -1.962  -6.032  0.00  0.00     0.064 H 
BRANCH  25  32
ATOM     32  C   LIG d   1       4.520   0.529  -1.676  0.00  0.00    -0.040 C 
ATOM     33  H   LIG d   1       4.689   1.601  -1.768  0.00  0.00     0.028 H 
ATOM     34  H   LIG d   1       3.452   0.337  -1.576  0.00  0.00     0.028 H 
ATOM     35  H   LIG d   1       5.041   0.154  -0.795  0.00  0.00     0.028 H 
ENDBRANCH  25  32
BRANCH  28  36
ATOM     36  C   LIG d   1       7.747  -2.653  -3.799  0.00  0.00    -0.040 C 
ATOM     37  H   LIG d   1       7.374  -3.638  -3.519  0.00  0.00     0.028 H 
ATOM     38  H   LIG d   1       8.267  -2.719  -4.754  0.00  0.00     0.028 H 
ATOM     39  H   LIG d   1       8.436  -2.295  -3.034  0.00  0.00     0.028 H 
ENDBRANCH  28  36
ENDBRANCH   1  23
BRANCH  13  40
ATOM     40  C   LIG d   1       1.778  -2.852 -12.967  0.00  0.00    -0.017 A 
ATOM     41  C   LIG d   1       2.418  -2.360 -14.106  0.00  0.00    -0.051 A 
ATOM     42  C   LIG d   1       1.702  -2.167 -15.267  0.00  0.00    -0.019 A 
ATOM     43  H   LIG d   1       3.473  -2.131 -14.078  0.00  0.00     0.062 H 
ATOM     44  C   LIG d   1       0.344  -2.462 -15.306  0.00  0.00     0.120 A 
ATOM     45  H   LIG d   1       2.196  -1.786 -16.149  0.00  0.00     0.065 H 
ATOM     46  C   LIG d   1      -0.296  -2.952 -14.173  0.00  0.00    -0.019 A 
ATOM     47  C   LIG d   1       0.414  -3.152 -13.011  0.00  0.00    -0.051 A 
ATOM     48  H   LIG d   1      -1.351  -3.180 -14.207  0.00  0.00     0.065 H 
ATOM     49  H   LIG d   1      -0.083  -3.537 -12.133  0.00  0.00     0.062 H 
BRANCH  44  50
ATOM     50  O   LIG d   1      -0.358  -2.271 -16.452  0.00  0.00    -0.495 OA
BRANCH  50  51
ATOM     51  C   LIG d   1      -1.476  -1.383 -16.388  0.00  0.00     0.079 C 
ATOM     52  H   LIG d   1      -2.003  -1.530 -15.445  0.00  0.00     0.066 H 
ATOM     53  H   LIG d   1      -1.125  -0.353 -16.451  0.00  0.00     0.066 H 
ATOM     54  H   LIG d   1      -2.151  -1.587 -17.219  0.00  0.00     0.066 H 
ENDBRANCH  50  51
ENDBRANCH  44  50
ENDBRANCH  13  40
TORSDOF 6
ENDMDL
MODEL 8
REMARK VINA RESULT:      -6.0      6.430      9.090
REMARK  6 active torsions:
REMARK  status: ('A' for Active; 'I' for Inactive)
REMARK    1  A    between atoms: C_1  and  C_2 
REMARK    2  A    between atoms: C_4  and  C_31 
REMARK    3  A    between atoms: C_6  and  N_8 
REMARK    4  A    between atoms: C_20  and  C_21 
REMARK    5  A    between atoms: C_24  and  O_27 
REMARK    6  A    between atoms: O_27  and  C_28 
ROOT
ATOM      1  N   LIG d   1       3.313  -2.837  -8.358  0.00  0.00    -0.293 NA
ATOM      2  C   LIG d   1       3.681  -4.212  -8.728  0.00  0.00     0.047 C 
ATOM      3  C   LIG d   1       4.180  -4.946  -7.510  0.00  0.00     0.054 A 
ATOM      4  C   LIG d   1       4.579  -4.256  -6.380  0.00  0.00     0.131 A 
ATOM      5  C   LIG d   1       5.047  -4.947  -5.260  0.00  0.00    -0.019 A 
ATOM      6  C   LIG d   1       5.112  -6.310  -5.267  0.00  0.00    -0.047 A 
ATOM      7  C   LIG d   1       4.712  -7.019  -6.401  0.00  0.00     0.026 A 
ATOM      8  C   LIG d   1       4.241  -6.335  -7.533  0.00  0.00     0.148 A 
ATOM      9  O   LIG d   1       3.851  -7.009  -8.633  0.00  0.00    -0.422 OA
ATOM     10  C   LIG d   1       3.904  -8.345  -8.669  0.00  0.00     0.338 A 
ATOM     11  O   LIG d   1       3.542  -8.914  -9.684  0.00  0.00    -0.245 OA
ATOM     12  C   LIG d   1       4.357  -9.121  -7.593  0.00  0.00     0.031 A 
ATOM     13  C   LIG d   1       4.773  -8.491  -6.432  0.00  0.00    -0.001 A 
ATOM     14  O   LIG d   1       4.523  -2.899  -6.338  0.00  0.00    -0.473 OA
ATOM     15  C   LIG d   1       4.399  -2.213  -7.586  0.00  0.00     0.157 C 
ATOM     16  H   LIG d   1       2.807  -4.725  -9.129  0.00  0.00     0.052 H 
ATOM     17  H   LIG d   1       4.465  -4.186  -9.484  0.00  0.00     0.052 H 
ATOM     18  H   LIG d   1       5.358  -4.399  -4.384  0.00  0.00     0.065 H 
ATOM     19  H   LIG d   1       5.475  -6.839  -4.397  0.00  0.00     0.063 H 
ATOM     20  H   LIG d   1       4.380 -10.198  -7.668  0.00  0.00     0.070 H 
ATOM     21  H   LIG d   1       5.334  -2.290  -8.141  0.00  0.00     0.091 H 
ATOM     22  H   LIG d   1       4.164  -1.164  -7.405  0.00  0.00     0.091 H 
ENDROOT
BRANCH   1  23
ATOM     23  C   LIG d   1       3.005  -2.080  -9.492  0.00  0.00     0.033 A 
ATOM     24  C   LIG d   1       2.102  -2.566 -10.428  0.00  0.00    -0.038 A 
ATOM     25  C   LIG d   1       1.794  -1.813 -11.543  0.00  0.00    -0.049 A 
ATOM     26  H   LIG d   1       1.636  -3.529 -10.282  0.00  0.00     0.064 H 
ATOM     27  C   LIG d   1       2.389  -0.578 -11.733  0.00  0.00    -0.056 A 
ATOM     28  C   LIG d   1       3.294  -0.095 -10.804  0.00  0.00    -0.049 A 
ATOM     29  H   LIG d   1       2.148   0.009 -12.605  0.00  0.00     0.062 H 
ATOM     30  C   LIG d   1       3.606  -0.843  -9.686  0.00  0.00    -0.038 A 
ATOM     31  H   LIG d   1       4.311  -0.464  -8.962  0.00  0.00     0.064 H 
BRANCH  25  32
ATOM     32  C   LIG d   1       0.809  -2.335 -12.558  0.00  0.00    -0.040 C 
ATOM     33  H   LIG d   1       1.349  -2.803 -13.381  0.00  0.00     0.028 H 
ATOM     34  H   LIG d   1       0.156  -3.069 -12.087  0.00  0.00     0.028 H 
ATOM     35  H   LIG d   1       0.211  -1.509 -12.941  0.00  0.00     0.028 H 
ENDBRANCH  25  32
BRANCH  28  36
ATOM     36  C   LIG d   1       3.940   1.251 -11.013  0.00  0.00    -0.040 C 
ATOM     37  H   LIG d   1       4.861   1.127 -11.584  0.00  0.00     0.028 H 
ATOM     38  H   LIG d   1       3.258   1.901 -11.561  0.00  0.00     0.028 H 
ATOM     39  H   LIG d   1       4.170   1.697 -10.045  0.00  0.00     0.028 H 
ENDBRANCH  28  36
ENDBRANCH   1  23
BRANCH  13  40
ATOM     40  C   LIG d   1       5.258  -9.265  -5.270  0.00  0.00    -0.017 A 
ATOM     41  C   LIG d   1       4.379  -9.603  -4.238  0.00  0.00    -0.051 A 
ATOM     42  C   LIG d   1       4.836 -10.325  -3.156  0.00  0.00    -0.019 A 
ATOM     43  H   LIG d   1       3.345  -9.300  -4.287  0.00  0.00     0.062 H 
ATOM     44  C   LIG d   1       6.168 -10.716  -3.092  0.00  0.00     0.120 A 
ATOM     45  H   LIG d   1       4.158 -10.586  -2.357  0.00  0.00     0.065 H 
ATOM     46  C   LIG d   1       7.044 -10.382  -4.117  0.00  0.00    -0.019 A 
ATOM     47  C   LIG d   1       6.595  -9.665  -5.203  0.00  0.00    -0.051 A 
ATOM     48  H   LIG d   1       8.079 -10.688  -4.063  0.00  0.00     0.065 H 
ATOM     49  H   LIG d   1       7.275  -9.409  -6.002  0.00  0.00     0.062 H 
BRANCH  44  50
ATOM     50  O   LIG d   1       6.614 -11.428  -2.024  0.00  0.00    -0.495 OA
BRANCH  50  51
ATOM     51  C   LIG d   1       7.313 -10.705  -1.009  0.00  0.00     0.079 C 
ATOM     52  H   LIG d   1       8.168 -11.290  -0.671  0.00  0.00     0.066 H 
ATOM     53  H   LIG d   1       7.661  -9.755  -1.414  0.00  0.00     0.066 H 
ATOM     54  H   LIG d   1       6.644 -10.518  -0.170  0.00  0.00     0.066 H 
ENDBRANCH  50  51
ENDBRANCH  44  50
ENDBRANCH  13  40
TORSDOF 6
ENDMDL
MODEL 9
REMARK VINA RESULT:      -6.0      7.718      9.495
REMARK  6 active torsions:
REMARK  status: ('A' for Active; 'I' for Inactive)
REMARK    1  A    between atoms: C_1  and  C_2 
REMARK    2  A    between atoms: C_4  and  C_31 
REMARK    3  A    between atoms: C_6  and  N_8 
REMARK    4  A    between atoms: C_20  and  C_21 
REMARK    5  A    between atoms: C_24  and  O_27 
REMARK    6  A    between atoms: O_27  and  C_28 
ROOT
ATOM      1  N   LIG d   1      10.548   6.527  -1.621  0.00  0.00    -0.293 NA
ATOM      2  C   LIG d   1      10.617   7.537  -2.686  0.00  0.00     0.047 C 
ATOM      3  C   LIG d   1      10.477   6.866  -4.029  0.00  0.00     0.054 A 
ATOM      4  C   LIG d   1      10.670   5.503  -4.164  0.00  0.00     0.131 A 
ATOM      5  C   LIG d   1      10.545   4.894  -5.414  0.00  0.00    -0.019 A 
ATOM      6  C   LIG d   1      10.228   5.635  -6.515  0.00  0.00    -0.047 A 
ATOM      7  C   LIG d   1      10.029   7.011  -6.393  0.00  0.00     0.026 A 
ATOM      8  C   LIG d   1      10.154   7.635  -5.141  0.00  0.00     0.148 A 
ATOM      9  O   LIG d   1       9.964   8.963  -5.011  0.00  0.00    -0.422 OA
ATOM     10  C   LIG d   1       9.653   9.715  -6.072  0.00  0.00     0.338 A 
ATOM     11  O   LIG d   1       9.490  10.912  -5.909  0.00  0.00    -0.245 OA
ATOM     12  C   LIG d   1       9.505   9.189  -7.364  0.00  0.00     0.031 A 
ATOM     13  C   LIG d   1       9.686   7.832  -7.568  0.00  0.00    -0.001 A 
ATOM     14  O   LIG d   1      10.983   4.735  -3.087  0.00  0.00    -0.473 OA
ATOM     15  C   LIG d   1      11.459   5.411  -1.921  0.00  0.00     0.157 C 
ATOM     16  H   LIG d   1       9.810   8.259  -2.555  0.00  0.00     0.052 H 
ATOM     17  H   LIG d   1      11.576   8.052  -2.636  0.00  0.00     0.052 H 
ATOM     18  H   LIG d   1      10.699   3.830  -5.509  0.00  0.00     0.065 H 
ATOM     19  H   LIG d   1      10.132   5.157  -7.480  0.00  0.00     0.063 H 
ATOM     20  H   LIG d   1       9.250   9.836  -8.191  0.00  0.00     0.070 H 
ATOM     21  H   LIG d   1      12.462   5.796  -2.105  0.00  0.00     0.091 H 
ATOM     22  H   LIG d   1      11.479   4.718  -1.079  0.00  0.00     0.091 H 
ENDROOT
BRANCH   1  23
ATOM     23  C   LIG d   1      10.840   7.092  -0.376  0.00  0.00     0.033 A 
ATOM     24  C   LIG d   1      10.783   6.312   0.771  0.00  0.00    -0.038 A 
ATOM     25  C   LIG d   1      11.078   6.871   1.999  0.00  0.00    -0.049 A 
ATOM     26  H   LIG d   1      10.513   5.268   0.704  0.00  0.00     0.064 H 
ATOM     27  C   LIG d   1      11.423   8.207   2.088  0.00  0.00    -0.056 A 
ATOM     28  C   LIG d   1      11.475   8.988   0.947  0.00  0.00    -0.049 A 
ATOM     29  H   LIG d   1      11.653   8.642   3.048  0.00  0.00     0.062 H 
ATOM     30  C   LIG d   1      11.182   8.435  -0.284  0.00  0.00    -0.038 A 
ATOM     31  H   LIG d   1      11.223   9.045  -1.174  0.00  0.00     0.064 H 
BRANCH  25  32
ATOM     32  C   LIG d   1      11.022   6.025   3.245  0.00  0.00    -0.040 C 
ATOM     33  H   LIG d   1      11.195   4.981   2.984  0.00  0.00     0.028 H 
ATOM     34  H   LIG d   1      11.789   6.357   3.945  0.00  0.00     0.028 H 
ATOM     35  H   LIG d   1      10.040   6.125   3.708  0.00  0.00     0.028 H 
ENDBRANCH  25  32
BRANCH  28  36
ATOM     36  C   LIG d   1      11.853  10.443   1.047  0.00  0.00    -0.040 C 
ATOM     37  H   LIG d   1      10.949  11.052   1.073  0.00  0.00     0.028 H 
ATOM     38  H   LIG d   1      12.429  10.608   1.957  0.00  0.00     0.028 H 
ATOM     39  H   LIG d   1      12.453  10.723   0.181  0.00  0.00     0.028 H 
ENDBRANCH  28  36
ENDBRANCH   1  23
BRANCH  13  40
ATOM     40  C   LIG d   1       9.540   7.230  -8.909  0.00  0.00    -0.017 A 
ATOM     41  C   LIG d   1      10.421   7.581  -9.934  0.00  0.00    -0.051 A 
ATOM     42  C   LIG d   1      10.281   7.018 -11.184  0.00  0.00    -0.019 A 
ATOM     43  H   LIG d   1      11.211   8.293  -9.748  0.00  0.00     0.062 H 
ATOM     44  C   LIG d   1       9.265   6.101 -11.425  0.00  0.00     0.120 A 
ATOM     45  H   LIG d   1      10.962   7.289 -11.977  0.00  0.00     0.065 H 
ATOM     46  C   LIG d   1       8.386   5.749 -10.407  0.00  0.00    -0.019 A 
ATOM     47  C   LIG d   1       8.522   6.304  -9.154  0.00  0.00    -0.051 A 
ATOM     48  H   LIG d   1       7.598   5.036 -10.598  0.00  0.00     0.065 H 
ATOM     49  H   LIG d   1       7.842   6.027  -8.363  0.00  0.00     0.062 H 
BRANCH  44  50
ATOM     50  O   LIG d   1       9.131   5.547 -12.657  0.00  0.00    -0.495 OA
BRANCH  50  51
ATOM     51  C   LIG d   1       9.160   6.437 -13.775  0.00  0.00     0.079 C 
ATOM     52  H   LIG d   1       8.147   6.762 -14.007  0.00  0.00     0.066 H 
ATOM     53  H   LIG d   1       9.774   7.304 -13.533  0.00  0.00     0.066 H 
ATOM     54  H   LIG d   1       9.584   5.922 -14.638  0.00  0.00     0.066 H 
ENDBRANCH  50  51
ENDBRANCH  44  50
ENDBRANCH  13  40
TORSDOF 6
ENDMDL
MODEL 10
REMARK VINA RESULT:      -6.0      4.740     11.813
REMARK  6 active torsions:
REMARK  status: ('A' for Active; 'I' for Inactive)
REMARK    1  A    between atoms: C_1  and  C_2 
REMARK    2  A    between atoms: C_4  and  C_31 
REMARK    3  A    between atoms: C_6  and  N_8 
REMARK    4  A    between atoms: C_20  and  C_21 
REMARK    5  A    between atoms: C_24  and  O_27 
REMARK    6  A    between atoms: O_27  and  C_28 
ROOT
ATOM      1  N   LIG d   1       9.681   3.592  -4.952  0.00  0.00    -0.293 NA
ATOM      2  C   LIG d   1       9.353   5.022  -5.038  0.00  0.00     0.047 C 
ATOM      3  C   LIG d   1       9.752   5.710  -3.757  0.00  0.00     0.054 A 
ATOM      4  C   LIG d   1       9.993   4.982  -2.606  0.00  0.00     0.131 A 
ATOM      5  C   LIG d   1      10.355   5.631  -1.424  0.00  0.00    -0.019 A 
ATOM      6  C   LIG d   1      10.479   6.990  -1.392  0.00  0.00    -0.047 A 
ATOM      7  C   LIG d   1      10.239   7.737  -2.547  0.00  0.00     0.026 A 
ATOM      8  C   LIG d   1       9.873   7.095  -3.741  0.00  0.00     0.148 A 
ATOM      9  O   LIG d   1       9.640   7.806  -4.862  0.00  0.00    -0.422 OA
ATOM     10  C   LIG d   1       9.752   9.138  -4.861  0.00  0.00     0.338 A 
ATOM     11  O   LIG d   1       9.532   9.742  -5.897  0.00  0.00    -0.245 OA
ATOM     12  C   LIG d   1      10.112   9.874  -3.722  0.00  0.00     0.031 A 
ATOM     13  C   LIG d   1      10.366   9.205  -2.537  0.00  0.00    -0.001 A 
ATOM     14  O   LIG d   1       9.883   3.627  -2.605  0.00  0.00    -0.473 OA
ATOM     15  C   LIG d   1       9.171   3.030  -3.691  0.00  0.00     0.157 C 
ATOM     16  H   LIG d   1       9.892   5.468  -5.873  0.00  0.00     0.052 H 
ATOM     17  H   LIG d   1       8.280   5.139  -5.194  0.00  0.00     0.052 H 
ATOM     18  H   LIG d   1      10.540   5.055  -0.531  0.00  0.00     0.065 H 
ATOM     19  H   LIG d   1      10.759   7.486  -0.474  0.00  0.00     0.063 H 
ATOM     20  H   LIG d   1      10.192  10.950  -3.770  0.00  0.00     0.070 H 
ATOM     21  H   LIG d   1       8.108   3.250  -3.596  0.00  0.00     0.091 H 
ATOM     22  H   LIG d   1       9.327   1.951  -3.681  0.00  0.00     0.091 H 
ENDROOT
BRANCH   1  23
ATOM     23  C   LIG d   1       9.174   2.895  -6.052  0.00  0.00     0.033 A 
ATOM     24  C   LIG d   1       9.560   3.250  -7.337  0.00  0.00    -0.038 A 
ATOM     25  C   LIG d   1       9.062   2.556  -8.422  0.00  0.00    -0.049 A 
ATOM     26  H   LIG d   1      10.252   4.066  -7.489  0.00  0.00     0.064 H 
ATOM     27  C   LIG d   1       8.175   1.512  -8.230  0.00  0.00    -0.056 A 
ATOM     28  C   LIG d   1       7.785   1.160  -6.951  0.00  0.00    -0.049 A 
ATOM     29  H   LIG d   1       7.787   0.971  -9.079  0.00  0.00     0.062 H 
ATOM     30  C   LIG d   1       8.279   1.850  -5.861  0.00  0.00    -0.038 A 
ATOM     31  H   LIG d   1       7.974   1.574  -4.863  0.00  0.00     0.064 H 
BRANCH  25  32
ATOM     32  C   LIG d   1       9.483   2.936  -9.819  0.00  0.00    -0.040 C 
ATOM     33  H   LIG d   1       9.566   4.020  -9.891  0.00  0.00     0.028 H 
ATOM     34  H   LIG d   1      10.447   2.481 -10.044  0.00  0.00     0.028 H 
ATOM     35  H   LIG d   1       8.739   2.581 -10.532  0.00  0.00     0.028 H 
ENDBRANCH  25  32
BRANCH  28  36
ATOM     36  C   LIG d   1       6.819   0.021  -6.745  0.00  0.00    -0.040 C 
ATOM     37  H   LIG d   1       6.572  -0.425  -7.708  0.00  0.00     0.028 H 
ATOM     38  H   LIG d   1       7.276  -0.731  -6.102  0.00  0.00     0.028 H 
ATOM     39  H   LIG d   1       5.910   0.398  -6.275  0.00  0.00     0.028 H 
ENDBRANCH  28  36
ENDBRANCH   1  23
BRANCH  13  40
ATOM     40  C   LIG d   1      10.750   9.935  -1.310  0.00  0.00    -0.017 A 
ATOM     41  C   LIG d   1       9.765  10.450  -0.465  0.00  0.00    -0.051 A 
ATOM     42  C   LIG d   1      10.128  11.130   0.678  0.00  0.00    -0.019 A 
ATOM     43  H   LIG d   1       8.722  10.317  -0.705  0.00  0.00     0.062 H 
ATOM     44  C   LIG d   1      11.471  11.302   0.990  0.00  0.00     0.120 A 
ATOM     45  H   LIG d   1       9.367  11.529   1.332  0.00  0.00     0.065 H 
ATOM     46  C   LIG d   1      12.453  10.790   0.151  0.00  0.00    -0.019 A 
ATOM     47  C   LIG d   1      12.099  10.106  -0.991  0.00  0.00    -0.051 A 
ATOM     48  H   LIG d   1      13.497  10.926   0.396  0.00  0.00     0.065 H 
ATOM     49  H   LIG d   1      12.863   9.705  -1.640  0.00  0.00     0.062 H 
BRANCH  44  50
ATOM     50  O   LIG d   1      11.824  11.972   2.117  0.00  0.00    -0.495 OA
BRANCH  50  51
ATOM     51  C   LIG d   1      12.909  11.436   2.877  0.00  0.00     0.079 C 
ATOM     52  H   LIG d   1      12.900  10.348   2.806  0.00  0.00     0.066 H 
ATOM     53  H   LIG d   1      13.851  11.818   2.486  0.00  0.00     0.066 H 
ATOM     54  H   LIG d   1      12.802  11.733   3.921  0.00  0.00     0.066 H 
ENDBRANCH  50  51
ENDBRANCH  44  50
ENDBRANCH  13  40
TORSDOF 6
ENDMDL
