MODEL 1
REMARK VINA RESULT:      -7.7      0.000      0.000
REMARK  4 active torsions:
REMARK  status: ('A' for Active; 'I' for Inactive)
REMARK    1  A    between atoms: C_10  and  C_15 
REMARK    2  A    between atoms: C_15  and  C_16 
REMARK       I    between atoms: C_16  and  N_18 
REMARK    3  A    between atoms: N_18  and  C_19 
REMARK    4  A    between atoms: C_22  and  C_25 
REMARK       I    between atoms: C_25  and  N_27 
ROOT
ATOM      1  C   LIG d   1       5.655  -0.492  -6.094  0.00  0.00     0.051 C 
ATOM      2  H   LIG d   1       4.922  -0.319  -5.305  0.00  0.00     0.038 H 
ATOM      3  H   LIG d   1       6.279   0.393  -6.211  0.00  0.00     0.038 H 
ENDROOT
BRANCH   1   4
ATOM      4  C   LIG d   1       6.531  -1.689  -5.723  0.00  0.00     0.108 C 
ATOM      5  N   LIG d   1       5.689  -2.782  -5.234  0.00  0.00    -0.299 N 
ATOM      6  C   LIG d   1       4.867  -2.617  -4.200  0.00  0.00     0.246 C 
ATOM      7  H   LIG d   1       5.731  -3.644  -5.674  0.00  0.00     0.150 HD
ATOM      8  C   LIG d   1       4.699  -1.359  -3.463  0.00  0.00     0.058 A 
ATOM      9  O   LIG d   1       4.208  -3.575  -3.842  0.00  0.00    -0.270 OA
ATOM     10  C   LIG d   1       5.763  -0.517  -3.144  0.00  0.00     0.046 A 
ATOM     11  C   LIG d   1       3.398  -1.002  -3.072  0.00  0.00    -0.048 A 
ATOM     12  C   LIG d   1       5.511   0.669  -2.447  0.00  0.00    -0.040 A 
ATOM     13  N   LIG d   1       7.078  -0.787  -3.479  0.00  0.00    -0.283 N 
ATOM     14  C   LIG d   1       4.230   1.005  -2.073  0.00  0.00    -0.060 A 
ATOM     15  H   LIG d   1       6.331   1.327  -2.200  0.00  0.00     0.064 H 
ATOM     16  C   LIG d   1       3.172   0.168  -2.385  0.00  0.00    -0.061 A 
ATOM     17  H   LIG d   1       4.049   1.924  -1.535  0.00  0.00     0.062 H 
ATOM     18  H   LIG d   1       2.168   0.431  -2.086  0.00  0.00     0.062 H 
ATOM     19  C   LIG d   1       7.494  -1.294  -4.635  0.00  0.00     0.238 C 
ATOM     20  H   LIG d   1       7.755  -0.590  -2.813  0.00  0.00     0.155 HD
ATOM     21  O   LIG d   1       8.683  -1.443  -4.819  0.00  0.00    -0.273 OA
ATOM     22  H   LIG d   1       2.569  -1.651  -3.312  0.00  0.00     0.063 H 
ATOM     23  H   LIG d   1       7.088  -2.021  -6.599  0.00  0.00     0.060 H 
ENDBRANCH   1   4
BRANCH   1  24
ATOM     24  C   LIG d   1       4.940  -0.777  -7.390  0.00  0.00     0.219 C 
ATOM     25  O   LIG d   1       5.536  -0.696  -8.442  0.00  0.00    -0.275 OA
ATOM     26  N   LIG d   1       3.636  -1.120  -7.378  0.00  0.00    -0.285 N 
ATOM     27  H   LIG d   1       3.176  -1.250  -6.534  0.00  0.00     0.155 HD
BRANCH  26  28
ATOM     28  C   LIG d   1       2.949  -1.289  -8.580  0.00  0.00     0.033 A 
ATOM     29  C   LIG d   1       2.235  -0.228  -9.126  0.00  0.00    -0.040 A 
ATOM     30  C   LIG d   1       1.559  -0.390 -10.315  0.00  0.00    -0.048 A 
ATOM     31  H   LIG d   1       2.214   0.726  -8.619  0.00  0.00     0.064 H 
ATOM     32  C   LIG d   1       1.584  -1.625 -10.968  0.00  0.00     0.037 A 
ATOM     33  H   LIG d   1       1.009   0.436 -10.741  0.00  0.00     0.063 H 
ATOM     34  C   LIG d   1       2.299  -2.691 -10.414  0.00  0.00    -0.048 A 
ATOM     35  C   LIG d   1       2.976  -2.521  -9.227  0.00  0.00    -0.040 A 
ATOM     36  H   LIG d   1       2.320  -3.647 -10.916  0.00  0.00     0.063 H 
ATOM     37  H   LIG d   1       3.528  -3.344  -8.798  0.00  0.00     0.064 H 
BRANCH  32  38
ATOM     38  C   LIG d   1       0.858  -1.804 -12.240  0.00  0.00     0.241 C 
ATOM     39  O   LIG d   1       1.424  -2.289 -13.200  0.00  0.00    -0.270 OA
ATOM     40  N   LIG d   1      -0.434  -1.430 -12.337  0.00  0.00    -0.325 N 
ATOM     41  H   LIG d   1      -0.885  -1.043 -11.570  0.00  0.00     0.145 HD
ATOM     42  H   LIG d   1      -0.912  -1.548 -13.172  0.00  0.00     0.145 HD
ENDBRANCH  32  38
ENDBRANCH  26  28
ENDBRANCH   1  24
TORSDOF 4
ENDMDL
MODEL 2
REMARK VINA RESULT:      -7.3      4.310      7.870
REMARK  4 active torsions:
REMARK  status: ('A' for Active; 'I' for Inactive)
REMARK    1  A    between atoms: C_10  and  C_15 
REMARK    2  A    between atoms: C_15  and  C_16 
REMARK       I    between atoms: C_16  and  N_18 
REMARK    3  A    between atoms: N_18  and  C_19 
REMARK    4  A    between atoms: C_22  and  C_25 
REMARK       I    between atoms: C_25  and  N_27 
ROOT
ATOM      1  C   LIG d   1       7.327  -0.404  -3.699  0.00  0.00     0.051 C 
ATOM      2  H   LIG d   1       6.293  -0.509  -3.368  0.00  0.00     0.038 H 
ATOM      3  H   LIG d   1       7.990  -0.876  -2.975  0.00  0.00     0.038 H 
ENDROOT
BRANCH   1   4
ATOM      4  C   LIG d   1       7.497  -1.076  -5.062  0.00  0.00     0.108 C 
ATOM      5  N   LIG d   1       6.636  -0.418  -6.045  0.00  0.00    -0.299 N 
ATOM      6  C   LIG d   1       5.320  -0.323  -5.865  0.00  0.00     0.246 C 
ATOM      7  H   LIG d   1       7.033  -0.043  -6.846  0.00  0.00     0.150 HD
ATOM      8  C   LIG d   1       4.603  -0.834  -4.690  0.00  0.00     0.058 A 
ATOM      9  O   LIG d   1       4.667   0.225  -6.732  0.00  0.00    -0.270 OA
ATOM     10  C   LIG d   1       4.908  -2.051  -4.082  0.00  0.00     0.046 A 
ATOM     11  C   LIG d   1       3.567  -0.044  -4.166  0.00  0.00    -0.048 A 
ATOM     12  C   LIG d   1       4.179  -2.456  -2.960  0.00  0.00    -0.040 A 
ATOM     13  N   LIG d   1       5.904  -2.900  -4.531  0.00  0.00    -0.283 N 
ATOM     14  C   LIG d   1       3.168  -1.669  -2.457  0.00  0.00    -0.060 A 
ATOM     15  H   LIG d   1       4.412  -3.396  -2.482  0.00  0.00     0.064 H 
ATOM     16  C   LIG d   1       2.860  -0.461  -3.062  0.00  0.00    -0.061 A 
ATOM     17  H   LIG d   1       2.613  -1.993  -1.589  0.00  0.00     0.062 H 
ATOM     18  H   LIG d   1       2.063   0.152  -2.669  0.00  0.00     0.062 H 
ATOM     19  C   LIG d   1       7.104  -2.526  -4.964  0.00  0.00     0.238 C 
ATOM     20  H   LIG d   1       5.710  -3.851  -4.529  0.00  0.00     0.155 HD
ATOM     21  O   LIG d   1       7.904  -3.376  -5.289  0.00  0.00    -0.273 OA
ATOM     22  H   LIG d   1       3.322   0.898  -4.633  0.00  0.00     0.063 H 
ATOM     23  H   LIG d   1       8.536  -1.002  -5.380  0.00  0.00     0.060 H 
ENDBRANCH   1   4
BRANCH   1  24
ATOM     24  C   LIG d   1       7.670   1.060  -3.815  0.00  0.00     0.219 C 
ATOM     25  O   LIG d   1       6.789   1.892  -3.797  0.00  0.00    -0.275 OA
ATOM     26  N   LIG d   1       8.957   1.441  -3.940  0.00  0.00    -0.285 N 
ATOM     27  H   LIG d   1       9.666   0.782  -3.888  0.00  0.00     0.155 HD
BRANCH  26  28
ATOM     28  C   LIG d   1       9.268   2.785  -4.144  0.00  0.00     0.033 A 
ATOM     29  C   LIG d   1       9.605   3.592  -3.062  0.00  0.00    -0.040 A 
ATOM     30  C   LIG d   1       9.918   4.918  -3.260  0.00  0.00    -0.048 A 
ATOM     31  H   LIG d   1       9.626   3.176  -2.065  0.00  0.00     0.064 H 
ATOM     32  C   LIG d   1       9.886   5.456  -4.550  0.00  0.00     0.037 A 
ATOM     33  H   LIG d   1      10.183   5.543  -2.421  0.00  0.00     0.063 H 
ATOM     34  C   LIG d   1       9.543   4.644  -5.634  0.00  0.00    -0.048 A 
ATOM     35  C   LIG d   1       9.236   3.318  -5.429  0.00  0.00    -0.040 A 
ATOM     36  H   LIG d   1       9.517   5.057  -6.632  0.00  0.00     0.063 H 
ATOM     37  H   LIG d   1       8.969   2.690  -6.267  0.00  0.00     0.064 H 
BRANCH  32  38
ATOM     38  C   LIG d   1      10.216   6.878  -4.766  0.00  0.00     0.241 C 
ATOM     39  O   LIG d   1      11.378   7.233  -4.813  0.00  0.00    -0.270 OA
ATOM     40  N   LIG d   1       9.228   7.784  -4.913  0.00  0.00    -0.325 N 
ATOM     41  H   LIG d   1       8.301   7.500  -4.877  0.00  0.00     0.145 HD
ATOM     42  H   LIG d   1       9.444   8.718  -5.056  0.00  0.00     0.145 HD
ENDBRANCH  32  38
ENDBRANCH  26  28
ENDBRANCH   1  24
TORSDOF 4
ENDMDL
MODEL 3
REMARK VINA RESULT:      -7.1      2.118      2.166
REMARK  4 active torsions:
REMARK  status: ('A' for Active; 'I' for Inactive)
REMARK    1  A    between atoms: C_10  and  C_15 
REMARK    2  A    between atoms: C_15  and  C_16 
REMARK       I    between atoms: C_16  and  N_18 
REMARK    3  A    between atoms: N_18  and  C_19 
REMARK    4  A    between atoms: C_22  and  C_25 
REMARK       I    between atoms: C_25  and  N_27 
ROOT
ATOM      1  C   LIG d   1       5.783  -0.598  -6.058  0.00  0.00     0.051 C 
ATOM      2  H   LIG d   1       4.907  -0.509  -5.414  0.00  0.00     0.038 H 
ATOM      3  H   LIG d   1       6.375   0.315  -5.993  0.00  0.00     0.038 H 
ENDROOT
BRANCH   1   4
ATOM      4  C   LIG d   1       6.628  -1.789  -5.608  0.00  0.00     0.108 C 
ATOM      5  N   LIG d   1       5.753  -2.857  -5.123  0.00  0.00    -0.299 N 
ATOM      6  C   LIG d   1       4.886  -2.651  -4.133  0.00  0.00     0.246 C 
ATOM      7  H   LIG d   1       5.806  -3.735  -5.532  0.00  0.00     0.150 HD
ATOM      8  C   LIG d   1       4.699  -1.367  -3.446  0.00  0.00     0.058 A 
ATOM      9  O   LIG d   1       4.202  -3.590  -3.775  0.00  0.00    -0.270 OA
ATOM     10  C   LIG d   1       5.756  -0.524  -3.107  0.00  0.00     0.046 A 
ATOM     11  C   LIG d   1       3.385  -0.986  -3.128  0.00  0.00    -0.048 A 
ATOM     12  C   LIG d   1       5.485   0.686  -2.462  0.00  0.00    -0.040 A 
ATOM     13  N   LIG d   1       7.082  -0.818  -3.373  0.00  0.00    -0.283 N 
ATOM     14  C   LIG d   1       4.192   1.046  -2.159  0.00  0.00    -0.060 A 
ATOM     15  H   LIG d   1       6.299   1.345  -2.199  0.00  0.00     0.064 H 
ATOM     16  C   LIG d   1       3.140   0.208  -2.491  0.00  0.00    -0.061 A 
ATOM     17  H   LIG d   1       3.996   1.984  -1.660  0.00  0.00     0.062 H 
ATOM     18  H   LIG d   1       2.127   0.491  -2.247  0.00  0.00     0.062 H 
ATOM     19  C   LIG d   1       7.545  -1.367  -4.491  0.00  0.00     0.238 C 
ATOM     20  H   LIG d   1       7.730  -0.605  -2.682  0.00  0.00     0.155 HD
ATOM     21  O   LIG d   1       8.739  -1.532  -4.615  0.00  0.00    -0.273 OA
ATOM     22  H   LIG d   1       2.561  -1.635  -3.384  0.00  0.00     0.063 H 
ATOM     23  H   LIG d   1       7.221  -2.155  -6.446  0.00  0.00     0.060 H 
ENDBRANCH   1   4
BRANCH   1  24
ATOM     24  C   LIG d   1       5.339  -0.808  -7.483  0.00  0.00     0.219 C 
ATOM     25  O   LIG d   1       4.968  -1.903  -7.847  0.00  0.00    -0.275 OA
ATOM     26  N   LIG d   1       5.355   0.223  -8.352  0.00  0.00    -0.285 N 
ATOM     27  H   LIG d   1       5.588   1.113  -8.045  0.00  0.00     0.155 HD
BRANCH  26  28
ATOM     28  C   LIG d   1       5.037   0.009  -9.693  0.00  0.00     0.033 A 
ATOM     29  C   LIG d   1       3.738   0.229 -10.142  0.00  0.00    -0.040 A 
ATOM     30  C   LIG d   1       3.422   0.022 -11.466  0.00  0.00    -0.048 A 
ATOM     31  H   LIG d   1       2.979   0.566  -9.452  0.00  0.00     0.064 H 
ATOM     32  C   LIG d   1       4.404  -0.418 -12.357  0.00  0.00     0.037 A 
ATOM     33  H   LIG d   1       2.415   0.197 -11.815  0.00  0.00     0.063 H 
ATOM     34  C   LIG d   1       5.706  -0.642 -11.902  0.00  0.00    -0.048 A 
ATOM     35  C   LIG d   1       6.017  -0.430 -10.577  0.00  0.00    -0.040 A 
ATOM     36  H   LIG d   1       6.467  -0.983 -12.588  0.00  0.00     0.063 H 
ATOM     37  H   LIG d   1       7.023  -0.604 -10.225  0.00  0.00     0.064 H 
BRANCH  32  38
ATOM     38  C   LIG d   1       4.067  -0.644 -13.776  0.00  0.00     0.241 C 
ATOM     39  O   LIG d   1       3.183  -1.423 -14.075  0.00  0.00    -0.270 OA
ATOM     40  N   LIG d   1       4.742   0.012 -14.741  0.00  0.00    -0.325 N 
ATOM     41  H   LIG d   1       5.447   0.634 -14.502  0.00  0.00     0.145 HD
ATOM     42  H   LIG d   1       4.521  -0.136 -15.674  0.00  0.00     0.145 HD
ENDBRANCH  32  38
ENDBRANCH  26  28
ENDBRANCH   1  24
TORSDOF 4
ENDMDL
MODEL 4
REMARK VINA RESULT:      -7.1      3.727      7.942
REMARK  4 active torsions:
REMARK  status: ('A' for Active; 'I' for Inactive)
REMARK    1  A    between atoms: C_10  and  C_15 
REMARK    2  A    between atoms: C_15  and  C_16 
REMARK       I    between atoms: C_16  and  N_18 
REMARK    3  A    between atoms: N_18  and  C_19 
REMARK    4  A    between atoms: C_22  and  C_25 
REMARK       I    between atoms: C_25  and  N_27 
ROOT
ATOM      1  C   LIG d   1       6.318  -1.461  -5.148  0.00  0.00     0.051 C 
ATOM      2  H   LIG d   1       6.839  -0.906  -5.930  0.00  0.00     0.038 H 
ATOM      3  H   LIG d   1       5.910  -0.763  -4.418  0.00  0.00     0.038 H 
ENDROOT
BRANCH   1   4
ATOM      4  C   LIG d   1       5.181  -2.273  -5.771  0.00  0.00     0.108 C 
ATOM      5  N   LIG d   1       4.167  -1.365  -6.309  0.00  0.00    -0.299 N 
ATOM      6  C   LIG d   1       3.568  -0.458  -5.540  0.00  0.00     0.246 C 
ATOM      7  H   LIG d   1       3.927  -1.427  -7.246  0.00  0.00     0.150 HD
ATOM      8  C   LIG d   1       3.855  -0.254  -4.115  0.00  0.00     0.058 A 
ATOM      9  O   LIG d   1       2.725   0.251  -6.055  0.00  0.00    -0.270 OA
ATOM     10  C   LIG d   1       4.082  -1.304  -3.227  0.00  0.00     0.046 A 
ATOM     11  C   LIG d   1       3.904   1.068  -3.644  0.00  0.00    -0.048 A 
ATOM     12  C   LIG d   1       4.360  -1.019  -1.887  0.00  0.00    -0.040 A 
ATOM     13  N   LIG d   1       4.048  -2.638  -3.597  0.00  0.00    -0.283 N 
ATOM     14  C   LIG d   1       4.405   0.283  -1.442  0.00  0.00    -0.060 A 
ATOM     15  H   LIG d   1       4.539  -1.827  -1.195  0.00  0.00     0.064 H 
ATOM     16  C   LIG d   1       4.176   1.328  -2.321  0.00  0.00    -0.061 A 
ATOM     17  H   LIG d   1       4.621   0.490  -0.404  0.00  0.00     0.062 H 
ATOM     18  H   LIG d   1       4.207   2.348  -1.968  0.00  0.00     0.062 H 
ATOM     19  C   LIG d   1       4.547  -3.143  -4.720  0.00  0.00     0.238 C 
ATOM     20  H   LIG d   1       3.622  -3.257  -2.983  0.00  0.00     0.155 HD
ATOM     21  O   LIG d   1       4.489  -4.340  -4.903  0.00  0.00    -0.273 OA
ATOM     22  H   LIG d   1       3.725   1.887  -4.325  0.00  0.00     0.063 H 
ATOM     23  H   LIG d   1       5.574  -2.898  -6.572  0.00  0.00     0.060 H 
ENDBRANCH   1   4
BRANCH   1  24
ATOM     24  C   LIG d   1       7.286  -2.393  -4.465  0.00  0.00     0.219 C 
ATOM     25  O   LIG d   1       7.388  -2.382  -3.257  0.00  0.00    -0.275 OA
ATOM     26  N   LIG d   1       8.037  -3.239  -5.198  0.00  0.00    -0.285 N 
ATOM     27  H   LIG d   1       7.909  -3.295  -6.158  0.00  0.00     0.155 HD
BRANCH  26  28
ATOM     28  C   LIG d   1       9.000  -4.032  -4.576  0.00  0.00     0.033 A 
ATOM     29  C   LIG d   1       8.732  -5.372  -4.316  0.00  0.00    -0.040 A 
ATOM     30  C   LIG d   1       9.683  -6.160  -3.705  0.00  0.00    -0.048 A 
ATOM     31  H   LIG d   1       7.779  -5.796  -4.595  0.00  0.00     0.064 H 
ATOM     32  C   LIG d   1      10.914  -5.610  -3.339  0.00  0.00     0.037 A 
ATOM     33  H   LIG d   1       9.476  -7.201  -3.507  0.00  0.00     0.063 H 
ATOM     34  C   LIG d   1      11.178  -4.262  -3.599  0.00  0.00    -0.048 A 
ATOM     35  C   LIG d   1      10.225  -3.481  -4.213  0.00  0.00    -0.040 A 
ATOM     36  H   LIG d   1      12.128  -3.834  -3.317  0.00  0.00     0.063 H 
ATOM     37  H   LIG d   1      10.429  -2.439  -4.412  0.00  0.00     0.064 H 
BRANCH  32  38
ATOM     38  C   LIG d   1      11.934  -6.450  -2.681  0.00  0.00     0.241 C 
ATOM     39  O   LIG d   1      11.599  -7.445  -2.070  0.00  0.00    -0.270 OA
ATOM     40  N   LIG d   1      13.237  -6.112  -2.758  0.00  0.00    -0.325 N 
ATOM     41  H   LIG d   1      13.503  -5.317  -3.248  0.00  0.00     0.145 HD
ATOM     42  H   LIG d   1      13.907  -6.664  -2.327  0.00  0.00     0.145 HD
ENDBRANCH  32  38
ENDBRANCH  26  28
ENDBRANCH   1  24
TORSDOF 4
ENDMDL
MODEL 5
REMARK VINA RESULT:      -6.8      3.249      8.103
REMARK  4 active torsions:
REMARK  status: ('A' for Active; 'I' for Inactive)
REMARK    1  A    between atoms: C_10  and  C_15 
REMARK    2  A    between atoms: C_15  and  C_16 
REMARK       I    between atoms: C_16  and  N_18 
REMARK    3  A    between atoms: N_18  and  C_19 
REMARK    4  A    between atoms: C_22  and  C_25 
REMARK       I    between atoms: C_25  and  N_27 
ROOT
ATOM      1  C   LIG d   1       5.738  -0.957  -7.687  0.00  0.00     0.051 C 
ATOM      2  H   LIG d   1       6.159  -1.747  -8.311  0.00  0.00     0.038 H 
ATOM      3  H   LIG d   1       5.369  -0.152  -8.320  0.00  0.00     0.038 H 
ENDROOT
BRANCH   1   4
ATOM      4  C   LIG d   1       4.586  -1.523  -6.856  0.00  0.00     0.108 C 
ATOM      5  N   LIG d   1       3.671  -2.264  -7.725  0.00  0.00    -0.299 N 
ATOM      6  C   LIG d   1       3.093  -1.689  -8.778  0.00  0.00     0.246 C 
ATOM      7  H   LIG d   1       3.482  -3.195  -7.530  0.00  0.00     0.150 HD
ATOM      8  C   LIG d   1       3.310  -0.297  -9.189  0.00  0.00     0.058 A 
ATOM      9  O   LIG d   1       2.334  -2.364  -9.446  0.00  0.00    -0.270 OA
ATOM     10  C   LIG d   1       3.410   0.757  -8.282  0.00  0.00     0.046 A 
ATOM     11  C   LIG d   1       3.424  -0.034 -10.564  0.00  0.00    -0.048 A 
ATOM     12  C   LIG d   1       3.628   2.052  -8.760  0.00  0.00    -0.040 A 
ATOM     13  N   LIG d   1       3.303   0.597  -6.911  0.00  0.00    -0.283 N 
ATOM     14  C   LIG d   1       3.738   2.293 -10.111  0.00  0.00    -0.060 A 
ATOM     15  H   LIG d   1       3.709   2.873  -8.063  0.00  0.00     0.064 H 
ATOM     16  C   LIG d   1       3.635   1.248 -11.015  0.00  0.00    -0.061 A 
ATOM     17  H   LIG d   1       3.907   3.298 -10.468  0.00  0.00     0.062 H 
ATOM     18  H   LIG d   1       3.718   1.440 -12.074  0.00  0.00     0.062 H 
ATOM     19  C   LIG d   1       3.831  -0.396  -6.204  0.00  0.00     0.238 C 
ATOM     20  H   LIG d   1       2.800   1.269  -6.425  0.00  0.00     0.155 HD
ATOM     21  O   LIG d   1       3.700  -0.395  -4.999  0.00  0.00    -0.273 OA
ATOM     22  H   LIG d   1       3.344  -0.845 -11.273  0.00  0.00     0.063 H 
ATOM     23  H   LIG d   1       4.980  -2.189  -6.089  0.00  0.00     0.060 H 
ENDBRANCH   1   4
BRANCH   1  24
ATOM     24  C   LIG d   1       6.806  -0.424  -6.766  0.00  0.00     0.219 C 
ATOM     25  O   LIG d   1       7.414  -1.181  -6.040  0.00  0.00    -0.275 OA
ATOM     26  N   LIG d   1       7.083   0.895  -6.750  0.00  0.00    -0.285 N 
ATOM     27  H   LIG d   1       6.644   1.491  -7.376  0.00  0.00     0.155 HD
BRANCH  26  28
ATOM     28  C   LIG d   1       8.001   1.403  -5.831  0.00  0.00     0.033 A 
ATOM     29  C   LIG d   1       9.282   1.749  -6.249  0.00  0.00    -0.040 A 
ATOM     30  C   LIG d   1      10.190   2.255  -5.346  0.00  0.00    -0.048 A 
ATOM     31  H   LIG d   1       9.564   1.624  -7.284  0.00  0.00     0.064 H 
ATOM     32  C   LIG d   1       9.826   2.411  -4.006  0.00  0.00     0.037 A 
ATOM     33  H   LIG d   1      11.183   2.527  -5.671  0.00  0.00     0.063 H 
ATOM     34  C   LIG d   1       8.540   2.059  -3.588  0.00  0.00    -0.048 A 
ATOM     35  C   LIG d   1       7.635   1.558  -4.498  0.00  0.00    -0.040 A 
ATOM     36  H   LIG d   1       8.256   2.178  -2.553  0.00  0.00     0.063 H 
ATOM     37  H   LIG d   1       6.642   1.284  -4.175  0.00  0.00     0.064 H 
BRANCH  32  38
ATOM     38  C   LIG d   1      10.798   2.949  -3.033  0.00  0.00     0.241 C 
ATOM     39  O   LIG d   1      10.513   3.923  -2.365  0.00  0.00    -0.270 OA
ATOM     40  N   LIG d   1      12.001   2.359  -2.886  0.00  0.00    -0.325 N 
ATOM     41  H   LIG d   1      12.227   1.580  -3.419  0.00  0.00     0.145 HD
ATOM     42  H   LIG d   1      12.639   2.711  -2.247  0.00  0.00     0.145 HD
ENDBRANCH  32  38
ENDBRANCH  26  28
ENDBRANCH   1  24
TORSDOF 4
ENDMDL
MODEL 6
REMARK VINA RESULT:      -6.6      5.439      8.247
REMARK  4 active torsions:
REMARK  status: ('A' for Active; 'I' for Inactive)
REMARK    1  A    between atoms: C_10  and  C_15 
REMARK    2  A    between atoms: C_15  and  C_16 
REMARK       I    between atoms: C_16  and  N_18 
REMARK    3  A    between atoms: N_18  and  C_19 
REMARK    4  A    between atoms: C_22  and  C_25 
REMARK       I    between atoms: C_25  and  N_27 
ROOT
ATOM      1  C   LIG d   1       9.689   2.860  -5.029  0.00  0.00     0.051 C 
ATOM      2  H   LIG d   1       9.374   3.866  -5.312  0.00  0.00     0.038 H 
ATOM      3  H   LIG d   1      10.328   2.447  -5.810  0.00  0.00     0.038 H 
ENDROOT
BRANCH   1   4
ATOM      4  C   LIG d   1      10.465   2.921  -3.713  0.00  0.00     0.108 C 
ATOM      5  N   LIG d   1       9.927   3.993  -2.874  0.00  0.00    -0.299 N 
ATOM      6  C   LIG d   1       9.872   5.251  -3.305  0.00  0.00     0.246 C 
ATOM      7  H   LIG d   1       9.603   3.781  -1.985  0.00  0.00     0.150 HD
ATOM      8  C   LIG d   1      10.313   5.696  -4.632  0.00  0.00     0.058 A 
ATOM      9  O   LIG d   1       9.425   6.090  -2.546  0.00  0.00    -0.270 OA
ATOM     10  C   LIG d   1      11.461   5.211  -5.255  0.00  0.00     0.046 A 
ATOM     11  C   LIG d   1       9.525   6.654  -5.292  0.00  0.00    -0.048 A 
ATOM     12  C   LIG d   1      11.801   5.683  -6.526  0.00  0.00    -0.040 A 
ATOM     13  N   LIG d   1      12.303   4.274  -4.681  0.00  0.00    -0.283 N 
ATOM     14  C   LIG d   1      11.017   6.620  -7.160  0.00  0.00    -0.060 A 
ATOM     15  H   LIG d   1      12.688   5.309  -7.016  0.00  0.00     0.064 H 
ATOM     16  C   LIG d   1       9.878   7.108  -6.542  0.00  0.00    -0.061 A 
ATOM     17  H   LIG d   1      11.291   6.977  -8.142  0.00  0.00     0.062 H 
ATOM     18  H   LIG d   1       9.268   7.847  -7.039  0.00  0.00     0.062 H 
ATOM     19  C   LIG d   1      11.916   3.205  -3.993  0.00  0.00     0.238 C 
ATOM     20  H   LIG d   1      13.257   4.409  -4.791  0.00  0.00     0.155 HD
ATOM     21  O   LIG d   1      12.758   2.436  -3.579  0.00  0.00    -0.273 OA
ATOM     22  H   LIG d   1       8.636   7.038  -4.814  0.00  0.00     0.063 H 
ATOM     23  H   LIG d   1      10.375   1.969  -3.191  0.00  0.00     0.060 H 
ENDBRANCH   1   4
BRANCH   1  24
ATOM     24  C   LIG d   1       8.475   1.984  -4.857  0.00  0.00     0.219 C 
ATOM     25  O   LIG d   1       7.660   1.895  -5.749  0.00  0.00    -0.275 OA
ATOM     26  N   LIG d   1       8.297   1.299  -3.709  0.00  0.00    -0.285 N 
ATOM     27  H   LIG d   1       8.981   1.317  -3.022  0.00  0.00     0.155 HD
BRANCH  26  28
ATOM     28  C   LIG d   1       7.128   0.564  -3.511  0.00  0.00     0.033 A 
ATOM     29  C   LIG d   1       5.990   1.193  -3.018  0.00  0.00    -0.040 A 
ATOM     30  C   LIG d   1       4.832   0.472  -2.825  0.00  0.00    -0.048 A 
ATOM     31  H   LIG d   1       6.012   2.248  -2.789  0.00  0.00     0.064 H 
ATOM     32  C   LIG d   1       4.806  -0.894  -3.116  0.00  0.00     0.037 A 
ATOM     33  H   LIG d   1       3.947   0.961  -2.446  0.00  0.00     0.063 H 
ATOM     34  C   LIG d   1       5.953  -1.524  -3.608  0.00  0.00    -0.048 A 
ATOM     35  C   LIG d   1       7.106  -0.796  -3.802  0.00  0.00    -0.040 A 
ATOM     36  H   LIG d   1       5.936  -2.580  -3.833  0.00  0.00     0.063 H 
ATOM     37  H   LIG d   1       7.993  -1.282  -4.181  0.00  0.00     0.064 H 
BRANCH  32  38
ATOM     38  C   LIG d   1       3.569  -1.672  -2.907  0.00  0.00     0.241 C 
ATOM     39  O   LIG d   1       3.603  -2.712  -2.278  0.00  0.00    -0.270 OA
ATOM     40  N   LIG d   1       2.400  -1.229  -3.413  0.00  0.00    -0.325 N 
ATOM     41  H   LIG d   1       2.374  -0.398  -3.913  0.00  0.00     0.145 HD
ATOM     42  H   LIG d   1       1.588  -1.738  -3.275  0.00  0.00     0.145 HD
ENDBRANCH  32  38
ENDBRANCH  26  28
ENDBRANCH   1  24
TORSDOF 4
ENDMDL
MODEL 7
REMARK VINA RESULT:      -6.6      4.235      6.447
REMARK  4 active torsions:
REMARK  status: ('A' for Active; 'I' for Inactive)
REMARK    1  A    between atoms: C_10  and  C_15 
REMARK    2  A    between atoms: C_15  and  C_16 
REMARK       I    between atoms: C_16  and  N_18 
REMARK    3  A    between atoms: N_18  and  C_19 
REMARK    4  A    between atoms: C_22  and  C_25 
REMARK       I    between atoms: C_25  and  N_27 
ROOT
ATOM      1  C   LIG d   1       6.172  -0.736  -5.775  0.00  0.00     0.051 C 
ATOM      2  H   LIG d   1       5.826  -0.104  -4.956  0.00  0.00     0.038 H 
ATOM      3  H   LIG d   1       6.664  -1.619  -5.370  0.00  0.00     0.038 H 
ENDROOT
BRANCH   1   4
ATOM      4  C   LIG d   1       4.978  -1.163  -6.629  0.00  0.00     0.108 C 
ATOM      5  N   LIG d   1       3.948  -0.123  -6.588  0.00  0.00    -0.299 N 
ATOM      6  C   LIG d   1       3.423   0.290  -5.436  0.00  0.00     0.246 C 
ATOM      7  H   LIG d   1       3.641   0.272  -7.418  0.00  0.00     0.150 HD
ATOM      8  C   LIG d   1       3.813  -0.217  -4.115  0.00  0.00     0.058 A 
ATOM      9  O   LIG d   1       2.561   1.147  -5.482  0.00  0.00    -0.270 OA
ATOM     10  C   LIG d   1       4.080  -1.562  -3.864  0.00  0.00     0.046 A 
ATOM     11  C   LIG d   1       3.923   0.713  -3.068  0.00  0.00    -0.048 A 
ATOM     12  C   LIG d   1       4.456  -1.956  -2.576  0.00  0.00    -0.040 A 
ATOM     13  N   LIG d   1       3.991  -2.550  -4.828  0.00  0.00    -0.283 N 
ATOM     14  C   LIG d   1       4.560  -1.031  -1.562  0.00  0.00    -0.060 A 
ATOM     15  H   LIG d   1       4.666  -2.996  -2.376  0.00  0.00     0.064 H 
ATOM     16  C   LIG d   1       4.292   0.305  -1.807  0.00  0.00    -0.061 A 
ATOM     17  H   LIG d   1       4.852  -1.349  -0.571  0.00  0.00     0.062 H 
ATOM     18  H   LIG d   1       4.370   1.027  -1.009  0.00  0.00     0.062 H 
ATOM     19  C   LIG d   1       4.399  -2.442  -6.088  0.00  0.00     0.238 C 
ATOM     20  H   LIG d   1       3.596  -3.396  -4.561  0.00  0.00     0.155 HD
ATOM     21  O   LIG d   1       4.303  -3.402  -6.822  0.00  0.00    -0.273 OA
ATOM     22  H   LIG d   1       3.715   1.757  -3.254  0.00  0.00     0.063 H 
ATOM     23  H   LIG d   1       5.300  -1.316  -7.659  0.00  0.00     0.060 H 
ENDBRANCH   1   4
BRANCH   1  24
ATOM     24  C   LIG d   1       7.148   0.037  -6.626  0.00  0.00     0.219 C 
ATOM     25  O   LIG d   1       7.957  -0.555  -7.308  0.00  0.00    -0.275 OA
ATOM     26  N   LIG d   1       7.120   1.384  -6.628  0.00  0.00    -0.285 N 
ATOM     27  H   LIG d   1       6.431   1.856  -6.134  0.00  0.00     0.155 HD
BRANCH  26  28
ATOM     28  C   LIG d   1       8.083   2.100  -7.339  0.00  0.00     0.033 A 
ATOM     29  C   LIG d   1       7.884   2.380  -8.687  0.00  0.00    -0.040 A 
ATOM     30  C   LIG d   1       8.831   3.090  -9.391  0.00  0.00    -0.048 A 
ATOM     31  H   LIG d   1       6.985   2.042  -9.181  0.00  0.00     0.064 H 
ATOM     32  C   LIG d   1       9.995   3.522  -8.752  0.00  0.00     0.037 A 
ATOM     33  H   LIG d   1       8.674   3.310 -10.436  0.00  0.00     0.063 H 
ATOM     34  C   LIG d   1      10.194   3.236  -7.398  0.00  0.00    -0.048 A 
ATOM     35  C   LIG d   1       9.241   2.529  -6.699  0.00  0.00    -0.040 A 
ATOM     36  H   LIG d   1      11.093   3.568  -6.901  0.00  0.00     0.063 H 
ATOM     37  H   LIG d   1       9.395   2.306  -5.653  0.00  0.00     0.064 H 
BRANCH  32  38
ATOM     38  C   LIG d   1      11.015   4.280  -9.504  0.00  0.00     0.241 C 
ATOM     39  O   LIG d   1      11.966   3.702  -9.991  0.00  0.00    -0.270 OA
ATOM     40  N   LIG d   1      10.890   5.614  -9.651  0.00  0.00    -0.325 N 
ATOM     41  H   LIG d   1      10.129   6.075  -9.263  0.00  0.00     0.145 HD
ATOM     42  H   LIG d   1      11.558   6.112 -10.145  0.00  0.00     0.145 HD
ENDBRANCH  32  38
ENDBRANCH  26  28
ENDBRANCH   1  24
TORSDOF 4
ENDMDL
MODEL 8
REMARK VINA RESULT:      -6.5     11.349     13.320
REMARK  4 active torsions:
REMARK  status: ('A' for Active; 'I' for Inactive)
REMARK    1  A    between atoms: C_10  and  C_15 
REMARK    2  A    between atoms: C_15  and  C_16 
REMARK       I    between atoms: C_16  and  N_18 
REMARK    3  A    between atoms: N_18  and  C_19 
REMARK    4  A    between atoms: C_22  and  C_25 
REMARK       I    between atoms: C_25  and  N_27 
ROOT
ATOM      1  C   LIG d   1      11.180  11.165  -2.715  0.00  0.00     0.051 C 
ATOM      2  H   LIG d   1      12.122  11.702  -2.599  0.00  0.00     0.038 H 
ATOM      3  H   LIG d   1      11.170  10.302  -2.050  0.00  0.00     0.038 H 
ENDROOT
BRANCH   1   4
ATOM      4  C   LIG d   1      10.016  12.093  -2.364  0.00  0.00     0.108 C 
ATOM      5  N   LIG d   1      10.161  12.563  -0.986  0.00  0.00    -0.299 N 
ATOM      6  C   LIG d   1      10.247  11.711   0.034  0.00  0.00     0.246 C 
ATOM      7  H   LIG d   1      10.195  13.516  -0.812  0.00  0.00     0.150 HD
ATOM      8  C   LIG d   1      10.225  10.249  -0.099  0.00  0.00     0.058 A 
ATOM      9  O   LIG d   1      10.351  12.176   1.153  0.00  0.00    -0.270 OA
ATOM     10  C   LIG d   1       9.386   9.579  -0.988  0.00  0.00     0.046 A 
ATOM     11  C   LIG d   1      11.101   9.509   0.712  0.00  0.00    -0.048 A 
ATOM     12  C   LIG d   1       9.439   8.184  -1.057  0.00  0.00    -0.040 A 
ATOM     13  N   LIG d   1       8.486  10.221  -1.820  0.00  0.00    -0.283 N 
ATOM     14  C   LIG d   1      10.304   7.473  -0.256  0.00  0.00    -0.060 A 
ATOM     15  H   LIG d   1       8.793   7.658  -1.745  0.00  0.00     0.064 H 
ATOM     16  C   LIG d   1      11.136   8.137   0.630  0.00  0.00    -0.061 A 
ATOM     17  H   LIG d   1      10.335   6.395  -0.320  0.00  0.00     0.062 H 
ATOM     18  H   LIG d   1      11.810   7.577   1.261  0.00  0.00     0.062 H 
ATOM     19  C   LIG d   1       8.716  11.346  -2.489  0.00  0.00     0.238 C 
ATOM     20  H   LIG d   1       7.611   9.815  -1.924  0.00  0.00     0.155 HD
ATOM     21  O   LIG d   1       7.854  11.782  -3.221  0.00  0.00    -0.273 OA
ATOM     22  H   LIG d   1      11.751  10.021   1.405  0.00  0.00     0.063 H 
ATOM     23  H   LIG d   1      10.012  12.947  -3.042  0.00  0.00     0.060 H 
ENDBRANCH   1   4
BRANCH   1  24
ATOM     24  C   LIG d   1      11.039  10.701  -4.142  0.00  0.00     0.219 C 
ATOM     25  O   LIG d   1      11.074  11.507  -5.047  0.00  0.00    -0.275 OA
ATOM     26  N   LIG d   1      10.875   9.391  -4.411  0.00  0.00    -0.285 N 
ATOM     27  H   LIG d   1      10.913   8.739  -3.694  0.00  0.00     0.155 HD
BRANCH  26  28
ATOM     28  C   LIG d   1      10.648   8.972  -5.722  0.00  0.00     0.033 A 
ATOM     29  C   LIG d   1       9.348   8.896  -6.211  0.00  0.00    -0.040 A 
ATOM     30  C   LIG d   1       9.121   8.486  -7.506  0.00  0.00    -0.048 A 
ATOM     31  H   LIG d   1       8.516   9.161  -5.576  0.00  0.00     0.064 H 
ATOM     32  C   LIG d   1      10.198   8.139  -8.326  0.00  0.00     0.037 A 
ATOM     33  H   LIG d   1       8.112   8.432  -7.887  0.00  0.00     0.063 H 
ATOM     34  C   LIG d   1      11.502   8.213  -7.830  0.00  0.00    -0.048 A 
ATOM     35  C   LIG d   1      11.723   8.626  -6.535  0.00  0.00    -0.040 A 
ATOM     36  H   LIG d   1      12.337   7.944  -8.461  0.00  0.00     0.063 H 
ATOM     37  H   LIG d   1      12.730   8.682  -6.151  0.00  0.00     0.064 H 
BRANCH  32  38
ATOM     38  C   LIG d   1       9.959   7.696  -9.714  0.00  0.00     0.241 C 
ATOM     39  O   LIG d   1       9.974   6.511  -9.985  0.00  0.00    -0.270 OA
ATOM     40  N   LIG d   1       9.723   8.606 -10.680  0.00  0.00    -0.325 N 
ATOM     41  H   LIG d   1       9.710   9.551 -10.463  0.00  0.00     0.145 HD
ATOM     42  H   LIG d   1       9.565   8.315 -11.592  0.00  0.00     0.145 HD
ENDBRANCH  32  38
ENDBRANCH  26  28
ENDBRANCH   1  24
TORSDOF 4
ENDMDL
MODEL 9
REMARK VINA RESULT:      -6.3      1.764      3.010
REMARK  4 active torsions:
REMARK  status: ('A' for Active; 'I' for Inactive)
REMARK    1  A    between atoms: C_10  and  C_15 
REMARK    2  A    between atoms: C_15  and  C_16 
REMARK       I    between atoms: C_16  and  N_18 
REMARK    3  A    between atoms: N_18  and  C_19 
REMARK    4  A    between atoms: C_22  and  C_25 
REMARK       I    between atoms: C_25  and  N_27 
ROOT
ATOM      1  C   LIG d   1       4.796  -0.260  -5.971  0.00  0.00     0.051 C 
ATOM      2  H   LIG d   1       4.979   0.800  -5.790  0.00  0.00     0.038 H 
ATOM      3  H   LIG d   1       5.737  -0.754  -6.211  0.00  0.00     0.038 H 
ENDROOT
BRANCH   1   4
ATOM      4  C   LIG d   1       4.191  -0.895  -4.718  0.00  0.00     0.108 C 
ATOM      5  N   LIG d   1       4.271   0.048  -3.602  0.00  0.00    -0.299 N 
ATOM      6  C   LIG d   1       5.435   0.559  -3.206  0.00  0.00     0.246 C 
ATOM      7  H   LIG d   1       3.458   0.306  -3.141  0.00  0.00     0.150 HD
ATOM      8  C   LIG d   1       6.730   0.263  -3.831  0.00  0.00     0.058 A 
ATOM      9  O   LIG d   1       5.425   1.326  -2.262  0.00  0.00    -0.270 OA
ATOM     10  C   LIG d   1       7.089  -1.010  -4.270  0.00  0.00     0.046 A 
ATOM     11  C   LIG d   1       7.634   1.326  -3.990  0.00  0.00    -0.048 A 
ATOM     12  C   LIG d   1       8.340  -1.201  -4.864  0.00  0.00    -0.040 A 
ATOM     13  N   LIG d   1       6.269  -2.119  -4.148  0.00  0.00    -0.283 N 
ATOM     14  C   LIG d   1       9.214  -0.148  -5.014  0.00  0.00    -0.060 A 
ATOM     15  H   LIG d   1       8.623  -2.185  -5.208  0.00  0.00     0.064 H 
ATOM     16  C   LIG d   1       8.861   1.117  -4.576  0.00  0.00    -0.061 A 
ATOM     17  H   LIG d   1      10.177  -0.309  -5.475  0.00  0.00     0.062 H 
ATOM     18  H   LIG d   1       9.550   1.940  -4.690  0.00  0.00     0.062 H 
ATOM     19  C   LIG d   1       4.958  -2.139  -4.360  0.00  0.00     0.238 C 
ATOM     20  H   LIG d   1       6.689  -2.954  -3.886  0.00  0.00     0.155 HD
ATOM     21  O   LIG d   1       4.362  -3.190  -4.262  0.00  0.00    -0.273 OA
ATOM     22  H   LIG d   1       7.364   2.315  -3.650  0.00  0.00     0.063 H 
ATOM     23  H   LIG d   1       3.148  -1.151  -4.906  0.00  0.00     0.060 H 
ENDBRANCH   1   4
BRANCH   1  24
ATOM     24  C   LIG d   1       3.839  -0.414  -7.125  0.00  0.00     0.219 C 
ATOM     25  O   LIG d   1       2.697  -0.019  -7.022  0.00  0.00    -0.275 OA
ATOM     26  N   LIG d   1       4.253  -0.992  -8.270  0.00  0.00    -0.285 N 
ATOM     27  H   LIG d   1       5.182  -1.247  -8.377  0.00  0.00     0.155 HD
BRANCH  26  28
ATOM     28  C   LIG d   1       3.343  -1.222  -9.302  0.00  0.00     0.033 A 
ATOM     29  C   LIG d   1       3.161  -0.263 -10.294  0.00  0.00    -0.040 A 
ATOM     30  C   LIG d   1       2.267  -0.489 -11.317  0.00  0.00    -0.048 A 
ATOM     31  H   LIG d   1       3.724   0.658 -10.263  0.00  0.00     0.064 H 
ATOM     32  C   LIG d   1       1.536  -1.679 -11.353  0.00  0.00     0.037 A 
ATOM     33  H   LIG d   1       2.129   0.254 -12.088  0.00  0.00     0.063 H 
ATOM     34  C   LIG d   1       1.718  -2.639 -10.353  0.00  0.00    -0.048 A 
ATOM     35  C   LIG d   1       2.617  -2.408  -9.335  0.00  0.00    -0.040 A 
ATOM     36  H   LIG d   1       1.155  -3.559 -10.378  0.00  0.00     0.063 H 
ATOM     37  H   LIG d   1       2.757  -3.149  -8.562  0.00  0.00     0.064 H 
BRANCH  32  38
ATOM     38  C   LIG d   1       0.574  -1.923 -12.445  0.00  0.00     0.241 C 
ATOM     39  O   LIG d   1       0.875  -2.655 -13.368  0.00  0.00    -0.270 OA
ATOM     40  N   LIG d   1      -0.639  -1.336 -12.419  0.00  0.00    -0.325 N 
ATOM     41  H   LIG d   1      -0.879  -0.753 -11.681  0.00  0.00     0.145 HD
ATOM     42  H   LIG d   1      -1.272  -1.496 -13.135  0.00  0.00     0.145 HD
ENDBRANCH  32  38
ENDBRANCH  26  28
ENDBRANCH   1  24
TORSDOF 4
ENDMDL
