MODEL 1
REMARK VINA RESULT:      -6.3      0.000      0.000
REMARK  10 active torsions:
REMARK  status: ('A' for Active; 'I' for Inactive)
REMARK    1  A    between atoms: C_1  and  C_2 
REMARK    2  A    between atoms: C_2  and  C_3 
REMARK    3  A    between atoms: C_3  and  C_4 
REMARK    4  A    between atoms: C_4  and  C_5 
REMARK    5  A    between atoms: C_5  and  C_6 
REMARK    6  A    between atoms: C_6  and  O_7 
REMARK    7  A    between atoms: O_7  and  C_8 
REMARK    8  A    between atoms: C_8  and  C_10 
REMARK    9  A    between atoms: C_10  and  C_11 
REMARK   10  A    between atoms: C_10  and  C_15 
ROOT
ATOM      1  C   LIG d   1       2.604  -0.181  -7.403  0.00  0.00    -0.018 C 
ATOM      2  H   LIG d   1       2.227   0.460  -6.606  0.00  0.00     0.030 H 
ATOM      3  H   LIG d   1       1.988  -1.078  -7.470  0.00  0.00     0.030 H 
ENDROOT
BRANCH   1   4
ATOM      4  C   LIG d   1       2.549   0.575  -8.733  0.00  0.00    -0.050 C 
ATOM      5  H   LIG d   1       1.550   0.489  -9.159  0.00  0.00     0.027 H 
ATOM      6  H   LIG d   1       3.277   0.146  -9.424  0.00  0.00     0.027 H 
BRANCH   4   7
ATOM      7  C   LIG d   1       2.879   2.050  -8.496  0.00  0.00    -0.053 C 
ATOM      8  H   LIG d   1       3.286   2.175  -7.493  0.00  0.00     0.026 H 
ATOM      9  H   LIG d   1       1.971   2.645  -8.597  0.00  0.00     0.026 H 
BRANCH   7  10
ATOM     10  C   LIG d   1       3.909   2.514  -9.527  0.00  0.00    -0.056 C 
ATOM     11  H   LIG d   1       4.881   2.624  -9.046  0.00  0.00     0.026 H 
ATOM     12  H   LIG d   1       3.600   3.472  -9.944  0.00  0.00     0.026 H 
BRANCH  10  13
ATOM     13  C   LIG d   1       4.009   1.479 -10.649  0.00  0.00    -0.065 C 
ATOM     14  H   LIG d   1       3.152   0.807 -10.600  0.00  0.00     0.023 H 
ATOM     15  H   LIG d   1       4.019   1.987 -11.613  0.00  0.00     0.023 H 
ATOM     16  H   LIG d   1       4.927   0.904 -10.532  0.00  0.00     0.023 H 
ENDBRANCH  10  13
ENDBRANCH   7  10
ENDBRANCH   4   7
ENDBRANCH   1   4
BRANCH   1  17
ATOM     17  C   LIG d   1       4.051  -0.575  -7.100  0.00  0.00     0.092 C 
ATOM     18  H   LIG d   1       4.359  -1.374  -7.774  0.00  0.00     0.070 H 
ATOM     19  H   LIG d   1       4.700   0.290  -7.239  0.00  0.00     0.070 H 
BRANCH  17  20
ATOM     20  O   LIG d   1       4.146  -1.030  -5.748  0.00  0.00    -0.463 OA
BRANCH  20  21
ATOM     21  C   LIG d   1       4.959  -0.342  -4.930  0.00  0.00     0.346 C 
ATOM     22  O   LIG d   1       5.973   0.153  -5.363  0.00  0.00    -0.248 OA
BRANCH  21  23
ATOM     23  C   LIG d   1       4.609  -0.190  -3.473  0.00  0.00     0.328 C 
ATOM     24 CL   LIG d   1       5.676   1.055  -2.724  0.00  0.00    -0.088 Cl
BRANCH  23  25
ATOM     25  C   LIG d   1       3.147   0.244  -3.341  0.00  0.00     0.427 C 
ATOM     26  F   LIG d   1       2.824   1.115  -4.386  0.00  0.00    -0.168 F 
ATOM     27  F   LIG d   1       2.320  -0.883  -3.400  0.00  0.00    -0.168 F 
ATOM     28  F   LIG d   1       2.964   0.895  -2.117  0.00  0.00    -0.168 F 
ENDBRANCH  23  25
BRANCH  23  29
ATOM     29  C   LIG d   1       4.809  -1.529  -2.759  0.00  0.00     0.427 C 
ATOM     30  F   LIG d   1       6.162  -1.882  -2.801  0.00  0.00    -0.168 F 
ATOM     31  F   LIG d   1       4.399  -1.413  -1.426  0.00  0.00    -0.168 F 
ATOM     32  F   LIG d   1       4.049  -2.516  -3.396  0.00  0.00    -0.168 F 
ENDBRANCH  23  29
ENDBRANCH  21  23
ENDBRANCH  20  21
ENDBRANCH  17  20
ENDBRANCH   1  17
TORSDOF 10
ENDMDL
MODEL 2
REMARK VINA RESULT:      -6.3      1.259      1.839
REMARK  10 active torsions:
REMARK  status: ('A' for Active; 'I' for Inactive)
REMARK    1  A    between atoms: C_1  and  C_2 
REMARK    2  A    between atoms: C_2  and  C_3 
REMARK    3  A    between atoms: C_3  and  C_4 
REMARK    4  A    between atoms: C_4  and  C_5 
REMARK    5  A    between atoms: C_5  and  C_6 
REMARK    6  A    between atoms: C_6  and  O_7 
REMARK    7  A    between atoms: O_7  and  C_8 
REMARK    8  A    between atoms: C_8  and  C_10 
REMARK    9  A    between atoms: C_10  and  C_11 
REMARK   10  A    between atoms: C_10  and  C_15 
ROOT
ATOM      1  C   LIG d   1       2.908  -0.410  -7.651  0.00  0.00    -0.018 C 
ATOM      2  H   LIG d   1       2.147  -1.187  -7.584  0.00  0.00     0.030 H 
ATOM      3  H   LIG d   1       3.880  -0.868  -7.837  0.00  0.00     0.030 H 
ENDROOT
BRANCH   1   4
ATOM      4  C   LIG d   1       2.565   0.542  -8.799  0.00  0.00    -0.050 C 
ATOM      5  H   LIG d   1       1.502   0.467  -9.028  0.00  0.00     0.027 H 
ATOM      6  H   LIG d   1       3.146   0.271  -9.681  0.00  0.00     0.027 H 
BRANCH   4   7
ATOM      7  C   LIG d   1       2.898   1.978  -8.389  0.00  0.00    -0.053 C 
ATOM      8  H   LIG d   1       3.369   1.975  -7.406  0.00  0.00     0.026 H 
ATOM      9  H   LIG d   1       1.982   2.567  -8.352  0.00  0.00     0.026 H 
BRANCH   7  10
ATOM     10  C   LIG d   1       3.857   2.590  -9.412  0.00  0.00    -0.056 C 
ATOM     11  H   LIG d   1       3.811   3.677  -9.348  0.00  0.00     0.026 H 
ATOM     12  H   LIG d   1       3.571   2.272 -10.413  0.00  0.00     0.026 H 
BRANCH  10  13
ATOM     13  C   LIG d   1       5.284   2.122  -9.116  0.00  0.00    -0.065 C 
ATOM     14  H   LIG d   1       5.915   2.313  -9.984  0.00  0.00     0.023 H 
ATOM     15  H   LIG d   1       5.674   2.665  -8.256  0.00  0.00     0.023 H 
ATOM     16  H   LIG d   1       5.277   1.054  -8.900  0.00  0.00     0.023 H 
ENDBRANCH  10  13
ENDBRANCH   7  10
ENDBRANCH   4   7
ENDBRANCH   1   4
BRANCH   1  17
ATOM     17  C   LIG d   1       2.955   0.372  -6.337  0.00  0.00     0.092 C 
ATOM     18  H   LIG d   1       3.629   1.222  -6.443  0.00  0.00     0.070 H 
ATOM     19  H   LIG d   1       1.955   0.730  -6.091  0.00  0.00     0.070 H 
BRANCH  17  20
ATOM     20  O   LIG d   1       3.426  -0.482  -5.292  0.00  0.00    -0.463 OA
BRANCH  20  21
ATOM     21  C   LIG d   1       4.650  -0.227  -4.802  0.00  0.00     0.346 C 
ATOM     22  O   LIG d   1       5.537   0.123  -5.545  0.00  0.00    -0.248 OA
BRANCH  21  23
ATOM     23  C   LIG d   1       4.919  -0.380  -3.328  0.00  0.00     0.328 C 
ATOM     24 CL   LIG d   1       6.593  -1.004  -3.082  0.00  0.00    -0.088 Cl
BRANCH  23  25
ATOM     25  C   LIG d   1       4.774   0.979  -2.639  0.00  0.00     0.427 C 
ATOM     26  F   LIG d   1       4.573   0.788  -1.269  0.00  0.00    -0.168 F 
ATOM     27  F   LIG d   1       5.938   1.729  -2.840  0.00  0.00    -0.168 F 
ATOM     28  F   LIG d   1       3.680   1.661  -3.181  0.00  0.00    -0.168 F 
ENDBRANCH  23  25
BRANCH  23  29
ATOM     29  C   LIG d   1       3.914  -1.365  -2.727  0.00  0.00     0.427 C 
ATOM     30  F   LIG d   1       4.320  -1.715  -1.435  0.00  0.00    -0.168 F 
ATOM     31  F   LIG d   1       2.650  -0.768  -2.674  0.00  0.00    -0.168 F 
ATOM     32  F   LIG d   1       3.853  -2.514  -3.524  0.00  0.00    -0.168 F 
ENDBRANCH  23  29
ENDBRANCH  21  23
ENDBRANCH  20  21
ENDBRANCH  17  20
ENDBRANCH   1  17
TORSDOF 10
ENDMDL
MODEL 3
REMARK VINA RESULT:      -6.3      1.372      2.531
REMARK  10 active torsions:
REMARK  status: ('A' for Active; 'I' for Inactive)
REMARK    1  A    between atoms: C_1  and  C_2 
REMARK    2  A    between atoms: C_2  and  C_3 
REMARK    3  A    between atoms: C_3  and  C_4 
REMARK    4  A    between atoms: C_4  and  C_5 
REMARK    5  A    between atoms: C_5  and  C_6 
REMARK    6  A    between atoms: C_6  and  O_7 
REMARK    7  A    between atoms: O_7  and  C_8 
REMARK    8  A    between atoms: C_8  and  C_10 
REMARK    9  A    between atoms: C_10  and  C_11 
REMARK   10  A    between atoms: C_10  and  C_15 
ROOT
ATOM      1  C   LIG d   1       2.487  -0.228  -7.620  0.00  0.00    -0.018 C 
ATOM      2  H   LIG d   1       1.729   0.160  -6.940  0.00  0.00     0.030 H 
ATOM      3  H   LIG d   1       2.272  -1.274  -7.844  0.00  0.00     0.030 H 
ENDROOT
BRANCH   1   4
ATOM      4  C   LIG d   1       2.473   0.584  -8.917  0.00  0.00    -0.050 C 
ATOM      5  H   LIG d   1       1.476   0.551  -9.355  0.00  0.00     0.027 H 
ATOM      6  H   LIG d   1       3.193   0.160  -9.618  0.00  0.00     0.027 H 
BRANCH   4   7
ATOM      7  C   LIG d   1       2.850   2.036  -8.614  0.00  0.00    -0.053 C 
ATOM      8  H   LIG d   1       3.278   2.099  -7.613  0.00  0.00     0.026 H 
ATOM      9  H   LIG d   1       1.959   2.661  -8.669  0.00  0.00     0.026 H 
BRANCH   7  10
ATOM     10  C   LIG d   1       3.878   2.520  -9.639  0.00  0.00    -0.056 C 
ATOM     11  H   LIG d   1       4.823   2.726  -9.137  0.00  0.00     0.026 H 
ATOM     12  H   LIG d   1       3.514   3.429 -10.116  0.00  0.00     0.026 H 
BRANCH  10  13
ATOM     13  C   LIG d   1       4.089   1.437 -10.699  0.00  0.00    -0.065 C 
ATOM     14  H   LIG d   1       5.080   1.000 -10.579  0.00  0.00     0.023 H 
ATOM     15  H   LIG d   1       3.333   0.661 -10.581  0.00  0.00     0.023 H 
ATOM     16  H   LIG d   1       4.004   1.879 -11.691  0.00  0.00     0.023 H 
ENDBRANCH  10  13
ENDBRANCH   7  10
ENDBRANCH   4   7
ENDBRANCH   1   4
BRANCH   1  17
ATOM     17  C   LIG d   1       3.865  -0.119  -6.964  0.00  0.00     0.092 C 
ATOM     18  H   LIG d   1       4.361  -1.088  -6.997  0.00  0.00     0.070 H 
ATOM     19  H   LIG d   1       4.465   0.616  -7.500  0.00  0.00     0.070 H 
BRANCH  17  20
ATOM     20  O   LIG d   1       3.712   0.293  -5.604  0.00  0.00    -0.463 OA
BRANCH  20  21
ATOM     21  C   LIG d   1       4.603  -0.184  -4.720  0.00  0.00     0.346 C 
ATOM     22  O   LIG d   1       5.697  -0.538  -5.095  0.00  0.00    -0.248 OA
BRANCH  21  23
ATOM     23  C   LIG d   1       4.240  -0.280  -3.260  0.00  0.00     0.328 C 
ATOM     24 CL   LIG d   1       2.472  -0.595  -3.100  0.00  0.00    -0.088 Cl
BRANCH  23  25
ATOM     25  C   LIG d   1       5.023  -1.425  -2.614  0.00  0.00     0.427 C 
ATOM     26  F   LIG d   1       4.890  -2.579  -3.392  0.00  0.00    -0.168 F 
ATOM     27  F   LIG d   1       6.375  -1.074  -2.528  0.00  0.00    -0.168 F 
ATOM     28  F   LIG d   1       4.521  -1.666  -1.331  0.00  0.00    -0.168 F 
ENDBRANCH  23  25
BRANCH  23  29
ATOM     29  C   LIG d   1       4.589   1.035  -2.561  0.00  0.00     0.427 C 
ATOM     30  F   LIG d   1       3.632   2.003  -2.883  0.00  0.00    -0.168 F 
ATOM     31  F   LIG d   1       4.604   0.837  -1.176  0.00  0.00    -0.168 F 
ATOM     32  F   LIG d   1       5.851   1.468  -2.984  0.00  0.00    -0.168 F 
ENDBRANCH  23  29
ENDBRANCH  21  23
ENDBRANCH  20  21
ENDBRANCH  17  20
ENDBRANCH   1  17
TORSDOF 10
ENDMDL
MODEL 4
REMARK VINA RESULT:      -5.7      4.226      6.484
REMARK  10 active torsions:
REMARK  status: ('A' for Active; 'I' for Inactive)
REMARK    1  A    between atoms: C_1  and  C_2 
REMARK    2  A    between atoms: C_2  and  C_3 
REMARK    3  A    between atoms: C_3  and  C_4 
REMARK    4  A    between atoms: C_4  and  C_5 
REMARK    5  A    between atoms: C_5  and  C_6 
REMARK    6  A    between atoms: C_6  and  O_7 
REMARK    7  A    between atoms: O_7  and  C_8 
REMARK    8  A    between atoms: C_8  and  C_10 
REMARK    9  A    between atoms: C_10  and  C_11 
REMARK   10  A    between atoms: C_10  and  C_15 
ROOT
ATOM      1  C   LIG d   1       2.496   0.429  -4.785  0.00  0.00    -0.018 C 
ATOM      2  H   LIG d   1       1.506   0.412  -5.238  0.00  0.00     0.030 H 
ATOM      3  H   LIG d   1       2.762   1.455  -4.529  0.00  0.00     0.030 H 
ENDROOT
BRANCH   1   4
ATOM      4  C   LIG d   1       2.490  -0.428  -3.516  0.00  0.00    -0.050 C 
ATOM      5  H   LIG d   1       2.863  -1.425  -3.749  0.00  0.00     0.027 H 
ATOM      6  H   LIG d   1       1.472  -0.500  -3.133  0.00  0.00     0.027 H 
BRANCH   4   7
ATOM      7  C   LIG d   1       3.389   0.219  -2.460  0.00  0.00    -0.053 C 
ATOM      8  H   LIG d   1       2.774   0.604  -1.646  0.00  0.00     0.026 H 
ATOM      9  H   LIG d   1       3.949   1.038  -2.912  0.00  0.00     0.026 H 
BRANCH   7  10
ATOM     10  C   LIG d   1       4.365  -0.825  -1.913  0.00  0.00    -0.056 C 
ATOM     11  H   LIG d   1       4.366  -0.785  -0.824  0.00  0.00     0.026 H 
ATOM     12  H   LIG d   1       5.367  -0.616  -2.285  0.00  0.00     0.026 H 
BRANCH  10  13
ATOM     13  C   LIG d   1       3.930  -2.218  -2.372  0.00  0.00    -0.065 C 
ATOM     14  H   LIG d   1       2.924  -2.424  -2.006  0.00  0.00     0.023 H 
ATOM     15  H   LIG d   1       3.936  -2.260  -3.461  0.00  0.00     0.023 H 
ATOM     16  H   LIG d   1       4.621  -2.962  -1.976  0.00  0.00     0.023 H 
ENDBRANCH  10  13
ENDBRANCH   7  10
ENDBRANCH   4   7
ENDBRANCH   1   4
BRANCH   1  17
ATOM     17  C   LIG d   1       3.520  -0.132  -5.774  0.00  0.00     0.092 C 
ATOM     18  H   LIG d   1       4.486  -0.233  -5.279  0.00  0.00     0.070 H 
ATOM     19  H   LIG d   1       3.188  -1.109  -6.126  0.00  0.00     0.070 H 
BRANCH  17  20
ATOM     20  O   LIG d   1       3.644   0.758  -6.885  0.00  0.00    -0.463 OA
BRANCH  20  21
ATOM     21  C   LIG d   1       4.452   0.373  -7.886  0.00  0.00     0.346 C 
ATOM     22  O   LIG d   1       5.415  -0.319  -7.653  0.00  0.00    -0.248 OA
BRANCH  21  23
ATOM     23  C   LIG d   1       4.160   0.807  -9.299  0.00  0.00     0.328 C 
ATOM     24 CL   LIG d   1       5.525   0.321 -10.373  0.00  0.00    -0.088 Cl
BRANCH  23  25
ATOM     25  C   LIG d   1       2.869   0.140  -9.781  0.00  0.00     0.427 C 
ATOM     26  F   LIG d   1       2.861   0.097 -11.179  0.00  0.00    -0.168 F 
ATOM     27  F   LIG d   1       2.800  -1.162  -9.274  0.00  0.00    -0.168 F 
ATOM     28  F   LIG d   1       1.769   0.876  -9.330  0.00  0.00    -0.168 F 
ENDBRANCH  23  25
BRANCH  23  29
ATOM     29  C   LIG d   1       3.995   2.327  -9.341  0.00  0.00     0.427 C 
ATOM     30  F   LIG d   1       3.490   2.707 -10.589  0.00  0.00    -0.168 F 
ATOM     31  F   LIG d   1       3.106   2.728  -8.337  0.00  0.00    -0.168 F 
ATOM     32  F   LIG d   1       5.237   2.938  -9.135  0.00  0.00    -0.168 F 
ENDBRANCH  23  29
ENDBRANCH  21  23
ENDBRANCH  20  21
ENDBRANCH  17  20
ENDBRANCH   1  17
TORSDOF 10
ENDMDL
MODEL 5
REMARK VINA RESULT:      -5.7      1.442      2.342
REMARK  10 active torsions:
REMARK  status: ('A' for Active; 'I' for Inactive)
REMARK    1  A    between atoms: C_1  and  C_2 
REMARK    2  A    between atoms: C_2  and  C_3 
REMARK    3  A    between atoms: C_3  and  C_4 
REMARK    4  A    between atoms: C_4  and  C_5 
REMARK    5  A    between atoms: C_5  and  C_6 
REMARK    6  A    between atoms: C_6  and  O_7 
REMARK    7  A    between atoms: O_7  and  C_8 
REMARK    8  A    between atoms: C_8  and  C_10 
REMARK    9  A    between atoms: C_10  and  C_11 
REMARK   10  A    between atoms: C_10  and  C_15 
ROOT
ATOM      1  C   LIG d   1       4.754  -0.913  -7.907  0.00  0.00    -0.018 C 
ATOM      2  H   LIG d   1       4.011  -1.574  -8.354  0.00  0.00     0.030 H 
ATOM      3  H   LIG d   1       5.703  -1.027  -8.432  0.00  0.00     0.030 H 
ENDROOT
BRANCH   1   4
ATOM      4  C   LIG d   1       4.280   0.537  -8.020  0.00  0.00    -0.050 C 
ATOM      5  H   LIG d   1       4.834   1.040  -8.812  0.00  0.00     0.027 H 
ATOM      6  H   LIG d   1       4.453   1.050  -7.073  0.00  0.00     0.027 H 
BRANCH   4   7
ATOM      7  C   LIG d   1       2.785   0.562  -8.348  0.00  0.00    -0.053 C 
ATOM      8  H   LIG d   1       2.595   1.304  -9.123  0.00  0.00     0.026 H 
ATOM      9  H   LIG d   1       2.221   0.819  -7.451  0.00  0.00     0.026 H 
BRANCH   7  10
ATOM     10  C   LIG d   1       2.350  -0.818  -8.845  0.00  0.00    -0.056 C 
ATOM     11  H   LIG d   1       1.701  -1.284  -8.104  0.00  0.00     0.026 H 
ATOM     12  H   LIG d   1       3.229  -1.442  -9.000  0.00  0.00     0.026 H 
BRANCH  10  13
ATOM     13  C   LIG d   1       1.592  -0.668 -10.166  0.00  0.00    -0.065 C 
ATOM     14  H   LIG d   1       2.220  -0.145 -10.887  0.00  0.00     0.023 H 
ATOM     15  H   LIG d   1       1.337  -1.655 -10.553  0.00  0.00     0.023 H 
ATOM     16  H   LIG d   1       0.679  -0.097  -9.997  0.00  0.00     0.023 H 
ENDBRANCH  10  13
ENDBRANCH   7  10
ENDBRANCH   4   7
ENDBRANCH   1   4
BRANCH   1  17
ATOM     17  C   LIG d   1       4.939  -1.277  -6.432  0.00  0.00     0.092 C 
ATOM     18  H   LIG d   1       4.144  -1.955  -6.122  0.00  0.00     0.070 H 
ATOM     19  H   LIG d   1       5.906  -1.762  -6.296  0.00  0.00     0.070 H 
BRANCH  17  20
ATOM     20  O   LIG d   1       4.887  -0.088  -5.640  0.00  0.00    -0.463 OA
BRANCH  20  21
ATOM     21  C   LIG d   1       4.042  -0.089  -4.596  0.00  0.00     0.346 C 
ATOM     22  O   LIG d   1       2.855   0.044  -4.780  0.00  0.00    -0.248 OA
BRANCH  21  23
ATOM     23  C   LIG d   1       4.574  -0.252  -3.196  0.00  0.00     0.328 C 
ATOM     24 CL   LIG d   1       6.374  -0.348  -3.243  0.00  0.00    -0.088 Cl
BRANCH  23  25
ATOM     25  C   LIG d   1       4.149   0.947  -2.346  0.00  0.00     0.427 C 
ATOM     26  F   LIG d   1       2.776   0.876  -2.092  0.00  0.00    -0.168 F 
ATOM     27  F   LIG d   1       4.850   0.931  -1.135  0.00  0.00    -0.168 F 
ATOM     28  F   LIG d   1       4.436   2.131  -3.034  0.00  0.00    -0.168 F 
ENDBRANCH  23  25
BRANCH  23  29
ATOM     29  C   LIG d   1       4.011  -1.536  -2.584  0.00  0.00     0.427 C 
ATOM     30  F   LIG d   1       2.615  -1.457  -2.537  0.00  0.00    -0.168 F 
ATOM     31  F   LIG d   1       4.390  -2.632  -3.368  0.00  0.00    -0.168 F 
ATOM     32  F   LIG d   1       4.513  -1.695  -1.287  0.00  0.00    -0.168 F 
ENDBRANCH  23  29
ENDBRANCH  21  23
ENDBRANCH  20  21
ENDBRANCH  17  20
ENDBRANCH   1  17
TORSDOF 10
ENDMDL
MODEL 6
REMARK VINA RESULT:      -5.7      1.049      2.150
REMARK  10 active torsions:
REMARK  status: ('A' for Active; 'I' for Inactive)
REMARK    1  A    between atoms: C_1  and  C_2 
REMARK    2  A    between atoms: C_2  and  C_3 
REMARK    3  A    between atoms: C_3  and  C_4 
REMARK    4  A    between atoms: C_4  and  C_5 
REMARK    5  A    between atoms: C_5  and  C_6 
REMARK    6  A    between atoms: C_6  and  O_7 
REMARK    7  A    between atoms: O_7  and  C_8 
REMARK    8  A    between atoms: C_8  and  C_10 
REMARK    9  A    between atoms: C_10  and  C_11 
REMARK   10  A    between atoms: C_10  and  C_15 
ROOT
ATOM      1  C   LIG d   1       6.565   0.603  -7.784  0.00  0.00    -0.018 C 
ATOM      2  H   LIG d   1       7.203  -0.109  -8.307  0.00  0.00     0.030 H 
ATOM      3  H   LIG d   1       7.153   1.138  -7.038  0.00  0.00     0.030 H 
ENDROOT
BRANCH   1   4
ATOM      4  C   LIG d   1       5.985   1.601  -8.788  0.00  0.00    -0.050 C 
ATOM      5  H   LIG d   1       6.776   2.261  -9.143  0.00  0.00     0.027 H 
ATOM      6  H   LIG d   1       5.208   2.193  -8.303  0.00  0.00     0.027 H 
BRANCH   4   7
ATOM      7  C   LIG d   1       5.384   0.842  -9.973  0.00  0.00    -0.053 C 
ATOM      8  H   LIG d   1       5.192  -0.191  -9.684  0.00  0.00     0.026 H 
ATOM      9  H   LIG d   1       6.083   0.862 -10.809  0.00  0.00     0.026 H 
BRANCH   7  10
ATOM     10  C   LIG d   1       4.071   1.508 -10.391  0.00  0.00    -0.056 C 
ATOM     11  H   LIG d   1       3.275   0.763 -10.408  0.00  0.00     0.026 H 
ATOM     12  H   LIG d   1       4.183   1.942 -11.383  0.00  0.00     0.026 H 
BRANCH  10  13
ATOM     13  C   LIG d   1       3.717   2.609  -9.389  0.00  0.00    -0.065 C 
ATOM     14  H   LIG d   1       4.143   2.365  -8.416  0.00  0.00     0.023 H 
ATOM     15  H   LIG d   1       4.122   3.560  -9.736  0.00  0.00     0.023 H 
ATOM     16  H   LIG d   1       2.633   2.685  -9.302  0.00  0.00     0.023 H 
ENDBRANCH  10  13
ENDBRANCH   7  10
ENDBRANCH   4   7
ENDBRANCH   1   4
BRANCH   1  17
ATOM     17  C   LIG d   1       5.424  -0.147  -7.092  0.00  0.00     0.092 C 
ATOM     18  H   LIG d   1       4.477   0.116  -7.565  0.00  0.00     0.070 H 
ATOM     19  H   LIG d   1       5.589  -1.221  -7.181  0.00  0.00     0.070 H 
BRANCH  17  20
ATOM     20  O   LIG d   1       5.384   0.217  -5.711  0.00  0.00    -0.463 OA
BRANCH  20  21
ATOM     21  C   LIG d   1       4.719  -0.605  -4.884  0.00  0.00     0.346 C 
ATOM     22  O   LIG d   1       4.253  -1.638  -5.304  0.00  0.00    -0.248 OA
BRANCH  21  23
ATOM     23  C   LIG d   1       4.551  -0.238  -3.432  0.00  0.00     0.328 C 
ATOM     24 CL   LIG d   1       5.747   1.036  -2.990  0.00  0.00    -0.088 Cl
BRANCH  23  25
ATOM     25  C   LIG d   1       3.134   0.290  -3.199  0.00  0.00     0.427 C 
ATOM     26  F   LIG d   1       2.281  -0.778  -2.901  0.00  0.00    -0.168 F 
ATOM     27  F   LIG d   1       3.143   1.193  -2.131  0.00  0.00    -0.168 F 
ATOM     28  F   LIG d   1       2.683   0.938  -4.354  0.00  0.00    -0.168 F 
ENDBRANCH  23  25
BRANCH  23  29
ATOM     29  C   LIG d   1       4.782  -1.477  -2.564  0.00  0.00     0.427 C 
ATOM     30  F   LIG d   1       4.535  -1.161  -1.225  0.00  0.00    -0.168 F 
ATOM     31  F   LIG d   1       3.916  -2.499  -2.970  0.00  0.00    -0.168 F 
ATOM     32  F   LIG d   1       6.107  -1.906  -2.706  0.00  0.00    -0.168 F 
ENDBRANCH  23  29
ENDBRANCH  21  23
ENDBRANCH  20  21
ENDBRANCH  17  20
ENDBRANCH   1  17
TORSDOF 10
ENDMDL
MODEL 7
REMARK VINA RESULT:      -5.5      2.789      4.705
REMARK  10 active torsions:
REMARK  status: ('A' for Active; 'I' for Inactive)
REMARK    1  A    between atoms: C_1  and  C_2 
REMARK    2  A    between atoms: C_2  and  C_3 
REMARK    3  A    between atoms: C_3  and  C_4 
REMARK    4  A    between atoms: C_4  and  C_5 
REMARK    5  A    between atoms: C_5  and  C_6 
REMARK    6  A    between atoms: C_6  and  O_7 
REMARK    7  A    between atoms: O_7  and  C_8 
REMARK    8  A    between atoms: C_8  and  C_10 
REMARK    9  A    between atoms: C_10  and  C_11 
REMARK   10  A    between atoms: C_10  and  C_15 
ROOT
ATOM      1  C   LIG d   1       7.772  -0.383  -5.921  0.00  0.00    -0.018 C 
ATOM      2  H   LIG d   1       8.300  -0.705  -6.819  0.00  0.00     0.030 H 
ATOM      3  H   LIG d   1       8.107  -0.976  -5.070  0.00  0.00     0.030 H 
ENDROOT
BRANCH   1   4
ATOM      4  C   LIG d   1       8.067   1.096  -5.660  0.00  0.00    -0.050 C 
ATOM      5  H   LIG d   1       7.187   1.571  -5.228  0.00  0.00     0.027 H 
ATOM      6  H   LIG d   1       8.321   1.587  -6.600  0.00  0.00     0.027 H 
BRANCH   4   7
ATOM      7  C   LIG d   1       9.242   1.218  -4.688  0.00  0.00    -0.053 C 
ATOM      8  H   LIG d   1      10.152   1.444  -5.243  0.00  0.00     0.026 H 
ATOM      9  H   LIG d   1       9.368   0.277  -4.151  0.00  0.00     0.026 H 
BRANCH   7  10
ATOM     10  C   LIG d   1       8.962   2.342  -3.688  0.00  0.00    -0.056 C 
ATOM     11  H   LIG d   1       8.261   1.990  -2.932  0.00  0.00     0.026 H 
ATOM     12  H   LIG d   1       8.533   3.195  -4.212  0.00  0.00     0.026 H 
BRANCH  10  13
ATOM     13  C   LIG d   1      10.270   2.762  -3.015  0.00  0.00    -0.065 C 
ATOM     14  H   LIG d   1      10.119   3.703  -2.485  0.00  0.00     0.023 H 
ATOM     15  H   LIG d   1      10.579   1.992  -2.308  0.00  0.00     0.023 H 
ATOM     16  H   LIG d   1      11.043   2.892  -3.772  0.00  0.00     0.023 H 
ENDBRANCH  10  13
ENDBRANCH   7  10
ENDBRANCH   4   7
ENDBRANCH   1   4
BRANCH   1  17
ATOM     17  C   LIG d   1       6.267  -0.576  -6.118  0.00  0.00     0.092 C 
ATOM     18  H   LIG d   1       6.006  -0.365  -7.155  0.00  0.00     0.070 H 
ATOM     19  H   LIG d   1       5.999  -1.605  -5.876  0.00  0.00     0.070 H 
BRANCH  17  20
ATOM     20  O   LIG d   1       5.557   0.316  -5.256  0.00  0.00    -0.463 OA
BRANCH  20  21
ATOM     21  C   LIG d   1       4.383  -0.114  -4.768  0.00  0.00     0.346 C 
ATOM     22  O   LIG d   1       3.490  -0.421  -5.523  0.00  0.00    -0.248 OA
BRANCH  21  23
ATOM     23  C   LIG d   1       4.177  -0.214  -3.279  0.00  0.00     0.328 C 
ATOM     24 CL   LIG d   1       2.465  -0.663  -2.936  0.00  0.00    -0.088 Cl
BRANCH  23  25
ATOM     25  C   LIG d   1       5.110  -1.283  -2.705  0.00  0.00     0.427 C 
ATOM     26  F   LIG d   1       4.655  -1.669  -1.440  0.00  0.00    -0.168 F 
ATOM     27  F   LIG d   1       5.123  -2.394  -3.555  0.00  0.00    -0.168 F 
ATOM     28  F   LIG d   1       6.404  -0.763  -2.597  0.00  0.00    -0.168 F 
ENDBRANCH  23  25
BRANCH  23  29
ATOM     29  C   LIG d   1       4.490   1.136  -2.630  0.00  0.00     0.427 C 
ATOM     30  F   LIG d   1       3.563   2.088  -3.065  0.00  0.00    -0.168 F 
ATOM     31  F   LIG d   1       4.415   1.014  -1.238  0.00  0.00    -0.168 F 
ATOM     32  F   LIG d   1       5.780   1.541  -2.993  0.00  0.00    -0.168 F 
ENDBRANCH  23  29
ENDBRANCH  21  23
ENDBRANCH  20  21
ENDBRANCH  17  20
ENDBRANCH   1  17
TORSDOF 10
ENDMDL
MODEL 8
REMARK VINA RESULT:      -5.5      1.556      2.637
REMARK  10 active torsions:
REMARK  status: ('A' for Active; 'I' for Inactive)
REMARK    1  A    between atoms: C_1  and  C_2 
REMARK    2  A    between atoms: C_2  and  C_3 
REMARK    3  A    between atoms: C_3  and  C_4 
REMARK    4  A    between atoms: C_4  and  C_5 
REMARK    5  A    between atoms: C_5  and  C_6 
REMARK    6  A    between atoms: C_6  and  O_7 
REMARK    7  A    between atoms: O_7  and  C_8 
REMARK    8  A    between atoms: C_8  and  C_10 
REMARK    9  A    between atoms: C_10  and  C_11 
REMARK   10  A    between atoms: C_10  and  C_15 
ROOT
ATOM      1  C   LIG d   1       4.114  -0.739  -7.391  0.00  0.00    -0.018 C 
ATOM      2  H   LIG d   1       3.712   0.265  -7.258  0.00  0.00     0.030 H 
ATOM      3  H   LIG d   1       3.339  -1.473  -7.166  0.00  0.00     0.030 H 
ENDROOT
BRANCH   1   4
ATOM      4  C   LIG d   1       4.578  -0.915  -8.839  0.00  0.00    -0.050 C 
ATOM      5  H   LIG d   1       5.139  -1.845  -8.930  0.00  0.00     0.027 H 
ATOM      6  H   LIG d   1       5.216  -0.076  -9.119  0.00  0.00     0.027 H 
BRANCH   4   7
ATOM      7  C   LIG d   1       3.359  -0.961  -9.763  0.00  0.00    -0.053 C 
ATOM      8  H   LIG d   1       2.565  -1.538  -9.290  0.00  0.00     0.026 H 
ATOM      9  H   LIG d   1       3.637  -1.431 -10.707  0.00  0.00     0.026 H 
BRANCH   7  10
ATOM     10  C   LIG d   1       2.867   0.463 -10.029  0.00  0.00    -0.056 C 
ATOM     11  H   LIG d   1       2.612   0.942  -9.083  0.00  0.00     0.026 H 
ATOM     12  H   LIG d   1       1.986   0.430 -10.668  0.00  0.00     0.026 H 
BRANCH  10  13
ATOM     13  C   LIG d   1       3.972   1.262 -10.723  0.00  0.00    -0.065 C 
ATOM     14  H   LIG d   1       3.631   2.285 -10.887  0.00  0.00     0.023 H 
ATOM     15  H   LIG d   1       4.863   1.271 -10.097  0.00  0.00     0.023 H 
ATOM     16  H   LIG d   1       4.205   0.800 -11.682  0.00  0.00     0.023 H 
ENDBRANCH  10  13
ENDBRANCH   7  10
ENDBRANCH   4   7
ENDBRANCH   1   4
BRANCH   1  17
ATOM     17  C   LIG d   1       5.300  -0.944  -6.447  0.00  0.00     0.092 C 
ATOM     18  H   LIG d   1       5.194  -1.897  -5.930  0.00  0.00     0.070 H 
ATOM     19  H   LIG d   1       6.227  -0.943  -7.022  0.00  0.00     0.070 H 
BRANCH  17  20
ATOM     20  O   LIG d   1       5.333   0.116  -5.489  0.00  0.00    -0.463 OA
BRANCH  20  21
ATOM     21  C   LIG d   1       5.253  -0.230  -4.194  0.00  0.00     0.346 C 
ATOM     22  O   LIG d   1       6.194  -0.761  -3.652  0.00  0.00    -0.248 OA
BRANCH  21  23
ATOM     23  C   LIG d   1       3.991   0.042  -3.418  0.00  0.00     0.328 C 
ATOM     24 CL   LIG d   1       2.743   0.734  -4.521  0.00  0.00    -0.088 Cl
BRANCH  23  25
ATOM     25  C   LIG d   1       3.471  -1.266  -2.816  0.00  0.00     0.427 C 
ATOM     26  F   LIG d   1       4.204  -1.573  -1.665  0.00  0.00    -0.168 F 
ATOM     27  F   LIG d   1       2.120  -1.120  -2.484  0.00  0.00    -0.168 F 
ATOM     28  F   LIG d   1       3.614  -2.298  -3.749  0.00  0.00    -0.168 F 
ENDBRANCH  23  25
BRANCH  23  29
ATOM     29  C   LIG d   1       4.288   1.038  -2.295  0.00  0.00     0.427 C 
ATOM     30  F   LIG d   1       4.706   0.344  -1.155  0.00  0.00    -0.168 F 
ATOM     31  F   LIG d   1       5.299   1.914  -2.705  0.00  0.00    -0.168 F 
ATOM     32  F   LIG d   1       3.131   1.767  -2.000  0.00  0.00    -0.168 F 
ENDBRANCH  23  29
ENDBRANCH  21  23
ENDBRANCH  20  21
ENDBRANCH  17  20
ENDBRANCH   1  17
TORSDOF 10
ENDMDL
MODEL 9
REMARK VINA RESULT:      -5.4      3.334      5.570
REMARK  10 active torsions:
REMARK  status: ('A' for Active; 'I' for Inactive)
REMARK    1  A    between atoms: C_1  and  C_2 
REMARK    2  A    between atoms: C_2  and  C_3 
REMARK    3  A    between atoms: C_3  and  C_4 
REMARK    4  A    between atoms: C_4  and  C_5 
REMARK    5  A    between atoms: C_5  and  C_6 
REMARK    6  A    between atoms: C_6  and  O_7 
REMARK    7  A    between atoms: O_7  and  C_8 
REMARK    8  A    between atoms: C_8  and  C_10 
REMARK    9  A    between atoms: C_10  and  C_11 
REMARK   10  A    between atoms: C_10  and  C_15 
ROOT
ATOM      1  C   LIG d   1       7.007  -2.972  -4.761  0.00  0.00    -0.018 C 
ATOM      2  H   LIG d   1       6.903  -2.972  -5.846  0.00  0.00     0.030 H 
ATOM      3  H   LIG d   1       6.040  -3.184  -4.304  0.00  0.00     0.030 H 
ENDROOT
BRANCH   1   4
ATOM      4  C   LIG d   1       8.014  -4.046  -4.345  0.00  0.00    -0.050 C 
ATOM      5  H   LIG d   1       8.615  -4.334  -5.207  0.00  0.00     0.027 H 
ATOM      6  H   LIG d   1       7.479  -4.917  -3.966  0.00  0.00     0.027 H 
BRANCH   4   7
ATOM      7  C   LIG d   1       8.927  -3.492  -3.249  0.00  0.00    -0.053 C 
ATOM      8  H   LIG d   1       8.321  -3.031  -2.469  0.00  0.00     0.026 H 
ATOM      9  H   LIG d   1       9.598  -2.746  -3.677  0.00  0.00     0.026 H 
BRANCH   7  10
ATOM     10  C   LIG d   1       9.751  -4.632  -2.648  0.00  0.00    -0.056 C 
ATOM     11  H   LIG d   1       9.569  -4.686  -1.575  0.00  0.00     0.026 H 
ATOM     12  H   LIG d   1      10.810  -4.449  -2.827  0.00  0.00     0.026 H 
BRANCH  10  13
ATOM     13  C   LIG d   1       9.345  -5.954  -3.302  0.00  0.00    -0.065 C 
ATOM     14  H   LIG d   1       8.419  -5.813  -3.860  0.00  0.00     0.023 H 
ATOM     15  H   LIG d   1      10.132  -6.281  -3.981  0.00  0.00     0.023 H 
ATOM     16  H   LIG d   1       9.193  -6.709  -2.530  0.00  0.00     0.023 H 
ENDBRANCH  10  13
ENDBRANCH   7  10
ENDBRANCH   4   7
ENDBRANCH   1   4
BRANCH   1  17
ATOM     17  C   LIG d   1       7.502  -1.600  -4.295  0.00  0.00     0.092 C 
ATOM     18  H   LIG d   1       8.420  -1.721  -3.721  0.00  0.00     0.070 H 
ATOM     19  H   LIG d   1       7.696  -0.970  -5.164  0.00  0.00     0.070 H 
BRANCH  17  20
ATOM     20  O   LIG d   1       6.503  -0.988  -3.477  0.00  0.00    -0.463 OA
BRANCH  20  21
ATOM     21  C   LIG d   1       5.536  -0.302  -4.106  0.00  0.00     0.346 C 
ATOM     22  O   LIG d   1       5.740   0.161  -5.204  0.00  0.00    -0.248 OA
BRANCH  21  23
ATOM     23  C   LIG d   1       4.197  -0.107  -3.444  0.00  0.00     0.328 C 
ATOM     24 CL   LIG d   1       3.010   0.508  -4.654  0.00  0.00    -0.088 Cl
BRANCH  23  25
ATOM     25  C   LIG d   1       3.706  -1.443  -2.881  0.00  0.00     0.427 C 
ATOM     26  F   LIG d   1       3.833  -2.435  -3.859  0.00  0.00    -0.168 F 
ATOM     27  F   LIG d   1       4.474  -1.788  -1.764  0.00  0.00    -0.168 F 
ATOM     28  F   LIG d   1       2.364  -1.326  -2.507  0.00  0.00    -0.168 F 
ENDBRANCH  23  25
BRANCH  23  29
ATOM     29  C   LIG d   1       4.335   0.906  -2.305  0.00  0.00     0.427 C 
ATOM     30  F   LIG d   1       5.341   1.825  -2.618  0.00  0.00    -0.168 F 
ATOM     31  F   LIG d   1       3.122   1.582  -2.133  0.00  0.00    -0.168 F 
ATOM     32  F   LIG d   1       4.666   0.235  -1.122  0.00  0.00    -0.168 F 
ENDBRANCH  23  29
ENDBRANCH  21  23
ENDBRANCH  20  21
ENDBRANCH  17  20
ENDBRANCH   1  17
TORSDOF 10
ENDMDL
MODEL 10
REMARK VINA RESULT:      -5.4      1.467      2.717
REMARK  10 active torsions:
REMARK  status: ('A' for Active; 'I' for Inactive)
REMARK    1  A    between atoms: C_1  and  C_2 
REMARK    2  A    between atoms: C_2  and  C_3 
REMARK    3  A    between atoms: C_3  and  C_4 
REMARK    4  A    between atoms: C_4  and  C_5 
REMARK    5  A    between atoms: C_5  and  C_6 
REMARK    6  A    between atoms: C_6  and  O_7 
REMARK    7  A    between atoms: O_7  and  C_8 
REMARK    8  A    between atoms: C_8  and  C_10 
REMARK    9  A    between atoms: C_10  and  C_11 
REMARK   10  A    between atoms: C_10  and  C_15 
ROOT
ATOM      1  C   LIG d   1       3.213  -0.278  -7.363  0.00  0.00    -0.018 C 
ATOM      2  H   LIG d   1       3.573   0.740  -7.512  0.00  0.00     0.030 H 
ATOM      3  H   LIG d   1       2.464  -0.285  -6.569  0.00  0.00     0.030 H 
ENDROOT
BRANCH   1   4
ATOM      4  C   LIG d   1       2.585  -0.792  -8.660  0.00  0.00    -0.050 C 
ATOM      5  H   LIG d   1       1.646  -1.297  -8.434  0.00  0.00     0.027 H 
ATOM      6  H   LIG d   1       3.268  -1.493  -9.140  0.00  0.00     0.027 H 
BRANCH   4   7
ATOM      7  C   LIG d   1       2.318   0.385  -9.600  0.00  0.00    -0.053 C 
ATOM      8  H   LIG d   1       1.722   1.136  -9.081  0.00  0.00     0.026 H 
ATOM      9  H   LIG d   1       1.776   0.033 -10.478  0.00  0.00     0.026 H 
BRANCH   7  10
ATOM     10  C   LIG d   1       3.649   1.001 -10.036  0.00  0.00    -0.056 C 
ATOM     11  H   LIG d   1       3.773   0.876 -11.111  0.00  0.00     0.026 H 
ATOM     12  H   LIG d   1       4.467   0.504  -9.516  0.00  0.00     0.026 H 
BRANCH  10  13
ATOM     13  C   LIG d   1       3.657   2.492  -9.691  0.00  0.00    -0.065 C 
ATOM     14  H   LIG d   1       2.637   2.877  -9.718  0.00  0.00     0.023 H 
ATOM     15  H   LIG d   1       4.073   2.633  -8.694  0.00  0.00     0.023 H 
ATOM     16  H   LIG d   1       4.266   3.029 -10.419  0.00  0.00     0.023 H 
ENDBRANCH  10  13
ENDBRANCH   7  10
ENDBRANCH   4   7
ENDBRANCH   1   4
BRANCH   1  17
ATOM     17  C   LIG d   1       4.383  -1.181  -6.969  0.00  0.00     0.092 C 
ATOM     18  H   LIG d   1       4.056  -2.221  -6.967  0.00  0.00     0.070 H 
ATOM     19  H   LIG d   1       5.195  -1.057  -7.686  0.00  0.00     0.070 H 
BRANCH  17  20
ATOM     20  O   LIG d   1       4.842  -0.824  -5.664  0.00  0.00    -0.463 OA
BRANCH  20  21
ATOM     21  C   LIG d   1       4.423  -1.586  -4.641  0.00  0.00     0.346 C 
ATOM     22  O   LIG d   1       4.273  -2.776  -4.797  0.00  0.00    -0.248 OA
BRANCH  21  23
ATOM     23  C   LIG d   1       4.138  -0.960  -3.301  0.00  0.00     0.328 C 
ATOM     24 CL   LIG d   1       3.726  -2.248  -2.109  0.00  0.00    -0.088 Cl
BRANCH  23  25
ATOM     25  C   LIG d   1       5.375  -0.197  -2.821  0.00  0.00     0.427 C 
ATOM     26  F   LIG d   1       5.182   0.219  -1.499  0.00  0.00    -0.168 F 
ATOM     27  F   LIG d   1       6.494  -1.035  -2.888  0.00  0.00    -0.168 F 
ATOM     28  F   LIG d   1       5.579   0.920  -3.637  0.00  0.00    -0.168 F 
ENDBRANCH  23  25
BRANCH  23  29
ATOM     29  C   LIG d   1       2.961   0.009  -3.432  0.00  0.00     0.427 C 
ATOM     30  F   LIG d   1       3.232   0.938  -4.441  0.00  0.00    -0.168 F 
ATOM     31  F   LIG d   1       1.802  -0.706  -3.755  0.00  0.00    -0.168 F 
ATOM     32  F   LIG d   1       2.771   0.680  -2.218  0.00  0.00    -0.168 F 
ENDBRANCH  23  29
ENDBRANCH  21  23
ENDBRANCH  20  21
ENDBRANCH  17  20
ENDBRANCH   1  17
TORSDOF 10
ENDMDL
