MODEL 1
REMARK VINA RESULT:      -7.9      0.000      0.000
REMARK  5 active torsions:
REMARK  status: ('A' for Active; 'I' for Inactive)
REMARK    1  A    between atoms: C_1  and  C_2 
REMARK    2  A    between atoms: C_18  and  C_20 
REMARK    3  A    between atoms: C_20  and  N_53 
REMARK    4  A    between atoms: C_21  and  C_22 
REMARK    5  A    between atoms: C_21  and  N_53 
ROOT
ATOM      1  C   LIG d   1       6.407  -1.394  -4.757  0.00  0.00    -0.023 C 
ATOM      2  C   LIG d   1       7.358  -2.273  -3.954  0.00  0.00    -0.047 C 
ATOM      3  C   LIG d   1       7.552  -3.632  -4.620  0.00  0.00    -0.050 C 
ATOM      4  C   LIG d   1       6.213  -4.355  -4.768  0.00  0.00    -0.021 C 
ATOM      5  C   LIG d   1       5.207  -3.450  -5.478  0.00  0.00     0.096 A 
ATOM      6  C   LIG d   1       5.029  -2.054  -4.861  0.00  0.00    -0.004 C 
ATOM      7  H   LIG d   1       4.373  -1.457  -5.496  0.00  0.00     0.034 H 
ATOM      8  C   LIG d   1       4.443  -2.229  -3.463  0.00  0.00    -0.040 C 
ATOM      9  C   LIG d   1       4.443  -1.007  -2.601  0.00  0.00     0.014 C 
ATOM     10  H   LIG d   1       4.355  -1.365  -1.548  0.00  0.00     0.035 H 
ATOM     11  C   LIG d   1       5.724  -0.158  -2.666  0.00  0.00     0.107 C 
ATOM     12  H   LIG d   1       6.497  -0.527  -1.981  0.00  0.00     0.074 H 
ATOM     13  C   LIG d   1       6.244  -0.029  -4.095  0.00  0.00    -0.010 C 
ATOM     14  O   LIG d   1       5.240   1.184  -2.279  0.00  0.00    -0.461 OA
ATOM     15  C   LIG d   1       4.032   1.346  -2.862  0.00  0.00     0.316 C 
ATOM     16  O   LIG d   1       3.598   2.367  -3.332  0.00  0.00    -0.250 OA
ATOM     17  C   LIG d   1       3.316   0.004  -2.817  0.00  0.00     0.102 C 
ATOM     18  H   LIG d   1       2.632  -0.009  -1.956  0.00  0.00     0.047 H 
ATOM     19  C   LIG d   1       4.997  -3.617  -6.977  0.00  0.00     0.078 A 
ATOM     20  O   LIG d   1       4.037  -4.069  -6.020  0.00  0.00    -0.368 OA
ATOM     21  H   LIG d   1       8.328  -1.771  -3.873  0.00  0.00     0.027 H 
ATOM     22  H   LIG d   1       6.962  -2.417  -2.946  0.00  0.00     0.027 H 
ATOM     23  H   LIG d   1       8.026  -3.523  -5.593  0.00  0.00     0.027 H 
ATOM     24  H   LIG d   1       8.211  -4.242  -3.989  0.00  0.00     0.027 H 
ATOM     25  H   LIG d   1       6.356  -5.265  -5.355  0.00  0.00     0.029 H 
ATOM     26  H   LIG d   1       5.832  -4.626  -3.783  0.00  0.00     0.029 H 
ATOM     27  H   LIG d   1       5.030  -3.005  -2.947  0.00  0.00     0.027 H 
ATOM     28  H   LIG d   1       3.428  -2.627  -3.546  0.00  0.00     0.027 H 
ATOM     29  H   LIG d   1       5.548   0.566  -4.684  0.00  0.00     0.031 H 
ATOM     30  H   LIG d   1       7.214   0.470  -4.081  0.00  0.00     0.031 H 
ATOM     31  H   LIG d   1       4.746  -2.732  -7.563  0.00  0.00     0.059 H 
ATOM     32  H   LIG d   1       5.590  -4.371  -7.496  0.00  0.00     0.059 H 
ENDROOT
BRANCH  17  33
ATOM     33  C   LIG d   1       2.523  -0.226  -4.098  0.00  0.00    -0.020 C 
ATOM     34  H   LIG d   1       1.483   0.059  -3.937  0.00  0.00     0.082 H 
ATOM     35  H   LIG d   1       2.573  -1.279  -4.373  0.00  0.00     0.082 H 
BRANCH  33  36
ATOM     36  N   LIG d   1       3.099   0.597  -5.178  0.00  0.00     0.231 N 
ATOM     37  H   LIG d   1       4.112   0.431  -5.225  0.00  0.00     0.202 HD
ATOM     38  H   LIG d   1       2.923   1.589  -4.980  0.00  0.00     0.202 HD
BRANCH  36  39
ATOM     39  C   LIG d   1       2.488   0.244  -6.473  0.00  0.00    -0.006 C 
ATOM     40  H   LIG d   1       2.467  -0.840  -6.585  0.00  0.00     0.087 H 
ATOM     41  H   LIG d   1       1.472   0.633  -6.517  0.00  0.00     0.087 H 
BRANCH  39  42
ATOM     42  C   LIG d   1       3.306   0.848  -7.586  0.00  0.00     0.015 A 
ATOM     43  C   LIG d   1       4.490   0.257  -7.983  0.00  0.00     0.036 A 
ATOM     44  N   LIG d   1       5.211   0.779  -8.957  0.00  0.00    -0.263 NA
ATOM     45  H   LIG d   1       4.830  -0.643  -7.491  0.00  0.00     0.083 H 
ATOM     46  C   LIG d   1       4.836   1.875  -9.585  0.00  0.00     0.028 A 
ATOM     47  C   LIG d   1       3.663   2.521  -9.242  0.00  0.00    -0.043 A 
ATOM     48  H   LIG d   1       5.452   2.273 -10.378  0.00  0.00     0.083 H 
ATOM     49  C   LIG d   1       2.877   1.999  -8.228  0.00  0.00    -0.051 A 
ATOM     50  H   LIG d   1       3.361   3.419  -9.762  0.00  0.00     0.063 H 
ATOM     51  H   LIG d   1       1.952   2.479  -7.941  0.00  0.00     0.062 H 
ENDBRANCH  39  42
ENDBRANCH  36  39
ENDBRANCH  33  36
ENDBRANCH  17  33
BRANCH   1  52
ATOM     52  C   LIG d   1       6.975  -1.168  -6.162  0.00  0.00    -0.059 C 
ATOM     53  H   LIG d   1       8.034  -1.428  -6.172  0.00  0.00     0.024 H 
ATOM     54  H   LIG d   1       6.441  -1.794  -6.875  0.00  0.00     0.024 H 
ATOM     55  H   LIG d   1       6.856  -0.120  -6.438  0.00  0.00     0.024 H 
ENDBRANCH   1  52
TORSDOF 5
ENDMDL
MODEL 2
REMARK VINA RESULT:      -7.5      1.915      4.167
REMARK  5 active torsions:
REMARK  status: ('A' for Active; 'I' for Inactive)
REMARK    1  A    between atoms: C_1  and  C_2 
REMARK    2  A    between atoms: C_18  and  C_20 
REMARK    3  A    between atoms: C_20  and  N_53 
REMARK    4  A    between atoms: C_21  and  C_22 
REMARK    5  A    between atoms: C_21  and  N_53 
ROOT
ATOM      1  C   LIG d   1       5.054  -1.110  -3.037  0.00  0.00    -0.023 C 
ATOM      2  C   LIG d   1       5.478   0.167  -2.323  0.00  0.00    -0.047 C 
ATOM      3  C   LIG d   1       4.275   1.054  -2.013  0.00  0.00    -0.050 C 
ATOM      4  C   LIG d   1       3.535   1.425  -3.299  0.00  0.00    -0.021 C 
ATOM      5  C   LIG d   1       3.192   0.163  -4.087  0.00  0.00     0.096 A 
ATOM      6  C   LIG d   1       4.375  -0.778  -4.369  0.00  0.00    -0.004 C 
ATOM      7  H   LIG d   1       4.009  -1.690  -4.842  0.00  0.00     0.034 H 
ATOM      8  C   LIG d   1       5.358  -0.037  -5.271  0.00  0.00    -0.040 C 
ATOM      9  C   LIG d   1       6.697  -0.685  -5.441  0.00  0.00     0.014 C 
ATOM     10  H   LIG d   1       7.392   0.117  -5.782  0.00  0.00     0.035 H 
ATOM     11  C   LIG d   1       7.308  -1.276  -4.159  0.00  0.00     0.107 C 
ATOM     12  H   LIG d   1       7.852  -0.521  -3.578  0.00  0.00     0.074 H 
ATOM     13  C   LIG d   1       6.262  -1.999  -3.316  0.00  0.00    -0.010 C 
ATOM     14  O   LIG d   1       8.210  -2.321  -4.686  0.00  0.00    -0.461 OA
ATOM     15  C   LIG d   1       7.567  -2.907  -5.719  0.00  0.00     0.316 C 
ATOM     16  O   LIG d   1       7.594  -4.077  -6.006  0.00  0.00    -0.250 OA
ATOM     17  C   LIG d   1       6.801  -1.820  -6.460  0.00  0.00     0.102 C 
ATOM     18  H   LIG d   1       7.393  -1.491  -7.327  0.00  0.00     0.047 H 
ATOM     19  C   LIG d   1       1.800  -0.439  -3.944  0.00  0.00     0.078 A 
ATOM     20  O   LIG d   1       2.202   0.279  -5.113  0.00  0.00    -0.368 OA
ATOM     21  H   LIG d   1       5.981  -0.095  -1.387  0.00  0.00     0.027 H 
ATOM     22  H   LIG d   1       6.183   0.720  -2.948  0.00  0.00     0.027 H 
ATOM     23  H   LIG d   1       3.597   0.559  -1.322  0.00  0.00     0.027 H 
ATOM     24  H   LIG d   1       4.631   1.976  -1.535  0.00  0.00     0.027 H 
ATOM     25  H   LIG d   1       2.613   1.953  -3.044  0.00  0.00     0.029 H 
ATOM     26  H   LIG d   1       4.161   2.079  -3.906  0.00  0.00     0.029 H 
ATOM     27  H   LIG d   1       5.521   0.963  -4.841  0.00  0.00     0.027 H 
ATOM     28  H   LIG d   1       4.897   0.128  -6.247  0.00  0.00     0.027 H 
ATOM     29  H   LIG d   1       5.926  -2.893  -3.839  0.00  0.00     0.031 H 
ATOM     30  H   LIG d   1       6.707  -2.292  -2.365  0.00  0.00     0.031 H 
ATOM     31  H   LIG d   1       1.696  -1.522  -4.029  0.00  0.00     0.059 H 
ATOM     32  H   LIG d   1       1.099   0.048  -3.265  0.00  0.00     0.059 H 
ENDROOT
BRANCH  17  33
ATOM     33  C   LIG d   1       5.451  -2.343  -6.937  0.00  0.00    -0.020 C 
ATOM     34  H   LIG d   1       4.659  -1.913  -6.326  0.00  0.00     0.082 H 
ATOM     35  H   LIG d   1       5.430  -3.430  -6.849  0.00  0.00     0.082 H 
BRANCH  33  36
ATOM     36  N   LIG d   1       5.255  -1.957  -8.347  0.00  0.00     0.231 N 
ATOM     37  H   LIG d   1       5.397  -2.779  -8.946  0.00  0.00     0.202 HD
ATOM     38  H   LIG d   1       5.934  -1.229  -8.597  0.00  0.00     0.202 HD
BRANCH  36  39
ATOM     39  C   LIG d   1       3.889  -1.438  -8.550  0.00  0.00    -0.006 C 
ATOM     40  H   LIG d   1       3.435  -1.927  -9.412  0.00  0.00     0.087 H 
ATOM     41  H   LIG d   1       3.287  -1.633  -7.663  0.00  0.00     0.087 H 
BRANCH  39  42
ATOM     42  C   LIG d   1       3.956   0.048  -8.795  0.00  0.00     0.015 A 
ATOM     43  C   LIG d   1       5.062   0.605  -9.408  0.00  0.00     0.036 A 
ATOM     44  N   LIG d   1       5.127   1.905  -9.627  0.00  0.00    -0.263 NA
ATOM     45  H   LIG d   1       5.880  -0.029  -9.713  0.00  0.00     0.083 H 
ATOM     46  C   LIG d   1       4.153   2.718  -9.271  0.00  0.00     0.028 A 
ATOM     47  C   LIG d   1       3.016   2.231  -8.653  0.00  0.00    -0.043 A 
ATOM     48  H   LIG d   1       4.242   3.776  -9.466  0.00  0.00     0.083 H 
ATOM     49  C   LIG d   1       2.909   0.871  -8.412  0.00  0.00    -0.051 A 
ATOM     50  H   LIG d   1       2.221   2.903  -8.365  0.00  0.00     0.063 H 
ATOM     51  H   LIG d   1       2.030   0.461  -7.934  0.00  0.00     0.062 H 
ENDBRANCH  39  42
ENDBRANCH  36  39
ENDBRANCH  33  36
ENDBRANCH  17  33
BRANCH   1  52
ATOM     52  C   LIG d   1       4.086  -1.901  -2.150  0.00  0.00    -0.059 C 
ATOM     53  H   LIG d   1       4.466  -1.923  -1.129  0.00  0.00     0.024 H 
ATOM     54  H   LIG d   1       3.108  -1.421  -2.163  0.00  0.00     0.024 H 
ATOM     55  H   LIG d   1       3.997  -2.919  -2.527  0.00  0.00     0.024 H 
ENDBRANCH   1  52
TORSDOF 5
ENDMDL
MODEL 3
REMARK VINA RESULT:      -7.3      4.072      6.146
REMARK  5 active torsions:
REMARK  status: ('A' for Active; 'I' for Inactive)
REMARK    1  A    between atoms: C_1  and  C_2 
REMARK    2  A    between atoms: C_18  and  C_20 
REMARK    3  A    between atoms: C_20  and  N_53 
REMARK    4  A    between atoms: C_21  and  C_22 
REMARK    5  A    between atoms: C_21  and  N_53 
ROOT
ATOM      1  C   LIG d   1       4.788  -0.983  -4.627  0.00  0.00    -0.023 C 
ATOM      2  C   LIG d   1       4.623  -2.317  -3.909  0.00  0.00    -0.047 C 
ATOM      3  C   LIG d   1       3.799  -2.163  -2.635  0.00  0.00    -0.050 C 
ATOM      4  C   LIG d   1       4.460  -1.166  -1.683  0.00  0.00    -0.021 C 
ATOM      5  C   LIG d   1       4.734   0.149  -2.412  0.00  0.00     0.096 A 
ATOM      6  C   LIG d   1       5.518   0.020  -3.728  0.00  0.00    -0.004 C 
ATOM      7  H   LIG d   1       5.569   0.994  -4.216  0.00  0.00     0.034 H 
ATOM      8  C   LIG d   1       6.908  -0.512  -3.396  0.00  0.00    -0.040 C 
ATOM      9  C   LIG d   1       7.729  -0.956  -4.565  0.00  0.00     0.014 C 
ATOM     10  H   LIG d   1       8.510  -1.640  -4.158  0.00  0.00     0.035 H 
ATOM     11  C   LIG d   1       6.968  -1.753  -5.638  0.00  0.00     0.107 C 
ATOM     12  H   LIG d   1       6.910  -2.820  -5.393  0.00  0.00     0.074 H 
ATOM     13  C   LIG d   1       5.591  -1.156  -5.913  0.00  0.00    -0.010 C 
ATOM     14  O   LIG d   1       7.774  -1.509  -6.852  0.00  0.00    -0.461 OA
ATOM     15  C   LIG d   1       8.162  -0.216  -6.809  0.00  0.00     0.316 C 
ATOM     16  O   LIG d   1       8.255   0.533  -7.749  0.00  0.00    -0.250 OA
ATOM     17  C   LIG d   1       8.463   0.127  -5.358  0.00  0.00     0.102 C 
ATOM     18  H   LIG d   1       9.547   0.046  -5.186  0.00  0.00     0.047 H 
ATOM     19  C   LIG d   1       3.739   1.293  -2.265  0.00  0.00     0.078 A 
ATOM     20  O   LIG d   1       5.008   1.300  -1.608  0.00  0.00    -0.368 OA
ATOM     21  H   LIG d   1       4.121  -3.024  -4.578  0.00  0.00     0.027 H 
ATOM     22  H   LIG d   1       5.606  -2.722  -3.658  0.00  0.00     0.027 H 
ATOM     23  H   LIG d   1       2.785  -1.842  -2.866  0.00  0.00     0.027 H 
ATOM     24  H   LIG d   1       3.739  -3.138  -2.134  0.00  0.00     0.027 H 
ATOM     25  H   LIG d   1       3.794  -0.977  -0.838  0.00  0.00     0.029 H 
ATOM     26  H   LIG d   1       5.396  -1.581  -1.310  0.00  0.00     0.029 H 
ATOM     27  H   LIG d   1       6.786  -1.375  -2.723  0.00  0.00     0.027 H 
ATOM     28  H   LIG d   1       7.453   0.240  -2.821  0.00  0.00     0.027 H 
ATOM     29  H   LIG d   1       5.702  -0.184  -6.390  0.00  0.00     0.031 H 
ATOM     30  H   LIG d   1       5.039  -1.818  -6.581  0.00  0.00     0.031 H 
ATOM     31  H   LIG d   1       3.605   1.971  -3.109  0.00  0.00     0.059 H 
ATOM     32  H   LIG d   1       2.852   1.125  -1.652  0.00  0.00     0.059 H 
ENDROOT
BRANCH  17  33
ATOM     33  C   LIG d   1       8.004   1.544  -5.032  0.00  0.00    -0.020 C 
ATOM     34  H   LIG d   1       7.966   1.673  -3.951  0.00  0.00     0.082 H 
ATOM     35  H   LIG d   1       7.013   1.711  -5.454  0.00  0.00     0.082 H 
BRANCH  33  36
ATOM     36  N   LIG d   1       8.959   2.506  -5.613  0.00  0.00     0.231 N 
ATOM     37  H   LIG d   1       8.471   3.388  -5.813  0.00  0.00     0.202 HD
ATOM     38  H   LIG d   1       9.341   2.121  -6.485  0.00  0.00     0.202 HD
BRANCH  36  39
ATOM     39  C   LIG d   1      10.063   2.765  -4.671  0.00  0.00    -0.006 C 
ATOM     40  H   LIG d   1      10.062   2.007  -3.887  0.00  0.00     0.087 H 
ATOM     41  H   LIG d   1      11.013   2.735  -5.203  0.00  0.00     0.087 H 
BRANCH  39  42
ATOM     42  C   LIG d   1       9.877   4.126  -4.052  0.00  0.00     0.015 A 
ATOM     43  C   LIG d   1      10.154   4.329  -2.713  0.00  0.00     0.036 A 
ATOM     44  N   LIG d   1       9.994   5.519  -2.165  0.00  0.00    -0.263 NA
ATOM     45  H   LIG d   1      10.505   3.506  -2.110  0.00  0.00     0.083 H 
ATOM     46  C   LIG d   1       9.567   6.552  -2.862  0.00  0.00     0.028 A 
ATOM     47  C   LIG d   1       9.270   6.424  -4.207  0.00  0.00    -0.043 A 
ATOM     48  H   LIG d   1       9.448   7.510  -2.379  0.00  0.00     0.083 H 
ATOM     49  C   LIG d   1       9.431   5.191  -4.819  0.00  0.00    -0.051 A 
ATOM     50  H   LIG d   1       8.922   7.275  -4.773  0.00  0.00     0.063 H 
ATOM     51  H   LIG d   1       9.212   5.062  -5.869  0.00  0.00     0.062 H 
ENDBRANCH  39  42
ENDBRANCH  36  39
ENDBRANCH  33  36
ENDBRANCH  17  33
BRANCH   1  52
ATOM     52  C   LIG d   1       3.411  -0.426  -5.005  0.00  0.00    -0.059 C 
ATOM     53  H   LIG d   1       3.145  -0.767  -6.006  0.00  0.00     0.024 H 
ATOM     54  H   LIG d   1       2.668  -0.780  -4.292  0.00  0.00     0.024 H 
ATOM     55  H   LIG d   1       3.442   0.663  -4.989  0.00  0.00     0.024 H 
ENDBRANCH   1  52
TORSDOF 5
ENDMDL
MODEL 4
REMARK VINA RESULT:      -6.8      3.544      5.989
REMARK  5 active torsions:
REMARK  status: ('A' for Active; 'I' for Inactive)
REMARK    1  A    between atoms: C_1  and  C_2 
REMARK    2  A    between atoms: C_18  and  C_20 
REMARK    3  A    between atoms: C_20  and  N_53 
REMARK    4  A    between atoms: C_21  and  C_22 
REMARK    5  A    between atoms: C_21  and  N_53 
ROOT
ATOM      1  C   LIG d   1       8.147  -6.493  -5.318  0.00  0.00    -0.023 C 
ATOM      2  C   LIG d   1       9.297  -6.591  -6.312  0.00  0.00    -0.047 C 
ATOM      3  C   LIG d   1      10.644  -6.393  -5.624  0.00  0.00    -0.050 C 
ATOM      4  C   LIG d   1      10.700  -5.030  -4.933  0.00  0.00    -0.021 C 
ATOM      5  C   LIG d   1       9.496  -4.863  -4.008  0.00  0.00     0.096 A 
ATOM      6  C   LIG d   1       8.126  -5.108  -4.661  0.00  0.00    -0.004 C 
ATOM      7  H   LIG d   1       7.348  -5.066  -3.898  0.00  0.00     0.034 H 
ATOM      8  C   LIG d   1       7.918  -4.041  -5.731  0.00  0.00    -0.040 C 
ATOM      9  C   LIG d   1       6.766  -4.267  -6.658  0.00  0.00     0.014 C 
ATOM     10  H   LIG d   1       6.969  -3.652  -7.566  0.00  0.00     0.035 H 
ATOM     11  C   LIG d   1       6.586  -5.715  -7.143  0.00  0.00     0.107 C 
ATOM     12  H   LIG d   1       7.211  -5.937  -8.016  0.00  0.00     0.074 H 
ATOM     13  C   LIG d   1       6.809  -6.719  -6.015  0.00  0.00    -0.010 C 
ATOM     14  O   LIG d   1       5.146  -5.770  -7.466  0.00  0.00    -0.461 OA
ATOM     15  C   LIG d   1       4.504  -5.063  -6.511  0.00  0.00     0.316 C 
ATOM     16  O   LIG d   1       3.434  -5.328  -6.024  0.00  0.00    -0.250 OA
ATOM     17  C   LIG d   1       5.376  -3.868  -6.159  0.00  0.00     0.102 C 
ATOM     18  H   LIG d   1       5.019  -2.986  -6.712  0.00  0.00     0.047 H 
ATOM     19  C   LIG d   1       9.661  -5.165  -2.524  0.00  0.00     0.078 A 
ATOM     20  O   LIG d   1       9.564  -3.828  -3.023  0.00  0.00    -0.368 OA
ATOM     21  H   LIG d   1       9.278  -7.579  -6.786  0.00  0.00     0.027 H 
ATOM     22  H   LIG d   1       9.174  -5.835  -7.091  0.00  0.00     0.027 H 
ATOM     23  H   LIG d   1      10.830  -7.185  -4.901  0.00  0.00     0.027 H 
ATOM     24  H   LIG d   1      11.437  -6.435  -6.382  0.00  0.00     0.027 H 
ATOM     25  H   LIG d   1      11.619  -4.960  -4.346  0.00  0.00     0.029 H 
ATOM     26  H   LIG d   1      10.700  -4.239  -5.683  0.00  0.00     0.029 H 
ATOM     27  H   LIG d   1       8.835  -3.992  -6.340  0.00  0.00     0.027 H 
ATOM     28  H   LIG d   1       7.826  -3.064  -5.251  0.00  0.00     0.027 H 
ATOM     29  H   LIG d   1       6.011  -6.626  -5.280  0.00  0.00     0.031 H 
ATOM     30  H   LIG d   1       6.797  -7.729  -6.426  0.00  0.00     0.031 H 
ATOM     31  H   LIG d   1       8.802  -5.563  -1.981  0.00  0.00     0.059 H 
ATOM     32  H   LIG d   1      10.636  -5.507  -2.176  0.00  0.00     0.059 H 
ENDROOT
BRANCH  17  33
ATOM     33  C   LIG d   1       5.320  -3.582  -4.662  0.00  0.00    -0.020 C 
ATOM     34  H   LIG d   1       6.155  -2.940  -4.383  0.00  0.00     0.082 H 
ATOM     35  H   LIG d   1       5.382  -4.520  -4.110  0.00  0.00     0.082 H 
BRANCH  33  36
ATOM     36  N   LIG d   1       4.048  -2.905  -4.347  0.00  0.00     0.231 N 
ATOM     37  H   LIG d   1       3.269  -3.551  -4.519  0.00  0.00     0.202 HD
ATOM     38  H   LIG d   1       3.946  -2.078  -4.948  0.00  0.00     0.202 HD
BRANCH  36  39
ATOM     39  C   LIG d   1       4.028  -2.484  -2.933  0.00  0.00    -0.006 C 
ATOM     40  H   LIG d   1       3.155  -2.907  -2.437  0.00  0.00     0.087 H 
ATOM     41  H   LIG d   1       4.933  -2.831  -2.435  0.00  0.00     0.087 H 
BRANCH  39  42
ATOM     42  C   LIG d   1       3.964  -0.980  -2.866  0.00  0.00     0.015 A 
ATOM     43  C   LIG d   1       3.389  -0.258  -3.895  0.00  0.00     0.036 A 
ATOM     44  N   LIG d   1       3.328   1.059  -3.844  0.00  0.00    -0.263 NA
ATOM     45  H   LIG d   1       2.984  -0.778  -4.751  0.00  0.00     0.083 H 
ATOM     46  C   LIG d   1       3.809   1.735  -2.820  0.00  0.00     0.028 A 
ATOM     47  C   LIG d   1       4.398   1.081  -1.754  0.00  0.00    -0.043 A 
ATOM     48  H   LIG d   1       3.741   2.813  -2.813  0.00  0.00     0.083 H 
ATOM     49  C   LIG d   1       4.476  -0.302  -1.771  0.00  0.00    -0.051 A 
ATOM     50  H   LIG d   1       4.790   1.642  -0.918  0.00  0.00     0.063 H 
ATOM     51  H   LIG d   1       4.927  -0.841  -0.950  0.00  0.00     0.062 H 
ENDBRANCH  39  42
ENDBRANCH  36  39
ENDBRANCH  33  36
ENDBRANCH  17  33
BRANCH   1  52
ATOM     52  C   LIG d   1       8.302  -7.571  -4.240  0.00  0.00    -0.059 C 
ATOM     53  H   LIG d   1       8.131  -7.129  -3.258  0.00  0.00     0.024 H 
ATOM     54  H   LIG d   1       7.577  -8.364  -4.413  0.00  0.00     0.024 H 
ATOM     55  H   LIG d   1       9.310  -7.983  -4.281  0.00  0.00     0.024 H 
ENDBRANCH   1  52
TORSDOF 5
ENDMDL
MODEL 5
REMARK VINA RESULT:      -6.7      2.195      4.604
REMARK  5 active torsions:
REMARK  status: ('A' for Active; 'I' for Inactive)
REMARK    1  A    between atoms: C_1  and  C_2 
REMARK    2  A    between atoms: C_18  and  C_20 
REMARK    3  A    between atoms: C_20  and  N_53 
REMARK    4  A    between atoms: C_21  and  C_22 
REMARK    5  A    between atoms: C_21  and  N_53 
ROOT
ATOM      1  C   LIG d   1       4.609  -1.159  -2.973  0.00  0.00    -0.023 C 
ATOM      2  C   LIG d   1       4.980  -0.018  -2.034  0.00  0.00    -0.047 C 
ATOM      3  C   LIG d   1       3.910   1.070  -2.031  0.00  0.00    -0.050 C 
ATOM      4  C   LIG d   1       3.709   1.630  -3.439  0.00  0.00    -0.021 C 
ATOM      5  C   LIG d   1       3.440   0.492  -4.422  0.00  0.00     0.096 A 
ATOM      6  C   LIG d   1       4.474  -0.645  -4.410  0.00  0.00    -0.004 C 
ATOM      7  H   LIG d   1       4.138  -1.449  -5.066  0.00  0.00     0.034 H 
ATOM      8  C   LIG d   1       5.810  -0.069  -4.871  0.00  0.00    -0.040 C 
ATOM      9  C   LIG d   1       7.000  -0.954  -4.674  0.00  0.00     0.014 C 
ATOM     10  H   LIG d   1       7.893  -0.286  -4.693  0.00  0.00     0.035 H 
ATOM     11  C   LIG d   1       7.046  -1.706  -3.333  0.00  0.00     0.107 C 
ATOM     12  H   LIG d   1       7.484  -1.095  -2.535  0.00  0.00     0.074 H 
ATOM     13  C   LIG d   1       5.674  -2.250  -2.944  0.00  0.00    -0.010 C 
ATOM     14  O   LIG d   1       7.882  -2.881  -3.652  0.00  0.00    -0.461 OA
ATOM     15  C   LIG d   1       7.529  -3.288  -4.890  0.00  0.00     0.316 C 
ATOM     16  O   LIG d   1       7.453  -4.428  -5.273  0.00  0.00    -0.250 OA
ATOM     17  C   LIG d   1       7.244  -2.044  -5.719  0.00  0.00     0.102 C 
ATOM     18  H   LIG d   1       8.136  -1.797  -6.315  0.00  0.00     0.047 H 
ATOM     19  C   LIG d   1       1.999   0.163  -4.790  0.00  0.00     0.078 A 
ATOM     20  O   LIG d   1       2.879   0.840  -5.691  0.00  0.00    -0.368 OA
ATOM     21  H   LIG d   1       5.094  -0.412  -1.018  0.00  0.00     0.027 H 
ATOM     22  H   LIG d   1       5.935   0.415  -2.342  0.00  0.00     0.027 H 
ATOM     23  H   LIG d   1       2.968   0.685  -1.646  0.00  0.00     0.027 H 
ATOM     24  H   LIG d   1       4.237   1.884  -1.373  0.00  0.00     0.027 H 
ATOM     25  H   LIG d   1       2.857   2.314  -3.437  0.00  0.00     0.029 H 
ATOM     26  H   LIG d   1       4.601   2.178  -3.746  0.00  0.00     0.029 H 
ATOM     27  H   LIG d   1       5.986   0.862  -4.311  0.00  0.00     0.027 H 
ATOM     28  H   LIG d   1       5.732   0.223  -5.921  0.00  0.00     0.027 H 
ATOM     29  H   LIG d   1       5.385  -3.040  -3.637  0.00  0.00     0.031 H 
ATOM     30  H   LIG d   1       5.724  -2.663  -1.937  0.00  0.00     0.031 H 
ATOM     31  H   LIG d   1       1.749  -0.875  -5.015  0.00  0.00     0.059 H 
ATOM     32  H   LIG d   1       1.205   0.747  -4.322  0.00  0.00     0.059 H 
ENDROOT
BRANCH  17  33
ATOM     33  C   LIG d   1       6.061  -2.277  -6.651  0.00  0.00    -0.020 C 
ATOM     34  H   LIG d   1       5.225  -1.651  -6.340  0.00  0.00     0.082 H 
ATOM     35  H   LIG d   1       5.765  -3.325  -6.609  0.00  0.00     0.082 H 
BRANCH  33  36
ATOM     36  N   LIG d   1       6.455  -1.929  -8.029  0.00  0.00     0.231 N 
ATOM     37  H   LIG d   1       6.298  -2.739  -8.641  0.00  0.00     0.202 HD
ATOM     38  H   LIG d   1       7.450  -1.676  -8.044  0.00  0.00     0.202 HD
BRANCH  36  39
ATOM     39  C   LIG d   1       5.657  -0.789  -8.518  0.00  0.00    -0.006 C 
ATOM     40  H   LIG d   1       5.221  -1.034  -9.486  0.00  0.00     0.087 H 
ATOM     41  H   LIG d   1       4.861  -0.567  -7.807  0.00  0.00     0.087 H 
BRANCH  39  42
ATOM     42  C   LIG d   1       6.551   0.416  -8.660  0.00  0.00     0.015 A 
ATOM     43  C   LIG d   1       6.024   1.638  -9.032  0.00  0.00     0.036 A 
ATOM     44  N   LIG d   1       6.800   2.697  -9.158  0.00  0.00    -0.263 NA
ATOM     45  H   LIG d   1       4.964   1.727  -9.220  0.00  0.00     0.083 H 
ATOM     46  C   LIG d   1       8.098   2.635  -8.939  0.00  0.00     0.028 A 
ATOM     47  C   LIG d   1       8.696   1.446  -8.564  0.00  0.00    -0.043 A 
ATOM     48  H   LIG d   1       8.702   3.523  -9.052  0.00  0.00     0.083 H 
ATOM     49  C   LIG d   1       7.912   0.314  -8.416  0.00  0.00    -0.051 A 
ATOM     50  H   LIG d   1       9.761   1.403  -8.385  0.00  0.00     0.063 H 
ATOM     51  H   LIG d   1       8.351  -0.628  -8.120  0.00  0.00     0.062 H 
ENDBRANCH  39  42
ENDBRANCH  36  39
ENDBRANCH  33  36
ENDBRANCH  17  33
BRANCH   1  52
ATOM     52  C   LIG d   1       3.284  -1.785  -2.525  0.00  0.00    -0.059 C 
ATOM     53  H   LIG d   1       3.178  -2.771  -2.978  0.00  0.00     0.024 H 
ATOM     54  H   LIG d   1       3.275  -1.881  -1.440  0.00  0.00     0.024 H 
ATOM     55  H   LIG d   1       2.457  -1.150  -2.840  0.00  0.00     0.024 H 
ENDBRANCH   1  52
TORSDOF 5
ENDMDL
MODEL 6
REMARK VINA RESULT:      -6.6      3.424      6.429
REMARK  5 active torsions:
REMARK  status: ('A' for Active; 'I' for Inactive)
REMARK    1  A    between atoms: C_1  and  C_2 
REMARK    2  A    between atoms: C_18  and  C_20 
REMARK    3  A    between atoms: C_20  and  N_53 
REMARK    4  A    between atoms: C_21  and  C_22 
REMARK    5  A    between atoms: C_21  and  N_53 
ROOT
ATOM      1  C   LIG d   1       3.170  -1.147 -11.601  0.00  0.00    -0.023 C 
ATOM      2  C   LIG d   1       4.295  -1.679 -12.481  0.00  0.00    -0.047 C 
ATOM      3  C   LIG d   1       4.075  -3.147 -12.835  0.00  0.00    -0.050 C 
ATOM      4  C   LIG d   1       3.990  -3.999 -11.568  0.00  0.00    -0.021 C 
ATOM      5  C   LIG d   1       2.940  -3.422 -10.620  0.00  0.00     0.096 A 
ATOM      6  C   LIG d   1       3.105  -1.930 -10.286  0.00  0.00    -0.004 C 
ATOM      7  H   LIG d   1       2.255  -1.595  -9.691  0.00  0.00     0.034 H 
ATOM      8  C   LIG d   1       4.418  -1.761  -9.528  0.00  0.00    -0.040 C 
ATOM      9  C   LIG d   1       4.887  -0.351  -9.348  0.00  0.00     0.014 C 
ATOM     10  H   LIG d   1       5.980  -0.409  -9.138  0.00  0.00     0.035 H 
ATOM     11  C   LIG d   1       4.726   0.557 -10.579  0.00  0.00     0.107 C 
ATOM     12  H   LIG d   1       5.571   0.464 -11.271  0.00  0.00     0.074 H 
ATOM     13  C   LIG d   1       3.389   0.328 -11.278  0.00  0.00    -0.010 C 
ATOM     14  O   LIG d   1       4.652   1.904  -9.976  0.00  0.00    -0.461 OA
ATOM     15  C   LIG d   1       3.915   1.789  -8.851  0.00  0.00     0.316 C 
ATOM     16  O   LIG d   1       3.125   2.595  -8.429  0.00  0.00    -0.250 OA
ATOM     17  C   LIG d   1       4.263   0.455  -8.208  0.00  0.00     0.102 C 
ATOM     18  H   LIG d   1       5.008   0.620  -7.415  0.00  0.00     0.047 H 
ATOM     19  C   LIG d   1       1.539  -4.017 -10.622  0.00  0.00     0.078 A 
ATOM     20  O   LIG d   1       2.470  -4.269  -9.568  0.00  0.00    -0.368 OA
ATOM     21  H   LIG d   1       4.337  -1.090 -13.403  0.00  0.00     0.027 H 
ATOM     22  H   LIG d   1       5.249  -1.571 -11.961  0.00  0.00     0.027 H 
ATOM     23  H   LIG d   1       3.172  -3.271 -13.428  0.00  0.00     0.027 H 
ATOM     24  H   LIG d   1       4.925  -3.496 -13.435  0.00  0.00     0.027 H 
ATOM     25  H   LIG d   1       3.709  -5.020 -11.837  0.00  0.00     0.029 H 
ATOM     26  H   LIG d   1       4.961  -4.018 -11.073  0.00  0.00     0.029 H 
ATOM     27  H   LIG d   1       5.199  -2.307 -10.081  0.00  0.00     0.027 H 
ATOM     28  H   LIG d   1       4.339  -2.255  -8.556  0.00  0.00     0.027 H 
ATOM     29  H   LIG d   1       2.578   0.670 -10.637  0.00  0.00     0.031 H 
ATOM     30  H   LIG d   1       3.369   0.896 -12.209  0.00  0.00     0.031 H 
ATOM     31  H   LIG d   1       0.698  -3.357 -10.405  0.00  0.00     0.059 H 
ATOM     32  H   LIG d   1       1.329  -4.830 -11.319  0.00  0.00     0.059 H 
ENDROOT
BRANCH  17  33
ATOM     33  C   LIG d   1       3.020  -0.193  -7.606  0.00  0.00    -0.020 C 
ATOM     34  H   LIG d   1       2.734  -1.056  -8.207  0.00  0.00     0.082 H 
ATOM     35  H   LIG d   1       2.204   0.529  -7.593  0.00  0.00     0.082 H 
BRANCH  33  36
ATOM     36  N   LIG d   1       3.320  -0.627  -6.229  0.00  0.00     0.231 N 
ATOM     37  H   LIG d   1       4.336  -0.589  -6.076  0.00  0.00     0.202 HD
ATOM     38  H   LIG d   1       2.990  -1.590  -6.097  0.00  0.00     0.202 HD
BRANCH  36  39
ATOM     39  C   LIG d   1       2.649   0.256  -5.256  0.00  0.00    -0.006 C 
ATOM     40  H   LIG d   1       2.739   1.293  -5.579  0.00  0.00     0.087 H 
ATOM     41  H   LIG d   1       1.596  -0.013  -5.184  0.00  0.00     0.087 H 
BRANCH  39  42
ATOM     42  C   LIG d   1       3.302   0.091  -3.908  0.00  0.00     0.015 A 
ATOM     43  C   LIG d   1       3.639   1.200  -3.155  0.00  0.00     0.036 A 
ATOM     44  N   LIG d   1       4.210   1.065  -1.973  0.00  0.00    -0.263 NA
ATOM     45  H   LIG d   1       3.432   2.189  -3.537  0.00  0.00     0.083 H 
ATOM     46  C   LIG d   1       4.482  -0.121  -1.466  0.00  0.00     0.028 A 
ATOM     47  C   LIG d   1       4.174  -1.275  -2.163  0.00  0.00    -0.043 A 
ATOM     48  H   LIG d   1       4.950  -0.192  -0.496  0.00  0.00     0.083 H 
ATOM     49  C   LIG d   1       3.568  -1.173  -3.405  0.00  0.00    -0.051 A 
ATOM     50  H   LIG d   1       4.399  -2.244  -1.741  0.00  0.00     0.063 H 
ATOM     51  H   LIG d   1       3.312  -2.057  -3.970  0.00  0.00     0.062 H 
ENDBRANCH  39  42
ENDBRANCH  36  39
ENDBRANCH  33  36
ENDBRANCH  17  33
BRANCH   1  52
ATOM     52  C   LIG d   1       1.833  -1.271 -12.340  0.00  0.00    -0.059 C 
ATOM     53  H   LIG d   1       1.334  -0.303 -12.351  0.00  0.00     0.024 H 
ATOM     54  H   LIG d   1       2.013  -1.600 -13.363  0.00  0.00     0.024 H 
ATOM     55  H   LIG d   1       1.203  -1.999 -11.830  0.00  0.00     0.024 H 
ENDBRANCH   1  52
TORSDOF 5
ENDMDL
MODEL 7
REMARK VINA RESULT:      -6.5      2.588      5.799
REMARK  5 active torsions:
REMARK  status: ('A' for Active; 'I' for Inactive)
REMARK    1  A    between atoms: C_1  and  C_2 
REMARK    2  A    between atoms: C_18  and  C_20 
REMARK    3  A    between atoms: C_20  and  N_53 
REMARK    4  A    between atoms: C_21  and  C_22 
REMARK    5  A    between atoms: C_21  and  N_53 
ROOT
ATOM      1  C   LIG d   1       4.042   0.419  -9.553  0.00  0.00    -0.023 C 
ATOM      2  C   LIG d   1       4.528   0.624 -10.982  0.00  0.00    -0.047 C 
ATOM      3  C   LIG d   1       3.613  -0.074 -11.985  0.00  0.00    -0.050 C 
ATOM      4  C   LIG d   1       3.542  -1.573 -11.695  0.00  0.00    -0.021 C 
ATOM      5  C   LIG d   1       3.159  -1.805 -10.234  0.00  0.00     0.096 A 
ATOM      6  C   LIG d   1       4.030  -1.072  -9.202  0.00  0.00    -0.004 C 
ATOM      7  H   LIG d   1       3.613  -1.220  -8.204  0.00  0.00     0.034 H 
ATOM      8  C   LIG d   1       5.447  -1.629  -9.303  0.00  0.00    -0.040 C 
ATOM      9  C   LIG d   1       6.500  -0.862  -8.567  0.00  0.00     0.014 C 
ATOM     10  H   LIG d   1       7.475  -1.146  -9.029  0.00  0.00     0.035 H 
ATOM     11  C   LIG d   1       6.395   0.668  -8.677  0.00  0.00     0.107 C 
ATOM     12  H   LIG d   1       6.882   1.050  -9.582  0.00  0.00     0.074 H 
ATOM     13  C   LIG d   1       4.950   1.144  -8.564  0.00  0.00    -0.010 C 
ATOM     14  O   LIG d   1       7.078   1.126  -7.449  0.00  0.00    -0.461 OA
ATOM     15  C   LIG d   1       6.719   0.275  -6.463  0.00  0.00     0.316 C 
ATOM     16  O   LIG d   1       6.505   0.565  -5.313  0.00  0.00    -0.250 OA
ATOM     17  C   LIG d   1       6.634  -1.119  -7.066  0.00  0.00     0.102 C 
ATOM     18  H   LIG d   1       7.572  -1.657  -6.861  0.00  0.00     0.047 H 
ATOM     19  C   LIG d   1       1.701  -2.084  -9.891  0.00  0.00     0.078 A 
ATOM     20  O   LIG d   1       2.696  -3.111  -9.876  0.00  0.00    -0.368 OA
ATOM     21  H   LIG d   1       4.551   1.697 -11.203  0.00  0.00     0.027 H 
ATOM     22  H   LIG d   1       5.543   0.232 -11.084  0.00  0.00     0.027 H 
ATOM     23  H   LIG d   1       2.615   0.358 -11.964  0.00  0.00     0.027 H 
ATOM     24  H   LIG d   1       4.022   0.069 -12.993  0.00  0.00     0.027 H 
ATOM     25  H   LIG d   1       2.790  -2.031 -12.342  0.00  0.00     0.029 H 
ATOM     26  H   LIG d   1       4.509  -2.032 -11.898  0.00  0.00     0.029 H 
ATOM     27  H   LIG d   1       5.726  -1.647 -10.368  0.00  0.00     0.027 H 
ATOM     28  H   LIG d   1       5.447  -2.672  -8.976  0.00  0.00     0.027 H 
ATOM     29  H   LIG d   1       4.583   0.964  -7.555  0.00  0.00     0.031 H 
ATOM     30  H   LIG d   1       4.907   2.214  -8.771  0.00  0.00     0.031 H 
ATOM     31  H   LIG d   1       1.323  -1.736  -8.929  0.00  0.00     0.059 H 
ATOM     32  H   LIG d   1       0.976  -2.093 -10.705  0.00  0.00     0.059 H 
ENDROOT
BRANCH  17  33
ATOM     33  C   LIG d   1       5.465  -1.894  -6.468  0.00  0.00    -0.020 C 
ATOM     34  H   LIG d   1       5.332  -2.827  -7.014  0.00  0.00     0.082 H 
ATOM     35  H   LIG d   1       4.557  -1.296  -6.542  0.00  0.00     0.082 H 
BRANCH  33  36
ATOM     36  N   LIG d   1       5.753  -2.185  -5.052  0.00  0.00     0.231 N 
ATOM     37  H   LIG d   1       6.325  -1.428  -4.659  0.00  0.00     0.202 HD
ATOM     38  H   LIG d   1       6.266  -3.072  -4.985  0.00  0.00     0.202 HD
BRANCH  36  39
ATOM     39  C   LIG d   1       4.497  -2.292  -4.285  0.00  0.00    -0.006 C 
ATOM     40  H   LIG d   1       3.674  -2.524  -4.960  0.00  0.00     0.087 H 
ATOM     41  H   LIG d   1       4.589  -3.081  -3.540  0.00  0.00     0.087 H 
BRANCH  39  42
ATOM     42  C   LIG d   1       4.226  -0.980  -3.596  0.00  0.00     0.015 A 
ATOM     43  C   LIG d   1       3.463  -0.009  -4.216  0.00  0.00     0.036 A 
ATOM     44  N   LIG d   1       3.220   1.142  -3.619  0.00  0.00    -0.263 NA
ATOM     45  H   LIG d   1       3.060  -0.194  -5.201  0.00  0.00     0.083 H 
ATOM     46  C   LIG d   1       3.691   1.412  -2.418  0.00  0.00     0.028 A 
ATOM     47  C   LIG d   1       4.462   0.489  -1.736  0.00  0.00    -0.043 A 
ATOM     48  H   LIG d   1       3.471   2.366  -1.960  0.00  0.00     0.083 H 
ATOM     49  C   LIG d   1       4.733  -0.733  -2.329  0.00  0.00    -0.051 A 
ATOM     50  H   LIG d   1       4.844   0.717  -0.752  0.00  0.00     0.063 H 
ATOM     51  H   LIG d   1       5.329  -1.476  -1.819  0.00  0.00     0.062 H 
ENDBRANCH  39  42
ENDBRANCH  36  39
ENDBRANCH  33  36
ENDBRANCH  17  33
BRANCH   1  52
ATOM     52  C   LIG d   1       2.629   0.994  -9.401  0.00  0.00    -0.059 C 
ATOM     53  H   LIG d   1       1.897   0.200  -9.548  0.00  0.00     0.024 H 
ATOM     54  H   LIG d   1       2.514   1.414  -8.402  0.00  0.00     0.024 H 
ATOM     55  H   LIG d   1       2.473   1.775 -10.144  0.00  0.00     0.024 H 
ENDBRANCH   1  52
TORSDOF 5
ENDMDL
MODEL 8
REMARK VINA RESULT:      -6.5      2.003      4.312
REMARK  5 active torsions:
REMARK  status: ('A' for Active; 'I' for Inactive)
REMARK    1  A    between atoms: C_1  and  C_2 
REMARK    2  A    between atoms: C_18  and  C_20 
REMARK    3  A    between atoms: C_20  and  N_53 
REMARK    4  A    between atoms: C_21  and  C_22 
REMARK    5  A    between atoms: C_21  and  N_53 
ROOT
ATOM      1  C   LIG d   1       5.411  -1.793  -3.953  0.00  0.00    -0.023 C 
ATOM      2  C   LIG d   1       5.590  -1.703  -2.443  0.00  0.00    -0.047 C 
ATOM      3  C   LIG d   1       4.340  -1.146  -1.768  0.00  0.00    -0.050 C 
ATOM      4  C   LIG d   1       4.008   0.244  -2.313  0.00  0.00    -0.021 C 
ATOM      5  C   LIG d   1       3.927   0.202  -3.838  0.00  0.00     0.096 A 
ATOM      6  C   LIG d   1       5.151  -0.403  -4.544  0.00  0.00    -0.004 C 
ATOM      7  H   LIG d   1       4.952  -0.481  -5.614  0.00  0.00     0.034 H 
ATOM      8  C   LIG d   1       6.349   0.500  -4.265  0.00  0.00    -0.040 C 
ATOM      9  C   LIG d   1       7.685  -0.058  -4.643  0.00  0.00     0.014 C 
ATOM     10  H   LIG d   1       8.441   0.513  -4.054  0.00  0.00     0.035 H 
ATOM     11  C   LIG d   1       7.897  -1.543  -4.302  0.00  0.00     0.107 C 
ATOM     12  H   LIG d   1       8.236  -1.682  -3.268  0.00  0.00     0.074 H 
ATOM     13  C   LIG d   1       6.657  -2.376  -4.612  0.00  0.00    -0.010 C 
ATOM     14  O   LIG d   1       8.926  -1.953  -5.280  0.00  0.00    -0.461 OA
ATOM     15  C   LIG d   1       8.624  -1.340  -6.445  0.00  0.00     0.316 C 
ATOM     16  O   LIG d   1       8.747  -1.805  -7.549  0.00  0.00    -0.250 OA
ATOM     17  C   LIG d   1       8.099   0.049  -6.111  0.00  0.00     0.102 C 
ATOM     18  H   LIG d   1       8.916   0.778  -6.217  0.00  0.00     0.047 H 
ATOM     19  C   LIG d   1       2.562   0.064  -4.500  0.00  0.00     0.078 A 
ATOM     20  O   LIG d   1       3.283   1.299  -4.492  0.00  0.00    -0.368 OA
ATOM     21  H   LIG d   1       5.797  -2.702  -2.046  0.00  0.00     0.027 H 
ATOM     22  H   LIG d   1       6.442  -1.059  -2.213  0.00  0.00     0.027 H 
ATOM     23  H   LIG d   1       3.493  -1.814  -1.910  0.00  0.00     0.027 H 
ATOM     24  H   LIG d   1       4.528  -1.064  -0.690  0.00  0.00     0.027 H 
ATOM     25  H   LIG d   1       3.046   0.569  -1.910  0.00  0.00     0.029 H 
ATOM     26  H   LIG d   1       4.778   0.951  -2.005  0.00  0.00     0.029 H 
ATOM     27  H   LIG d   1       6.366   0.710  -3.184  0.00  0.00     0.027 H 
ATOM     28  H   LIG d   1       6.194   1.464  -4.755  0.00  0.00     0.027 H 
ATOM     29  H   LIG d   1       6.501  -2.411  -5.689  0.00  0.00     0.031 H 
ATOM     30  H   LIG d   1       6.805  -3.391  -4.241  0.00  0.00     0.031 H 
ATOM     31  H   LIG d   1       2.500  -0.476  -5.445  0.00  0.00     0.059 H 
ATOM     32  H   LIG d   1       1.686  -0.016  -3.855  0.00  0.00     0.059 H 
ENDROOT
BRANCH  17  33
ATOM     33  C   LIG d   1       6.956   0.431  -7.045  0.00  0.00    -0.020 C 
ATOM     34  H   LIG d   1       6.457   1.321  -6.663  0.00  0.00     0.082 H 
ATOM     35  H   LIG d   1       6.242  -0.391  -7.101  0.00  0.00     0.082 H 
BRANCH  33  36
ATOM     36  N   LIG d   1       7.501   0.707  -8.387  0.00  0.00     0.231 N 
ATOM     37  H   LIG d   1       8.380   0.190  -8.509  0.00  0.00     0.202 HD
ATOM     38  H   LIG d   1       7.680   1.713  -8.481  0.00  0.00     0.202 HD
BRANCH  36  39
ATOM     39  C   LIG d   1       6.542   0.285  -9.426  0.00  0.00    -0.006 C 
ATOM     40  H   LIG d   1       6.895   0.612 -10.405  0.00  0.00     0.087 H 
ATOM     41  H   LIG d   1       6.448  -0.800  -9.418  0.00  0.00     0.087 H 
BRANCH  39  42
ATOM     42  C   LIG d   1       5.200   0.908  -9.143  0.00  0.00     0.015 A 
ATOM     43  C   LIG d   1       5.035   2.278  -9.220  0.00  0.00     0.036 A 
ATOM     44  N   LIG d   1       3.863   2.831  -8.973  0.00  0.00    -0.263 NA
ATOM     45  H   LIG d   1       5.875   2.903  -9.484  0.00  0.00     0.083 H 
ATOM     46  C   LIG d   1       2.810   2.109  -8.646  0.00  0.00     0.028 A 
ATOM     47  C   LIG d   1       2.900   0.732  -8.550  0.00  0.00    -0.043 A 
ATOM     48  H   LIG d   1       1.867   2.597  -8.452  0.00  0.00     0.083 H 
ATOM     49  C   LIG d   1       4.114   0.115  -8.807  0.00  0.00    -0.051 A 
ATOM     50  H   LIG d   1       2.033   0.146  -8.282  0.00  0.00     0.063 H 
ATOM     51  H   LIG d   1       4.212  -0.959  -8.744  0.00  0.00     0.062 H 
ENDBRANCH  39  42
ENDBRANCH  36  39
ENDBRANCH  33  36
ENDBRANCH  17  33
BRANCH   1  52
ATOM     52  C   LIG d   1       4.232  -2.718  -4.279  0.00  0.00    -0.059 C 
ATOM     53  H   LIG d   1       3.929  -3.250  -3.378  0.00  0.00     0.024 H 
ATOM     54  H   LIG d   1       3.397  -2.124  -4.650  0.00  0.00     0.024 H 
ATOM     55  H   LIG d   1       4.534  -3.436  -5.041  0.00  0.00     0.024 H 
ENDBRANCH   1  52
TORSDOF 5
ENDMDL
MODEL 9
REMARK VINA RESULT:      -6.4      5.514      8.499
REMARK  5 active torsions:
REMARK  status: ('A' for Active; 'I' for Inactive)
REMARK    1  A    between atoms: C_1  and  C_2 
REMARK    2  A    between atoms: C_18  and  C_20 
REMARK    3  A    between atoms: C_20  and  N_53 
REMARK    4  A    between atoms: C_21  and  C_22 
REMARK    5  A    between atoms: C_21  and  N_53 
ROOT
ATOM      1  C   LIG d   1       4.206   0.118 -10.245  0.00  0.00    -0.023 C 
ATOM      2  C   LIG d   1       3.928   1.570 -10.613  0.00  0.00    -0.047 C 
ATOM      3  C   LIG d   1       3.899   2.461  -9.374  0.00  0.00    -0.050 C 
ATOM      4  C   LIG d   1       2.828   1.983  -8.394  0.00  0.00    -0.021 C 
ATOM      5  C   LIG d   1       3.022   0.498  -8.090  0.00  0.00     0.096 A 
ATOM      6  C   LIG d   1       3.108  -0.418  -9.321  0.00  0.00    -0.004 C 
ATOM      7  H   LIG d   1       3.348  -1.434  -9.002  0.00  0.00     0.034 H 
ATOM      8  C   LIG d   1       1.765  -0.363 -10.043  0.00  0.00    -0.040 C 
ATOM      9  C   LIG d   1       1.735  -0.978 -11.407  0.00  0.00     0.014 C 
ATOM     10  H   LIG d   1       0.853  -0.538 -11.929  0.00  0.00     0.035 H 
ATOM     11  C   LIG d   1       2.959  -0.678 -12.289  0.00  0.00     0.107 C 
ATOM     12  H   LIG d   1       2.859   0.276 -12.819  0.00  0.00     0.074 H 
ATOM     13  C   LIG d   1       4.259  -0.755 -11.495  0.00  0.00    -0.010 C 
ATOM     14  O   LIG d   1       2.973  -1.827 -13.219  0.00  0.00    -0.461 OA
ATOM     15  C   LIG d   1       2.640  -2.918 -12.496  0.00  0.00     0.316 C 
ATOM     16  O   LIG d   1       3.096  -4.026 -12.624  0.00  0.00    -0.250 OA
ATOM     17  C   LIG d   1       1.581  -2.497 -11.488  0.00  0.00     0.102 C 
ATOM     18  H   LIG d   1       0.587  -2.752 -11.883  0.00  0.00     0.047 H 
ATOM     19  C   LIG d   1       3.775   0.097  -6.829  0.00  0.00     0.078 A 
ATOM     20  O   LIG d   1       2.355  -0.029  -6.940  0.00  0.00    -0.368 OA
ATOM     21  H   LIG d   1       4.712   1.924 -11.291  0.00  0.00     0.027 H 
ATOM     22  H   LIG d   1       2.969   1.640 -11.132  0.00  0.00     0.027 H 
ATOM     23  H   LIG d   1       4.871   2.476  -8.886  0.00  0.00     0.027 H 
ATOM     24  H   LIG d   1       3.659   3.486  -9.683  0.00  0.00     0.027 H 
ATOM     25  H   LIG d   1       2.907   2.554  -7.465  0.00  0.00     0.029 H 
ATOM     26  H   LIG d   1       1.839   2.144  -8.824  0.00  0.00     0.029 H 
ATOM     27  H   LIG d   1       1.481   0.696 -10.145  0.00  0.00     0.027 H 
ATOM     28  H   LIG d   1       0.998  -0.819  -9.411  0.00  0.00     0.027 H 
ATOM     29  H   LIG d   1       4.443  -1.786 -11.195  0.00  0.00     0.031 H 
ATOM     30  H   LIG d   1       5.084  -0.416 -12.123  0.00  0.00     0.031 H 
ATOM     31  H   LIG d   1       4.364  -0.820  -6.851  0.00  0.00     0.059 H 
ATOM     32  H   LIG d   1       4.165   0.891  -6.191  0.00  0.00     0.059 H 
ENDROOT
BRANCH  17  33
ATOM     33  C   LIG d   1       1.793  -3.208 -10.156  0.00  0.00    -0.020 C 
ATOM     34  H   LIG d   1       1.449  -2.567  -9.344  0.00  0.00     0.082 H 
ATOM     35  H   LIG d   1       2.853  -3.425 -10.024  0.00  0.00     0.082 H 
BRANCH  33  36
ATOM     36  N   LIG d   1       1.025  -4.467 -10.153  0.00  0.00     0.231 N 
ATOM     37  H   LIG d   1       0.865  -4.763  -9.182  0.00  0.00     0.202 HD
ATOM     38  H   LIG d   1       1.559  -5.191 -10.648  0.00  0.00     0.202 HD
BRANCH  36  39
ATOM     39  C   LIG d   1      -0.275  -4.276 -10.824  0.00  0.00    -0.006 C 
ATOM     40  H   LIG d   1      -0.624  -3.256 -10.664  0.00  0.00     0.087 H 
ATOM     41  H   LIG d   1      -0.165  -4.460 -11.892  0.00  0.00     0.087 H 
BRANCH  39  42
ATOM     42  C   LIG d   1      -1.275  -5.245 -10.247  0.00  0.00     0.015 A 
ATOM     43  C   LIG d   1      -2.619  -4.926 -10.218  0.00  0.00     0.036 A 
ATOM     44  N   LIG d   1      -3.501  -5.770  -9.716  0.00  0.00    -0.263 NA
ATOM     45  H   LIG d   1      -2.952  -3.977 -10.611  0.00  0.00     0.083 H 
ATOM     46  C   LIG d   1      -3.141  -6.939  -9.225  0.00  0.00     0.028 A 
ATOM     47  C   LIG d   1      -1.814  -7.326  -9.221  0.00  0.00    -0.043 A 
ATOM     48  H   LIG d   1      -3.892  -7.603  -8.823  0.00  0.00     0.083 H 
ATOM     49  C   LIG d   1      -0.859  -6.468  -9.745  0.00  0.00    -0.051 A 
ATOM     50  H   LIG d   1      -1.526  -8.285  -8.818  0.00  0.00     0.063 H 
ATOM     51  H   LIG d   1       0.185  -6.746  -9.759  0.00  0.00     0.062 H 
ENDBRANCH  39  42
ENDBRANCH  36  39
ENDBRANCH  33  36
ENDBRANCH  17  33
BRANCH   1  52
ATOM     52  C   LIG d   1       5.564   0.014  -9.542  0.00  0.00    -0.059 C 
ATOM     53  H   LIG d   1       6.081   0.972  -9.609  0.00  0.00     0.024 H 
ATOM     54  H   LIG d   1       5.412  -0.244  -8.495  0.00  0.00     0.024 H 
ATOM     55  H   LIG d   1       6.164  -0.757 -10.024  0.00  0.00     0.024 H 
ENDBRANCH   1  52
TORSDOF 5
ENDMDL
