MODEL 1
REMARK VINA RESULT:      -6.1      0.000      0.000
REMARK  8 active torsions:
REMARK  status: ('A' for Active; 'I' for Inactive)
REMARK    1  A    between atoms: C_1  and  N_48 
REMARK    2  A    between atoms: C_2  and  N_48 
REMARK    3  A    between atoms: C_3  and  C_4 
REMARK    4  A    between atoms: C_3  and  N_48 
REMARK    5  A    between atoms: C_4  and  O_5 
REMARK    6  A    between atoms: O_5  and  C_6 
REMARK    7  A    between atoms: C_6  and  C_7 
REMARK       I    between atoms: C_7  and  N_9 
REMARK    8  A    between atoms: N_9  and  C_10 
ROOT
ATOM      1  C   LIG d   1       5.002  -0.266  -4.410  0.00  0.00     0.035 C 
ATOM      2  C   LIG d   1       5.741   0.470  -3.291  0.00  0.00    -0.029 C 
ATOM      3  C   LIG d   1       4.888   0.456  -2.021  0.00  0.00    -0.039 C 
ATOM      4  C   LIG d   1       4.631  -0.992  -1.597  0.00  0.00    -0.047 C 
ATOM      5  C   LIG d   1       3.891  -1.728  -2.715  0.00  0.00    -0.039 C 
ATOM      6  C   LIG d   1       4.743  -1.713  -3.986  0.00  0.00    -0.029 C 
ATOM      7  C   LIG d   1       2.557  -1.031  -2.989  0.00  0.00    -0.047 C 
ATOM      8  C   LIG d   1       2.814   0.416  -3.414  0.00  0.00    -0.039 C 
ATOM      9  C   LIG d   1       3.553   1.152  -2.294  0.00  0.00    -0.047 C 
ATOM     10  C   LIG d   1       3.667   0.430  -4.684  0.00  0.00    -0.029 C 
ATOM     11  H   LIG d   1       5.925   1.501  -3.594  0.00  0.00     0.029 H 
ATOM     12  H   LIG d   1       6.692  -0.026  -3.096  0.00  0.00     0.029 H 
ATOM     13  H   LIG d   1       5.415   0.979  -1.223  0.00  0.00     0.030 H 
ATOM     14  H   LIG d   1       5.582  -1.488  -1.402  0.00  0.00     0.027 H 
ATOM     15  H   LIG d   1       4.024  -1.002  -0.691  0.00  0.00     0.027 H 
ATOM     16  H   LIG d   1       3.708  -2.759  -2.413  0.00  0.00     0.030 H 
ATOM     17  H   LIG d   1       4.216  -2.238  -4.783  0.00  0.00     0.029 H 
ATOM     18  H   LIG d   1       5.694  -2.210  -3.791  0.00  0.00     0.029 H 
ATOM     19  H   LIG d   1       2.029  -1.555  -3.786  0.00  0.00     0.027 H 
ATOM     20  H   LIG d   1       1.949  -1.042  -2.083  0.00  0.00     0.027 H 
ATOM     21  H   LIG d   1       1.863   0.912  -3.607  0.00  0.00     0.030 H 
ATOM     22  H   LIG d   1       2.947   1.142  -1.389  0.00  0.00     0.027 H 
ATOM     23  H   LIG d   1       3.737   2.183  -2.597  0.00  0.00     0.027 H 
ATOM     24  H   LIG d   1       3.851   1.462  -4.986  0.00  0.00     0.029 H 
ATOM     25  H   LIG d   1       3.140  -0.094  -5.481  0.00  0.00     0.029 H 
ENDROOT
BRANCH   1  26
ATOM     26  N   LIG d   1       5.818  -0.253  -5.627  0.00  0.00    -0.308 N 
ATOM     27  C   LIG d   1       5.316  -0.737  -6.780  0.00  0.00     0.239 C 
ATOM     28  O   LIG d   1       4.189  -1.185  -6.811  0.00  0.00    -0.273 OA
ATOM     29  H   LIG d   1       6.719   0.106  -5.602  0.00  0.00     0.149 HD
BRANCH  27  30
ATOM     30  C   LIG d   1       6.155  -0.723  -8.032  0.00  0.00     0.124 C 
ATOM     31  H   LIG d   1       7.042  -1.339  -7.882  0.00  0.00     0.066 H 
ATOM     32  H   LIG d   1       5.573  -1.119  -8.863  0.00  0.00     0.066 H 
BRANCH  30  33
ATOM     33  O   LIG d   1       6.552   0.618  -8.325  0.00  0.00    -0.365 OA
BRANCH  33  34
ATOM     34  C   LIG d   1       5.988   1.142  -9.528  0.00  0.00     0.088 C 
ATOM     35  H   LIG d   1       6.789   1.460 -10.196  0.00  0.00     0.061 H 
ATOM     36  H   LIG d   1       5.393   0.370 -10.017  0.00  0.00     0.061 H 
BRANCH  34  37
ATOM     37  C   LIG d   1       5.095   2.340  -9.195  0.00  0.00    -0.008 C 
ATOM     38  H   LIG d   1       4.987   2.421  -8.113  0.00  0.00     0.084 H 
ATOM     39  H   LIG d   1       5.550   3.251  -9.585  0.00  0.00     0.084 H 
BRANCH  37  40
ATOM     40  N   LIG d   1       3.778   2.145  -9.836  0.00  0.00     0.233 N 
ATOM     41  H   LIG d   1       3.468   3.036 -10.239  0.00  0.00     0.203 HD
BRANCH  40  42
ATOM     42  C   LIG d   1       3.885   1.141 -10.915  0.00  0.00    -0.043 C 
ATOM     43  H   LIG d   1       3.934   1.629 -11.889  0.00  0.00     0.078 H 
ATOM     44  H   LIG d   1       4.787   0.548 -10.760  0.00  0.00     0.078 H 
ATOM     45  H   LIG d   1       3.012   0.489 -10.880  0.00  0.00     0.078 H 
ENDBRANCH  40  42
BRANCH  40  46
ATOM     46  C   LIG d   1       2.788   1.702  -8.831  0.00  0.00    -0.043 C 
ATOM     47  H   LIG d   1       3.291   1.079  -8.092  0.00  0.00     0.078 H 
ATOM     48  H   LIG d   1       2.365   2.579  -8.341  0.00  0.00     0.078 H 
ATOM     49  H   LIG d   1       1.990   1.131  -9.306  0.00  0.00     0.078 H 
ENDBRANCH  40  46
ENDBRANCH  37  40
ENDBRANCH  34  37
ENDBRANCH  33  34
ENDBRANCH  30  33
ENDBRANCH  27  30
ENDBRANCH   1  26
TORSDOF 8
ENDMDL
MODEL 2
REMARK VINA RESULT:      -6.1      0.185      1.710
REMARK  8 active torsions:
REMARK  status: ('A' for Active; 'I' for Inactive)
REMARK    1  A    between atoms: C_1  and  N_48 
REMARK    2  A    between atoms: C_2  and  N_48 
REMARK    3  A    between atoms: C_3  and  C_4 
REMARK    4  A    between atoms: C_3  and  N_48 
REMARK    5  A    between atoms: C_4  and  O_5 
REMARK    6  A    between atoms: O_5  and  C_6 
REMARK    7  A    between atoms: C_6  and  C_7 
REMARK       I    between atoms: C_7  and  N_9 
REMARK    8  A    between atoms: N_9  and  C_10 
ROOT
ATOM      1  C   LIG d   1       4.957  -0.430  -4.481  0.00  0.00     0.035 C 
ATOM      2  C   LIG d   1       4.602  -1.848  -4.031  0.00  0.00    -0.029 C 
ATOM      3  C   LIG d   1       3.776  -1.784  -2.746  0.00  0.00    -0.039 C 
ATOM      4  C   LIG d   1       2.491  -0.994  -3.004  0.00  0.00    -0.047 C 
ATOM      5  C   LIG d   1       2.846   0.424  -3.454  0.00  0.00    -0.039 C 
ATOM      6  C   LIG d   1       3.672   0.360  -4.740  0.00  0.00    -0.029 C 
ATOM      7  C   LIG d   1       3.659   1.118  -2.359  0.00  0.00    -0.047 C 
ATOM      8  C   LIG d   1       4.944   0.329  -2.101  0.00  0.00    -0.039 C 
ATOM      9  C   LIG d   1       4.588  -1.090  -1.650  0.00  0.00    -0.047 C 
ATOM     10  C   LIG d   1       5.770   0.264  -3.387  0.00  0.00    -0.029 C 
ATOM     11  H   LIG d   1       5.517  -2.411  -3.847  0.00  0.00     0.029 H 
ATOM     12  H   LIG d   1       4.023  -2.343  -4.811  0.00  0.00     0.029 H 
ATOM     13  H   LIG d   1       3.522  -2.794  -2.425  0.00  0.00     0.030 H 
ATOM     14  H   LIG d   1       1.912  -1.489  -3.784  0.00  0.00     0.027 H 
ATOM     15  H   LIG d   1       1.902  -0.949  -2.088  0.00  0.00     0.027 H 
ATOM     16  H   LIG d   1       1.930   0.987  -3.639  0.00  0.00     0.030 H 
ATOM     17  H   LIG d   1       3.925   1.371  -5.060  0.00  0.00     0.029 H 
ATOM     18  H   LIG d   1       3.093  -0.134  -5.520  0.00  0.00     0.029 H 
ATOM     19  H   LIG d   1       3.912   2.129  -2.679  0.00  0.00     0.027 H 
ATOM     20  H   LIG d   1       3.069   1.164  -1.444  0.00  0.00     0.027 H 
ATOM     21  H   LIG d   1       5.522   0.823  -1.320  0.00  0.00     0.030 H 
ATOM     22  H   LIG d   1       4.000  -1.044  -0.735  0.00  0.00     0.027 H 
ATOM     23  H   LIG d   1       5.504  -1.652  -1.466  0.00  0.00     0.027 H 
ATOM     24  H   LIG d   1       6.685  -0.299  -3.202  0.00  0.00     0.029 H 
ATOM     25  H   LIG d   1       6.023   1.275  -3.706  0.00  0.00     0.029 H 
ENDROOT
BRANCH   1  26
ATOM     26  N   LIG d   1       5.749  -0.491  -5.713  0.00  0.00    -0.308 N 
ATOM     27  C   LIG d   1       5.171  -0.878  -6.867  0.00  0.00     0.239 C 
ATOM     28  O   LIG d   1       3.996  -1.177  -6.887  0.00  0.00    -0.273 OA
ATOM     29  H   LIG d   1       6.689  -0.252  -5.696  0.00  0.00     0.149 HD
BRANCH  27  30
ATOM     30  C   LIG d   1       5.986  -0.940  -8.133  0.00  0.00     0.124 C 
ATOM     31  H   LIG d   1       6.782  -1.675  -8.018  0.00  0.00     0.066 H 
ATOM     32  H   LIG d   1       5.342  -1.229  -8.964  0.00  0.00     0.066 H 
BRANCH  30  33
ATOM     33  O   LIG d   1       6.557   0.342  -8.397  0.00  0.00    -0.365 OA
BRANCH  33  34
ATOM     34  C   LIG d   1       6.035   0.984  -9.562  0.00  0.00     0.088 C 
ATOM     35  H   LIG d   1       6.858   1.266 -10.220  0.00  0.00     0.061 H 
ATOM     36  H   LIG d   1       5.370   0.297 -10.088  0.00  0.00     0.061 H 
BRANCH  34  37
ATOM     37  C   LIG d   1       5.256   2.235  -9.152  0.00  0.00    -0.008 C 
ATOM     38  H   LIG d   1       5.178   2.273  -8.065  0.00  0.00     0.084 H 
ATOM     39  H   LIG d   1       5.779   3.122  -9.510  0.00  0.00     0.084 H 
BRANCH  37  40
ATOM     40  N   LIG d   1       3.914   2.184  -9.768  0.00  0.00     0.233 N 
ATOM     41  H   LIG d   1       3.691   3.105 -10.161  0.00  0.00     0.203 HD
BRANCH  40  42
ATOM     42  C   LIG d   1       3.895   1.181 -10.854  0.00  0.00    -0.043 C 
ATOM     43  H   LIG d   1       2.884   0.806 -11.010  0.00  0.00     0.078 H 
ATOM     44  H   LIG d   1       4.256   1.645 -11.771  0.00  0.00     0.078 H 
ATOM     45  H   LIG d   1       4.551   0.354 -10.582  0.00  0.00     0.078 H 
ENDBRANCH  40  42
BRANCH  40  46
ATOM     46  C   LIG d   1       2.902   1.841  -8.746  0.00  0.00    -0.043 C 
ATOM     47  H   LIG d   1       3.391   1.309  -7.930  0.00  0.00     0.078 H 
ATOM     48  H   LIG d   1       2.457   2.760  -8.367  0.00  0.00     0.078 H 
ATOM     49  H   LIG d   1       2.124   1.210  -9.175  0.00  0.00     0.078 H 
ENDBRANCH  40  46
ENDBRANCH  37  40
ENDBRANCH  34  37
ENDBRANCH  33  34
ENDBRANCH  30  33
ENDBRANCH  27  30
ENDBRANCH   1  26
TORSDOF 8
ENDMDL
MODEL 3
REMARK VINA RESULT:      -6.1      0.176      1.667
REMARK  8 active torsions:
REMARK  status: ('A' for Active; 'I' for Inactive)
REMARK    1  A    between atoms: C_1  and  N_48 
REMARK    2  A    between atoms: C_2  and  N_48 
REMARK    3  A    between atoms: C_3  and  C_4 
REMARK    4  A    between atoms: C_3  and  N_48 
REMARK    5  A    between atoms: C_4  and  O_5 
REMARK    6  A    between atoms: O_5  and  C_6 
REMARK    7  A    between atoms: C_6  and  C_7 
REMARK       I    between atoms: C_7  and  N_9 
REMARK    8  A    between atoms: N_9  and  C_10 
ROOT
ATOM      1  C   LIG d   1       4.976  -0.414  -4.463  0.00  0.00     0.035 C 
ATOM      2  C   LIG d   1       3.679   0.351  -4.738  0.00  0.00    -0.029 C 
ATOM      3  C   LIG d   1       2.839   0.407  -3.461  0.00  0.00    -0.039 C 
ATOM      4  C   LIG d   1       3.630   1.121  -2.362  0.00  0.00    -0.047 C 
ATOM      5  C   LIG d   1       4.926   0.356  -2.087  0.00  0.00    -0.039 C 
ATOM      6  C   LIG d   1       5.766   0.299  -3.363  0.00  0.00    -0.029 C 
ATOM      7  C   LIG d   1       4.591  -1.066  -1.633  0.00  0.00    -0.047 C 
ATOM      8  C   LIG d   1       3.802  -1.780  -2.731  0.00  0.00    -0.039 C 
ATOM      9  C   LIG d   1       2.505  -1.015  -3.006  0.00  0.00    -0.047 C 
ATOM     10  C   LIG d   1       4.642  -1.836  -4.008  0.00  0.00    -0.029 C 
ATOM     11  H   LIG d   1       3.117  -0.157  -5.521  0.00  0.00     0.029 H 
ATOM     12  H   LIG d   1       3.917   1.364  -5.062  0.00  0.00     0.029 H 
ATOM     13  H   LIG d   1       1.916   0.953  -3.657  0.00  0.00     0.030 H 
ATOM     14  H   LIG d   1       3.868   2.135  -2.686  0.00  0.00     0.027 H 
ATOM     15  H   LIG d   1       3.031   1.162  -1.452  0.00  0.00     0.027 H 
ATOM     16  H   LIG d   1       5.488   0.865  -1.304  0.00  0.00     0.030 H 
ATOM     17  H   LIG d   1       6.689  -0.245  -3.167  0.00  0.00     0.029 H 
ATOM     18  H   LIG d   1       6.004   1.313  -3.687  0.00  0.00     0.029 H 
ATOM     19  H   LIG d   1       5.514  -1.612  -1.436  0.00  0.00     0.027 H 
ATOM     20  H   LIG d   1       3.993  -1.025  -0.722  0.00  0.00     0.027 H 
ATOM     21  H   LIG d   1       3.563  -2.793  -2.407  0.00  0.00     0.030 H 
ATOM     22  H   LIG d   1       1.907  -0.975  -2.097  0.00  0.00     0.027 H 
ATOM     23  H   LIG d   1       1.943  -1.524  -3.790  0.00  0.00     0.027 H 
ATOM     24  H   LIG d   1       4.078  -2.345  -4.792  0.00  0.00     0.029 H 
ATOM     25  H   LIG d   1       5.564  -2.382  -3.812  0.00  0.00     0.029 H 
ENDROOT
BRANCH   1  26
ATOM     26  N   LIG d   1       5.781  -0.468  -5.686  0.00  0.00    -0.308 N 
ATOM     27  C   LIG d   1       5.227  -0.890  -6.839  0.00  0.00     0.239 C 
ATOM     28  O   LIG d   1       4.061  -1.225  -6.866  0.00  0.00    -0.273 OA
ATOM     29  H   LIG d   1       6.713  -0.200  -5.664  0.00  0.00     0.149 HD
BRANCH  27  30
ATOM     30  C   LIG d   1       6.055  -0.946  -8.097  0.00  0.00     0.124 C 
ATOM     31  H   LIG d   1       6.878  -1.648  -7.960  0.00  0.00     0.066 H 
ATOM     32  H   LIG d   1       5.431  -1.276  -8.928  0.00  0.00     0.066 H 
BRANCH  30  33
ATOM     33  O   LIG d   1       6.579   0.352  -8.381  0.00  0.00    -0.365 OA
BRANCH  33  34
ATOM     34  C   LIG d   1       6.031   0.958  -9.553  0.00  0.00     0.088 C 
ATOM     35  H   LIG d   1       6.835   1.190 -10.252  0.00  0.00     0.061 H 
ATOM     36  H   LIG d   1       5.329   0.268 -10.024  0.00  0.00     0.061 H 
BRANCH  34  37
ATOM     37  C   LIG d   1       5.300   2.246  -9.169  0.00  0.00    -0.008 C 
ATOM     38  H   LIG d   1       5.277   2.339  -8.083  0.00  0.00     0.084 H 
ATOM     39  H   LIG d   1       5.823   3.101  -9.596  0.00  0.00     0.084 H 
BRANCH  37  40
ATOM     40  N   LIG d   1       3.928   2.197  -9.716  0.00  0.00     0.233 N 
ATOM     41  H   LIG d   1       3.677   3.126 -10.072  0.00  0.00     0.203 HD
BRANCH  40  42
ATOM     42  C   LIG d   1       3.861   1.222 -10.825  0.00  0.00    -0.043 C 
ATOM     43  H   LIG d   1       3.194   1.579 -11.609  0.00  0.00     0.078 H 
ATOM     44  H   LIG d   1       4.862   1.083 -11.235  0.00  0.00     0.078 H 
ATOM     45  H   LIG d   1       3.491   0.272 -10.438  0.00  0.00     0.078 H 
ENDBRANCH  40  42
BRANCH  40  46
ATOM     46  C   LIG d   1       2.974   1.817  -8.652  0.00  0.00    -0.043 C 
ATOM     47  H   LIG d   1       2.061   2.400  -8.773  0.00  0.00     0.078 H 
ATOM     48  H   LIG d   1       2.744   0.756  -8.746  0.00  0.00     0.078 H 
ATOM     49  H   LIG d   1       3.401   2.011  -7.668  0.00  0.00     0.078 H 
ENDBRANCH  40  46
ENDBRANCH  37  40
ENDBRANCH  34  37
ENDBRANCH  33  34
ENDBRANCH  30  33
ENDBRANCH  27  30
ENDBRANCH   1  26
TORSDOF 8
ENDMDL
MODEL 4
REMARK VINA RESULT:      -6.1      1.731      2.419
REMARK  8 active torsions:
REMARK  status: ('A' for Active; 'I' for Inactive)
REMARK    1  A    between atoms: C_1  and  N_48 
REMARK    2  A    between atoms: C_2  and  N_48 
REMARK    3  A    between atoms: C_3  and  C_4 
REMARK    4  A    between atoms: C_3  and  N_48 
REMARK    5  A    between atoms: C_4  and  O_5 
REMARK    6  A    between atoms: O_5  and  C_6 
REMARK    7  A    between atoms: C_6  and  C_7 
REMARK       I    between atoms: C_7  and  N_9 
REMARK    8  A    between atoms: N_9  and  C_10 
ROOT
ATOM      1  C   LIG d   1       4.079  -0.957  -4.920  0.00  0.00     0.035 C 
ATOM      2  C   LIG d   1       5.306  -0.047  -4.828  0.00  0.00    -0.029 C 
ATOM      3  C   LIG d   1       5.835  -0.048  -3.392  0.00  0.00    -0.039 C 
ATOM      4  C   LIG d   1       6.224  -1.474  -2.994  0.00  0.00    -0.047 C 
ATOM      5  C   LIG d   1       4.997  -2.383  -3.085  0.00  0.00    -0.039 C 
ATOM      6  C   LIG d   1       4.468  -2.382  -4.520  0.00  0.00    -0.029 C 
ATOM      7  C   LIG d   1       3.910  -1.867  -2.141  0.00  0.00    -0.047 C 
ATOM      8  C   LIG d   1       3.520  -0.443  -2.539  0.00  0.00    -0.039 C 
ATOM      9  C   LIG d   1       4.747   0.466  -2.447  0.00  0.00    -0.047 C 
ATOM     10  C   LIG d   1       2.991  -0.442  -3.975  0.00  0.00    -0.029 C 
ATOM     11  H   LIG d   1       5.029   0.968  -5.112  0.00  0.00     0.029 H 
ATOM     12  H   LIG d   1       6.081  -0.414  -5.501  0.00  0.00     0.029 H 
ATOM     13  H   LIG d   1       6.710   0.598  -3.327  0.00  0.00     0.030 H 
ATOM     14  H   LIG d   1       7.000  -1.840  -3.667  0.00  0.00     0.027 H 
ATOM     15  H   LIG d   1       6.602  -1.474  -1.971  0.00  0.00     0.027 H 
ATOM     16  H   LIG d   1       5.275  -3.398  -2.801  0.00  0.00     0.030 H 
ATOM     17  H   LIG d   1       3.594  -3.030  -4.586  0.00  0.00     0.029 H 
ATOM     18  H   LIG d   1       5.243  -2.748  -5.193  0.00  0.00     0.029 H 
ATOM     19  H   LIG d   1       3.035  -2.515  -2.206  0.00  0.00     0.027 H 
ATOM     20  H   LIG d   1       4.287  -1.869  -1.118  0.00  0.00     0.027 H 
ATOM     21  H   LIG d   1       2.745  -0.076  -1.866  0.00  0.00     0.030 H 
ATOM     22  H   LIG d   1       5.124   0.465  -1.425  0.00  0.00     0.027 H 
ATOM     23  H   LIG d   1       4.470   1.481  -2.732  0.00  0.00     0.027 H 
ATOM     24  H   LIG d   1       2.714   0.574  -4.259  0.00  0.00     0.029 H 
ATOM     25  H   LIG d   1       2.117  -1.089  -4.040  0.00  0.00     0.029 H 
ENDROOT
BRANCH   1  26
ATOM     26  N   LIG d   1       3.572  -0.956  -6.295  0.00  0.00    -0.308 N 
ATOM     27  C   LIG d   1       3.036   0.165  -6.815  0.00  0.00     0.239 C 
ATOM     28  O   LIG d   1       2.972   1.175  -6.145  0.00  0.00    -0.273 OA
ATOM     29  H   LIG d   1       3.623  -1.764  -6.830  0.00  0.00     0.149 HD
BRANCH  27  30
ATOM     30  C   LIG d   1       2.514   0.166  -8.229  0.00  0.00     0.124 C 
ATOM     31  H   LIG d   1       2.901  -0.705  -8.759  0.00  0.00     0.066 H 
ATOM     32  H   LIG d   1       1.425   0.128  -8.214  0.00  0.00     0.066 H 
BRANCH  30  33
ATOM     33  O   LIG d   1       2.941   1.356  -8.894  0.00  0.00    -0.365 OA
BRANCH  33  34
ATOM     34  C   LIG d   1       4.120   1.190  -9.684  0.00  0.00     0.088 C 
ATOM     35  H   LIG d   1       4.451   0.152  -9.628  0.00  0.00     0.061 H 
ATOM     36  H   LIG d   1       3.901   1.444 -10.722  0.00  0.00     0.061 H 
BRANCH  34  37
ATOM     37  C   LIG d   1       5.224   2.107  -9.155  0.00  0.00    -0.008 C 
ATOM     38  H   LIG d   1       5.789   2.517  -9.993  0.00  0.00     0.084 H 
ATOM     39  H   LIG d   1       4.776   2.922  -8.586  0.00  0.00     0.084 H 
BRANCH  37  40
ATOM     40  N   LIG d   1       6.108   1.325  -8.265  0.00  0.00     0.233 N 
ATOM     41  H   LIG d   1       5.713   1.326  -7.318  0.00  0.00     0.203 HD
BRANCH  40  42
ATOM     42  C   LIG d   1       6.201  -0.069  -8.746  0.00  0.00    -0.043 C 
ATOM     43  H   LIG d   1       6.711  -0.694  -8.012  0.00  0.00     0.078 H 
ATOM     44  H   LIG d   1       5.195  -0.455  -8.914  0.00  0.00     0.078 H 
ATOM     45  H   LIG d   1       6.757  -0.083  -9.683  0.00  0.00     0.078 H 
ENDBRANCH  40  42
BRANCH  40  46
ATOM     46  C   LIG d   1       7.453   1.937  -8.225  0.00  0.00    -0.043 C 
ATOM     47  H   LIG d   1       7.382   2.968  -8.569  0.00  0.00     0.078 H 
ATOM     48  H   LIG d   1       7.819   1.919  -7.199  0.00  0.00     0.078 H 
ATOM     49  H   LIG d   1       8.142   1.387  -8.867  0.00  0.00     0.078 H 
ENDBRANCH  40  46
ENDBRANCH  37  40
ENDBRANCH  34  37
ENDBRANCH  33  34
ENDBRANCH  30  33
ENDBRANCH  27  30
ENDBRANCH   1  26
TORSDOF 8
ENDMDL
MODEL 5
REMARK VINA RESULT:      -6.1      1.710      2.701
REMARK  8 active torsions:
REMARK  status: ('A' for Active; 'I' for Inactive)
REMARK    1  A    between atoms: C_1  and  N_48 
REMARK    2  A    between atoms: C_2  and  N_48 
REMARK    3  A    between atoms: C_3  and  C_4 
REMARK    4  A    between atoms: C_3  and  N_48 
REMARK    5  A    between atoms: C_4  and  O_5 
REMARK    6  A    between atoms: O_5  and  C_6 
REMARK    7  A    between atoms: C_6  and  C_7 
REMARK       I    between atoms: C_7  and  N_9 
REMARK    8  A    between atoms: N_9  and  C_10 
ROOT
ATOM      1  C   LIG d   1       4.082  -0.915  -4.913  0.00  0.00     0.035 C 
ATOM      2  C   LIG d   1       4.475  -2.367  -4.636  0.00  0.00    -0.029 C 
ATOM      3  C   LIG d   1       4.927  -2.504  -3.181  0.00  0.00    -0.039 C 
ATOM      4  C   LIG d   1       3.781  -2.099  -2.251  0.00  0.00    -0.047 C 
ATOM      5  C   LIG d   1       3.387  -0.647  -2.528  0.00  0.00    -0.039 C 
ATOM      6  C   LIG d   1       2.936  -0.509  -3.983  0.00  0.00    -0.029 C 
ATOM      7  C   LIG d   1       4.592   0.263  -2.280  0.00  0.00    -0.047 C 
ATOM      8  C   LIG d   1       5.738  -0.141  -3.209  0.00  0.00    -0.039 C 
ATOM      9  C   LIG d   1       6.131  -1.594  -2.931  0.00  0.00    -0.047 C 
ATOM     10  C   LIG d   1       5.286  -0.004  -4.664  0.00  0.00    -0.029 C 
ATOM     11  H   LIG d   1       5.291  -2.656  -5.298  0.00  0.00     0.029 H 
ATOM     12  H   LIG d   1       3.617  -3.016  -4.813  0.00  0.00     0.029 H 
ATOM     13  H   LIG d   1       5.206  -3.539  -2.982  0.00  0.00     0.030 H 
ATOM     14  H   LIG d   1       2.923  -2.748  -2.428  0.00  0.00     0.027 H 
ATOM     15  H   LIG d   1       4.102  -2.198  -1.214  0.00  0.00     0.027 H 
ATOM     16  H   LIG d   1       2.571  -0.359  -1.866  0.00  0.00     0.030 H 
ATOM     17  H   LIG d   1       2.656   0.525  -4.180  0.00  0.00     0.029 H 
ATOM     18  H   LIG d   1       2.078  -1.158  -4.160  0.00  0.00     0.029 H 
ATOM     19  H   LIG d   1       4.313   1.298  -2.477  0.00  0.00     0.027 H 
ATOM     20  H   LIG d   1       4.913   0.166  -1.242  0.00  0.00     0.027 H 
ATOM     21  H   LIG d   1       6.596   0.507  -3.031  0.00  0.00     0.030 H 
ATOM     22  H   LIG d   1       6.453  -1.692  -1.895  0.00  0.00     0.027 H 
ATOM     23  H   LIG d   1       6.947  -1.882  -3.594  0.00  0.00     0.027 H 
ATOM     24  H   LIG d   1       6.103  -0.293  -5.327  0.00  0.00     0.029 H 
ATOM     25  H   LIG d   1       5.007   1.030  -4.862  0.00  0.00     0.029 H 
ENDROOT
BRANCH   1  26
ATOM     26  N   LIG d   1       3.649  -0.783  -6.307  0.00  0.00    -0.308 N 
ATOM     27  C   LIG d   1       3.053   0.352  -6.723  0.00  0.00     0.239 C 
ATOM     28  O   LIG d   1       2.874   1.264  -5.943  0.00  0.00    -0.273 OA
ATOM     29  H   LIG d   1       3.793  -1.513  -6.930  0.00  0.00     0.149 HD
BRANCH  27  30
ATOM     30  C   LIG d   1       2.609   0.488  -8.156  0.00  0.00     0.124 C 
ATOM     31  H   LIG d   1       3.240  -0.132  -8.793  0.00  0.00     0.066 H 
ATOM     32  H   LIG d   1       1.572   0.163  -8.247  0.00  0.00     0.066 H 
BRANCH  30  33
ATOM     33  O   LIG d   1       2.718   1.853  -8.562  0.00  0.00    -0.365 OA
BRANCH  33  34
ATOM     34  C   LIG d   1       3.482   2.046  -9.754  0.00  0.00     0.088 C 
ATOM     35  H   LIG d   1       3.067   1.433 -10.555  0.00  0.00     0.061 H 
ATOM     36  H   LIG d   1       3.444   3.097 -10.045  0.00  0.00     0.061 H 
BRANCH  34  37
ATOM     37  C   LIG d   1       4.935   1.639  -9.501  0.00  0.00    -0.008 C 
ATOM     38  H   LIG d   1       5.574   2.521  -9.554  0.00  0.00     0.084 H 
ATOM     39  H   LIG d   1       5.019   1.188  -8.513  0.00  0.00     0.084 H 
BRANCH  37  40
ATOM     40  N   LIG d   1       5.336   0.646 -10.520  0.00  0.00     0.233 N 
ATOM     41  H   LIG d   1       6.155   0.999 -11.028  0.00  0.00     0.203 HD
BRANCH  40  42
ATOM     42  C   LIG d   1       5.690  -0.632  -9.867  0.00  0.00    -0.043 C 
ATOM     43  H   LIG d   1       4.801  -1.114  -9.462  0.00  0.00     0.078 H 
ATOM     44  H   LIG d   1       6.156  -1.289 -10.602  0.00  0.00     0.078 H 
ATOM     45  H   LIG d   1       6.394  -0.433  -9.059  0.00  0.00     0.078 H 
ENDBRANCH  40  42
BRANCH  40  46
ATOM     46  C   LIG d   1       4.231   0.433 -11.480  0.00  0.00    -0.043 C 
ATOM     47  H   LIG d   1       4.386   1.079 -12.344  0.00  0.00     0.078 H 
ATOM     48  H   LIG d   1       4.235  -0.608 -11.798  0.00  0.00     0.078 H 
ATOM     49  H   LIG d   1       3.273   0.669 -11.018  0.00  0.00     0.078 H 
ENDBRANCH  40  46
ENDBRANCH  37  40
ENDBRANCH  34  37
ENDBRANCH  33  34
ENDBRANCH  30  33
ENDBRANCH  27  30
ENDBRANCH   1  26
TORSDOF 8
ENDMDL
MODEL 6
REMARK VINA RESULT:      -5.8      3.026      3.560
REMARK  8 active torsions:
REMARK  status: ('A' for Active; 'I' for Inactive)
REMARK    1  A    between atoms: C_1  and  N_48 
REMARK    2  A    between atoms: C_2  and  N_48 
REMARK    3  A    between atoms: C_3  and  C_4 
REMARK    4  A    between atoms: C_3  and  N_48 
REMARK    5  A    between atoms: C_4  and  O_5 
REMARK    6  A    between atoms: O_5  and  C_6 
REMARK    7  A    between atoms: C_6  and  C_7 
REMARK       I    between atoms: C_7  and  N_9 
REMARK    8  A    between atoms: N_9  and  C_10 
ROOT
ATOM      1  C   LIG d   1       4.113  -0.913  -4.966  0.00  0.00     0.035 C 
ATOM      2  C   LIG d   1       5.311  -0.006  -4.681  0.00  0.00    -0.029 C 
ATOM      3  C   LIG d   1       5.686  -0.105  -3.201  0.00  0.00    -0.039 C 
ATOM      4  C   LIG d   1       6.049  -1.553  -2.864  0.00  0.00    -0.047 C 
ATOM      5  C   LIG d   1       4.851  -2.460  -3.149  0.00  0.00    -0.039 C 
ATOM      6  C   LIG d   1       4.476  -2.360  -4.628  0.00  0.00    -0.029 C 
ATOM      7  C   LIG d   1       3.663  -2.019  -2.291  0.00  0.00    -0.047 C 
ATOM      8  C   LIG d   1       3.299  -0.572  -2.629  0.00  0.00    -0.039 C 
ATOM      9  C   LIG d   1       4.498   0.335  -2.343  0.00  0.00    -0.047 C 
ATOM     10  C   LIG d   1       2.924  -0.473  -4.109  0.00  0.00    -0.029 C 
ATOM     11  H   LIG d   1       5.052   1.025  -4.922  0.00  0.00     0.029 H 
ATOM     12  H   LIG d   1       6.158  -0.320  -5.292  0.00  0.00     0.029 H 
ATOM     13  H   LIG d   1       6.540   0.540  -2.998  0.00  0.00     0.030 H 
ATOM     14  H   LIG d   1       6.896  -1.867  -3.475  0.00  0.00     0.027 H 
ATOM     15  H   LIG d   1       6.317  -1.624  -1.809  0.00  0.00     0.027 H 
ATOM     16  H   LIG d   1       5.110  -3.491  -2.908  0.00  0.00     0.030 H 
ATOM     17  H   LIG d   1       3.622  -3.007  -4.831  0.00  0.00     0.029 H 
ATOM     18  H   LIG d   1       5.322  -2.674  -5.239  0.00  0.00     0.029 H 
ATOM     19  H   LIG d   1       2.808  -2.665  -2.493  0.00  0.00     0.027 H 
ATOM     20  H   LIG d   1       3.930  -2.091  -1.237  0.00  0.00     0.027 H 
ATOM     21  H   LIG d   1       2.453  -0.258  -2.017  0.00  0.00     0.030 H 
ATOM     22  H   LIG d   1       4.765   0.264  -1.289  0.00  0.00     0.027 H 
ATOM     23  H   LIG d   1       4.238   1.366  -2.584  0.00  0.00     0.027 H 
ATOM     24  H   LIG d   1       2.666   0.559  -4.349  0.00  0.00     0.029 H 
ATOM     25  H   LIG d   1       2.070  -1.118  -4.311  0.00  0.00     0.029 H 
ENDROOT
BRANCH   1  26
ATOM     26  N   LIG d   1       3.753  -0.818  -6.384  0.00  0.00    -0.308 N 
ATOM     27  C   LIG d   1       3.164   0.297  -6.856  0.00  0.00     0.239 C 
ATOM     28  O   LIG d   1       2.930   1.224  -6.108  0.00  0.00    -0.273 OA
ATOM     29  H   LIG d   1       3.940  -1.559  -6.981  0.00  0.00     0.149 HD
BRANCH  27  30
ATOM     30  C   LIG d   1       2.795   0.395  -8.314  0.00  0.00     0.124 C 
ATOM     31  H   LIG d   1       2.297   1.347  -8.500  0.00  0.00     0.066 H 
ATOM     32  H   LIG d   1       3.697   0.332  -8.922  0.00  0.00     0.066 H 
BRANCH  30  33
ATOM     33  O   LIG d   1       1.914  -0.676  -8.656  0.00  0.00    -0.365 OA
BRANCH  33  34
ATOM     34  C   LIG d   1       2.468  -1.610  -9.585  0.00  0.00     0.088 C 
ATOM     35  H   LIG d   1       3.174  -1.097 -10.238  0.00  0.00     0.061 H 
ATOM     36  H   LIG d   1       2.986  -2.401  -9.041  0.00  0.00     0.061 H 
BRANCH  34  37
ATOM     37  C   LIG d   1       1.345  -2.220 -10.427  0.00  0.00    -0.008 C 
ATOM     38  H   LIG d   1       0.428  -1.651 -10.275  0.00  0.00     0.084 H 
ATOM     39  H   LIG d   1       1.622  -2.188 -11.480  0.00  0.00     0.084 H 
BRANCH  37  40
ATOM     40  N   LIG d   1       1.156  -3.629 -10.020  0.00  0.00     0.233 N 
ATOM     41  H   LIG d   1       0.832  -3.655  -9.047  0.00  0.00     0.203 HD
BRANCH  40  42
ATOM     42  C   LIG d   1       0.141  -4.271 -10.881  0.00  0.00    -0.043 C 
ATOM     43  H   LIG d   1      -0.142  -3.609 -11.699  0.00  0.00     0.078 H 
ATOM     44  H   LIG d   1       0.554  -5.194 -11.288  0.00  0.00     0.078 H 
ATOM     45  H   LIG d   1      -0.738  -4.501 -10.280  0.00  0.00     0.078 H 
ENDBRANCH  40  42
BRANCH  40  46
ATOM     46  C   LIG d   1       2.438  -4.359 -10.119  0.00  0.00    -0.043 C 
ATOM     47  H   LIG d   1       2.852  -4.481  -9.118  0.00  0.00     0.078 H 
ATOM     48  H   LIG d   1       2.254  -5.338 -10.560  0.00  0.00     0.078 H 
ATOM     49  H   LIG d   1       3.145  -3.808 -10.740  0.00  0.00     0.078 H 
ENDBRANCH  40  46
ENDBRANCH  37  40
ENDBRANCH  34  37
ENDBRANCH  33  34
ENDBRANCH  30  33
ENDBRANCH  27  30
ENDBRANCH   1  26
TORSDOF 8
ENDMDL
MODEL 7
REMARK VINA RESULT:      -5.7      2.924      3.952
REMARK  8 active torsions:
REMARK  status: ('A' for Active; 'I' for Inactive)
REMARK    1  A    between atoms: C_1  and  N_48 
REMARK    2  A    between atoms: C_2  and  N_48 
REMARK    3  A    between atoms: C_3  and  C_4 
REMARK    4  A    between atoms: C_3  and  N_48 
REMARK    5  A    between atoms: C_4  and  O_5 
REMARK    6  A    between atoms: O_5  and  C_6 
REMARK    7  A    between atoms: C_6  and  C_7 
REMARK       I    between atoms: C_7  and  N_9 
REMARK    8  A    between atoms: N_9  and  C_10 
ROOT
ATOM      1  C   LIG d   1       5.480  -0.649  -4.138  0.00  0.00     0.035 C 
ATOM      2  C   LIG d   1       5.949   0.581  -3.359  0.00  0.00    -0.029 C 
ATOM      3  C   LIG d   1       4.840   1.038  -2.410  0.00  0.00    -0.039 C 
ATOM      4  C   LIG d   1       4.510  -0.091  -1.431  0.00  0.00    -0.047 C 
ATOM      5  C   LIG d   1       4.040  -1.321  -2.210  0.00  0.00    -0.039 C 
ATOM      6  C   LIG d   1       5.149  -1.778  -3.160  0.00  0.00    -0.029 C 
ATOM      7  C   LIG d   1       2.791  -0.966  -3.019  0.00  0.00    -0.047 C 
ATOM      8  C   LIG d   1       3.121   0.163  -3.998  0.00  0.00    -0.039 C 
ATOM      9  C   LIG d   1       3.590   1.393  -3.218  0.00  0.00    -0.047 C 
ATOM     10  C   LIG d   1       4.230  -0.294  -4.947  0.00  0.00    -0.029 C 
ATOM     11  H   LIG d   1       6.185   1.385  -4.056  0.00  0.00     0.029 H 
ATOM     12  H   LIG d   1       6.839   0.328  -2.783  0.00  0.00     0.029 H 
ATOM     13  H   LIG d   1       5.174   1.914  -1.854  0.00  0.00     0.030 H 
ATOM     14  H   LIG d   1       5.400  -0.344  -0.855  0.00  0.00     0.027 H 
ATOM     15  H   LIG d   1       3.720   0.235  -0.754  0.00  0.00     0.027 H 
ATOM     16  H   LIG d   1       3.805  -2.125  -1.513  0.00  0.00     0.030 H 
ATOM     17  H   LIG d   1       4.814  -2.654  -3.715  0.00  0.00     0.029 H 
ATOM     18  H   LIG d   1       6.039  -2.031  -2.583  0.00  0.00     0.029 H 
ATOM     19  H   LIG d   1       2.456  -1.842  -3.574  0.00  0.00     0.027 H 
ATOM     20  H   LIG d   1       2.001  -0.641  -2.342  0.00  0.00     0.027 H 
ATOM     21  H   LIG d   1       2.230   0.416  -4.574  0.00  0.00     0.030 H 
ATOM     22  H   LIG d   1       2.800   1.718  -2.542  0.00  0.00     0.027 H 
ATOM     23  H   LIG d   1       3.826   2.197  -3.916  0.00  0.00     0.027 H 
ATOM     24  H   LIG d   1       4.466   0.511  -5.644  0.00  0.00     0.029 H 
ATOM     25  H   LIG d   1       3.895  -1.169  -5.503  0.00  0.00     0.029 H 
ENDROOT
BRANCH   1  26
ATOM     26  N   LIG d   1       6.542  -1.087  -5.048  0.00  0.00    -0.308 N 
ATOM     27  C   LIG d   1       7.107  -0.207  -5.898  0.00  0.00     0.239 C 
ATOM     28  O   LIG d   1       6.736   0.948  -5.910  0.00  0.00    -0.273 OA
ATOM     29  H   LIG d   1       6.838  -2.011  -5.038  0.00  0.00     0.149 HD
BRANCH  27  30
ATOM     30  C   LIG d   1       8.199  -0.657  -6.833  0.00  0.00     0.124 C 
ATOM     31  H   LIG d   1       8.061  -1.711  -7.072  0.00  0.00     0.066 H 
ATOM     32  H   LIG d   1       8.158  -0.068  -7.749  0.00  0.00     0.066 H 
BRANCH  30  33
ATOM     33  O   LIG d   1       9.470  -0.474  -6.205  0.00  0.00    -0.365 OA
BRANCH  33  34
ATOM     34  C   LIG d   1      10.180   0.681  -6.656  0.00  0.00     0.088 C 
ATOM     35  H   LIG d   1      11.084   0.369  -7.181  0.00  0.00     0.061 H 
ATOM     36  H   LIG d   1       9.548   1.256  -7.332  0.00  0.00     0.061 H 
BRANCH  34  37
ATOM     37  C   LIG d   1      10.562   1.547  -5.453  0.00  0.00    -0.008 C 
ATOM     38  H   LIG d   1      10.872   0.905  -4.628  0.00  0.00     0.084 H 
ATOM     39  H   LIG d   1      11.384   2.208  -5.729  0.00  0.00     0.084 H 
BRANCH  37  40
ATOM     40  N   LIG d   1       9.393   2.365  -5.065  0.00  0.00     0.233 N 
ATOM     41  H   LIG d   1       8.547   1.954  -5.475  0.00  0.00     0.203 HD
BRANCH  40  42
ATOM     42  C   LIG d   1       9.255   2.381  -3.594  0.00  0.00    -0.043 C 
ATOM     43  H   LIG d   1       8.332   1.886  -3.291  0.00  0.00     0.078 H 
ATOM     44  H   LIG d   1      10.107   1.863  -3.152  0.00  0.00     0.078 H 
ATOM     45  H   LIG d   1       9.241   3.416  -3.252  0.00  0.00     0.078 H 
ENDBRANCH  40  42
BRANCH  40  46
ATOM     46  C   LIG d   1       9.552   3.744  -5.573  0.00  0.00    -0.043 C 
ATOM     47  H   LIG d   1       9.251   4.443  -4.793  0.00  0.00     0.078 H 
ATOM     48  H   LIG d   1      10.598   3.909  -5.826  0.00  0.00     0.078 H 
ATOM     49  H   LIG d   1       8.934   3.899  -6.457  0.00  0.00     0.078 H 
ENDBRANCH  40  46
ENDBRANCH  37  40
ENDBRANCH  34  37
ENDBRANCH  33  34
ENDBRANCH  30  33
ENDBRANCH  27  30
ENDBRANCH   1  26
TORSDOF 8
ENDMDL
MODEL 8
REMARK VINA RESULT:      -5.6      2.655      3.948
REMARK  8 active torsions:
REMARK  status: ('A' for Active; 'I' for Inactive)
REMARK    1  A    between atoms: C_1  and  N_48 
REMARK    2  A    between atoms: C_2  and  N_48 
REMARK    3  A    between atoms: C_3  and  C_4 
REMARK    4  A    between atoms: C_3  and  N_48 
REMARK    5  A    between atoms: C_4  and  O_5 
REMARK    6  A    between atoms: O_5  and  C_6 
REMARK    7  A    between atoms: C_6  and  C_7 
REMARK       I    between atoms: C_7  and  N_9 
REMARK    8  A    between atoms: N_9  and  C_10 
ROOT
ATOM      1  C   LIG d   1       5.210  -0.854  -4.365  0.00  0.00     0.035 C 
ATOM      2  C   LIG d   1       3.997  -0.167  -4.994  0.00  0.00    -0.029 C 
ATOM      3  C   LIG d   1       3.036   0.283  -3.892  0.00  0.00    -0.039 C 
ATOM      4  C   LIG d   1       3.752   1.263  -2.960  0.00  0.00    -0.047 C 
ATOM      5  C   LIG d   1       4.965   0.575  -2.330  0.00  0.00    -0.039 C 
ATOM      6  C   LIG d   1       5.925   0.125  -3.432  0.00  0.00    -0.029 C 
ATOM      7  C   LIG d   1       4.501  -0.644  -1.530  0.00  0.00    -0.047 C 
ATOM      8  C   LIG d   1       3.785  -1.624  -2.461  0.00  0.00    -0.039 C 
ATOM      9  C   LIG d   1       2.572  -0.936  -3.091  0.00  0.00    -0.047 C 
ATOM     10  C   LIG d   1       4.746  -2.073  -3.564  0.00  0.00    -0.029 C 
ATOM     11  H   LIG d   1       3.487  -0.865  -5.658  0.00  0.00     0.029 H 
ATOM     12  H   LIG d   1       4.327   0.702  -5.565  0.00  0.00     0.029 H 
ATOM     13  H   LIG d   1       2.172   0.774  -4.340  0.00  0.00     0.030 H 
ATOM     14  H   LIG d   1       4.082   2.131  -3.530  0.00  0.00     0.027 H 
ATOM     15  H   LIG d   1       3.067   1.583  -2.175  0.00  0.00     0.027 H 
ATOM     16  H   LIG d   1       5.475   1.273  -1.666  0.00  0.00     0.030 H 
ATOM     17  H   LIG d   1       6.790  -0.365  -2.983  0.00  0.00     0.029 H 
ATOM     18  H   LIG d   1       6.256   0.993  -4.002  0.00  0.00     0.029 H 
ATOM     19  H   LIG d   1       5.364  -1.135  -1.081  0.00  0.00     0.027 H 
ATOM     20  H   LIG d   1       3.817  -0.323  -0.744  0.00  0.00     0.027 H 
ATOM     21  H   LIG d   1       3.454  -2.492  -1.891  0.00  0.00     0.030 H 
ATOM     22  H   LIG d   1       1.888  -0.615  -2.306  0.00  0.00     0.027 H 
ATOM     23  H   LIG d   1       2.063  -1.634  -3.755  0.00  0.00     0.027 H 
ATOM     24  H   LIG d   1       4.236  -2.771  -4.228  0.00  0.00     0.029 H 
ATOM     25  H   LIG d   1       5.609  -2.564  -3.115  0.00  0.00     0.029 H 
ENDROOT
BRANCH   1  26
ATOM     26  N   LIG d   1       6.130  -1.285  -5.420  0.00  0.00    -0.308 N 
ATOM     27  C   LIG d   1       6.717  -0.371  -6.217  0.00  0.00     0.239 C 
ATOM     28  O   LIG d   1       6.483   0.809  -6.062  0.00  0.00    -0.273 OA
ATOM     29  H   LIG d   1       6.317  -2.229  -5.544  0.00  0.00     0.149 HD
BRANCH  27  30
ATOM     30  C   LIG d   1       7.664  -0.814  -7.302  0.00  0.00     0.124 C 
ATOM     31  H   LIG d   1       8.324  -1.590  -6.914  0.00  0.00     0.066 H 
ATOM     32  H   LIG d   1       7.093  -1.210  -8.143  0.00  0.00     0.066 H 
BRANCH  30  33
ATOM     33  O   LIG d   1       8.445   0.300  -7.738  0.00  0.00    -0.365 OA
BRANCH  33  34
ATOM     34  C   LIG d   1       9.772   0.323  -7.208  0.00  0.00     0.088 C 
ATOM     35  H   LIG d   1       9.822  -0.317  -6.327  0.00  0.00     0.061 H 
ATOM     36  H   LIG d   1      10.471  -0.041  -7.962  0.00  0.00     0.061 H 
BRANCH  34  37
ATOM     37  C   LIG d   1      10.141   1.756  -6.819  0.00  0.00    -0.008 C 
ATOM     38  H   LIG d   1      11.185   1.791  -6.510  0.00  0.00     0.084 H 
ATOM     39  H   LIG d   1       9.993   2.415  -7.675  0.00  0.00     0.084 H 
BRANCH  37  40
ATOM     40  N   LIG d   1       9.258   2.193  -5.716  0.00  0.00     0.233 N 
ATOM     41  H   LIG d   1       8.282   2.013  -5.978  0.00  0.00     0.203 HD
BRANCH  40  42
ATOM     42  C   LIG d   1       9.573   1.434  -4.487  0.00  0.00    -0.043 C 
ATOM     43  H   LIG d   1       9.688   2.109  -3.640  0.00  0.00     0.078 H 
ATOM     44  H   LIG d   1       8.763   0.733  -4.286  0.00  0.00     0.078 H 
ATOM     45  H   LIG d   1      10.501   0.883  -4.641  0.00  0.00     0.078 H 
ENDBRANCH  40  42
BRANCH  40  46
ATOM     46  C   LIG d   1       9.431   3.640  -5.474  0.00  0.00    -0.043 C 
ATOM     47  H   LIG d   1       8.681   3.970  -4.755  0.00  0.00     0.078 H 
ATOM     48  H   LIG d   1      10.426   3.815  -5.067  0.00  0.00     0.078 H 
ATOM     49  H   LIG d   1       9.314   4.200  -6.402  0.00  0.00     0.078 H 
ENDBRANCH  40  46
ENDBRANCH  37  40
ENDBRANCH  34  37
ENDBRANCH  33  34
ENDBRANCH  30  33
ENDBRANCH  27  30
ENDBRANCH   1  26
TORSDOF 8
ENDMDL
MODEL 9
REMARK VINA RESULT:      -5.6      2.880      5.054
REMARK  8 active torsions:
REMARK  status: ('A' for Active; 'I' for Inactive)
REMARK    1  A    between atoms: C_1  and  N_48 
REMARK    2  A    between atoms: C_2  and  N_48 
REMARK    3  A    between atoms: C_3  and  C_4 
REMARK    4  A    between atoms: C_3  and  N_48 
REMARK    5  A    between atoms: C_4  and  O_5 
REMARK    6  A    between atoms: O_5  and  C_6 
REMARK    7  A    between atoms: C_6  and  C_7 
REMARK       I    between atoms: C_7  and  N_9 
REMARK    8  A    between atoms: N_9  and  C_10 
ROOT
ATOM      1  C   LIG d   1       5.231  -0.914  -4.356  0.00  0.00     0.035 C 
ATOM      2  C   LIG d   1       4.709  -2.129  -3.586  0.00  0.00    -0.029 C 
ATOM      3  C   LIG d   1       3.741  -1.665  -2.497  0.00  0.00    -0.039 C 
ATOM      4  C   LIG d   1       2.565  -0.925  -3.141  0.00  0.00    -0.047 C 
ATOM      5  C   LIG d   1       3.087   0.290  -3.911  0.00  0.00    -0.039 C 
ATOM      6  C   LIG d   1       4.056  -0.174  -5.000  0.00  0.00    -0.029 C 
ATOM      7  C   LIG d   1       3.815   1.229  -2.948  0.00  0.00    -0.047 C 
ATOM      8  C   LIG d   1       4.990   0.491  -2.304  0.00  0.00    -0.039 C 
ATOM      9  C   LIG d   1       4.467  -0.724  -1.534  0.00  0.00    -0.047 C 
ATOM     10  C   LIG d   1       5.958   0.027  -3.394  0.00  0.00    -0.029 C 
ATOM     11  H   LIG d   1       5.546  -2.655  -3.128  0.00  0.00     0.029 H 
ATOM     12  H   LIG d   1       4.191  -2.798  -4.273  0.00  0.00     0.029 H 
ATOM     13  H   LIG d   1       3.368  -2.530  -1.949  0.00  0.00     0.030 H 
ATOM     14  H   LIG d   1       2.047  -1.595  -3.827  0.00  0.00     0.027 H 
ATOM     15  H   LIG d   1       1.875  -0.595  -2.365  0.00  0.00     0.027 H 
ATOM     16  H   LIG d   1       2.250   0.816  -4.370  0.00  0.00     0.030 H 
ATOM     17  H   LIG d   1       4.427   0.692  -5.549  0.00  0.00     0.029 H 
ATOM     18  H   LIG d   1       3.537  -0.844  -5.686  0.00  0.00     0.029 H 
ATOM     19  H   LIG d   1       4.187   2.095  -3.496  0.00  0.00     0.027 H 
ATOM     20  H   LIG d   1       3.124   1.560  -2.172  0.00  0.00     0.027 H 
ATOM     21  H   LIG d   1       5.507   1.161  -1.617  0.00  0.00     0.030 H 
ATOM     22  H   LIG d   1       3.778  -0.394  -0.758  0.00  0.00     0.027 H 
ATOM     23  H   LIG d   1       5.305  -1.250  -1.075  0.00  0.00     0.027 H 
ATOM     24  H   LIG d   1       6.795  -0.500  -2.934  0.00  0.00     0.029 H 
ATOM     25  H   LIG d   1       6.330   0.892  -3.941  0.00  0.00     0.029 H 
ENDROOT
BRANCH   1  26
ATOM     26  N   LIG d   1       6.159  -1.358  -5.400  0.00  0.00    -0.308 N 
ATOM     27  C   LIG d   1       6.895  -0.454  -6.075  0.00  0.00     0.239 C 
ATOM     28  O   LIG d   1       6.790   0.727  -5.820  0.00  0.00    -0.273 OA
ATOM     29  H   LIG d   1       6.242  -2.302  -5.604  0.00  0.00     0.149 HD
BRANCH  27  30
ATOM     30  C   LIG d   1       7.850  -0.911  -7.148  0.00  0.00     0.124 C 
ATOM     31  H   LIG d   1       7.487  -1.839  -7.587  0.00  0.00     0.066 H 
ATOM     32  H   LIG d   1       7.919  -0.146  -7.922  0.00  0.00     0.066 H 
BRANCH  30  33
ATOM     33  O   LIG d   1       9.141  -1.128  -6.576  0.00  0.00    -0.365 OA
BRANCH  33  34
ATOM     34  C   LIG d   1       9.415  -2.494  -6.260  0.00  0.00     0.088 C 
ATOM     35  H   LIG d   1       8.511  -2.966  -5.874  0.00  0.00     0.061 H 
ATOM     36  H   LIG d   1       9.740  -3.018  -7.160  0.00  0.00     0.061 H 
BRANCH  34  37
ATOM     37  C   LIG d   1      10.519  -2.563  -5.203  0.00  0.00    -0.008 C 
ATOM     38  H   LIG d   1      11.280  -3.277  -5.519  0.00  0.00     0.084 H 
ATOM     39  H   LIG d   1      10.971  -1.578  -5.086  0.00  0.00     0.084 H 
BRANCH  37  40
ATOM     40  N   LIG d   1       9.921  -2.976  -3.916  0.00  0.00     0.233 N 
ATOM     41  H   LIG d   1       9.768  -2.143  -3.336  0.00  0.00     0.203 HD
BRANCH  40  42
ATOM     42  C   LIG d   1       8.622  -3.641  -4.154  0.00  0.00    -0.043 C 
ATOM     43  H   LIG d   1       7.800  -3.000  -3.837  0.00  0.00     0.078 H 
ATOM     44  H   LIG d   1       8.525  -3.859  -5.217  0.00  0.00     0.078 H 
ATOM     45  H   LIG d   1       8.594  -4.573  -3.588  0.00  0.00     0.078 H 
ENDBRANCH  40  42
BRANCH  40  46
ATOM     46  C   LIG d   1      10.836  -3.894  -3.206  0.00  0.00    -0.043 C 
ATOM     47  H   LIG d   1      11.068  -3.474  -2.227  0.00  0.00     0.078 H 
ATOM     48  H   LIG d   1      10.343  -4.858  -3.081  0.00  0.00     0.078 H 
ATOM     49  H   LIG d   1      11.758  -4.028  -3.771  0.00  0.00     0.078 H 
ENDBRANCH  40  46
ENDBRANCH  37  40
ENDBRANCH  34  37
ENDBRANCH  33  34
ENDBRANCH  30  33
ENDBRANCH  27  30
ENDBRANCH   1  26
TORSDOF 8
ENDMDL
