MODEL 1
REMARK VINA RESULT:      -5.2      0.000      0.000
REMARK  14 active torsions:
REMARK  status: ('A' for Active; 'I' for Inactive)
REMARK    1  A    between atoms: C_1  and  C_2 
REMARK    2  A    between atoms: C_2  and  C_4 
REMARK    3  A    between atoms: C_2  and  N_10 
REMARK    4  A    between atoms: C_4  and  C_5 
REMARK    5  A    between atoms: C_5  and  C_6 
REMARK    6  A    between atoms: C_7  and  C_8 
REMARK    7  A    between atoms: C_7  and  C_9 
REMARK       I    between atoms: N_10  and  C_11 
REMARK    8  A    between atoms: N_10  and  C_13 
REMARK    9  A    between atoms: C_13  and  C_15 
REMARK   10  A    between atoms: C_13  and  C_16 
REMARK   11  A    between atoms: C_16  and  C_17 
REMARK   12  A    between atoms: C_17  and  C_18 
REMARK   13  A    between atoms: C_19  and  C_20 
REMARK   14  A    between atoms: C_19  and  C_21 
ROOT
ATOM      1  N   LIG d   1       5.029  -2.424  -5.613  0.00  0.00    -0.298 N 
ATOM      2  C   LIG d   1       5.101  -3.742  -5.880  0.00  0.00     0.203 C 
ATOM      3  O   LIG d   1       4.950  -4.139  -7.016  0.00  0.00    -0.279 OA
ATOM      4  H   LIG d   1       5.294  -4.445  -5.084  0.00  0.00     0.125 H 
ENDROOT
BRANCH   1   5
ATOM      5  C   LIG d   1       5.212  -1.943  -4.241  0.00  0.00     0.024 C 
ATOM      6  H   LIG d   1       5.010  -0.873  -4.200  0.00  0.00     0.050 H 
BRANCH   5   7
ATOM      7  C   LIG d   1       6.652  -2.207  -3.795  0.00  0.00    -0.046 C 
ATOM      8  H   LIG d   1       6.801  -1.808  -2.792  0.00  0.00     0.025 H 
ATOM      9  H   LIG d   1       6.841  -3.280  -3.791  0.00  0.00     0.025 H 
ATOM     10  H   LIG d   1       7.341  -1.719  -4.486  0.00  0.00     0.025 H 
ENDBRANCH   5   7
BRANCH   5  11
ATOM     11  C   LIG d   1       4.247  -2.681  -3.309  0.00  0.00    -0.031 C 
ATOM     12  H   LIG d   1       3.377  -3.010  -3.876  0.00  0.00     0.029 H 
ATOM     13  H   LIG d   1       4.749  -3.547  -2.879  0.00  0.00     0.029 H 
BRANCH  11  14
ATOM     14  C   LIG d   1       3.802  -1.740  -2.189  0.00  0.00    -0.033 C 
ATOM     15  H   LIG d   1       3.077  -2.249  -1.553  0.00  0.00     0.031 H 
ATOM     16  H   LIG d   1       4.667  -1.450  -1.593  0.00  0.00     0.031 H 
BRANCH  14  17
ATOM     17  C   LIG d   1       3.169  -0.509  -2.787  0.00  0.00    -0.085 C 
ATOM     18  C   LIG d   1       3.671   0.673  -2.534  0.00  0.00    -0.080 C 
ATOM     19  H   LIG d   1       2.302  -0.604  -3.424  0.00  0.00     0.057 H 
BRANCH  18  20
ATOM     20  C   LIG d   1       4.796   0.818  -1.542  0.00  0.00    -0.044 C 
ATOM     21  H   LIG d   1       4.811   1.838  -1.156  0.00  0.00     0.027 H 
ATOM     22  H   LIG d   1       4.646   0.120  -0.718  0.00  0.00     0.027 H 
ATOM     23  H   LIG d   1       5.744   0.603  -2.034  0.00  0.00     0.027 H 
ENDBRANCH  18  20
BRANCH  18  24
ATOM     24  C   LIG d   1       3.121   1.890  -3.234  0.00  0.00    -0.044 C 
ATOM     25  H   LIG d   1       2.161   1.646  -3.687  0.00  0.00     0.027 H 
ATOM     26  H   LIG d   1       2.988   2.695  -2.511  0.00  0.00     0.027 H 
ATOM     27  H   LIG d   1       3.818   2.209  -4.008  0.00  0.00     0.027 H 
ENDBRANCH  18  24
ENDBRANCH  14  17
ENDBRANCH  11  14
ENDBRANCH   5  11
ENDBRANCH   1   5
BRANCH   1  28
ATOM     28  C   LIG d   1       4.768  -1.469  -6.694  0.00  0.00     0.024 C 
ATOM     29  H   LIG d   1       4.282  -1.983  -7.523  0.00  0.00     0.050 H 
BRANCH  28  30
ATOM     30  C   LIG d   1       6.091  -0.868  -7.173  0.00  0.00    -0.046 C 
ATOM     31  H   LIG d   1       6.847  -0.987  -6.397  0.00  0.00     0.025 H 
ATOM     32  H   LIG d   1       6.417  -1.380  -8.078  0.00  0.00     0.025 H 
ATOM     33  H   LIG d   1       5.952   0.192  -7.385  0.00  0.00     0.025 H 
ENDBRANCH  28  30
BRANCH  28  34
ATOM     34  C   LIG d   1       3.858  -0.354  -6.180  0.00  0.00    -0.031 C 
ATOM     35  H   LIG d   1       3.395  -0.664  -5.243  0.00  0.00     0.029 H 
ATOM     36  H   LIG d   1       4.447   0.548  -6.012  0.00  0.00     0.029 H 
BRANCH  34  37
ATOM     37  C   LIG d   1       2.769  -0.067  -7.215  0.00  0.00    -0.033 C 
ATOM     38  H   LIG d   1       2.721  -0.887  -7.930  0.00  0.00     0.031 H 
ATOM     39  H   LIG d   1       1.807   0.034  -6.712  0.00  0.00     0.031 H 
BRANCH  37  40
ATOM     40  C   LIG d   1       3.091   1.214  -7.941  0.00  0.00    -0.085 C 
ATOM     41  C   LIG d   1       3.363   1.190  -9.223  0.00  0.00    -0.080 C 
ATOM     42  H   LIG d   1       3.098   2.152  -7.406  0.00  0.00     0.057 H 
BRANCH  41  43
ATOM     43  C   LIG d   1       3.483  -0.129  -9.943  0.00  0.00    -0.044 C 
ATOM     44  H   LIG d   1       3.664   0.051 -11.003  0.00  0.00     0.027 H 
ATOM     45  H   LIG d   1       4.314  -0.696  -9.523  0.00  0.00     0.027 H 
ATOM     46  H   LIG d   1       2.559  -0.694  -9.822  0.00  0.00     0.027 H 
ENDBRANCH  41  43
BRANCH  41  47
ATOM     47  C   LIG d   1       3.555   2.481  -9.977  0.00  0.00    -0.044 C 
ATOM     48  H   LIG d   1       3.173   2.368 -10.992  0.00  0.00     0.027 H 
ATOM     49  H   LIG d   1       3.013   3.280  -9.472  0.00  0.00     0.027 H 
ATOM     50  H   LIG d   1       4.616   2.726 -10.013  0.00  0.00     0.027 H 
ENDBRANCH  41  47
ENDBRANCH  37  40
ENDBRANCH  34  37
ENDBRANCH  28  34
ENDBRANCH   1  28
TORSDOF 14
ENDMDL
MODEL 2
REMARK VINA RESULT:      -5.2      1.741      5.420
REMARK  14 active torsions:
REMARK  status: ('A' for Active; 'I' for Inactive)
REMARK    1  A    between atoms: C_1  and  C_2 
REMARK    2  A    between atoms: C_2  and  C_4 
REMARK    3  A    between atoms: C_2  and  N_10 
REMARK    4  A    between atoms: C_4  and  C_5 
REMARK    5  A    between atoms: C_5  and  C_6 
REMARK    6  A    between atoms: C_7  and  C_8 
REMARK    7  A    between atoms: C_7  and  C_9 
REMARK       I    between atoms: N_10  and  C_11 
REMARK    8  A    between atoms: N_10  and  C_13 
REMARK    9  A    between atoms: C_13  and  C_15 
REMARK   10  A    between atoms: C_13  and  C_16 
REMARK   11  A    between atoms: C_16  and  C_17 
REMARK   12  A    between atoms: C_17  and  C_18 
REMARK   13  A    between atoms: C_19  and  C_20 
REMARK   14  A    between atoms: C_19  and  C_21 
ROOT
ATOM      1  N   LIG d   1       6.018  -1.023  -4.888  0.00  0.00    -0.298 N 
ATOM      2  C   LIG d   1       6.773   0.092  -4.851  0.00  0.00     0.203 C 
ATOM      3  O   LIG d   1       7.430   0.347  -3.864  0.00  0.00    -0.279 OA
ATOM      4  H   LIG d   1       6.794   0.758  -5.700  0.00  0.00     0.125 H 
ENDROOT
BRANCH   1   5
ATOM      5  C   LIG d   1       5.225  -1.332  -6.081  0.00  0.00     0.024 C 
ATOM      6  H   LIG d   1       4.347  -1.912  -5.794  0.00  0.00     0.050 H 
BRANCH   5   7
ATOM      7  C   LIG d   1       6.074  -2.142  -7.063  0.00  0.00    -0.046 C 
ATOM      8  H   LIG d   1       7.034  -1.648  -7.206  0.00  0.00     0.025 H 
ATOM      9  H   LIG d   1       6.236  -3.143  -6.662  0.00  0.00     0.025 H 
ATOM     10  H   LIG d   1       5.555  -2.213  -8.019  0.00  0.00     0.025 H 
ENDBRANCH   5   7
BRANCH   5  11
ATOM     11  C   LIG d   1       4.778  -0.029  -6.747  0.00  0.00    -0.031 C 
ATOM     12  H   LIG d   1       5.202   0.819  -6.208  0.00  0.00     0.029 H 
ATOM     13  H   LIG d   1       5.126  -0.012  -7.780  0.00  0.00     0.029 H 
BRANCH  11  14
ATOM     14  C   LIG d   1       3.252   0.061  -6.721  0.00  0.00    -0.033 C 
ATOM     15  H   LIG d   1       2.869  -0.505  -5.872  0.00  0.00     0.031 H 
ATOM     16  H   LIG d   1       2.951   1.105  -6.628  0.00  0.00     0.031 H 
BRANCH  14  17
ATOM     17  C   LIG d   1       2.692  -0.510  -7.999  0.00  0.00    -0.085 C 
ATOM     18  C   LIG d   1       2.475   0.272  -9.026  0.00  0.00    -0.080 C 
ATOM     19  H   LIG d   1       2.470  -1.565  -8.066  0.00  0.00     0.057 H 
BRANCH  18  20
ATOM     20  C   LIG d   1       2.659   1.762  -8.890  0.00  0.00    -0.044 C 
ATOM     21  H   LIG d   1       2.505   2.054  -7.851  0.00  0.00     0.027 H 
ATOM     22  H   LIG d   1       3.670   2.033  -9.198  0.00  0.00     0.027 H 
ATOM     23  H   LIG d   1       1.936   2.276  -9.523  0.00  0.00     0.027 H 
ENDBRANCH  18  20
BRANCH  18  24
ATOM     24  C   LIG d   1       2.041  -0.317 -10.343  0.00  0.00    -0.044 C 
ATOM     25  H   LIG d   1       2.462  -1.316 -10.451  0.00  0.00     0.027 H 
ATOM     26  H   LIG d   1       0.952  -0.376 -10.373  0.00  0.00     0.027 H 
ATOM     27  H   LIG d   1       2.393   0.315 -11.158  0.00  0.00     0.027 H 
ENDBRANCH  18  24
ENDBRANCH  14  17
ENDBRANCH  11  14
ENDBRANCH   5  11
ENDBRANCH   1   5
BRANCH   1  28
ATOM     28  C   LIG d   1       5.990  -1.928  -3.736  0.00  0.00     0.024 C 
ATOM     29  H   LIG d   1       6.240  -1.374  -2.832  0.00  0.00     0.050 H 
BRANCH  28  30
ATOM     30  C   LIG d   1       7.009  -3.050  -3.944  0.00  0.00    -0.046 C 
ATOM     31  H   LIG d   1       7.997  -2.704  -3.642  0.00  0.00     0.025 H 
ATOM     32  H   LIG d   1       6.728  -3.914  -3.343  0.00  0.00     0.025 H 
ATOM     33  H   LIG d   1       7.029  -3.332  -4.997  0.00  0.00     0.025 H 
ENDBRANCH  28  30
BRANCH  28  34
ATOM     34  C   LIG d   1       4.591  -2.530  -3.595  0.00  0.00    -0.031 C 
ATOM     35  H   LIG d   1       4.046  -2.409  -4.531  0.00  0.00     0.029 H 
ATOM     36  H   LIG d   1       4.674  -3.591  -3.358  0.00  0.00     0.029 H 
BRANCH  34  37
ATOM     37  C   LIG d   1       3.839  -1.814  -2.471  0.00  0.00    -0.033 C 
ATOM     38  H   LIG d   1       3.059  -2.467  -2.082  0.00  0.00     0.031 H 
ATOM     39  H   LIG d   1       4.536  -1.563  -1.671  0.00  0.00     0.031 H 
BRANCH  37  40
ATOM     40  C   LIG d   1       3.215  -0.552  -3.009  0.00  0.00    -0.085 C 
ATOM     41  C   LIG d   1       3.667   0.617  -2.627  0.00  0.00    -0.080 C 
ATOM     42  H   LIG d   1       2.395  -0.610  -3.709  0.00  0.00     0.057 H 
BRANCH  41  43
ATOM     43  C   LIG d   1       4.720   0.702  -1.551  0.00  0.00    -0.044 C 
ATOM     44  H   LIG d   1       4.581  -0.114  -0.841  0.00  0.00     0.027 H 
ATOM     45  H   LIG d   1       5.708   0.625  -2.004  0.00  0.00     0.027 H 
ATOM     46  H   LIG d   1       4.631   1.655  -1.031  0.00  0.00     0.027 H 
ENDBRANCH  41  43
BRANCH  41  47
ATOM     47  C   LIG d   1       3.134   1.876  -3.261  0.00  0.00    -0.044 C 
ATOM     48  H   LIG d   1       2.376   2.316  -2.613  0.00  0.00     0.027 H 
ATOM     49  H   LIG d   1       3.950   2.585  -3.400  0.00  0.00     0.027 H 
ATOM     50  H   LIG d   1       2.691   1.636  -4.228  0.00  0.00     0.027 H 
ENDBRANCH  41  47
ENDBRANCH  37  40
ENDBRANCH  34  37
ENDBRANCH  28  34
ENDBRANCH   1  28
TORSDOF 14
ENDMDL
MODEL 3
REMARK VINA RESULT:      -4.8      1.952      4.548
REMARK  14 active torsions:
REMARK  status: ('A' for Active; 'I' for Inactive)
REMARK    1  A    between atoms: C_1  and  C_2 
REMARK    2  A    between atoms: C_2  and  C_4 
REMARK    3  A    between atoms: C_2  and  N_10 
REMARK    4  A    between atoms: C_4  and  C_5 
REMARK    5  A    between atoms: C_5  and  C_6 
REMARK    6  A    between atoms: C_7  and  C_8 
REMARK    7  A    between atoms: C_7  and  C_9 
REMARK       I    between atoms: N_10  and  C_11 
REMARK    8  A    between atoms: N_10  and  C_13 
REMARK    9  A    between atoms: C_13  and  C_15 
REMARK   10  A    between atoms: C_13  and  C_16 
REMARK   11  A    between atoms: C_16  and  C_17 
REMARK   12  A    between atoms: C_17  and  C_18 
REMARK   13  A    between atoms: C_19  and  C_20 
REMARK   14  A    between atoms: C_19  and  C_21 
ROOT
ATOM      1  N   LIG d   1       4.286  -0.786  -8.020  0.00  0.00    -0.298 N 
ATOM      2  C   LIG d   1       5.145   0.081  -8.591  0.00  0.00     0.203 C 
ATOM      3  O   LIG d   1       6.266  -0.281  -8.883  0.00  0.00    -0.279 OA
ATOM      4  H   LIG d   1       4.837   1.096  -8.789  0.00  0.00     0.125 H 
ENDROOT
BRANCH   1   5
ATOM      5  C   LIG d   1       2.932  -0.349  -7.668  0.00  0.00     0.024 C 
ATOM      6  H   LIG d   1       2.358  -1.203  -7.305  0.00  0.00     0.050 H 
BRANCH   5   7
ATOM      7  C   LIG d   1       2.247   0.239  -8.903  0.00  0.00    -0.046 C 
ATOM      8  H   LIG d   1       1.175   0.052  -8.846  0.00  0.00     0.025 H 
ATOM      9  H   LIG d   1       2.428   1.313  -8.942  0.00  0.00     0.025 H 
ATOM     10  H   LIG d   1       2.651  -0.231  -9.800  0.00  0.00     0.025 H 
ENDBRANCH   5   7
BRANCH   5  11
ATOM     11  C   LIG d   1       3.009   0.715  -6.571  0.00  0.00    -0.031 C 
ATOM     12  H   LIG d   1       4.046   1.025  -6.438  0.00  0.00     0.029 H 
ATOM     13  H   LIG d   1       2.408   1.577  -6.860  0.00  0.00     0.029 H 
BRANCH  11  14
ATOM     14  C   LIG d   1       2.476   0.137  -5.260  0.00  0.00    -0.033 C 
ATOM     15  H   LIG d   1       1.392   0.244  -5.229  0.00  0.00     0.031 H 
ATOM     16  H   LIG d   1       2.740  -0.920  -5.196  0.00  0.00     0.031 H 
BRANCH  14  17
ATOM     17  C   LIG d   1       3.088   0.878  -4.098  0.00  0.00    -0.085 C 
ATOM     18  C   LIG d   1       3.419   0.229  -3.009  0.00  0.00    -0.080 C 
ATOM     19  H   LIG d   1       3.252   1.943  -4.164  0.00  0.00     0.057 H 
BRANCH  18  20
ATOM     20  C   LIG d   1       3.069  -1.230  -2.865  0.00  0.00    -0.044 C 
ATOM     21  H   LIG d   1       2.430  -1.365  -1.992  0.00  0.00     0.027 H 
ATOM     22  H   LIG d   1       2.541  -1.566  -3.758  0.00  0.00     0.027 H 
ATOM     23  H   LIG d   1       3.982  -1.811  -2.741  0.00  0.00     0.027 H 
ENDBRANCH  18  20
BRANCH  18  24
ATOM     24  C   LIG d   1       4.149   0.943  -1.901  0.00  0.00    -0.044 C 
ATOM     25  H   LIG d   1       3.938   2.011  -1.955  0.00  0.00     0.027 H 
ATOM     26  H   LIG d   1       3.814   0.555  -0.938  0.00  0.00     0.027 H 
ATOM     27  H   LIG d   1       5.221   0.778  -2.006  0.00  0.00     0.027 H 
ENDBRANCH  18  24
ENDBRANCH  14  17
ENDBRANCH  11  14
ENDBRANCH   5  11
ENDBRANCH   1   5
BRANCH   1  28
ATOM     28  C   LIG d   1       4.704  -2.164  -7.753  0.00  0.00     0.024 C 
ATOM     29  H   LIG d   1       5.712  -2.320  -8.136  0.00  0.00     0.050 H 
BRANCH  28  30
ATOM     30  C   LIG d   1       3.742  -3.132  -8.445  0.00  0.00    -0.046 C 
ATOM     31  H   LIG d   1       3.072  -2.573  -9.098  0.00  0.00     0.025 H 
ATOM     32  H   LIG d   1       4.310  -3.850  -9.035  0.00  0.00     0.025 H 
ATOM     33  H   LIG d   1       3.157  -3.662  -7.693  0.00  0.00     0.025 H 
ENDBRANCH  28  30
BRANCH  28  34
ATOM     34  C   LIG d   1       4.686  -2.418  -6.245  0.00  0.00    -0.031 C 
ATOM     35  H   LIG d   1       4.053  -1.677  -5.758  0.00  0.00     0.029 H 
ATOM     36  H   LIG d   1       4.293  -3.416  -6.049  0.00  0.00     0.029 H 
BRANCH  34  37
ATOM     37  C   LIG d   1       6.109  -2.314  -5.694  0.00  0.00    -0.033 C 
ATOM     38  H   LIG d   1       6.201  -2.936  -4.804  0.00  0.00     0.031 H 
ATOM     39  H   LIG d   1       6.818  -2.653  -6.450  0.00  0.00     0.031 H 
BRANCH  37  40
ATOM     40  C   LIG d   1       6.406  -0.880  -5.337  0.00  0.00    -0.085 C 
ATOM     41  C   LIG d   1       6.801  -0.574  -4.125  0.00  0.00    -0.080 C 
ATOM     42  H   LIG d   1       6.294  -0.103  -6.079  0.00  0.00     0.057 H 
BRANCH  41  43
ATOM     43  C   LIG d   1       6.831  -1.634  -3.053  0.00  0.00    -0.044 C 
ATOM     44  H   LIG d   1       5.849  -2.102  -2.978  0.00  0.00     0.027 H 
ATOM     45  H   LIG d   1       7.575  -2.388  -3.309  0.00  0.00     0.027 H 
ATOM     46  H   LIG d   1       7.088  -1.176  -2.098  0.00  0.00     0.027 H 
ENDBRANCH  41  43
BRANCH  41  47
ATOM     47  C   LIG d   1       7.224   0.836  -3.803  0.00  0.00    -0.044 C 
ATOM     48  H   LIG d   1       7.095   1.464  -4.685  0.00  0.00     0.027 H 
ATOM     49  H   LIG d   1       6.610   1.222  -2.990  0.00  0.00     0.027 H 
ATOM     50  H   LIG d   1       8.272   0.841  -3.504  0.00  0.00     0.027 H 
ENDBRANCH  41  47
ENDBRANCH  37  40
ENDBRANCH  34  37
ENDBRANCH  28  34
ENDBRANCH   1  28
TORSDOF 14
ENDMDL
MODEL 4
REMARK VINA RESULT:      -4.8      2.048      5.553
REMARK  14 active torsions:
REMARK  status: ('A' for Active; 'I' for Inactive)
REMARK    1  A    between atoms: C_1  and  C_2 
REMARK    2  A    between atoms: C_2  and  C_4 
REMARK    3  A    between atoms: C_2  and  N_10 
REMARK    4  A    between atoms: C_4  and  C_5 
REMARK    5  A    between atoms: C_5  and  C_6 
REMARK    6  A    between atoms: C_7  and  C_8 
REMARK    7  A    between atoms: C_7  and  C_9 
REMARK       I    between atoms: N_10  and  C_11 
REMARK    8  A    between atoms: N_10  and  C_13 
REMARK    9  A    between atoms: C_13  and  C_15 
REMARK   10  A    between atoms: C_13  and  C_16 
REMARK   11  A    between atoms: C_16  and  C_17 
REMARK   12  A    between atoms: C_17  and  C_18 
REMARK   13  A    between atoms: C_19  and  C_20 
REMARK   14  A    between atoms: C_19  and  C_21 
ROOT
ATOM      1  N   LIG d   1       4.130  -0.603  -3.525  0.00  0.00    -0.298 N 
ATOM      2  C   LIG d   1       3.571  -1.779  -3.181  0.00  0.00     0.203 C 
ATOM      3  O   LIG d   1       3.854  -2.298  -2.122  0.00  0.00    -0.279 OA
ATOM      4  H   LIG d   1       2.872  -2.260  -3.848  0.00  0.00     0.125 H 
ENDROOT
BRANCH   1   5
ATOM      5  C   LIG d   1       3.789   0.024  -4.805  0.00  0.00     0.024 C 
ATOM      6  H   LIG d   1       4.429   0.892  -4.967  0.00  0.00     0.050 H 
BRANCH   5   7
ATOM      7  C   LIG d   1       2.325   0.469  -4.780  0.00  0.00    -0.046 C 
ATOM      8  H   LIG d   1       1.783  -0.106  -4.030  0.00  0.00     0.025 H 
ATOM      9  H   LIG d   1       2.271   1.529  -4.534  0.00  0.00     0.025 H 
ATOM     10  H   LIG d   1       1.877   0.300  -5.760  0.00  0.00     0.025 H 
ENDBRANCH   5   7
BRANCH   5  11
ATOM     11  C   LIG d   1       3.997  -0.982  -5.938  0.00  0.00    -0.031 C 
ATOM     12  H   LIG d   1       4.915  -1.543  -5.761  0.00  0.00     0.029 H 
ATOM     13  H   LIG d   1       3.153  -1.670  -5.972  0.00  0.00     0.029 H 
BRANCH  11  14
ATOM     14  C   LIG d   1       4.102  -0.237  -7.269  0.00  0.00    -0.033 C 
ATOM     15  H   LIG d   1       3.935   0.827  -7.105  0.00  0.00     0.031 H 
ATOM     16  H   LIG d   1       5.096  -0.388  -7.693  0.00  0.00     0.031 H 
BRANCH  14  17
ATOM     17  C   LIG d   1       3.064  -0.767  -8.225  0.00  0.00    -0.085 C 
ATOM     18  C   LIG d   1       2.434   0.054  -9.029  0.00  0.00    -0.080 C 
ATOM     19  H   LIG d   1       2.838  -1.823  -8.246  0.00  0.00     0.057 H 
BRANCH  18  20
ATOM     20  C   LIG d   1       2.651   1.540  -8.908  0.00  0.00    -0.044 C 
ATOM     21  H   LIG d   1       3.451   1.847  -9.584  0.00  0.00     0.027 H 
ATOM     22  H   LIG d   1       1.732   2.064  -9.172  0.00  0.00     0.027 H 
ATOM     23  H   LIG d   1       2.928   1.785  -7.884  0.00  0.00     0.027 H 
ENDBRANCH  18  20
BRANCH  18  24
ATOM     24  C   LIG d   1       1.494  -0.489 -10.073  0.00  0.00    -0.044 C 
ATOM     25  H   LIG d   1       1.882  -1.433 -10.457  0.00  0.00     0.027 H 
ATOM     26  H   LIG d   1       0.512  -0.655  -9.627  0.00  0.00     0.027 H 
ATOM     27  H   LIG d   1       1.405   0.227 -10.890  0.00  0.00     0.027 H 
ENDBRANCH  18  24
ENDBRANCH  14  17
ENDBRANCH  11  14
ENDBRANCH   5  11
ENDBRANCH   1   5
BRANCH   1  28
ATOM     28  C   LIG d   1       5.079   0.050  -2.620  0.00  0.00     0.024 C 
ATOM     29  H   LIG d   1       5.503  -0.690  -1.941  0.00  0.00     0.050 H 
BRANCH  28  30
ATOM     30  C   LIG d   1       4.353   1.128  -1.811  0.00  0.00    -0.046 C 
ATOM     31  H   LIG d   1       4.946   2.043  -1.811  0.00  0.00     0.025 H 
ATOM     32  H   LIG d   1       3.381   1.325  -2.260  0.00  0.00     0.025 H 
ATOM     33  H   LIG d   1       4.218   0.783  -0.786  0.00  0.00     0.025 H 
ENDBRANCH  28  30
BRANCH  28  34
ATOM     34  C   LIG d   1       6.201   0.694  -3.436  0.00  0.00    -0.031 C 
ATOM     35  H   LIG d   1       5.832   0.940  -4.431  0.00  0.00     0.029 H 
ATOM     36  H   LIG d   1       6.536   1.605  -2.938  0.00  0.00     0.029 H 
BRANCH  34  37
ATOM     37  C   LIG d   1       7.372  -0.283  -3.553  0.00  0.00    -0.033 C 
ATOM     38  H   LIG d   1       8.283   0.196  -3.195  0.00  0.00     0.031 H 
ATOM     39  H   LIG d   1       7.167  -1.169  -2.951  0.00  0.00     0.031 H 
BRANCH  37  40
ATOM     40  C   LIG d   1       7.549  -0.685  -4.994  0.00  0.00    -0.085 C 
ATOM     41  C   LIG d   1       7.337  -1.925  -5.360  0.00  0.00    -0.080 C 
ATOM     42  H   LIG d   1       7.851   0.049  -5.727  0.00  0.00     0.057 H 
BRANCH  41  43
ATOM     43  C   LIG d   1       7.045  -2.977  -4.321  0.00  0.00    -0.044 C 
ATOM     44  H   LIG d   1       6.161  -3.544  -4.616  0.00  0.00     0.027 H 
ATOM     45  H   LIG d   1       7.897  -3.651  -4.237  0.00  0.00     0.027 H 
ATOM     46  H   LIG d   1       6.864  -2.497  -3.359  0.00  0.00     0.027 H 
ENDBRANCH  41  43
BRANCH  41  47
ATOM     47  C   LIG d   1       7.384  -2.300  -6.819  0.00  0.00    -0.044 C 
ATOM     48  H   LIG d   1       8.390  -2.631  -7.076  0.00  0.00     0.027 H 
ATOM     49  H   LIG d   1       6.676  -3.106  -7.010  0.00  0.00     0.027 H 
ATOM     50  H   LIG d   1       7.120  -1.433  -7.425  0.00  0.00     0.027 H 
ENDBRANCH  41  47
ENDBRANCH  37  40
ENDBRANCH  34  37
ENDBRANCH  28  34
ENDBRANCH   1  28
TORSDOF 14
ENDMDL
MODEL 5
REMARK VINA RESULT:      -4.8      1.995      6.095
REMARK  14 active torsions:
REMARK  status: ('A' for Active; 'I' for Inactive)
REMARK    1  A    between atoms: C_1  and  C_2 
REMARK    2  A    between atoms: C_2  and  C_4 
REMARK    3  A    between atoms: C_2  and  N_10 
REMARK    4  A    between atoms: C_4  and  C_5 
REMARK    5  A    between atoms: C_5  and  C_6 
REMARK    6  A    between atoms: C_7  and  C_8 
REMARK    7  A    between atoms: C_7  and  C_9 
REMARK       I    between atoms: N_10  and  C_11 
REMARK    8  A    between atoms: N_10  and  C_13 
REMARK    9  A    between atoms: C_13  and  C_15 
REMARK   10  A    between atoms: C_13  and  C_16 
REMARK   11  A    between atoms: C_16  and  C_17 
REMARK   12  A    between atoms: C_17  and  C_18 
REMARK   13  A    between atoms: C_19  and  C_20 
REMARK   14  A    between atoms: C_19  and  C_21 
ROOT
ATOM      1  N   LIG d   1       5.523  -0.032  -7.079  0.00  0.00    -0.298 N 
ATOM      2  C   LIG d   1       6.527   0.467  -6.331  0.00  0.00     0.203 C 
ATOM      3  O   LIG d   1       6.511   0.329  -5.126  0.00  0.00    -0.279 OA
ATOM      4  H   LIG d   1       7.345   0.989  -6.804  0.00  0.00     0.125 H 
ENDROOT
BRANCH   1   5
ATOM      5  C   LIG d   1       5.542   0.134  -8.535  0.00  0.00     0.024 C 
ATOM      6  H   LIG d   1       4.750  -0.469  -8.980  0.00  0.00     0.050 H 
BRANCH   5   7
ATOM      7  C   LIG d   1       6.897  -0.318  -9.083  0.00  0.00    -0.046 C 
ATOM      8  H   LIG d   1       7.225   0.375  -9.857  0.00  0.00     0.025 H 
ATOM      9  H   LIG d   1       7.629  -0.333  -8.275  0.00  0.00     0.025 H 
ATOM     10  H   LIG d   1       6.802  -1.319  -9.506  0.00  0.00     0.025 H 
ENDBRANCH   5   7
BRANCH   5  11
ATOM     11  C   LIG d   1       5.317   1.607  -8.883  0.00  0.00    -0.031 C 
ATOM     12  H   LIG d   1       4.914   2.128  -8.014  0.00  0.00     0.029 H 
ATOM     13  H   LIG d   1       6.265   2.061  -9.170  0.00  0.00     0.029 H 
BRANCH  11  14
ATOM     14  C   LIG d   1       4.329   1.712 -10.046  0.00  0.00    -0.033 C 
ATOM     15  H   LIG d   1       4.132   2.761 -10.262  0.00  0.00     0.031 H 
ATOM     16  H   LIG d   1       4.755   1.232 -10.928  0.00  0.00     0.031 H 
BRANCH  14  17
ATOM     17  C   LIG d   1       3.040   1.024  -9.673  0.00  0.00    -0.085 C 
ATOM     18  C   LIG d   1       2.627  -0.010 -10.362  0.00  0.00    -0.080 C 
ATOM     19  H   LIG d   1       2.457   1.386  -8.839  0.00  0.00     0.057 H 
BRANCH  18  20
ATOM     20  C   LIG d   1       3.369  -0.433 -11.605  0.00  0.00    -0.044 C 
ATOM     21  H   LIG d   1       3.104  -1.461 -11.854  0.00  0.00     0.027 H 
ATOM     22  H   LIG d   1       3.095   0.223 -12.431  0.00  0.00     0.027 H 
ATOM     23  H   LIG d   1       4.441  -0.368 -11.427  0.00  0.00     0.027 H 
ENDBRANCH  18  20
BRANCH  18  24
ATOM     24  C   LIG d   1       1.411  -0.777  -9.912  0.00  0.00    -0.044 C 
ATOM     25  H   LIG d   1       0.706  -0.859 -10.739  0.00  0.00     0.027 H 
ATOM     26  H   LIG d   1       1.710  -1.776  -9.590  0.00  0.00     0.027 H 
ATOM     27  H   LIG d   1       0.938  -0.255  -9.081  0.00  0.00     0.027 H 
ENDBRANCH  18  24
ENDBRANCH  14  17
ENDBRANCH  11  14
ENDBRANCH   5  11
ENDBRANCH   1   5
BRANCH   1  28
ATOM     28  C   LIG d   1       4.413  -0.741  -6.437  0.00  0.00     0.024 C 
ATOM     29  H   LIG d   1       4.738  -1.128  -5.472  0.00  0.00     0.050 H 
BRANCH  28  30
ATOM     30  C   LIG d   1       3.967  -1.902  -7.328  0.00  0.00    -0.046 C 
ATOM     31  H   LIG d   1       3.322  -2.571  -6.758  0.00  0.00     0.025 H 
ATOM     32  H   LIG d   1       3.418  -1.513  -8.186  0.00  0.00     0.025 H 
ATOM     33  H   LIG d   1       4.842  -2.450  -7.676  0.00  0.00     0.025 H 
ENDBRANCH  28  30
BRANCH  28  34
ATOM     34  C   LIG d   1       3.244   0.223  -6.232  0.00  0.00    -0.031 C 
ATOM     35  H   LIG d   1       3.613   1.248  -6.229  0.00  0.00     0.029 H 
ATOM     36  H   LIG d   1       2.524   0.099  -7.042  0.00  0.00     0.029 H 
BRANCH  34  37
ATOM     37  C   LIG d   1       2.563  -0.078  -4.896  0.00  0.00    -0.033 C 
ATOM     38  H   LIG d   1       1.515   0.213  -4.948  0.00  0.00     0.031 H 
ATOM     39  H   LIG d   1       2.635  -1.145  -4.684  0.00  0.00     0.031 H 
BRANCH  37  40
ATOM     40  C   LIG d   1       3.245   0.699  -3.799  0.00  0.00    -0.085 C 
ATOM     41  C   LIG d   1       3.730   0.072  -2.756  0.00  0.00    -0.080 C 
ATOM     42  H   LIG d   1       3.334   1.773  -3.871  0.00  0.00     0.057 H 
BRANCH  41  43
ATOM     43  C   LIG d   1       3.491  -1.408  -2.588  0.00  0.00    -0.044 C 
ATOM     44  H   LIG d   1       4.194  -1.808  -1.857  0.00  0.00     0.027 H 
ATOM     45  H   LIG d   1       2.471  -1.573  -2.242  0.00  0.00     0.027 H 
ATOM     46  H   LIG d   1       3.637  -1.909  -3.545  0.00  0.00     0.027 H 
ENDBRANCH  41  43
BRANCH  41  47
ATOM     47  C   LIG d   1       4.527   0.828  -1.724  0.00  0.00    -0.044 C 
ATOM     48  H   LIG d   1       5.058   1.649  -2.206  0.00  0.00     0.027 H 
ATOM     49  H   LIG d   1       3.853   1.227  -0.966  0.00  0.00     0.027 H 
ATOM     50  H   LIG d   1       5.245   0.155  -1.255  0.00  0.00     0.027 H 
ENDBRANCH  41  47
ENDBRANCH  37  40
ENDBRANCH  34  37
ENDBRANCH  28  34
ENDBRANCH   1  28
TORSDOF 14
ENDMDL
MODEL 6
REMARK VINA RESULT:      -4.8      1.838      4.935
REMARK  14 active torsions:
REMARK  status: ('A' for Active; 'I' for Inactive)
REMARK    1  A    between atoms: C_1  and  C_2 
REMARK    2  A    between atoms: C_2  and  C_4 
REMARK    3  A    between atoms: C_2  and  N_10 
REMARK    4  A    between atoms: C_4  and  C_5 
REMARK    5  A    between atoms: C_5  and  C_6 
REMARK    6  A    between atoms: C_7  and  C_8 
REMARK    7  A    between atoms: C_7  and  C_9 
REMARK       I    between atoms: N_10  and  C_11 
REMARK    8  A    between atoms: N_10  and  C_13 
REMARK    9  A    between atoms: C_13  and  C_15 
REMARK   10  A    between atoms: C_13  and  C_16 
REMARK   11  A    between atoms: C_16  and  C_17 
REMARK   12  A    between atoms: C_17  and  C_18 
REMARK   13  A    between atoms: C_19  and  C_20 
REMARK   14  A    between atoms: C_19  and  C_21 
ROOT
ATOM      1  N   LIG d   1       3.285  -1.225  -8.154  0.00  0.00    -0.298 N 
ATOM      2  C   LIG d   1       2.591  -1.674  -9.218  0.00  0.00     0.203 C 
ATOM      3  O   LIG d   1       1.563  -1.121  -9.549  0.00  0.00    -0.279 OA
ATOM      4  H   LIG d   1       2.950  -2.526  -9.776  0.00  0.00     0.125 H 
ENDROOT
BRANCH   1   5
ATOM      5  C   LIG d   1       4.526  -1.893  -7.754  0.00  0.00     0.024 C 
ATOM      6  H   LIG d   1       4.936  -1.401  -6.871  0.00  0.00     0.050 H 
BRANCH   5   7
ATOM      7  C   LIG d   1       5.540  -1.813  -8.898  0.00  0.00    -0.046 C 
ATOM      8  H   LIG d   1       6.355  -2.510  -8.709  0.00  0.00     0.025 H 
ATOM      9  H   LIG d   1       5.050  -2.072  -9.836  0.00  0.00     0.025 H 
ATOM     10  H   LIG d   1       5.936  -0.799  -8.962  0.00  0.00     0.025 H 
ENDBRANCH   5   7
BRANCH   5  11
ATOM     11  C   LIG d   1       4.235  -3.360  -7.432  0.00  0.00    -0.031 C 
ATOM     12  H   LIG d   1       3.239  -3.446  -7.000  0.00  0.00     0.029 H 
ATOM     13  H   LIG d   1       4.286  -3.949  -8.347  0.00  0.00     0.029 H 
BRANCH  11  14
ATOM     14  C   LIG d   1       5.272  -3.878  -6.433  0.00  0.00    -0.033 C 
ATOM     15  H   LIG d   1       4.973  -4.864  -6.077  0.00  0.00     0.031 H 
ATOM     16  H   LIG d   1       6.244  -3.946  -6.922  0.00  0.00     0.031 H 
BRANCH  14  17
ATOM     17  C   LIG d   1       5.363  -2.928  -5.265  0.00  0.00    -0.085 C 
ATOM     18  C   LIG d   1       6.441  -2.907  -4.522  0.00  0.00    -0.080 C 
ATOM     19  H   LIG d   1       4.539  -2.266  -5.043  0.00  0.00     0.057 H 
BRANCH  18  20
ATOM     20  C   LIG d   1       7.533  -3.920  -4.749  0.00  0.00    -0.044 C 
ATOM     21  H   LIG d   1       7.878  -4.305  -3.788  0.00  0.00     0.027 H 
ATOM     22  H   LIG d   1       7.147  -4.742  -5.352  0.00  0.00     0.027 H 
ATOM     23  H   LIG d   1       8.365  -3.446  -5.270  0.00  0.00     0.027 H 
ENDBRANCH  18  20
BRANCH  18  24
ATOM     24  C   LIG d   1       6.587  -1.871  -3.437  0.00  0.00    -0.044 C 
ATOM     25  H   LIG d   1       7.555  -1.380  -3.532  0.00  0.00     0.027 H 
ATOM     26  H   LIG d   1       5.792  -1.130  -3.534  0.00  0.00     0.027 H 
ATOM     27  H   LIG d   1       6.517  -2.352  -2.462  0.00  0.00     0.027 H 
ENDBRANCH  18  24
ENDBRANCH  14  17
ENDBRANCH  11  14
ENDBRANCH   5  11
ENDBRANCH   1   5
BRANCH   1  28
ATOM     28  C   LIG d   1       2.799  -0.069  -7.396  0.00  0.00     0.024 C 
ATOM     29  H   LIG d   1       1.724  -0.160  -7.242  0.00  0.00     0.050 H 
BRANCH  28  30
ATOM     30  C   LIG d   1       3.093   1.213  -8.178  0.00  0.00    -0.046 C 
ATOM     31  H   LIG d   1       3.412   1.994  -7.489  0.00  0.00     0.025 H 
ATOM     32  H   LIG d   1       3.885   1.023  -8.903  0.00  0.00     0.025 H 
ATOM     33  H   LIG d   1       2.193   1.535  -8.700  0.00  0.00     0.025 H 
ENDBRANCH  28  30
BRANCH  28  34
ATOM     34  C   LIG d   1       3.505  -0.013  -6.042  0.00  0.00    -0.031 C 
ATOM     35  H   LIG d   1       3.915  -0.995  -5.804  0.00  0.00     0.029 H 
ATOM     36  H   LIG d   1       4.314   0.716  -6.083  0.00  0.00     0.029 H 
BRANCH  34  37
ATOM     37  C   LIG d   1       2.504   0.396  -4.960  0.00  0.00    -0.033 C 
ATOM     38  H   LIG d   1       1.819   1.142  -5.363  0.00  0.00     0.031 H 
ATOM     39  H   LIG d   1       1.940  -0.479  -4.637  0.00  0.00     0.031 H 
BRANCH  37  40
ATOM     40  C   LIG d   1       3.245   0.979  -3.784  0.00  0.00    -0.085 C 
ATOM     41  C   LIG d   1       3.563   0.216  -2.767  0.00  0.00    -0.080 C 
ATOM     42  H   LIG d   1       3.514   2.025  -3.778  0.00  0.00     0.057 H 
BRANCH  41  43
ATOM     43  C   LIG d   1       3.075  -1.209  -2.713  0.00  0.00    -0.044 C 
ATOM     44  H   LIG d   1       1.984  -1.219  -2.708  0.00  0.00     0.027 H 
ATOM     45  H   LIG d   1       3.440  -1.751  -3.585  0.00  0.00     0.027 H 
ATOM     46  H   LIG d   1       3.446  -1.686  -1.806  0.00  0.00     0.027 H 
ENDBRANCH  41  43
BRANCH  41  47
ATOM     47  C   LIG d   1       4.417   0.763  -1.653  0.00  0.00    -0.044 C 
ATOM     48  H   LIG d   1       5.392   1.047  -2.048  0.00  0.00     0.027 H 
ATOM     49  H   LIG d   1       3.932   1.638  -1.220  0.00  0.00     0.027 H 
ATOM     50  H   LIG d   1       4.545   0.000  -0.885  0.00  0.00     0.027 H 
ENDBRANCH  41  47
ENDBRANCH  37  40
ENDBRANCH  34  37
ENDBRANCH  28  34
ENDBRANCH   1  28
TORSDOF 14
ENDMDL
MODEL 7
REMARK VINA RESULT:      -4.7      2.186      4.338
REMARK  14 active torsions:
REMARK  status: ('A' for Active; 'I' for Inactive)
REMARK    1  A    between atoms: C_1  and  C_2 
REMARK    2  A    between atoms: C_2  and  C_4 
REMARK    3  A    between atoms: C_2  and  N_10 
REMARK    4  A    between atoms: C_4  and  C_5 
REMARK    5  A    between atoms: C_5  and  C_6 
REMARK    6  A    between atoms: C_7  and  C_8 
REMARK    7  A    between atoms: C_7  and  C_9 
REMARK       I    between atoms: N_10  and  C_11 
REMARK    8  A    between atoms: N_10  and  C_13 
REMARK    9  A    between atoms: C_13  and  C_15 
REMARK   10  A    between atoms: C_13  and  C_16 
REMARK   11  A    between atoms: C_16  and  C_17 
REMARK   12  A    between atoms: C_17  and  C_18 
REMARK   13  A    between atoms: C_19  and  C_20 
REMARK   14  A    between atoms: C_19  and  C_21 
ROOT
ATOM      1  N   LIG d   1       4.418  -0.252  -3.855  0.00  0.00    -0.298 N 
ATOM      2  C   LIG d   1       5.054   0.585  -3.012  0.00  0.00     0.203 C 
ATOM      3  O   LIG d   1       4.956   1.785  -3.162  0.00  0.00    -0.279 OA
ATOM      4  H   LIG d   1       5.650   0.189  -2.205  0.00  0.00     0.125 H 
ENDROOT
BRANCH   1   5
ATOM      5  C   LIG d   1       4.537  -1.702  -3.675  0.00  0.00     0.024 C 
ATOM      6  H   LIG d   1       4.084  -2.212  -4.525  0.00  0.00     0.050 H 
BRANCH   5   7
ATOM      7  C   LIG d   1       3.817  -2.117  -2.389  0.00  0.00    -0.046 C 
ATOM      8  H   LIG d   1       2.823  -1.672  -2.371  0.00  0.00     0.025 H 
ATOM      9  H   LIG d   1       3.731  -3.203  -2.356  0.00  0.00     0.025 H 
ATOM     10  H   LIG d   1       4.387  -1.770  -1.526  0.00  0.00     0.025 H 
ENDBRANCH   5   7
BRANCH   5  11
ATOM     11  C   LIG d   1       6.015  -2.084  -3.578  0.00  0.00    -0.031 C 
ATOM     12  H   LIG d   1       6.616  -1.183  -3.460  0.00  0.00     0.029 H 
ATOM     13  H   LIG d   1       6.166  -2.736  -2.718  0.00  0.00     0.029 H 
BRANCH  11  14
ATOM     14  C   LIG d   1       6.437  -2.816  -4.853  0.00  0.00    -0.033 C 
ATOM     15  H   LIG d   1       6.590  -2.093  -5.654  0.00  0.00     0.031 H 
ATOM     16  H   LIG d   1       7.365  -3.358  -4.671  0.00  0.00     0.031 H 
BRANCH  14  17
ATOM     17  C   LIG d   1       5.358  -3.789  -5.255  0.00  0.00    -0.085 C 
ATOM     18  C   LIG d   1       5.665  -5.035  -5.518  0.00  0.00    -0.080 C 
ATOM     19  H   LIG d   1       4.332  -3.459  -5.325  0.00  0.00     0.057 H 
BRANCH  18  20
ATOM     20  C   LIG d   1       7.109  -5.465  -5.549  0.00  0.00    -0.044 C 
ATOM     21  H   LIG d   1       7.312  -5.988  -6.484  0.00  0.00     0.027 H 
ATOM     22  H   LIG d   1       7.751  -4.587  -5.477  0.00  0.00     0.027 H 
ATOM     23  H   LIG d   1       7.308  -6.131  -4.710  0.00  0.00     0.027 H 
ENDBRANCH  18  20
BRANCH  18  24
ATOM     24  C   LIG d   1       4.573  -6.038  -5.791  0.00  0.00    -0.044 C 
ATOM     25  H   LIG d   1       3.922  -6.112  -4.920  0.00  0.00     0.027 H 
ATOM     26  H   LIG d   1       3.990  -5.714  -6.654  0.00  0.00     0.027 H 
ATOM     27  H   LIG d   1       5.017  -7.011  -5.997  0.00  0.00     0.027 H 
ENDBRANCH  18  24
ENDBRANCH  14  17
ENDBRANCH  11  14
ENDBRANCH   5  11
ENDBRANCH   1   5
BRANCH   1  28
ATOM     28  C   LIG d   1       3.608   0.285  -4.951  0.00  0.00     0.024 C 
ATOM     29  H   LIG d   1       3.828   1.345  -5.080  0.00  0.00     0.050 H 
BRANCH  28  30
ATOM     30  C   LIG d   1       2.124   0.109  -4.622  0.00  0.00    -0.046 C 
ATOM     31  H   LIG d   1       2.020  -0.527  -3.743  0.00  0.00     0.025 H 
ATOM     32  H   LIG d   1       1.678   1.082  -4.420  0.00  0.00     0.025 H 
ATOM     33  H   LIG d   1       1.618  -0.355  -5.468  0.00  0.00     0.025 H 
ENDBRANCH  28  30
BRANCH  28  34
ATOM     34  C   LIG d   1       3.937  -0.464  -6.242  0.00  0.00    -0.031 C 
ATOM     35  H   LIG d   1       4.882  -0.100  -6.644  0.00  0.00     0.029 H 
ATOM     36  H   LIG d   1       4.019  -1.531  -6.033  0.00  0.00     0.029 H 
BRANCH  34  37
ATOM     37  C   LIG d   1       2.824  -0.230  -7.266  0.00  0.00    -0.033 C 
ATOM     38  H   LIG d   1       2.147  -1.083  -7.268  0.00  0.00     0.031 H 
ATOM     39  H   LIG d   1       2.272   0.673  -7.001  0.00  0.00     0.031 H 
BRANCH  37  40
ATOM     40  C   LIG d   1       3.428  -0.065  -8.636  0.00  0.00    -0.085 C 
ATOM     41  C   LIG d   1       3.498   1.123  -9.184  0.00  0.00    -0.080 C 
ATOM     42  H   LIG d   1       3.805  -0.926  -9.169  0.00  0.00     0.057 H 
BRANCH  41  43
ATOM     43  C   LIG d   1       2.855   2.305  -8.503  0.00  0.00    -0.044 C 
ATOM     44  H   LIG d   1       2.637   2.051  -7.465  0.00  0.00     0.027 H 
ATOM     45  H   LIG d   1       3.535   3.156  -8.534  0.00  0.00     0.027 H 
ATOM     46  H   LIG d   1       1.928   2.560  -9.016  0.00  0.00     0.027 H 
ENDBRANCH  41  43
BRANCH  41  47
ATOM     47  C   LIG d   1       4.219   1.309 -10.494  0.00  0.00    -0.044 C 
ATOM     48  H   LIG d   1       5.046   0.602 -10.556  0.00  0.00     0.027 H 
ATOM     49  H   LIG d   1       3.527   1.132 -11.317  0.00  0.00     0.027 H 
ATOM     50  H   LIG d   1       4.605   2.326 -10.555  0.00  0.00     0.027 H 
ENDBRANCH  41  47
ENDBRANCH  37  40
ENDBRANCH  34  37
ENDBRANCH  28  34
ENDBRANCH   1  28
TORSDOF 14
ENDMDL
MODEL 8
REMARK VINA RESULT:      -4.7      2.728      5.939
REMARK  14 active torsions:
REMARK  status: ('A' for Active; 'I' for Inactive)
REMARK    1  A    between atoms: C_1  and  C_2 
REMARK    2  A    between atoms: C_2  and  C_4 
REMARK    3  A    between atoms: C_2  and  N_10 
REMARK    4  A    between atoms: C_4  and  C_5 
REMARK    5  A    between atoms: C_5  and  C_6 
REMARK    6  A    between atoms: C_7  and  C_8 
REMARK    7  A    between atoms: C_7  and  C_9 
REMARK       I    between atoms: N_10  and  C_11 
REMARK    8  A    between atoms: N_10  and  C_13 
REMARK    9  A    between atoms: C_13  and  C_15 
REMARK   10  A    between atoms: C_13  and  C_16 
REMARK   11  A    between atoms: C_16  and  C_17 
REMARK   12  A    between atoms: C_17  and  C_18 
REMARK   13  A    between atoms: C_19  and  C_20 
REMARK   14  A    between atoms: C_19  and  C_21 
ROOT
ATOM      1  N   LIG d   1       5.282  -4.313  -5.995  0.00  0.00    -0.298 N 
ATOM      2  C   LIG d   1       4.505  -5.362  -6.326  0.00  0.00     0.203 C 
ATOM      3  O   LIG d   1       3.314  -5.331  -6.097  0.00  0.00    -0.279 OA
ATOM      4  H   LIG d   1       4.941  -6.231  -6.796  0.00  0.00     0.125 H 
ENDROOT
BRANCH   1   5
ATOM      5  C   LIG d   1       6.721  -4.351  -6.273  0.00  0.00     0.024 C 
ATOM      6  H   LIG d   1       7.163  -3.384  -6.034  0.00  0.00     0.050 H 
BRANCH   5   7
ATOM      7  C   LIG d   1       6.947  -4.663  -7.754  0.00  0.00    -0.046 C 
ATOM      8  H   LIG d   1       6.785  -5.727  -7.929  0.00  0.00     0.025 H 
ATOM      9  H   LIG d   1       6.248  -4.085  -8.357  0.00  0.00     0.025 H 
ATOM     10  H   LIG d   1       7.969  -4.401  -8.029  0.00  0.00     0.025 H 
ENDBRANCH   5   7
BRANCH   5  11
ATOM     11  C   LIG d   1       7.377  -5.437  -5.417  0.00  0.00    -0.031 C 
ATOM     12  H   LIG d   1       6.641  -5.848  -4.725  0.00  0.00     0.029 H 
ATOM     13  H   LIG d   1       7.751  -6.231  -6.062  0.00  0.00     0.029 H 
BRANCH  11  14
ATOM     14  C   LIG d   1       8.538  -4.832  -4.627  0.00  0.00    -0.033 C 
ATOM     15  H   LIG d   1       9.279  -4.431  -5.319  0.00  0.00     0.031 H 
ATOM     16  H   LIG d   1       8.165  -4.029  -3.990  0.00  0.00     0.031 H 
BRANCH  14  17
ATOM     17  C   LIG d   1       9.174  -5.897  -3.771  0.00  0.00    -0.085 C 
ATOM     18  C   LIG d   1       9.613  -5.600  -2.574  0.00  0.00    -0.080 C 
ATOM     19  H   LIG d   1       9.268  -6.906  -4.146  0.00  0.00     0.057 H 
BRANCH  18  20
ATOM     20  C   LIG d   1       9.604  -4.168  -2.102  0.00  0.00    -0.044 C 
ATOM     21  H   LIG d   1      10.283  -4.061  -1.255  0.00  0.00     0.027 H 
ATOM     22  H   LIG d   1       9.929  -3.517  -2.914  0.00  0.00     0.027 H 
ATOM     23  H   LIG d   1       8.595  -3.893  -1.796  0.00  0.00     0.027 H 
ENDBRANCH  18  20
BRANCH  18  24
ATOM     24  C   LIG d   1      10.128  -6.689  -1.669  0.00  0.00    -0.044 C 
ATOM     25  H   LIG d   1      11.077  -7.062  -2.052  0.00  0.00     0.027 H 
ATOM     26  H   LIG d   1      10.274  -6.288  -0.665  0.00  0.00     0.027 H 
ATOM     27  H   LIG d   1       9.405  -7.504  -1.633  0.00  0.00     0.027 H 
ENDBRANCH  18  24
ENDBRANCH  14  17
ENDBRANCH  11  14
ENDBRANCH   5  11
ENDBRANCH   1   5
BRANCH   1  28
ATOM     28  C   LIG d   1       4.691  -3.134  -5.358  0.00  0.00     0.024 C 
ATOM     29  H   LIG d   1       3.610  -3.260  -5.291  0.00  0.00     0.050 H 
BRANCH  28  30
ATOM     30  C   LIG d   1       5.007  -1.891  -6.193  0.00  0.00    -0.046 C 
ATOM     31  H   LIG d   1       4.079  -1.392  -6.469  0.00  0.00     0.025 H 
ATOM     32  H   LIG d   1       5.626  -1.210  -5.610  0.00  0.00     0.025 H 
ATOM     33  H   LIG d   1       5.543  -2.187  -7.095  0.00  0.00     0.025 H 
ENDBRANCH  28  30
BRANCH  28  34
ATOM     34  C   LIG d   1       5.273  -2.967  -3.954  0.00  0.00    -0.031 C 
ATOM     35  H   LIG d   1       5.666  -3.923  -3.607  0.00  0.00     0.029 H 
ATOM     36  H   LIG d   1       6.078  -2.232  -3.979  0.00  0.00     0.029 H 
BRANCH  34  37
ATOM     37  C   LIG d   1       4.176  -2.490  -3.001  0.00  0.00    -0.033 C 
ATOM     38  H   LIG d   1       3.279  -2.250  -3.569  0.00  0.00     0.031 H 
ATOM     39  H   LIG d   1       3.952  -3.278  -2.282  0.00  0.00     0.031 H 
BRANCH  37  40
ATOM     40  C   LIG d   1       4.648  -1.261  -2.267  0.00  0.00    -0.085 C 
ATOM     41  C   LIG d   1       4.041  -0.114  -2.450  0.00  0.00    -0.080 C 
ATOM     42  H   LIG d   1       5.487  -1.324  -1.590  0.00  0.00     0.057 H 
BRANCH  41  43
ATOM     43  C   LIG d   1       2.957   0.006  -3.492  0.00  0.00    -0.044 C 
ATOM     44  H   LIG d   1       2.324   0.863  -3.260  0.00  0.00     0.027 H 
ATOM     45  H   LIG d   1       3.411   0.144  -4.473  0.00  0.00     0.027 H 
ATOM     46  H   LIG d   1       2.353  -0.901  -3.493  0.00  0.00     0.027 H 
ENDBRANCH  41  43
BRANCH  41  47
ATOM     47  C   LIG d   1       4.425   1.084  -1.621  0.00  0.00    -0.044 C 
ATOM     48  H   LIG d   1       4.437   1.973  -2.251  0.00  0.00     0.027 H 
ATOM     49  H   LIG d   1       3.700   1.217  -0.818  0.00  0.00     0.027 H 
ATOM     50  H   LIG d   1       5.416   0.928  -1.194  0.00  0.00     0.027 H 
ENDBRANCH  41  47
ENDBRANCH  37  40
ENDBRANCH  34  37
ENDBRANCH  28  34
ENDBRANCH   1  28
TORSDOF 14
ENDMDL
MODEL 9
REMARK VINA RESULT:      -4.7      2.918      5.593
REMARK  14 active torsions:
REMARK  status: ('A' for Active; 'I' for Inactive)
REMARK    1  A    between atoms: C_1  and  C_2 
REMARK    2  A    between atoms: C_2  and  C_4 
REMARK    3  A    between atoms: C_2  and  N_10 
REMARK    4  A    between atoms: C_4  and  C_5 
REMARK    5  A    between atoms: C_5  and  C_6 
REMARK    6  A    between atoms: C_7  and  C_8 
REMARK    7  A    between atoms: C_7  and  C_9 
REMARK       I    between atoms: N_10  and  C_11 
REMARK    8  A    between atoms: N_10  and  C_13 
REMARK    9  A    between atoms: C_13  and  C_15 
REMARK   10  A    between atoms: C_13  and  C_16 
REMARK   11  A    between atoms: C_16  and  C_17 
REMARK   12  A    between atoms: C_17  and  C_18 
REMARK   13  A    between atoms: C_19  and  C_20 
REMARK   14  A    between atoms: C_19  and  C_21 
ROOT
ATOM      1  N   LIG d   1       4.901  -0.565  -3.574  0.00  0.00    -0.298 N 
ATOM      2  C   LIG d   1       5.347  -1.818  -3.793  0.00  0.00     0.203 C 
ATOM      3  O   LIG d   1       6.342  -2.215  -3.224  0.00  0.00    -0.279 OA
ATOM      4  H   LIG d   1       4.819  -2.468  -4.474  0.00  0.00     0.125 H 
ENDROOT
BRANCH   1   5
ATOM      5  C   LIG d   1       3.699  -0.085  -4.261  0.00  0.00     0.024 C 
ATOM      6  H   LIG d   1       3.618   0.995  -4.140  0.00  0.00     0.050 H 
BRANCH   5   7
ATOM      7  C   LIG d   1       2.464  -0.760  -3.660  0.00  0.00    -0.046 C 
ATOM      8  H   LIG d   1       2.732  -1.753  -3.299  0.00  0.00     0.025 H 
ATOM      9  H   LIG d   1       2.090  -0.160  -2.831  0.00  0.00     0.025 H 
ATOM     10  H   LIG d   1       1.690  -0.848  -4.424  0.00  0.00     0.025 H 
ENDBRANCH   5   7
BRANCH   5  11
ATOM     11  C   LIG d   1       3.793  -0.426  -5.750  0.00  0.00    -0.031 C 
ATOM     12  H   LIG d   1       4.797  -0.202  -6.111  0.00  0.00     0.029 H 
ATOM     13  H   LIG d   1       3.583  -1.486  -5.894  0.00  0.00     0.029 H 
BRANCH  11  14
ATOM     14  C   LIG d   1       2.773   0.406  -6.529  0.00  0.00    -0.033 C 
ATOM     15  H   LIG d   1       1.821   0.404  -5.998  0.00  0.00     0.031 H 
ATOM     16  H   LIG d   1       3.135   1.430  -6.623  0.00  0.00     0.031 H 
BRANCH  14  17
ATOM     17  C   LIG d   1       2.583  -0.187  -7.902  0.00  0.00    -0.085 C 
ATOM     18  C   LIG d   1       2.675   0.575  -8.963  0.00  0.00    -0.080 C 
ATOM     19  H   LIG d   1       2.371  -1.241  -8.010  0.00  0.00     0.057 H 
BRANCH  18  20
ATOM     20  C   LIG d   1       2.839   2.066  -8.808  0.00  0.00    -0.044 C 
ATOM     21  H   LIG d   1       1.938   2.484  -8.356  0.00  0.00     0.027 H 
ATOM     22  H   LIG d   1       3.696   2.272  -8.167  0.00  0.00     0.027 H 
ATOM     23  H   LIG d   1       2.998   2.517  -9.786  0.00  0.00     0.027 H 
ENDBRANCH  18  20
BRANCH  18  24
ATOM     24  C   LIG d   1       2.617  -0.038 -10.338  0.00  0.00    -0.044 C 
ATOM     25  H   LIG d   1       3.493   0.267 -10.910  0.00  0.00     0.027 H 
ATOM     26  H   LIG d   1       2.601  -1.125 -10.250  0.00  0.00     0.027 H 
ATOM     27  H   LIG d   1       1.714   0.298 -10.848  0.00  0.00     0.027 H 
ENDBRANCH  18  24
ENDBRANCH  14  17
ENDBRANCH  11  14
ENDBRANCH   5  11
ENDBRANCH   1   5
BRANCH   1  28
ATOM     28  C   LIG d   1       5.617   0.317  -2.649  0.00  0.00     0.024 C 
ATOM     29  H   LIG d   1       6.390  -0.250  -2.131  0.00  0.00     0.050 H 
BRANCH  28  30
ATOM     30  C   LIG d   1       4.633   0.889  -1.626  0.00  0.00    -0.046 C 
ATOM     31  H   LIG d   1       4.842   1.948  -1.474  0.00  0.00     0.025 H 
ATOM     32  H   LIG d   1       3.615   0.769  -1.995  0.00  0.00     0.025 H 
ATOM     33  H   LIG d   1       4.742   0.358  -0.681  0.00  0.00     0.025 H 
ENDBRANCH  28  30
BRANCH  28  34
ATOM     34  C   LIG d   1       6.262   1.461  -3.432  0.00  0.00    -0.031 C 
ATOM     35  H   LIG d   1       5.686   1.652  -4.338  0.00  0.00     0.029 H 
ATOM     36  H   LIG d   1       6.277   2.360  -2.816  0.00  0.00     0.029 H 
BRANCH  34  37
ATOM     37  C   LIG d   1       7.694   1.078  -3.810  0.00  0.00    -0.033 C 
ATOM     38  H   LIG d   1       8.096   0.394  -3.063  0.00  0.00     0.031 H 
ATOM     39  H   LIG d   1       7.694   0.591  -4.785  0.00  0.00     0.031 H 
BRANCH  37  40
ATOM     40  C   LIG d   1       8.548   2.318  -3.867  0.00  0.00    -0.085 C 
ATOM     41  C   LIG d   1       8.892   2.824  -5.025  0.00  0.00    -0.080 C 
ATOM     42  H   LIG d   1       8.876   2.791  -2.953  0.00  0.00     0.057 H 
BRANCH  41  43
ATOM     43  C   LIG d   1       8.547   2.093  -6.298  0.00  0.00    -0.044 C 
ATOM     44  H   LIG d   1       8.556   2.795  -7.133  0.00  0.00     0.027 H 
ATOM     45  H   LIG d   1       9.281   1.307  -6.476  0.00  0.00     0.027 H 
ATOM     46  H   LIG d   1       7.555   1.652  -6.206  0.00  0.00     0.027 H 
ENDBRANCH  41  43
BRANCH  41  47
ATOM     47  C   LIG d   1       9.633   4.135  -5.086  0.00  0.00    -0.044 C 
ATOM     48  H   LIG d   1       9.368   4.659  -6.004  0.00  0.00     0.027 H 
ATOM     49  H   LIG d   1       9.359   4.746  -4.226  0.00  0.00     0.027 H 
ATOM     50  H   LIG d   1      10.706   3.947  -5.071  0.00  0.00     0.027 H 
ENDBRANCH  41  47
ENDBRANCH  37  40
ENDBRANCH  34  37
ENDBRANCH  28  34
ENDBRANCH   1  28
TORSDOF 14
ENDMDL
MODEL 10
REMARK VINA RESULT:      -4.6      2.331      3.989
REMARK  14 active torsions:
REMARK  status: ('A' for Active; 'I' for Inactive)
REMARK    1  A    between atoms: C_1  and  C_2 
REMARK    2  A    between atoms: C_2  and  C_4 
REMARK    3  A    between atoms: C_2  and  N_10 
REMARK    4  A    between atoms: C_4  and  C_5 
REMARK    5  A    between atoms: C_5  and  C_6 
REMARK    6  A    between atoms: C_7  and  C_8 
REMARK    7  A    between atoms: C_7  and  C_9 
REMARK       I    between atoms: N_10  and  C_11 
REMARK    8  A    between atoms: N_10  and  C_13 
REMARK    9  A    between atoms: C_13  and  C_15 
REMARK   10  A    between atoms: C_13  and  C_16 
REMARK   11  A    between atoms: C_16  and  C_17 
REMARK   12  A    between atoms: C_17  and  C_18 
REMARK   13  A    between atoms: C_19  and  C_20 
REMARK   14  A    between atoms: C_19  and  C_21 
ROOT
ATOM      1  N   LIG d   1       4.288  -0.074  -3.786  0.00  0.00    -0.298 N 
ATOM      2  C   LIG d   1       4.512   0.932  -2.918  0.00  0.00     0.203 C 
ATOM      3  O   LIG d   1       4.109   2.048  -3.168  0.00  0.00    -0.279 OA
ATOM      4  H   LIG d   1       5.048   0.744  -2.000  0.00  0.00     0.125 H 
ENDROOT
BRANCH   1   5
ATOM      5  C   LIG d   1       4.775  -1.423  -3.484  0.00  0.00     0.024 C 
ATOM      6  H   LIG d   1       4.684  -2.050  -4.372  0.00  0.00     0.050 H 
BRANCH   5   7
ATOM      7  C   LIG d   1       3.942  -2.024  -2.349  0.00  0.00    -0.046 C 
ATOM      8  H   LIG d   1       3.099  -2.572  -2.768  0.00  0.00     0.025 H 
ATOM      9  H   LIG d   1       4.562  -2.703  -1.764  0.00  0.00     0.025 H 
ATOM     10  H   LIG d   1       3.572  -1.224  -1.707  0.00  0.00     0.025 H 
ENDBRANCH   5   7
BRANCH   5  11
ATOM     11  C   LIG d   1       6.243  -1.353  -3.058  0.00  0.00    -0.031 C 
ATOM     12  H   LIG d   1       6.449  -0.373  -2.628  0.00  0.00     0.029 H 
ATOM     13  H   LIG d   1       6.442  -2.124  -2.314  0.00  0.00     0.029 H 
BRANCH  11  14
ATOM     14  C   LIG d   1       7.139  -1.575  -4.277  0.00  0.00    -0.033 C 
ATOM     15  H   LIG d   1       8.049  -2.090  -3.971  0.00  0.00     0.031 H 
ATOM     16  H   LIG d   1       6.608  -2.182  -5.012  0.00  0.00     0.031 H 
BRANCH  14  17
ATOM     17  C   LIG d   1       7.495  -0.244  -4.889  0.00  0.00    -0.085 C 
ATOM     18  C   LIG d   1       7.611  -0.131  -6.188  0.00  0.00    -0.080 C 
ATOM     19  H   LIG d   1       7.655   0.615  -4.255  0.00  0.00     0.057 H 
BRANCH  18  20
ATOM     20  C   LIG d   1       7.520  -1.356  -7.063  0.00  0.00    -0.044 C 
ATOM     21  H   LIG d   1       6.849  -1.155  -7.899  0.00  0.00     0.027 H 
ATOM     22  H   LIG d   1       8.511  -1.605  -7.443  0.00  0.00     0.027 H 
ATOM     23  H   LIG d   1       7.133  -2.190  -6.479  0.00  0.00     0.027 H 
ENDBRANCH  18  20
BRANCH  18  24
ATOM     24  C   LIG d   1       7.838   1.223  -6.809  0.00  0.00    -0.044 C 
ATOM     25  H   LIG d   1       8.699   1.699  -6.340  0.00  0.00     0.027 H 
ATOM     26  H   LIG d   1       8.024   1.107  -7.877  0.00  0.00     0.027 H 
ATOM     27  H   LIG d   1       6.954   1.843  -6.660  0.00  0.00     0.027 H 
ENDBRANCH  18  24
ENDBRANCH  14  17
ENDBRANCH  11  14
ENDBRANCH   5  11
ENDBRANCH   1   5
BRANCH   1  28
ATOM     28  C   LIG d   1       3.559   0.179  -5.031  0.00  0.00     0.024 C 
ATOM     29  H   LIG d   1       3.810   1.172  -5.404  0.00  0.00     0.050 H 
BRANCH  28  30
ATOM     30  C   LIG d   1       2.055   0.100  -4.766  0.00  0.00    -0.046 C 
ATOM     31  H   LIG d   1       1.818  -0.858  -4.304  0.00  0.00     0.025 H 
ATOM     32  H   LIG d   1       1.760   0.908  -4.098  0.00  0.00     0.025 H 
ATOM     33  H   LIG d   1       1.515   0.192  -5.709  0.00  0.00     0.025 H 
ENDBRANCH  28  30
BRANCH  28  34
ATOM     34  C   LIG d   1       3.950  -0.870  -6.073  0.00  0.00    -0.031 C 
ATOM     35  H   LIG d   1       5.036  -0.933  -6.136  0.00  0.00     0.029 H 
ATOM     36  H   LIG d   1       3.547  -1.840  -5.781  0.00  0.00     0.029 H 
BRANCH  34  37
ATOM     37  C   LIG d   1       3.382  -0.471  -7.436  0.00  0.00    -0.033 C 
ATOM     38  H   LIG d   1       3.118  -1.367  -7.996  0.00  0.00     0.031 H 
ATOM     39  H   LIG d   1       2.494   0.145  -7.294  0.00  0.00     0.031 H 
BRANCH  37  40
ATOM     40  C   LIG d   1       4.418   0.312  -8.203  0.00  0.00    -0.085 C 
ATOM     41  C   LIG d   1       4.147   1.524  -8.621  0.00  0.00    -0.080 C 
ATOM     42  H   LIG d   1       5.384  -0.125  -8.408  0.00  0.00     0.057 H 
BRANCH  41  43
ATOM     43  C   LIG d   1       2.758   2.085  -8.453  0.00  0.00    -0.044 C 
ATOM     44  H   LIG d   1       2.207   1.480  -7.732  0.00  0.00     0.027 H 
ATOM     45  H   LIG d   1       2.822   3.112  -8.092  0.00  0.00     0.027 H 
ATOM     46  H   LIG d   1       2.241   2.068  -9.412  0.00  0.00     0.027 H 
ENDBRANCH  41  43
BRANCH  41  47
ATOM     47  C   LIG d   1       5.222   2.356  -9.270  0.00  0.00    -0.044 C 
ATOM     48  H   LIG d   1       6.201   2.000  -8.946  0.00  0.00     0.027 H 
ATOM     49  H   LIG d   1       5.145   2.269 -10.353  0.00  0.00     0.027 H 
ATOM     50  H   LIG d   1       5.100   3.399  -8.978  0.00  0.00     0.027 H 
ENDBRANCH  41  47
ENDBRANCH  37  40
ENDBRANCH  34  37
ENDBRANCH  28  34
ENDBRANCH   1  28
TORSDOF 14
ENDMDL
