MODEL 1
REMARK VINA RESULT:      -7.0      0.000      0.000
REMARK  8 active torsions:
REMARK  status: ('A' for Active; 'I' for Inactive)
REMARK    1  A    between atoms: C_1  and  C_2 
REMARK    2  A    between atoms: C_2  and  C_3 
REMARK    3  A    between atoms: C_3  and  C_4 
REMARK    4  A    between atoms: C_4  and  C_5 
REMARK    5  A    between atoms: C_15  and  C_16 
REMARK    6  A    between atoms: N_19  and  C_21 
REMARK    7  A    between atoms: C_24  and  C_28 
REMARK    8  A    between atoms: C_25  and  C_27 
ROOT
ATOM      1  C   LIG d   1       5.346  -2.098  -3.645  0.00  0.00    -0.030 A 
ATOM      2  C   LIG d   1       5.048  -3.300  -4.204  0.00  0.00     0.027 A 
ATOM      3  C   LIG d   1       5.690  -3.698  -5.394  0.00  0.00     0.338 A 
ATOM      4  O   LIG d   1       5.413  -4.779  -5.885  0.00  0.00    -0.245 OA
ATOM      5  O   LIG d   1       6.598  -2.918  -6.000  0.00  0.00    -0.422 OA
ATOM      6  C   LIG d   1       6.941  -1.714  -5.497  0.00  0.00     0.146 A 
ATOM      7  C   LIG d   1       6.335  -1.250  -4.315  0.00  0.00     0.022 A 
ATOM      8  C   LIG d   1       6.683  -0.000  -3.795  0.00  0.00    -0.043 A 
ATOM      9  C   LIG d   1       7.609   0.774  -4.437  0.00  0.00     0.013 A 
ATOM     10  C   LIG d   1       8.209   0.323  -5.609  0.00  0.00     0.134 A 
ATOM     11  C   LIG d   1       7.881  -0.919  -6.134  0.00  0.00     0.035 A 
ATOM     12  O   LIG d   1       9.134   1.084  -6.253  0.00  0.00    -0.473 OA
ATOM     13  C   LIG d   1       9.194   2.469  -5.905  0.00  0.00     0.157 C 
ATOM     14  N   LIG d   1       9.235   2.584  -4.437  0.00  0.00    -0.293 NA
ATOM     15  C   LIG d   1       7.967   2.120  -3.857  0.00  0.00     0.044 C 
ATOM     16  H   LIG d   1       4.320  -3.948  -3.738  0.00  0.00     0.069 H 
ATOM     17  H   LIG d   1       6.220   0.354  -2.886  0.00  0.00     0.063 H 
ATOM     18  H   LIG d   1       8.311   2.981  -6.287  0.00  0.00     0.091 H 
ATOM     19  H   LIG d   1      10.091   2.917  -6.331  0.00  0.00     0.091 H 
ATOM     20  H   LIG d   1       7.179   2.836  -4.089  0.00  0.00     0.051 H 
ATOM     21  H   LIG d   1       8.072   2.033  -2.776  0.00  0.00     0.051 H 
ENDROOT
BRANCH  14  22
ATOM     22  C   LIG d   1       9.515   3.895  -4.046  0.00  0.00     0.033 A 
ATOM     23  C   LIG d   1       9.933   4.161  -2.749  0.00  0.00    -0.037 A 
ATOM     24  C   LIG d   1      10.214   5.458  -2.367  0.00  0.00    -0.046 A 
ATOM     25  H   LIG d   1      10.043   3.353  -2.039  0.00  0.00     0.064 H 
ATOM     26  C   LIG d   1      10.069   6.493  -3.272  0.00  0.00    -0.047 A 
ATOM     27  C   LIG d   1       9.648   6.232  -4.564  0.00  0.00    -0.057 A 
ATOM     28  C   LIG d   1       9.371   4.937  -4.953  0.00  0.00    -0.040 A 
ATOM     29  H   LIG d   1       9.537   7.043  -5.268  0.00  0.00     0.062 H 
ATOM     30  H   LIG d   1       9.041   4.735  -5.962  0.00  0.00     0.064 H 
BRANCH  24  31
ATOM     31  C   LIG d   1      10.674   5.746  -0.961  0.00  0.00    -0.039 C 
ATOM     32  H   LIG d   1      10.025   5.230  -0.254  0.00  0.00     0.028 H 
ATOM     33  H   LIG d   1      11.699   5.397  -0.835  0.00  0.00     0.028 H 
ATOM     34  H   LIG d   1      10.630   6.820  -0.777  0.00  0.00     0.028 H 
ENDBRANCH  24  31
BRANCH  26  35
ATOM     35  C   LIG d   1      10.371   7.907  -2.850  0.00  0.00    -0.040 C 
ATOM     36  H   LIG d   1       9.438   8.460  -2.740  0.00  0.00     0.028 H 
ATOM     37  H   LIG d   1      10.901   7.898  -1.899  0.00  0.00     0.028 H 
ATOM     38  H   LIG d   1      10.991   8.389  -3.608  0.00  0.00     0.028 H 
ENDBRANCH  26  35
ENDBRANCH  14  22
BRANCH  11  39
ATOM     39  C   LIG d   1       8.535  -1.398  -7.405  0.00  0.00    -0.033 C 
ATOM     40  H   LIG d   1       8.701  -0.550  -8.069  0.00  0.00     0.028 H 
ATOM     41  H   LIG d   1       9.490  -1.866  -7.167  0.00  0.00     0.028 H 
ATOM     42  H   LIG d   1       7.887  -2.123  -7.896  0.00  0.00     0.028 H 
ENDBRANCH  11  39
BRANCH   1  43
ATOM     43  C   LIG d   1       4.674  -1.648  -2.374  0.00  0.00    -0.027 C 
ATOM     44  H   LIG d   1       5.169  -0.752  -1.998  0.00  0.00     0.031 H 
ATOM     45  H   LIG d   1       4.741  -2.440  -1.627  0.00  0.00     0.031 H 
BRANCH  43  46
ATOM     46  C   LIG d   1       3.203  -1.337  -2.657  0.00  0.00    -0.049 C 
ATOM     47  H   LIG d   1       2.605  -1.579  -1.778  0.00  0.00     0.027 H 
ATOM     48  H   LIG d   1       2.863  -1.933  -3.503  0.00  0.00     0.027 H 
BRANCH  46  49
ATOM     49  C   LIG d   1       3.050   0.149  -2.985  0.00  0.00    -0.056 C 
ATOM     50  H   LIG d   1       2.002   0.436  -2.891  0.00  0.00     0.026 H 
ATOM     51  H   LIG d   1       3.386   0.333  -4.006  0.00  0.00     0.026 H 
BRANCH  49  52
ATOM     52  C   LIG d   1       3.894   0.977  -2.013  0.00  0.00    -0.065 C 
ATOM     53  H   LIG d   1       4.378   0.312  -1.297  0.00  0.00     0.023 H 
ATOM     54  H   LIG d   1       4.653   1.526  -2.569  0.00  0.00     0.023 H 
ATOM     55  H   LIG d   1       3.252   1.679  -1.481  0.00  0.00     0.023 H 
ENDBRANCH  49  52
ENDBRANCH  46  49
ENDBRANCH  43  46
ENDBRANCH   1  43
TORSDOF 8
ENDMDL
MODEL 2
REMARK VINA RESULT:      -6.7      1.593      1.921
REMARK  8 active torsions:
REMARK  status: ('A' for Active; 'I' for Inactive)
REMARK    1  A    between atoms: C_1  and  C_2 
REMARK    2  A    between atoms: C_2  and  C_3 
REMARK    3  A    between atoms: C_3  and  C_4 
REMARK    4  A    between atoms: C_4  and  C_5 
REMARK    5  A    between atoms: C_15  and  C_16 
REMARK    6  A    between atoms: N_19  and  C_21 
REMARK    7  A    between atoms: C_24  and  C_28 
REMARK    8  A    between atoms: C_25  and  C_27 
ROOT
ATOM      1  C   LIG d   1       5.607  -1.364  -4.231  0.00  0.00    -0.030 A 
ATOM      2  C   LIG d   1       4.850  -2.084  -5.100  0.00  0.00     0.027 A 
ATOM      3  C   LIG d   1       4.938  -1.827  -6.484  0.00  0.00     0.338 A 
ATOM      4  O   LIG d   1       4.253  -2.480  -7.253  0.00  0.00    -0.245 OA
ATOM      5  O   LIG d   1       5.755  -0.883  -6.976  0.00  0.00    -0.422 OA
ATOM      6  C   LIG d   1       6.533  -0.134  -6.168  0.00  0.00     0.146 A 
ATOM      7  C   LIG d   1       6.492  -0.332  -4.775  0.00  0.00     0.022 A 
ATOM      8  C   LIG d   1       7.293   0.448  -3.934  0.00  0.00    -0.043 A 
ATOM      9  C   LIG d   1       8.113   1.404  -4.465  0.00  0.00     0.013 A 
ATOM     10  C   LIG d   1       8.154   1.609  -5.842  0.00  0.00     0.134 A 
ATOM     11  C   LIG d   1       7.373   0.837  -6.691  0.00  0.00     0.035 A 
ATOM     12  O   LIG d   1       8.969   2.555  -6.379  0.00  0.00    -0.473 OA
ATOM     13  C   LIG d   1       9.484   3.551  -5.492  0.00  0.00     0.157 C 
ATOM     14  N   LIG d   1      10.039   2.880  -4.304  0.00  0.00    -0.293 NA
ATOM     15  C   LIG d   1       8.965   2.234  -3.538  0.00  0.00     0.044 C 
ATOM     16  H   LIG d   1       4.184  -2.850  -4.732  0.00  0.00     0.069 H 
ATOM     17  H   LIG d   1       7.263   0.294  -2.867  0.00  0.00     0.063 H 
ATOM     18  H   LIG d   1       8.681   4.222  -5.190  0.00  0.00     0.091 H 
ATOM     19  H   LIG d   1      10.268   4.119  -5.991  0.00  0.00     0.091 H 
ATOM     20  H   LIG d   1       8.350   2.997  -3.063  0.00  0.00     0.051 H 
ATOM     21  H   LIG d   1       9.401   1.591  -2.774  0.00  0.00     0.051 H 
ENDROOT
BRANCH  14  22
ATOM     22  C   LIG d   1      10.751   3.781  -3.508  0.00  0.00     0.033 A 
ATOM     23  C   LIG d   1      10.073   4.714  -2.735  0.00  0.00    -0.037 A 
ATOM     24  C   LIG d   1      10.781   5.600  -1.946  0.00  0.00    -0.046 A 
ATOM     25  H   LIG d   1       8.993   4.744  -2.747  0.00  0.00     0.064 H 
ATOM     26  C   LIG d   1      12.163   5.566  -1.935  0.00  0.00    -0.047 A 
ATOM     27  C   LIG d   1      12.841   4.642  -2.707  0.00  0.00    -0.057 A 
ATOM     28  C   LIG d   1      12.140   3.750  -3.494  0.00  0.00    -0.040 A 
ATOM     29  H   LIG d   1      13.920   4.618  -2.696  0.00  0.00     0.062 H 
ATOM     30  H   LIG d   1      12.671   3.029  -4.099  0.00  0.00     0.064 H 
BRANCH  24  31
ATOM     31  C   LIG d   1      10.045   6.609  -1.102  0.00  0.00    -0.039 C 
ATOM     32  H   LIG d   1       9.726   6.140  -0.171  0.00  0.00     0.028 H 
ATOM     33  H   LIG d   1      10.706   7.447  -0.878  0.00  0.00     0.028 H 
ATOM     34  H   LIG d   1       9.172   6.970  -1.644  0.00  0.00     0.028 H 
ENDBRANCH  24  31
BRANCH  26  35
ATOM     35  C   LIG d   1      12.930   6.539  -1.077  0.00  0.00    -0.040 C 
ATOM     36  H   LIG d   1      12.281   6.916  -0.287  0.00  0.00     0.028 H 
ATOM     37  H   LIG d   1      13.787   6.034  -0.632  0.00  0.00     0.028 H 
ATOM     38  H   LIG d   1      13.276   7.371  -1.692  0.00  0.00     0.028 H 
ENDBRANCH  26  35
ENDBRANCH  14  22
BRANCH  11  39
ATOM     39  C   LIG d   1       7.424   1.067  -8.180  0.00  0.00    -0.033 C 
ATOM     40  H   LIG d   1       7.479   2.136  -8.380  0.00  0.00     0.028 H 
ATOM     41  H   LIG d   1       8.304   0.574  -8.592  0.00  0.00     0.028 H 
ATOM     42  H   LIG d   1       6.526   0.655  -8.642  0.00  0.00     0.028 H 
ENDBRANCH  11  39
BRANCH   1  43
ATOM     43  C   LIG d   1       5.532  -1.616  -2.747  0.00  0.00    -0.027 C 
ATOM     44  H   LIG d   1       6.380  -1.141  -2.254  0.00  0.00     0.031 H 
ATOM     45  H   LIG d   1       5.558  -2.691  -2.561  0.00  0.00     0.031 H 
BRANCH  43  46
ATOM     46  C   LIG d   1       4.229  -1.034  -2.196  0.00  0.00    -0.049 C 
ATOM     47  H   LIG d   1       3.877  -1.650  -1.368  0.00  0.00     0.027 H 
ATOM     48  H   LIG d   1       3.477  -1.019  -2.983  0.00  0.00     0.027 H 
BRANCH  46  49
ATOM     49  C   LIG d   1       4.478   0.392  -1.700  0.00  0.00    -0.056 C 
ATOM     50  H   LIG d   1       5.541   0.621  -1.770  0.00  0.00     0.026 H 
ATOM     51  H   LIG d   1       4.156   0.477  -0.661  0.00  0.00     0.026 H 
BRANCH  49  52
ATOM     52  C   LIG d   1       3.685   1.377  -2.561  0.00  0.00    -0.065 C 
ATOM     53  H   LIG d   1       4.377   2.005  -3.123  0.00  0.00     0.023 H 
ATOM     54  H   LIG d   1       3.051   0.825  -3.254  0.00  0.00     0.023 H 
ATOM     55  H   LIG d   1       3.066   2.004  -1.919  0.00  0.00     0.023 H 
ENDBRANCH  49  52
ENDBRANCH  46  49
ENDBRANCH  43  46
ENDBRANCH   1  43
TORSDOF 8
ENDMDL
MODEL 3
REMARK VINA RESULT:      -6.3      5.005      8.900
REMARK  8 active torsions:
REMARK  status: ('A' for Active; 'I' for Inactive)
REMARK    1  A    between atoms: C_1  and  C_2 
REMARK    2  A    between atoms: C_2  and  C_3 
REMARK    3  A    between atoms: C_3  and  C_4 
REMARK    4  A    between atoms: C_4  and  C_5 
REMARK    5  A    between atoms: C_15  and  C_16 
REMARK    6  A    between atoms: N_19  and  C_21 
REMARK    7  A    between atoms: C_24  and  C_28 
REMARK    8  A    between atoms: C_25  and  C_27 
ROOT
ATOM      1  C   LIG d   1       5.877  -0.800  -4.170  0.00  0.00    -0.030 A 
ATOM      2  C   LIG d   1       6.882  -0.134  -3.542  0.00  0.00     0.027 A 
ATOM      3  C   LIG d   1       7.676   0.780  -4.264  0.00  0.00     0.338 A 
ATOM      4  O   LIG d   1       8.574   1.369  -3.688  0.00  0.00    -0.245 OA
ATOM      5  O   LIG d   1       7.469   1.018  -5.568  0.00  0.00    -0.422 OA
ATOM      6  C   LIG d   1       6.488   0.392  -6.252  0.00  0.00     0.146 A 
ATOM      7  C   LIG d   1       5.661  -0.539  -5.595  0.00  0.00     0.022 A 
ATOM      8  C   LIG d   1       4.648  -1.194  -6.302  0.00  0.00    -0.043 A 
ATOM      9  C   LIG d   1       4.464  -0.933  -7.632  0.00  0.00     0.013 A 
ATOM     10  C   LIG d   1       5.282  -0.018  -8.288  0.00  0.00     0.134 A 
ATOM     11  C   LIG d   1       6.286   0.648  -7.599  0.00  0.00     0.035 A 
ATOM     12  O   LIG d   1       5.104   0.250  -9.609  0.00  0.00    -0.473 OA
ATOM     13  C   LIG d   1       4.322  -0.679 -10.363  0.00  0.00     0.157 C 
ATOM     14  N   LIG d   1       3.074  -0.947  -9.628  0.00  0.00    -0.293 NA
ATOM     15  C   LIG d   1       3.366  -1.654  -8.374  0.00  0.00     0.044 C 
ATOM     16  H   LIG d   1       7.071  -0.306  -2.493  0.00  0.00     0.069 H 
ATOM     17  H   LIG d   1       4.011  -1.905  -5.799  0.00  0.00     0.063 H 
ATOM     18  H   LIG d   1       4.878  -1.608 -10.489  0.00  0.00     0.091 H 
ATOM     19  H   LIG d   1       4.088  -0.257 -11.339  0.00  0.00     0.091 H 
ATOM     20  H   LIG d   1       3.685  -2.672  -8.597  0.00  0.00     0.051 H 
ATOM     21  H   LIG d   1       2.469  -1.682  -7.756  0.00  0.00     0.051 H 
ENDROOT
BRANCH  14  22
ATOM     22  C   LIG d   1       2.177  -1.673 -10.416  0.00  0.00     0.033 A 
ATOM     23  C   LIG d   1       1.896  -2.998 -10.111  0.00  0.00    -0.037 A 
ATOM     24  C   LIG d   1       1.004  -3.710 -10.890  0.00  0.00    -0.046 A 
ATOM     25  H   LIG d   1       2.370  -3.470  -9.263  0.00  0.00     0.064 H 
ATOM     26  C   LIG d   1       0.400  -3.108 -11.978  0.00  0.00    -0.047 A 
ATOM     27  C   LIG d   1       0.682  -1.790 -12.287  0.00  0.00    -0.057 A 
ATOM     28  C   LIG d   1       1.568  -1.070 -11.510  0.00  0.00    -0.040 A 
ATOM     29  H   LIG d   1       0.208  -1.323 -13.137  0.00  0.00     0.062 H 
ATOM     30  H   LIG d   1       1.788  -0.041 -11.753  0.00  0.00     0.064 H 
BRANCH  24  31
ATOM     31  C   LIG d   1       0.694  -5.146 -10.556  0.00  0.00    -0.039 C 
ATOM     32  H   LIG d   1       1.517  -5.572  -9.981  0.00  0.00     0.028 H 
ATOM     33  H   LIG d   1      -0.223  -5.193  -9.967  0.00  0.00     0.028 H 
ATOM     34  H   LIG d   1       0.563  -5.714 -11.477  0.00  0.00     0.028 H 
ENDBRANCH  24  31
BRANCH  26  35
ATOM     35  C   LIG d   1      -0.567  -3.890 -12.828  0.00  0.00    -0.040 C 
ATOM     36  H   LIG d   1      -0.799  -4.835 -12.337  0.00  0.00     0.028 H 
ATOM     37  H   LIG d   1      -1.483  -3.315 -12.961  0.00  0.00     0.028 H 
ATOM     38  H   LIG d   1      -0.117  -4.088 -13.802  0.00  0.00     0.028 H 
ENDBRANCH  26  35
ENDBRANCH  14  22
BRANCH  11  39
ATOM     39  C   LIG d   1       7.168   1.636  -8.318  0.00  0.00    -0.033 C 
ATOM     40  H   LIG d   1       6.835   2.649  -8.095  0.00  0.00     0.028 H 
ATOM     41  H   LIG d   1       8.198   1.511  -7.986  0.00  0.00     0.028 H 
ATOM     42  H   LIG d   1       7.109   1.461  -9.392  0.00  0.00     0.028 H 
ENDBRANCH  11  39
BRANCH   1  43
ATOM     43  C   LIG d   1       5.014  -1.783  -3.423  0.00  0.00    -0.027 C 
ATOM     44  H   LIG d   1       5.621  -2.630  -3.103  0.00  0.00     0.031 H 
ATOM     45  H   LIG d   1       4.215  -2.134  -4.078  0.00  0.00     0.031 H 
BRANCH  43  46
ATOM     46  C   LIG d   1       4.405  -1.099  -2.198  0.00  0.00    -0.049 C 
ATOM     47  H   LIG d   1       5.180  -0.545  -1.668  0.00  0.00     0.027 H 
ATOM     48  H   LIG d   1       3.980  -1.852  -1.535  0.00  0.00     0.027 H 
BRANCH  46  49
ATOM     49  C   LIG d   1       3.305  -0.134  -2.646  0.00  0.00    -0.056 C 
ATOM     50  H   LIG d   1       2.371  -0.390  -2.145  0.00  0.00     0.026 H 
ATOM     51  H   LIG d   1       3.170  -0.212  -3.725  0.00  0.00     0.026 H 
BRANCH  49  52
ATOM     52  C   LIG d   1       3.703   1.298  -2.284  0.00  0.00    -0.065 C 
ATOM     53  H   LIG d   1       4.552   1.277  -1.600  0.00  0.00     0.023 H 
ATOM     54  H   LIG d   1       3.979   1.838  -3.189  0.00  0.00     0.023 H 
ATOM     55  H   LIG d   1       2.862   1.798  -1.803  0.00  0.00     0.023 H 
ENDBRANCH  49  52
ENDBRANCH  46  49
ENDBRANCH  43  46
ENDBRANCH   1  43
TORSDOF 8
ENDMDL
MODEL 4
REMARK VINA RESULT:      -6.2      2.197      8.293
REMARK  8 active torsions:
REMARK  status: ('A' for Active; 'I' for Inactive)
REMARK    1  A    between atoms: C_1  and  C_2 
REMARK    2  A    between atoms: C_2  and  C_3 
REMARK    3  A    between atoms: C_3  and  C_4 
REMARK    4  A    between atoms: C_4  and  C_5 
REMARK    5  A    between atoms: C_15  and  C_16 
REMARK    6  A    between atoms: N_19  and  C_21 
REMARK    7  A    between atoms: C_24  and  C_28 
REMARK    8  A    between atoms: C_25  and  C_27 
ROOT
ATOM      1  C   LIG d   1      11.396   5.438  -3.168  0.00  0.00    -0.030 A 
ATOM      2  C   LIG d   1      12.268   6.254  -3.816  0.00  0.00     0.027 A 
ATOM      3  C   LIG d   1      12.352   6.213  -5.223  0.00  0.00     0.338 A 
ATOM      4  O   LIG d   1      13.138   6.950  -5.792  0.00  0.00    -0.245 OA
ATOM      5  O   LIG d   1      11.589   5.383  -5.951  0.00  0.00    -0.422 OA
ATOM      6  C   LIG d   1      10.703   4.548  -5.370  0.00  0.00     0.146 A 
ATOM      7  C   LIG d   1      10.571   4.531  -3.969  0.00  0.00     0.022 A 
ATOM      8  C   LIG d   1       9.659   3.662  -3.363  0.00  0.00    -0.043 A 
ATOM      9  C   LIG d   1       8.898   2.826  -4.131  0.00  0.00     0.013 A 
ATOM     10  C   LIG d   1       9.028   2.833  -5.517  0.00  0.00     0.134 A 
ATOM     11  C   LIG d   1       9.922   3.696  -6.135  0.00  0.00     0.035 A 
ATOM     12  O   LIG d   1       8.273   2.008  -6.290  0.00  0.00    -0.473 OA
ATOM     13  C   LIG d   1       7.635   0.908  -5.637  0.00  0.00     0.157 C 
ATOM     14  N   LIG d   1       6.944   1.410  -4.437  0.00  0.00    -0.293 NA
ATOM     15  C   LIG d   1       7.922   1.895  -3.455  0.00  0.00     0.044 C 
ATOM     16  H   LIG d   1      12.894   6.933  -3.256  0.00  0.00     0.069 H 
ATOM     17  H   LIG d   1       9.555   3.652  -2.289  0.00  0.00     0.063 H 
ATOM     18  H   LIG d   1       8.383   0.171  -5.346  0.00  0.00     0.091 H 
ATOM     19  H   LIG d   1       6.911   0.448  -6.310  0.00  0.00     0.091 H 
ATOM     20  H   LIG d   1       8.461   1.049  -3.031  0.00  0.00     0.051 H 
ATOM     21  H   LIG d   1       7.403   2.430  -2.660  0.00  0.00     0.051 H 
ENDROOT
BRANCH  14  22
ATOM     22  C   LIG d   1       6.124   0.424  -3.883  0.00  0.00     0.033 A 
ATOM     23  C   LIG d   1       6.009  -0.815  -4.499  0.00  0.00    -0.037 A 
ATOM     24  C   LIG d   1       5.201  -1.788  -3.946  0.00  0.00    -0.046 A 
ATOM     25  H   LIG d   1       6.556  -1.019  -5.409  0.00  0.00     0.064 H 
ATOM     26  C   LIG d   1       4.497  -1.526  -2.785  0.00  0.00    -0.047 A 
ATOM     27  C   LIG d   1       4.605  -0.292  -2.171  0.00  0.00    -0.057 A 
ATOM     28  C   LIG d   1       5.415   0.684  -2.716  0.00  0.00    -0.040 A 
ATOM     29  H   LIG d   1       4.054  -0.091  -1.264  0.00  0.00     0.062 H 
ATOM     30  H   LIG d   1       5.498   1.648  -2.237  0.00  0.00     0.064 H 
BRANCH  24  31
ATOM     31  C   LIG d   1       5.081  -3.135  -4.611  0.00  0.00    -0.039 C 
ATOM     32  H   LIG d   1       4.231  -3.674  -4.191  0.00  0.00     0.028 H 
ATOM     33  H   LIG d   1       4.931  -3.000  -5.682  0.00  0.00     0.028 H 
ATOM     34  H   LIG d   1       5.993  -3.708  -4.442  0.00  0.00     0.028 H 
ENDBRANCH  24  31
BRANCH  26  35
ATOM     35  C   LIG d   1       3.612  -2.589  -2.188  0.00  0.00    -0.040 C 
ATOM     36  H   LIG d   1       4.224  -3.428  -1.856  0.00  0.00     0.028 H 
ATOM     37  H   LIG d   1       3.071  -2.177  -1.336  0.00  0.00     0.028 H 
ATOM     38  H   LIG d   1       2.901  -2.934  -2.939  0.00  0.00     0.028 H 
ENDBRANCH  26  35
ENDBRANCH  14  22
BRANCH  11  39
ATOM     39  C   LIG d   1      10.057   3.696  -7.636  0.00  0.00    -0.033 C 
ATOM     40  H   LIG d   1      10.693   4.525  -7.943  0.00  0.00     0.028 H 
ATOM     41  H   LIG d   1      10.503   2.756  -7.960  0.00  0.00     0.028 H 
ATOM     42  H   LIG d   1       9.072   3.805  -8.090  0.00  0.00     0.028 H 
ENDBRANCH  11  39
BRANCH   1  43
ATOM     43  C   LIG d   1      11.286   5.461  -1.665  0.00  0.00    -0.027 C 
ATOM     44  H   LIG d   1      12.270   5.639  -1.231  0.00  0.00     0.031 H 
ATOM     45  H   LIG d   1      10.903   4.502  -1.315  0.00  0.00     0.031 H 
BRANCH  43  46
ATOM     46  C   LIG d   1      10.332   6.578  -1.241  0.00  0.00    -0.049 C 
ATOM     47  H   LIG d   1       9.311   6.196  -1.219  0.00  0.00     0.027 H 
ATOM     48  H   LIG d   1      10.396   7.401  -1.952  0.00  0.00     0.027 H 
BRANCH  46  49
ATOM     49  C   LIG d   1      10.718   7.077   0.153  0.00  0.00    -0.056 C 
ATOM     50  H   LIG d   1       9.868   7.591   0.603  0.00  0.00     0.026 H 
ATOM     51  H   LIG d   1      11.558   7.767   0.073  0.00  0.00     0.026 H 
BRANCH  49  52
ATOM     52  C   LIG d   1      11.117   5.888   1.029  0.00  0.00    -0.065 C 
ATOM     53  H   LIG d   1      10.515   5.021   0.759  0.00  0.00     0.023 H 
ATOM     54  H   LIG d   1      12.172   5.661   0.874  0.00  0.00     0.023 H 
ATOM     55  H   LIG d   1      10.948   6.136   2.077  0.00  0.00     0.023 H 
ENDBRANCH  49  52
ENDBRANCH  46  49
ENDBRANCH  43  46
ENDBRANCH   1  43
TORSDOF 8
ENDMDL
MODEL 5
REMARK VINA RESULT:      -6.0      2.741      3.534
REMARK  8 active torsions:
REMARK  status: ('A' for Active; 'I' for Inactive)
REMARK    1  A    between atoms: C_1  and  C_2 
REMARK    2  A    between atoms: C_2  and  C_3 
REMARK    3  A    between atoms: C_3  and  C_4 
REMARK    4  A    between atoms: C_4  and  C_5 
REMARK    5  A    between atoms: C_15  and  C_16 
REMARK    6  A    between atoms: N_19  and  C_21 
REMARK    7  A    between atoms: C_24  and  C_28 
REMARK    8  A    between atoms: C_25  and  C_27 
ROOT
ATOM      1  C   LIG d   1       5.443  -2.088  -4.143  0.00  0.00    -0.030 A 
ATOM      2  C   LIG d   1       4.793  -3.280  -4.205  0.00  0.00     0.027 A 
ATOM      3  C   LIG d   1       4.602  -3.909  -5.451  0.00  0.00     0.338 A 
ATOM      4  O   LIG d   1       4.016  -4.978  -5.493  0.00  0.00    -0.245 OA
ATOM      5  O   LIG d   1       5.047  -3.363  -6.594  0.00  0.00    -0.422 OA
ATOM      6  C   LIG d   1       5.701  -2.183  -6.602  0.00  0.00     0.146 A 
ATOM      7  C   LIG d   1       5.922  -1.495  -5.394  0.00  0.00     0.022 A 
ATOM      8  C   LIG d   1       6.594  -0.269  -5.400  0.00  0.00    -0.043 A 
ATOM      9  C   LIG d   1       7.033   0.264  -6.580  0.00  0.00     0.013 A 
ATOM     10  C   LIG d   1       6.813  -0.408  -7.779  0.00  0.00     0.134 A 
ATOM     11  C   LIG d   1       6.156  -1.631  -7.789  0.00  0.00     0.035 A 
ATOM     12  O   LIG d   1       7.249   0.112  -8.956  0.00  0.00    -0.473 OA
ATOM     13  C   LIG d   1       7.597   1.498  -8.967  0.00  0.00     0.157 C 
ATOM     14  N   LIG d   1       8.484   1.769  -7.823  0.00  0.00    -0.293 NA
ATOM     15  C   LIG d   1       7.753   1.589  -6.561  0.00  0.00     0.044 C 
ATOM     16  H   LIG d   1       4.424  -3.742  -3.301  0.00  0.00     0.069 H 
ATOM     17  H   LIG d   1       6.766   0.256  -4.473  0.00  0.00     0.063 H 
ATOM     18  H   LIG d   1       6.694   2.103  -8.880  0.00  0.00     0.091 H 
ATOM     19  H   LIG d   1       8.113   1.742  -9.895  0.00  0.00     0.091 H 
ATOM     20  H   LIG d   1       7.029   2.395  -6.443  0.00  0.00     0.051 H 
ATOM     21  H   LIG d   1       8.456   1.608  -5.729  0.00  0.00     0.051 H 
ENDROOT
BRANCH  14  22
ATOM     22  C   LIG d   1       9.031   3.052  -7.907  0.00  0.00     0.033 A 
ATOM     23  C   LIG d   1       8.646   3.908  -8.929  0.00  0.00    -0.037 A 
ATOM     24  C   LIG d   1       9.186   5.177  -9.006  0.00  0.00    -0.046 A 
ATOM     25  H   LIG d   1       7.921   3.584  -9.662  0.00  0.00     0.064 H 
ATOM     26  C   LIG d   1      10.117   5.591  -8.072  0.00  0.00    -0.047 A 
ATOM     27  C   LIG d   1      10.507   4.739  -7.055  0.00  0.00    -0.057 A 
ATOM     28  C   LIG d   1       9.967   3.471  -6.969  0.00  0.00    -0.040 A 
ATOM     29  H   LIG d   1      11.234   5.066  -6.327  0.00  0.00     0.062 H 
ATOM     30  H   LIG d   1      10.273   2.806  -6.175  0.00  0.00     0.064 H 
BRANCH  24  31
ATOM     31  C   LIG d   1       8.763   6.109 -10.112  0.00  0.00    -0.039 C 
ATOM     32  H   LIG d   1       8.428   7.054  -9.683  0.00  0.00     0.028 H 
ATOM     33  H   LIG d   1       9.609   6.292 -10.776  0.00  0.00     0.028 H 
ATOM     34  H   LIG d   1       7.949   5.658 -10.678  0.00  0.00     0.028 H 
ENDBRANCH  24  31
BRANCH  26  35
ATOM     35  C   LIG d   1      10.708   6.974  -8.163  0.00  0.00    -0.040 C 
ATOM     36  H   LIG d   1      10.243   7.618  -7.416  0.00  0.00     0.028 H 
ATOM     37  H   LIG d   1      11.781   6.925  -7.981  0.00  0.00     0.028 H 
ATOM     38  H   LIG d   1      10.525   7.382  -9.158  0.00  0.00     0.028 H 
ENDBRANCH  26  35
ENDBRANCH  14  22
BRANCH  11  39
ATOM     39  C   LIG d   1       5.922  -2.351  -9.093  0.00  0.00    -0.033 C 
ATOM     40  H   LIG d   1       5.610  -1.634  -9.852  0.00  0.00     0.028 H 
ATOM     41  H   LIG d   1       6.844  -2.837  -9.409  0.00  0.00     0.028 H 
ATOM     42  H   LIG d   1       5.143  -3.101  -8.959  0.00  0.00     0.028 H 
ENDBRANCH  11  39
BRANCH   1  43
ATOM     43  C   LIG d   1       5.661  -1.393  -2.824  0.00  0.00    -0.027 C 
ATOM     44  H   LIG d   1       5.999  -0.372  -3.002  0.00  0.00     0.031 H 
ATOM     45  H   LIG d   1       6.417  -1.931  -2.250  0.00  0.00     0.031 H 
BRANCH  43  46
ATOM     46  C   LIG d   1       4.348  -1.366  -2.039  0.00  0.00    -0.049 C 
ATOM     47  H   LIG d   1       4.555  -1.513  -0.979  0.00  0.00     0.027 H 
ATOM     48  H   LIG d   1       3.696  -2.162  -2.395  0.00  0.00     0.027 H 
BRANCH  46  49
ATOM     49  C   LIG d   1       3.661  -0.014  -2.241  0.00  0.00    -0.056 C 
ATOM     50  H   LIG d   1       2.917   0.136  -1.457  0.00  0.00     0.026 H 
ATOM     51  H   LIG d   1       3.171   0.003  -3.214  0.00  0.00     0.026 H 
BRANCH  49  52
ATOM     52  C   LIG d   1       4.704   1.104  -2.175  0.00  0.00    -0.065 C 
ATOM     53  H   LIG d   1       5.700   0.667  -2.109  0.00  0.00     0.023 H 
ATOM     54  H   LIG d   1       4.635   1.717  -3.073  0.00  0.00     0.023 H 
ATOM     55  H   LIG d   1       4.519   1.722  -1.296  0.00  0.00     0.023 H 
ENDBRANCH  49  52
ENDBRANCH  46  49
ENDBRANCH  43  46
ENDBRANCH   1  43
TORSDOF 8
ENDMDL
MODEL 6
REMARK VINA RESULT:      -5.9      7.352     11.009
REMARK  8 active torsions:
REMARK  status: ('A' for Active; 'I' for Inactive)
REMARK    1  A    between atoms: C_1  and  C_2 
REMARK    2  A    between atoms: C_2  and  C_3 
REMARK    3  A    between atoms: C_3  and  C_4 
REMARK    4  A    between atoms: C_4  and  C_5 
REMARK    5  A    between atoms: C_15  and  C_16 
REMARK    6  A    between atoms: N_19  and  C_21 
REMARK    7  A    between atoms: C_24  and  C_28 
REMARK    8  A    between atoms: C_25  and  C_27 
ROOT
ATOM      1  C   LIG d   1      11.437   9.420   0.126  0.00  0.00    -0.030 A 
ATOM      2  C   LIG d   1      11.453  10.385   1.082  0.00  0.00     0.027 A 
ATOM      3  C   LIG d   1      10.933  11.664   0.795  0.00  0.00     0.338 A 
ATOM      4  O   LIG d   1      10.954  12.521   1.662  0.00  0.00    -0.245 OA
ATOM      5  O   LIG d   1      10.415  11.962  -0.406  0.00  0.00    -0.422 OA
ATOM      6  C   LIG d   1      10.367  11.049  -1.399  0.00  0.00     0.146 A 
ATOM      7  C   LIG d   1      10.875   9.754  -1.185  0.00  0.00     0.022 A 
ATOM      8  C   LIG d   1      10.832   8.808  -2.213  0.00  0.00    -0.043 A 
ATOM      9  C   LIG d   1      10.301   9.142  -3.428  0.00  0.00     0.013 A 
ATOM     10  C   LIG d   1       9.802  10.422  -3.648  0.00  0.00     0.134 A 
ATOM     11  C   LIG d   1       9.828  11.371  -2.635  0.00  0.00     0.035 A 
ATOM     12  O   LIG d   1       9.269  10.763  -4.851  0.00  0.00    -0.473 OA
ATOM     13  C   LIG d   1       9.567   9.911  -5.960  0.00  0.00     0.157 C 
ATOM     14  N   LIG d   1       9.315   8.516  -5.562  0.00  0.00    -0.293 NA
ATOM     15  C   LIG d   1      10.269   8.105  -4.523  0.00  0.00     0.044 C 
ATOM     16  H   LIG d   1      11.864  10.174   2.058  0.00  0.00     0.069 H 
ATOM     17  H   LIG d   1      11.219   7.813  -2.049  0.00  0.00     0.063 H 
ATOM     18  H   LIG d   1      10.613  10.027  -6.240  0.00  0.00     0.091 H 
ATOM     19  H   LIG d   1       8.930  10.170  -6.805  0.00  0.00     0.091 H 
ATOM     20  H   LIG d   1      11.262   8.007  -4.961  0.00  0.00     0.051 H 
ATOM     21  H   LIG d   1       9.961   7.146  -4.106  0.00  0.00     0.051 H 
ENDROOT
BRANCH  14  22
ATOM     22  C   LIG d   1       9.376   7.662  -6.665  0.00  0.00     0.033 A 
ATOM     23  C   LIG d   1       9.746   6.334  -6.500  0.00  0.00    -0.037 A 
ATOM     24  C   LIG d   1       9.801   5.492  -7.594  0.00  0.00    -0.046 A 
ATOM     25  H   LIG d   1       9.988   5.959  -5.516  0.00  0.00     0.064 H 
ATOM     26  C   LIG d   1       9.497   5.973  -8.854  0.00  0.00    -0.047 A 
ATOM     27  C   LIG d   1       9.132   7.296  -9.023  0.00  0.00    -0.057 A 
ATOM     28  C   LIG d   1       9.071   8.142  -7.934  0.00  0.00    -0.040 A 
ATOM     29  H   LIG d   1       8.895   7.668 -10.008  0.00  0.00     0.062 H 
ATOM     30  H   LIG d   1       8.786   9.176  -8.067  0.00  0.00     0.064 H 
BRANCH  24  31
ATOM     31  C   LIG d   1      10.198   4.050  -7.414  0.00  0.00    -0.039 C 
ATOM     32  H   LIG d   1      11.148   3.868  -7.916  0.00  0.00     0.028 H 
ATOM     33  H   LIG d   1      10.302   3.831  -6.351  0.00  0.00     0.028 H 
ATOM     34  H   LIG d   1       9.431   3.405  -7.843  0.00  0.00     0.028 H 
ENDBRANCH  24  31
BRANCH  26  35
ATOM     35  C   LIG d   1       9.564   5.053 -10.044  0.00  0.00    -0.040 C 
ATOM     36  H   LIG d   1       8.715   5.246 -10.701  0.00  0.00     0.028 H 
ATOM     37  H   LIG d   1      10.491   5.228 -10.589  0.00  0.00     0.028 H 
ATOM     38  H   LIG d   1       9.532   4.016  -9.705  0.00  0.00     0.028 H 
ENDBRANCH  26  35
ENDBRANCH  14  22
BRANCH  11  39
ATOM     39  C   LIG d   1       9.287  12.755  -2.883  0.00  0.00    -0.033 C 
ATOM     40  H   LIG d   1       9.159  12.908  -3.954  0.00  0.00     0.028 H 
ATOM     41  H   LIG d   1       8.324  12.862  -2.383  0.00  0.00     0.028 H 
ATOM     42  H   LIG d   1       9.984  13.494  -2.490  0.00  0.00     0.028 H 
ENDBRANCH  11  39
BRANCH   1  43
ATOM     43  C   LIG d   1      11.988   8.045   0.404  0.00  0.00    -0.027 C 
ATOM     44  H   LIG d   1      13.019   8.129   0.747  0.00  0.00     0.031 H 
ATOM     45  H   LIG d   1      11.955   7.449  -0.509  0.00  0.00     0.031 H 
BRANCH  43  46
ATOM     46  C   LIG d   1      11.144   7.368   1.486  0.00  0.00    -0.049 C 
ATOM     47  H   LIG d   1      10.131   7.769   1.461  0.00  0.00     0.027 H 
ATOM     48  H   LIG d   1      11.586   7.558   2.463  0.00  0.00     0.027 H 
BRANCH  46  49
ATOM     49  C   LIG d   1      11.102   5.860   1.231  0.00  0.00    -0.056 C 
ATOM     50  H   LIG d   1      10.100   5.484   1.438  0.00  0.00     0.026 H 
ATOM     51  H   LIG d   1      11.819   5.360   1.883  0.00  0.00     0.026 H 
BRANCH  49  52
ATOM     52  C   LIG d   1      11.460   5.579  -0.231  0.00  0.00    -0.065 C 
ATOM     53  H   LIG d   1      12.366   4.975  -0.272  0.00  0.00     0.023 H 
ATOM     54  H   LIG d   1      10.642   5.041  -0.708  0.00  0.00     0.023 H 
ATOM     55  H   LIG d   1      11.628   6.523  -0.751  0.00  0.00     0.023 H 
ENDBRANCH  49  52
ENDBRANCH  46  49
ENDBRANCH  43  46
ENDBRANCH   1  43
TORSDOF 8
ENDMDL
MODEL 7
REMARK VINA RESULT:      -5.8      2.572      8.279
REMARK  8 active torsions:
REMARK  status: ('A' for Active; 'I' for Inactive)
REMARK    1  A    between atoms: C_1  and  C_2 
REMARK    2  A    between atoms: C_2  and  C_3 
REMARK    3  A    between atoms: C_3  and  C_4 
REMARK    4  A    between atoms: C_4  and  C_5 
REMARK    5  A    between atoms: C_15  and  C_16 
REMARK    6  A    between atoms: N_19  and  C_21 
REMARK    7  A    between atoms: C_24  and  C_28 
REMARK    8  A    between atoms: C_25  and  C_27 
ROOT
ATOM      1  C   LIG d   1      11.690   6.145  -4.448  0.00  0.00    -0.030 A 
ATOM      2  C   LIG d   1      12.794   6.676  -5.036  0.00  0.00     0.027 A 
ATOM      3  C   LIG d   1      13.547   5.901  -5.941  0.00  0.00     0.338 A 
ATOM      4  O   LIG d   1      14.536   6.389  -6.461  0.00  0.00    -0.245 OA
ATOM      5  O   LIG d   1      13.204   4.639  -6.246  0.00  0.00    -0.422 OA
ATOM      6  C   LIG d   1      12.119   4.053  -5.698  0.00  0.00     0.146 A 
ATOM      7  C   LIG d   1      11.325   4.766  -4.781  0.00  0.00     0.022 A 
ATOM      8  C   LIG d   1      10.204   4.159  -4.207  0.00  0.00    -0.043 A 
ATOM      9  C   LIG d   1       9.881   2.871  -4.534  0.00  0.00     0.013 A 
ATOM     10  C   LIG d   1      10.666   2.158  -5.437  0.00  0.00     0.134 A 
ATOM     11  C   LIG d   1      11.777   2.750  -6.022  0.00  0.00     0.035 A 
ATOM     12  O   LIG d   1      10.351   0.879  -5.770  0.00  0.00    -0.473 OA
ATOM     13  C   LIG d   1       9.439   0.188  -4.914  0.00  0.00     0.157 C 
ATOM     14  N   LIG d   1       8.272   1.053  -4.674  0.00  0.00    -0.293 NA
ATOM     15  C   LIG d   1       8.668   2.237  -3.900  0.00  0.00     0.044 C 
ATOM     16  H   LIG d   1      13.094   7.689  -4.810  0.00  0.00     0.069 H 
ATOM     17  H   LIG d   1       9.593   4.707  -3.506  0.00  0.00     0.063 H 
ATOM     18  H   LIG d   1       9.927  -0.038  -3.966  0.00  0.00     0.091 H 
ATOM     19  H   LIG d   1       9.117  -0.738  -5.389  0.00  0.00     0.091 H 
ATOM     20  H   LIG d   1       8.905   1.940  -2.879  0.00  0.00     0.051 H 
ATOM     21  H   LIG d   1       7.848   2.954  -3.889  0.00  0.00     0.051 H 
ENDROOT
BRANCH  14  22
ATOM     22  C   LIG d   1       7.252   0.350  -4.028  0.00  0.00     0.033 A 
ATOM     23  C   LIG d   1       6.297   1.031  -3.286  0.00  0.00    -0.037 A 
ATOM     24  C   LIG d   1       5.288   0.332  -2.653  0.00  0.00    -0.046 A 
ATOM     25  H   LIG d   1       6.340   2.108  -3.208  0.00  0.00     0.064 H 
ATOM     26  C   LIG d   1       5.235  -1.046  -2.748  0.00  0.00    -0.047 A 
ATOM     27  C   LIG d   1       6.188  -1.729  -3.482  0.00  0.00    -0.057 A 
ATOM     28  C   LIG d   1       7.196  -1.036  -4.122  0.00  0.00    -0.040 A 
ATOM     29  H   LIG d   1       6.143  -2.805  -3.555  0.00  0.00     0.062 H 
ATOM     30  H   LIG d   1       7.940  -1.570  -4.695  0.00  0.00     0.064 H 
BRANCH  24  31
ATOM     31  C   LIG d   1       4.248   1.072  -1.852  0.00  0.00    -0.039 C 
ATOM     32  H   LIG d   1       4.674   2.001  -1.472  0.00  0.00     0.028 H 
ATOM     33  H   LIG d   1       3.393   1.300  -2.490  0.00  0.00     0.028 H 
ATOM     34  H   LIG d   1       3.922   0.453  -1.017  0.00  0.00     0.028 H 
ENDBRANCH  24  31
BRANCH  26  35
ATOM     35  C   LIG d   1       4.136  -1.805  -2.051  0.00  0.00    -0.040 C 
ATOM     36  H   LIG d   1       3.282  -1.146  -1.896  0.00  0.00     0.028 H 
ATOM     37  H   LIG d   1       3.834  -2.653  -2.663  0.00  0.00     0.028 H 
ATOM     38  H   LIG d   1       4.498  -2.163  -1.086  0.00  0.00     0.028 H 
ENDBRANCH  26  35
ENDBRANCH  14  22
BRANCH  11  39
ATOM     39  C   LIG d   1      12.621   1.969  -6.997  0.00  0.00    -0.033 C 
ATOM     40  H   LIG d   1      13.578   2.472  -7.131  0.00  0.00     0.028 H 
ATOM     41  H   LIG d   1      12.789   0.965  -6.608  0.00  0.00     0.028 H 
ATOM     42  H   LIG d   1      12.105   1.906  -7.955  0.00  0.00     0.028 H 
ENDBRANCH  11  39
BRANCH   1  43
ATOM     43  C   LIG d   1      10.867   6.951  -3.476  0.00  0.00    -0.027 C 
ATOM     44  H   LIG d   1      11.507   7.314  -2.672  0.00  0.00     0.031 H 
ATOM     45  H   LIG d   1      10.080   6.322  -3.059  0.00  0.00     0.031 H 
BRANCH  43  46
ATOM     46  C   LIG d   1      10.239   8.141  -4.204  0.00  0.00    -0.049 C 
ATOM     47  H   LIG d   1      11.018   8.713  -4.707  0.00  0.00     0.027 H 
ATOM     48  H   LIG d   1       9.728   8.778  -3.484  0.00  0.00     0.027 H 
BRANCH  46  49
ATOM     49  C   LIG d   1       9.233   7.632  -5.239  0.00  0.00    -0.056 C 
ATOM     50  H   LIG d   1       8.226   7.684  -4.823  0.00  0.00     0.026 H 
ATOM     51  H   LIG d   1       9.466   6.598  -5.495  0.00  0.00     0.026 H 
BRANCH  49  52
ATOM     52  C   LIG d   1       9.311   8.499  -6.497  0.00  0.00    -0.065 C 
ATOM     53  H   LIG d   1       9.369   9.549  -6.210  0.00  0.00     0.023 H 
ATOM     54  H   LIG d   1      10.198   8.229  -7.069  0.00  0.00     0.023 H 
ATOM     55  H   LIG d   1       8.421   8.337  -7.106  0.00  0.00     0.023 H 
ENDBRANCH  49  52
ENDBRANCH  46  49
ENDBRANCH  43  46
ENDBRANCH   1  43
TORSDOF 8
ENDMDL
MODEL 8
REMARK VINA RESULT:      -5.7      5.270      8.790
REMARK  8 active torsions:
REMARK  status: ('A' for Active; 'I' for Inactive)
REMARK    1  A    between atoms: C_1  and  C_2 
REMARK    2  A    between atoms: C_2  and  C_3 
REMARK    3  A    between atoms: C_3  and  C_4 
REMARK    4  A    between atoms: C_4  and  C_5 
REMARK    5  A    between atoms: C_15  and  C_16 
REMARK    6  A    between atoms: N_19  and  C_21 
REMARK    7  A    between atoms: C_24  and  C_28 
REMARK    8  A    between atoms: C_25  and  C_27 
ROOT
ATOM      1  C   LIG d   1       5.401  -2.390  -4.291  0.00  0.00    -0.030 A 
ATOM      2  C   LIG d   1       5.348  -2.012  -2.987  0.00  0.00     0.027 A 
ATOM      3  C   LIG d   1       4.559  -0.905  -2.610  0.00  0.00     0.338 A 
ATOM      4  O   LIG d   1       4.521  -0.577  -1.436  0.00  0.00    -0.245 OA
ATOM      5  O   LIG d   1       3.850  -0.205  -3.508  0.00  0.00    -0.422 OA
ATOM      6  C   LIG d   1       3.858  -0.528  -4.819  0.00  0.00     0.146 A 
ATOM      7  C   LIG d   1       4.629  -1.617  -5.267  0.00  0.00     0.022 A 
ATOM      8  C   LIG d   1       4.644  -1.950  -6.625  0.00  0.00    -0.043 A 
ATOM      9  C   LIG d   1       3.914  -1.215  -7.517  0.00  0.00     0.013 A 
ATOM     10  C   LIG d   1       3.154  -0.133  -7.081  0.00  0.00     0.134 A 
ATOM     11  C   LIG d   1       3.121   0.205  -5.735  0.00  0.00     0.035 A 
ATOM     12  O   LIG d   1       2.423   0.601  -7.960  0.00  0.00    -0.473 OA
ATOM     13  C   LIG d   1       2.741   0.463  -9.347  0.00  0.00     0.157 C 
ATOM     14  N   LIG d   1       2.813  -0.971  -9.673  0.00  0.00    -0.293 NA
ATOM     15  C   LIG d   1       3.949  -1.592  -8.978  0.00  0.00     0.044 C 
ATOM     16  H   LIG d   1       5.908  -2.557  -2.242  0.00  0.00     0.069 H 
ATOM     17  H   LIG d   1       5.232  -2.787  -6.969  0.00  0.00     0.063 H 
ATOM     18  H   LIG d   1       3.703   0.933  -9.550  0.00  0.00     0.091 H 
ATOM     19  H   LIG d   1       1.968   0.937  -9.951  0.00  0.00     0.091 H 
ATOM     20  H   LIG d   1       4.880  -1.243  -9.421  0.00  0.00     0.051 H 
ATOM     21  H   LIG d   1       3.885  -2.676  -9.074  0.00  0.00     0.051 H 
ENDROOT
BRANCH  14  22
ATOM     22  C   LIG d   1       2.902  -1.167 -11.053  0.00  0.00     0.033 A 
ATOM     23  C   LIG d   1       4.087  -0.888 -11.721  0.00  0.00    -0.037 A 
ATOM     24  C   LIG d   1       4.172  -1.087 -13.085  0.00  0.00    -0.046 A 
ATOM     25  H   LIG d   1       4.943  -0.520 -11.174  0.00  0.00     0.064 H 
ATOM     26  C   LIG d   1       3.076  -1.553 -13.787  0.00  0.00    -0.047 A 
ATOM     27  C   LIG d   1       1.893  -1.827 -13.125  0.00  0.00    -0.057 A 
ATOM     28  C   LIG d   1       1.802  -1.635 -11.761  0.00  0.00    -0.040 A 
ATOM     29  H   LIG d   1       1.039  -2.191 -13.677  0.00  0.00     0.062 H 
ATOM     30  H   LIG d   1       0.877  -1.848 -11.245  0.00  0.00     0.064 H 
BRANCH  24  31
ATOM     31  C   LIG d   1       5.459  -0.791 -13.810  0.00  0.00    -0.039 C 
ATOM     32  H   LIG d   1       5.916   0.105 -13.389  0.00  0.00     0.028 H 
ATOM     33  H   LIG d   1       6.142  -1.633 -13.698  0.00  0.00     0.028 H 
ATOM     34  H   LIG d   1       5.253  -0.630 -14.868  0.00  0.00     0.028 H 
ENDBRANCH  24  31
BRANCH  26  35
ATOM     35  C   LIG d   1       3.171  -1.763 -15.276  0.00  0.00    -0.040 C 
ATOM     36  H   LIG d   1       3.226  -2.831 -15.489  0.00  0.00     0.028 H 
ATOM     37  H   LIG d   1       2.291  -1.342 -15.761  0.00  0.00     0.028 H 
ATOM     38  H   LIG d   1       4.067  -1.271 -15.656  0.00  0.00     0.028 H 
ENDBRANCH  26  35
ENDBRANCH  14  22
BRANCH  11  39
ATOM     39  C   LIG d   1       2.296   1.379  -5.272  0.00  0.00    -0.033 C 
ATOM     40  H   LIG d   1       2.946   2.114  -4.800  0.00  0.00     0.028 H 
ATOM     41  H   LIG d   1       1.798   1.831  -6.129  0.00  0.00     0.028 H 
ATOM     42  H   LIG d   1       1.549   1.038  -4.555  0.00  0.00     0.028 H 
ENDBRANCH  11  39
BRANCH   1  43
ATOM     43  C   LIG d   1       6.236  -3.567  -4.723  0.00  0.00    -0.027 C 
ATOM     44  H   LIG d   1       6.077  -3.756  -5.784  0.00  0.00     0.031 H 
ATOM     45  H   LIG d   1       5.945  -4.448  -4.149  0.00  0.00     0.031 H 
BRANCH  43  46
ATOM     46  C   LIG d   1       7.714  -3.262  -4.474  0.00  0.00    -0.049 C 
ATOM     47  H   LIG d   1       8.237  -4.184  -4.217  0.00  0.00     0.027 H 
ATOM     48  H   LIG d   1       7.805  -2.552  -3.653  0.00  0.00     0.027 H 
BRANCH  46  49
ATOM     49  C   LIG d   1       8.331  -2.663  -5.739  0.00  0.00    -0.056 C 
ATOM     50  H   LIG d   1       7.628  -2.758  -6.567  0.00  0.00     0.026 H 
ATOM     51  H   LIG d   1       9.252  -3.194  -5.982  0.00  0.00     0.026 H 
BRANCH  49  52
ATOM     52  C   LIG d   1       8.643  -1.183  -5.503  0.00  0.00    -0.065 C 
ATOM     53  H   LIG d   1       8.939  -0.720  -6.444  0.00  0.00     0.023 H 
ATOM     54  H   LIG d   1       7.756  -0.683  -5.115  0.00  0.00     0.023 H 
ATOM     55  H   LIG d   1       9.456  -1.094  -4.783  0.00  0.00     0.023 H 
ENDBRANCH  49  52
ENDBRANCH  46  49
ENDBRANCH  43  46
ENDBRANCH   1  43
TORSDOF 8
ENDMDL
MODEL 9
REMARK VINA RESULT:      -5.6      4.417      7.451
REMARK  8 active torsions:
REMARK  status: ('A' for Active; 'I' for Inactive)
REMARK    1  A    between atoms: C_1  and  C_2 
REMARK    2  A    between atoms: C_2  and  C_3 
REMARK    3  A    between atoms: C_3  and  C_4 
REMARK    4  A    between atoms: C_4  and  C_5 
REMARK    5  A    between atoms: C_15  and  C_16 
REMARK    6  A    between atoms: N_19  and  C_21 
REMARK    7  A    between atoms: C_24  and  C_28 
REMARK    8  A    between atoms: C_25  and  C_27 
ROOT
ATOM      1  C   LIG d   1       9.995   5.295  -7.749  0.00  0.00    -0.030 A 
ATOM      2  C   LIG d   1       9.682   4.232  -8.535  0.00  0.00     0.027 A 
ATOM      3  C   LIG d   1       9.309   3.008  -7.943  0.00  0.00     0.338 A 
ATOM      4  O   LIG d   1       9.031   2.062  -8.660  0.00  0.00    -0.245 OA
ATOM      5  O   LIG d   1       9.251   2.858  -6.610  0.00  0.00    -0.422 OA
ATOM      6  C   LIG d   1       9.547   3.874  -5.773  0.00  0.00     0.146 A 
ATOM      7  C   LIG d   1       9.934   5.122  -6.296  0.00  0.00     0.022 A 
ATOM      8  C   LIG d   1      10.249   6.175  -5.431  0.00  0.00    -0.043 A 
ATOM      9  C   LIG d   1      10.184   5.990  -4.077  0.00  0.00     0.013 A 
ATOM     10  C   LIG d   1       9.807   4.757  -3.554  0.00  0.00     0.134 A 
ATOM     11  C   LIG d   1       9.483   3.704  -4.399  0.00  0.00     0.035 A 
ATOM     12  O   LIG d   1       9.736   4.565  -2.211  0.00  0.00    -0.473 OA
ATOM     13  C   LIG d   1      10.397   5.522  -1.380  0.00  0.00     0.157 C 
ATOM     14  N   LIG d   1      10.008   6.873  -1.818  0.00  0.00    -0.293 NA
ATOM     15  C   LIG d   1      10.530   7.140  -3.165  0.00  0.00     0.044 C 
ATOM     16  H   LIG d   1       9.720   4.324  -9.610  0.00  0.00     0.069 H 
ATOM     17  H   LIG d   1      10.543   7.133  -5.831  0.00  0.00     0.063 H 
ATOM     18  H   LIG d   1      11.477   5.405  -1.475  0.00  0.00     0.091 H 
ATOM     19  H   LIG d   1      10.103   5.375  -0.341  0.00  0.00     0.091 H 
ATOM     20  H   LIG d   1      11.613   7.254  -3.117  0.00  0.00     0.051 H 
ATOM     21  H   LIG d   1      10.085   8.057  -3.551  0.00  0.00     0.051 H 
ENDROOT
BRANCH  14  22
ATOM     22  C   LIG d   1      10.446   7.839  -0.909  0.00  0.00     0.033 A 
ATOM     23  C   LIG d   1      10.250   9.187  -1.176  0.00  0.00    -0.037 A 
ATOM     24  C   LIG d   1      10.681  10.139  -0.272  0.00  0.00    -0.046 A 
ATOM     25  H   LIG d   1       9.757   9.492  -2.088  0.00  0.00     0.064 H 
ATOM     26  C   LIG d   1      11.317   9.750   0.892  0.00  0.00    -0.047 A 
ATOM     27  C   LIG d   1      11.518   8.408   1.159  0.00  0.00    -0.057 A 
ATOM     28  C   LIG d   1      11.085   7.452   0.263  0.00  0.00    -0.040 A 
ATOM     29  H   LIG d   1      12.015   8.109   2.070  0.00  0.00     0.062 H 
ATOM     30  H   LIG d   1      11.244   6.404   0.472  0.00  0.00     0.064 H 
BRANCH  24  31
ATOM     31  C   LIG d   1      10.463  11.602  -0.559  0.00  0.00    -0.039 C 
ATOM     32  H   LIG d   1       9.526  11.731  -1.100  0.00  0.00     0.028 H 
ATOM     33  H   LIG d   1      10.418  12.154   0.381  0.00  0.00     0.028 H 
ATOM     34  H   LIG d   1      11.287  11.981  -1.163  0.00  0.00     0.028 H 
ENDBRANCH  24  31
BRANCH  26  35
ATOM     35  C   LIG d   1      11.791  10.792   1.872  0.00  0.00    -0.040 C 
ATOM     36  H   LIG d   1      10.948  11.139   2.470  0.00  0.00     0.028 H 
ATOM     37  H   LIG d   1      12.545  10.359   2.528  0.00  0.00     0.028 H 
ATOM     38  H   LIG d   1      12.221  11.634   1.328  0.00  0.00     0.028 H 
ENDBRANCH  26  35
ENDBRANCH  14  22
BRANCH  11  39
ATOM     39  C   LIG d   1       9.077   2.372  -3.823  0.00  0.00    -0.033 C 
ATOM     40  H   LIG d   1       7.997   2.253  -3.908  0.00  0.00     0.028 H 
ATOM     41  H   LIG d   1       9.574   1.573  -4.373  0.00  0.00     0.028 H 
ATOM     42  H   LIG d   1       9.367   2.326  -2.774  0.00  0.00     0.028 H 
ENDBRANCH  11  39
BRANCH   1  43
ATOM     43  C   LIG d   1      10.398   6.614  -8.355  0.00  0.00    -0.027 C 
ATOM     44  H   LIG d   1      11.134   6.443  -9.141  0.00  0.00     0.031 H 
ATOM     45  H   LIG d   1      10.832   7.251  -7.583  0.00  0.00     0.031 H 
BRANCH  43  46
ATOM     46  C   LIG d   1       9.167   7.300  -8.949  0.00  0.00    -0.049 C 
ATOM     47  H   LIG d   1       8.338   6.593  -8.985  0.00  0.00     0.027 H 
ATOM     48  H   LIG d   1       9.394   7.644  -9.958  0.00  0.00     0.027 H 
BRANCH  46  49
ATOM     49  C   LIG d   1       8.779   8.496  -8.077  0.00  0.00    -0.056 C 
ATOM     50  H   LIG d   1       8.310   8.140  -7.160  0.00  0.00     0.026 H 
ATOM     51  H   LIG d   1       8.078   9.131  -8.621  0.00  0.00     0.026 H 
BRANCH  49  52
ATOM     52  C   LIG d   1      10.032   9.303  -7.730  0.00  0.00    -0.065 C 
ATOM     53  H   LIG d   1      10.768   9.190  -8.527  0.00  0.00     0.023 H 
ATOM     54  H   LIG d   1       9.769  10.355  -7.624  0.00  0.00     0.023 H 
ATOM     55  H   LIG d   1      10.452   8.936  -6.793  0.00  0.00     0.023 H 
ENDBRANCH  49  52
ENDBRANCH  46  49
ENDBRANCH  43  46
ENDBRANCH   1  43
TORSDOF 8
ENDMDL
MODEL 10
REMARK VINA RESULT:      -5.4      5.446      9.065
REMARK  8 active torsions:
REMARK  status: ('A' for Active; 'I' for Inactive)
REMARK    1  A    between atoms: C_1  and  C_2 
REMARK    2  A    between atoms: C_2  and  C_3 
REMARK    3  A    between atoms: C_3  and  C_4 
REMARK    4  A    between atoms: C_4  and  C_5 
REMARK    5  A    between atoms: C_15  and  C_16 
REMARK    6  A    between atoms: N_19  and  C_21 
REMARK    7  A    between atoms: C_24  and  C_28 
REMARK    8  A    between atoms: C_25  and  C_27 
ROOT
ATOM      1  C   LIG d   1      10.024   4.779  -3.848  0.00  0.00    -0.030 A 
ATOM      2  C   LIG d   1       9.961   5.113  -2.533  0.00  0.00     0.027 A 
ATOM      3  C   LIG d   1       9.797   6.462  -2.159  0.00  0.00     0.338 A 
ATOM      4  O   LIG d   1       9.742   6.748  -0.975  0.00  0.00    -0.245 OA
ATOM      5  O   LIG d   1       9.699   7.440  -3.073  0.00  0.00    -0.422 OA
ATOM      6  C   LIG d   1       9.753   7.177  -4.395  0.00  0.00     0.146 A 
ATOM      7  C   LIG d   1       9.922   5.853  -4.840  0.00  0.00     0.022 A 
ATOM      8  C   LIG d   1       9.985   5.578  -6.209  0.00  0.00    -0.043 A 
ATOM      9  C   LIG d   1       9.886   6.596  -7.116  0.00  0.00     0.013 A 
ATOM     10  C   LIG d   1       9.724   7.909  -6.683  0.00  0.00     0.134 A 
ATOM     11  C   LIG d   1       9.650   8.198  -5.327  0.00  0.00     0.035 A 
ATOM     12  O   LIG d   1       9.620   8.927  -7.577  0.00  0.00    -0.473 OA
ATOM     13  C   LIG d   1      10.043   8.663  -8.917  0.00  0.00     0.157 C 
ATOM     14  N   LIG d   1       9.427   7.403  -9.364  0.00  0.00    -0.293 NA
ATOM     15  C   LIG d   1       9.958   6.275  -8.588  0.00  0.00     0.044 C 
ATOM     16  H   LIG d   1      10.037   4.346  -1.776  0.00  0.00     0.069 H 
ATOM     17  H   LIG d   1      10.111   4.561  -6.550  0.00  0.00     0.063 H 
ATOM     18  H   LIG d   1      11.129   8.569  -8.946  0.00  0.00     0.091 H 
ATOM     19  H   LIG d   1       9.728   9.476  -9.570  0.00  0.00     0.091 H 
ATOM     20  H   LIG d   1      10.995   6.097  -8.871  0.00  0.00     0.051 H 
ATOM     21  H   LIG d   1       9.368   5.382  -8.794  0.00  0.00     0.051 H 
ENDROOT
BRANCH  14  22
ATOM     22  C   LIG d   1       9.625   7.208 -10.733  0.00  0.00     0.033 A 
ATOM     23  C   LIG d   1      10.135   8.234 -11.517  0.00  0.00    -0.037 A 
ATOM     24  C   LIG d   1      10.334   8.035 -12.869  0.00  0.00    -0.046 A 
ATOM     25  H   LIG d   1      10.380   9.186 -11.069  0.00  0.00     0.064 H 
ATOM     26  C   LIG d   1      10.016   6.819 -13.445  0.00  0.00    -0.047 A 
ATOM     27  C   LIG d   1       9.504   5.796 -12.668  0.00  0.00    -0.057 A 
ATOM     28  C   LIG d   1       9.307   5.986 -11.315  0.00  0.00    -0.040 A 
ATOM     29  H   LIG d   1       9.257   4.848 -13.120  0.00  0.00     0.062 H 
ATOM     30  H   LIG d   1       8.905   5.187 -10.709  0.00  0.00     0.064 H 
BRANCH  24  31
ATOM     31  C   LIG d   1      10.893   9.147 -13.719  0.00  0.00    -0.039 C 
ATOM     32  H   LIG d   1      10.240  10.017 -13.654  0.00  0.00     0.028 H 
ATOM     33  H   LIG d   1      11.888   9.413 -13.361  0.00  0.00     0.028 H 
ATOM     34  H   LIG d   1      10.956   8.816 -14.756  0.00  0.00     0.028 H 
ENDBRANCH  24  31
BRANCH  26  35
ATOM     35  C   LIG d   1      10.229   6.608 -14.921  0.00  0.00    -0.040 C 
ATOM     36  H   LIG d   1       9.320   6.874 -15.461  0.00  0.00     0.028 H 
ATOM     37  H   LIG d   1      11.051   7.237 -15.264  0.00  0.00     0.028 H 
ATOM     38  H   LIG d   1      10.469   5.561 -15.108  0.00  0.00     0.028 H 
ENDBRANCH  26  35
ENDBRANCH  14  22
BRANCH  11  39
ATOM     39  C   LIG d   1       9.476   9.623  -4.868  0.00  0.00    -0.033 C 
ATOM     40  H   LIG d   1       9.565   9.667  -3.783  0.00  0.00     0.028 H 
ATOM     41  H   LIG d   1      10.246  10.246  -5.321  0.00  0.00     0.028 H 
ATOM     42  H   LIG d   1       8.493   9.984  -5.167  0.00  0.00     0.028 H 
ENDBRANCH  11  39
BRANCH   1  43
ATOM     43  C   LIG d   1      10.200   3.345  -4.276  0.00  0.00    -0.027 C 
ATOM     44  H   LIG d   1      11.212   3.016  -4.036  0.00  0.00     0.031 H 
ATOM     45  H   LIG d   1      10.036   3.264  -5.351  0.00  0.00     0.031 H 
BRANCH  43  46
ATOM     46  C   LIG d   1       9.189   2.465  -3.538  0.00  0.00    -0.049 C 
ATOM     47  H   LIG d   1       8.851   2.977  -2.637  0.00  0.00     0.027 H 
ATOM     48  H   LIG d   1       9.661   1.522  -3.264  0.00  0.00     0.027 H 
BRANCH  46  49
ATOM     49  C   LIG d   1       7.991   2.191  -4.449  0.00  0.00    -0.056 C 
ATOM     50  H   LIG d   1       7.297   3.029  -4.398  0.00  0.00     0.026 H 
ATOM     51  H   LIG d   1       7.487   1.281  -4.123  0.00  0.00     0.026 H 
BRANCH  49  52
ATOM     52  C   LIG d   1       8.476   2.016  -5.891  0.00  0.00    -0.065 C 
ATOM     53  H   LIG d   1       9.422   2.541  -6.021  0.00  0.00     0.023 H 
ATOM     54  H   LIG d   1       8.616   0.956  -6.100  0.00  0.00     0.023 H 
ATOM     55  H   LIG d   1       7.734   2.428  -6.575  0.00  0.00     0.023 H 
ENDBRANCH  49  52
ENDBRANCH  46  49
ENDBRANCH  43  46
ENDBRANCH   1  43
TORSDOF 8
ENDMDL
