MODEL 1
REMARK VINA RESULT:      -6.8      0.000      0.000
REMARK  10 active torsions:
REMARK  status: ('A' for Active; 'I' for Inactive)
REMARK    1  A    between atoms: C_3  and  O_37 
REMARK    2  A    between atoms: C_6  and  C_7 
REMARK    3  A    between atoms: C_15  and  O_35 
REMARK    4  A    between atoms: C_17  and  O_18 
REMARK    5  A    between atoms: O_18  and  C_19 
REMARK    6  A    between atoms: C_21  and  O_34 
REMARK    7  A    between atoms: C_23  and  O_33 
REMARK    8  A    between atoms: C_25  and  O_32 
REMARK    9  A    between atoms: C_27  and  C_30 
REMARK   10  A    between atoms: C_30  and  O_31 
ROOT
ATOM      1  C   LIG d   1       9.932   5.030  -2.690  0.00  0.00     0.132 C 
ATOM      2  H   LIG d   1       8.882   5.257  -2.500  0.00  0.00     0.079 H 
ATOM      3  C   LIG d   1      10.578   6.197  -3.449  0.00  0.00     0.052 C 
ATOM      4  C   LIG d   1      10.477   7.422  -2.559  0.00  0.00     0.174 C 
ATOM      5  O   LIG d   1      10.210   8.518  -3.009  0.00  0.00    -0.292 OA
ATOM      6  C   LIG d   1      10.720   7.216  -1.127  0.00  0.00     0.101 A 
ATOM      7  C   LIG d   1      10.768   5.902  -0.624  0.00  0.00     0.139 A 
ATOM      8  C   LIG d   1      10.984   5.702   0.727  0.00  0.00     0.022 A 
ATOM      9  C   LIG d   1      11.158   6.789   1.576  0.00  0.00     0.124 A 
ATOM     10  C   LIG d   1      11.119   8.087   1.083  0.00  0.00     0.023 A 
ATOM     11  C   LIG d   1      10.901   8.309  -0.266  0.00  0.00     0.141 A 
ATOM     12  O   LIG d   1      10.609   4.839  -1.448  0.00  0.00    -0.483 OA
ATOM     13  H   LIG d   1      11.626   5.972  -3.653  0.00  0.00     0.038 H 
ATOM     14  H   LIG d   1      10.047   6.372  -4.384  0.00  0.00     0.038 H 
ATOM     15  H   LIG d   1      11.017   4.698   1.124  0.00  0.00     0.069 H 
ATOM     16  H   LIG d   1      11.257   8.923   1.752  0.00  0.00     0.069 H 
ENDROOT
BRANCH  11  17
ATOM     17  O   LIG d   1      10.865   9.575  -0.751  0.00  0.00    -0.460 OA
BRANCH  17  18
ATOM     18  C   LIG d   1       9.885  10.456  -0.197  0.00  0.00     0.231 C 
ATOM     19  H   LIG d   1       9.278   9.913   0.529  0.00  0.00     0.108 H 
ATOM     20  O   LIG d   1       9.046  10.953  -1.242  0.00  0.00    -0.331 OA
ATOM     21  C   LIG d   1       9.749  11.662  -2.265  0.00  0.00     0.114 C 
ATOM     22  C   LIG d   1      10.444  12.883  -1.655  0.00  0.00     0.112 C 
ATOM     23  H   LIG d   1      10.494  11.007  -2.715  0.00  0.00     0.065 H 
ATOM     24  C   LIG d   1      11.387  12.419  -0.541  0.00  0.00     0.115 C 
ATOM     25  H   LIG d   1      11.016  13.399  -2.425  0.00  0.00     0.065 H 
ATOM     26  C   LIG d   1      10.585  11.627   0.497  0.00  0.00     0.145 C 
ATOM     27  H   LIG d   1      12.165  11.783  -0.964  0.00  0.00     0.065 H 
ATOM     28  H   LIG d   1      11.258  11.246   1.265  0.00  0.00     0.068 H 
BRANCH  21  29
ATOM     29  C   LIG d   1       8.761  12.121  -3.338  0.00  0.00     0.073 C 
ATOM     30  H   LIG d   1       8.714  13.211  -3.347  0.00  0.00     0.058 H 
ATOM     31  H   LIG d   1       9.091  11.765  -4.314  0.00  0.00     0.058 H 
BRANCH  29  32
ATOM     32  O   LIG d   1       7.465  11.592  -3.051  0.00  0.00    -0.392 OA
ATOM     33  H   LIG d   1       7.349  10.669  -3.318  0.00  0.00     0.209 HD
ENDBRANCH  29  32
ENDBRANCH  21  29
BRANCH  22  34
ATOM     34  O   LIG d   1       9.463  13.769  -1.112  0.00  0.00    -0.387 OA
ATOM     35  H   LIG d   1       9.779  14.295  -0.364  0.00  0.00     0.210 HD
ENDBRANCH  22  34
BRANCH  24  36
ATOM     36  O   LIG d   1      11.987  13.555   0.085  0.00  0.00    -0.386 OA
ATOM     37  H   LIG d   1      12.816  13.361   0.540  0.00  0.00     0.210 HD
ENDBRANCH  24  36
BRANCH  26  38
ATOM     38  O   LIG d   1       9.608  12.478   1.097  0.00  0.00    -0.383 OA
ATOM     39  H   LIG d   1       8.733  12.075   1.184  0.00  0.00     0.210 HD
ENDBRANCH  26  38
ENDBRANCH  17  18
ENDBRANCH  11  17
BRANCH   9  40
ATOM     40  O   LIG d   1      11.369   6.580   2.899  0.00  0.00    -0.506 OA
ATOM     41  H   LIG d   1      11.940   7.240   3.316  0.00  0.00     0.292 HD
ENDBRANCH   9  40
BRANCH   1  42
ATOM     42  C   LIG d   1      10.033   3.774  -3.516  0.00  0.00    -0.007 A 
ATOM     43  C   LIG d   1      10.982   2.818  -3.205  0.00  0.00    -0.052 A 
ATOM     44  C   LIG d   1      11.077   1.665  -3.961  0.00  0.00    -0.020 A 
ATOM     45  H   LIG d   1      11.648   2.970  -2.369  0.00  0.00     0.062 H 
ATOM     46  C   LIG d   1      10.218   1.468  -5.032  0.00  0.00     0.117 A 
ATOM     47  H   LIG d   1      11.818   0.920  -3.718  0.00  0.00     0.065 H 
ATOM     48  C   LIG d   1       9.266   2.429  -5.342  0.00  0.00    -0.020 A 
ATOM     49  C   LIG d   1       9.176   3.579  -4.583  0.00  0.00    -0.052 A 
ATOM     50  H   LIG d   1       8.597   2.277  -6.175  0.00  0.00     0.065 H 
ATOM     51  H   LIG d   1       8.435   4.327  -4.823  0.00  0.00     0.062 H 
BRANCH  46  52
ATOM     52  O   LIG d   1      10.309   0.335  -5.777  0.00  0.00    -0.507 OA
ATOM     53  H   LIG d   1       9.526   0.153  -6.315  0.00  0.00     0.292 HD
ENDBRANCH  46  52
ENDBRANCH   1  42
TORSDOF 10
ENDMDL
MODEL 2
REMARK VINA RESULT:      -6.4      4.313      7.863
REMARK  10 active torsions:
REMARK  status: ('A' for Active; 'I' for Inactive)
REMARK    1  A    between atoms: C_3  and  O_37 
REMARK    2  A    between atoms: C_6  and  C_7 
REMARK    3  A    between atoms: C_15  and  O_35 
REMARK    4  A    between atoms: C_17  and  O_18 
REMARK    5  A    between atoms: O_18  and  C_19 
REMARK    6  A    between atoms: C_21  and  O_34 
REMARK    7  A    between atoms: C_23  and  O_33 
REMARK    8  A    between atoms: C_25  and  O_32 
REMARK    9  A    between atoms: C_27  and  C_30 
REMARK   10  A    between atoms: C_30  and  O_31 
ROOT
ATOM      1  C   LIG d   1      11.352   6.211  -2.523  0.00  0.00     0.132 C 
ATOM      2  H   LIG d   1      12.347   5.869  -2.810  0.00  0.00     0.079 H 
ATOM      3  C   LIG d   1      11.012   7.496  -3.292  0.00  0.00     0.052 C 
ATOM      4  C   LIG d   1      11.022   7.151  -4.769  0.00  0.00     0.174 C 
ATOM      5  O   LIG d   1      11.489   7.906  -5.598  0.00  0.00    -0.292 OA
ATOM      6  C   LIG d   1      10.437   5.859  -5.146  0.00  0.00     0.101 A 
ATOM      7  C   LIG d   1      10.150   4.920  -4.139  0.00  0.00     0.139 A 
ATOM      8  C   LIG d   1       9.609   3.696  -4.489  0.00  0.00     0.022 A 
ATOM      9  C   LIG d   1       9.349   3.403  -5.823  0.00  0.00     0.124 A 
ATOM     10  C   LIG d   1       9.624   4.330  -6.819  0.00  0.00     0.023 A 
ATOM     11  C   LIG d   1      10.167   5.560  -6.490  0.00  0.00     0.141 A 
ATOM     12  O   LIG d   1      10.392   5.203  -2.837  0.00  0.00    -0.483 OA
ATOM     13  H   LIG d   1      10.024   7.853  -3.000  0.00  0.00     0.038 H 
ATOM     14  H   LIG d   1      11.759   8.262  -3.084  0.00  0.00     0.038 H 
ATOM     15  H   LIG d   1       9.390   2.965  -3.725  0.00  0.00     0.069 H 
ATOM     16  H   LIG d   1       9.416   4.091  -7.852  0.00  0.00     0.069 H 
ENDROOT
BRANCH  11  17
ATOM     17  O   LIG d   1      10.435   6.469  -7.460  0.00  0.00    -0.460 OA
BRANCH  17  18
ATOM     18  C   LIG d   1       9.316   7.058  -8.126  0.00  0.00     0.231 C 
ATOM     19  H   LIG d   1       8.411   6.872  -7.547  0.00  0.00     0.108 H 
ATOM     20  O   LIG d   1       9.178   6.482  -9.426  0.00  0.00    -0.331 OA
ATOM     21  C   LIG d   1      10.326   6.647 -10.261  0.00  0.00     0.114 C 
ATOM     22  C   LIG d   1      10.588   8.141 -10.479  0.00  0.00     0.112 C 
ATOM     23  H   LIG d   1      11.193   6.193  -9.783  0.00  0.00     0.065 H 
ATOM     24  C   LIG d   1      10.777   8.821  -9.120  0.00  0.00     0.115 C 
ATOM     25  H   LIG d   1      11.488   8.269 -11.079  0.00  0.00     0.065 H 
ATOM     26  C   LIG d   1       9.537   8.568  -8.257  0.00  0.00     0.145 C 
ATOM     27  H   LIG d   1      11.657   8.408  -8.626  0.00  0.00     0.065 H 
ATOM     28  H   LIG d   1       9.686   9.001  -7.269  0.00  0.00     0.068 H 
BRANCH  21  29
ATOM     29  C   LIG d   1      10.077   5.971 -11.611  0.00  0.00     0.073 C 
ATOM     30  H   LIG d   1      10.565   6.544 -12.400  0.00  0.00     0.058 H 
ATOM     31  H   LIG d   1      10.483   4.960 -11.592  0.00  0.00     0.058 H 
BRANCH  29  32
ATOM     32  O   LIG d   1       8.672   5.916 -11.863  0.00  0.00    -0.392 OA
ATOM     33  H   LIG d   1       8.436   5.997 -12.798  0.00  0.00     0.209 HD
ENDBRANCH  29  32
ENDBRANCH  21  29
BRANCH  22  34
ATOM     34  O   LIG d   1       9.474   8.728 -11.156  0.00  0.00    -0.387 OA
ATOM     35  H   LIG d   1       9.563   9.678 -11.309  0.00  0.00     0.210 HD
ENDBRANCH  22  34
BRANCH  24  36
ATOM     36  O   LIG d   1      10.950  10.227  -9.307  0.00  0.00    -0.386 OA
ATOM     37  H   LIG d   1      11.521  10.457 -10.051  0.00  0.00     0.210 HD
ENDBRANCH  24  36
BRANCH  26  38
ATOM     38  O   LIG d   1       8.395   9.165  -8.873  0.00  0.00    -0.383 OA
ATOM     39  H   LIG d   1       8.522   9.389  -9.805  0.00  0.00     0.210 HD
ENDBRANCH  26  38
ENDBRANCH  17  18
ENDBRANCH  11  17
BRANCH   9  40
ATOM     40  O   LIG d   1       8.820   2.198  -6.154  0.00  0.00    -0.506 OA
ATOM     41  H   LIG d   1       8.245   2.222  -6.932  0.00  0.00     0.292 HD
ENDBRANCH   9  40
BRANCH   1  42
ATOM     42  C   LIG d   1      11.325   6.488  -1.042  0.00  0.00    -0.007 A 
ATOM     43  C   LIG d   1      11.200   5.442  -0.147  0.00  0.00    -0.052 A 
ATOM     44  C   LIG d   1      11.175   5.693   1.212  0.00  0.00    -0.020 A 
ATOM     45  H   LIG d   1      11.125   4.428  -0.509  0.00  0.00     0.062 H 
ATOM     46  C   LIG d   1      11.276   6.997   1.677  0.00  0.00     0.117 A 
ATOM     47  H   LIG d   1      11.077   4.877   1.911  0.00  0.00     0.065 H 
ATOM     48  C   LIG d   1      11.402   8.044   0.776  0.00  0.00    -0.020 A 
ATOM     49  C   LIG d   1      11.426   7.787  -0.581  0.00  0.00    -0.052 A 
ATOM     50  H   LIG d   1      11.481   9.059   1.136  0.00  0.00     0.065 H 
ATOM     51  H   LIG d   1      11.524   8.603  -1.283  0.00  0.00     0.062 H 
BRANCH  46  52
ATOM     52  O   LIG d   1      11.252   7.246   3.012  0.00  0.00    -0.507 OA
ATOM     53  H   LIG d   1      12.126   7.276   3.423  0.00  0.00     0.292 HD
ENDBRANCH  46  52
ENDBRANCH   1  42
TORSDOF 10
ENDMDL
MODEL 3
REMARK VINA RESULT:      -6.4      4.020      7.349
REMARK  10 active torsions:
REMARK  status: ('A' for Active; 'I' for Inactive)
REMARK    1  A    between atoms: C_3  and  O_37 
REMARK    2  A    between atoms: C_6  and  C_7 
REMARK    3  A    between atoms: C_15  and  O_35 
REMARK    4  A    between atoms: C_17  and  O_18 
REMARK    5  A    between atoms: O_18  and  C_19 
REMARK    6  A    between atoms: C_21  and  O_34 
REMARK    7  A    between atoms: C_23  and  O_33 
REMARK    8  A    between atoms: C_25  and  O_32 
REMARK    9  A    between atoms: C_27  and  C_30 
REMARK   10  A    between atoms: C_30  and  O_31 
ROOT
ATOM      1  C   LIG d   1       7.610   0.547  -4.374  0.00  0.00     0.132 C 
ATOM      2  H   LIG d   1       8.551  -0.002  -4.392  0.00  0.00     0.079 H 
ATOM      3  C   LIG d   1       7.760   1.791  -3.486  0.00  0.00     0.052 C 
ATOM      4  C   LIG d   1       8.842   2.657  -4.105  0.00  0.00     0.174 C 
ATOM      5  O   LIG d   1       9.665   3.235  -3.424  0.00  0.00    -0.292 OA
ATOM      6  C   LIG d   1       8.842   2.761  -5.569  0.00  0.00     0.101 A 
ATOM      7  C   LIG d   1       8.043   1.877  -6.316  0.00  0.00     0.139 A 
ATOM      8  C   LIG d   1       8.049   1.962  -7.697  0.00  0.00     0.022 A 
ATOM      9  C   LIG d   1       8.833   2.916  -8.335  0.00  0.00     0.124 A 
ATOM     10  C   LIG d   1       9.618   3.795  -7.600  0.00  0.00     0.023 A 
ATOM     11  C   LIG d   1       9.628   3.725  -6.218  0.00  0.00     0.141 A 
ATOM     12  O   LIG d   1       7.269   0.951  -5.700  0.00  0.00    -0.483 OA
ATOM     13  H   LIG d   1       6.818   2.339  -3.453  0.00  0.00     0.038 H 
ATOM     14  H   LIG d   1       8.053   1.494  -2.479  0.00  0.00     0.038 H 
ATOM     15  H   LIG d   1       7.443   1.285  -8.281  0.00  0.00     0.069 H 
ATOM     16  H   LIG d   1      10.222   4.533  -8.107  0.00  0.00     0.069 H 
ENDROOT
BRANCH  11  17
ATOM     17  O   LIG d   1      10.392   4.583  -5.497  0.00  0.00    -0.460 OA
BRANCH  17  18
ATOM     18  C   LIG d   1      10.231   5.978  -5.765  0.00  0.00     0.231 C 
ATOM     19  H   LIG d   1       9.888   6.113  -6.792  0.00  0.00     0.108 H 
ATOM     20  O   LIG d   1      11.484   6.643  -5.590  0.00  0.00    -0.331 OA
ATOM     21  C   LIG d   1      12.038   6.506  -4.279  0.00  0.00     0.114 C 
ATOM     22  C   LIG d   1      11.079   7.118  -3.254  0.00  0.00     0.112 C 
ATOM     23  H   LIG d   1      12.183   5.450  -4.055  0.00  0.00     0.065 H 
ATOM     24  C   LIG d   1       9.717   6.428  -3.365  0.00  0.00     0.115 C 
ATOM     25  H   LIG d   1      11.479   6.975  -2.251  0.00  0.00     0.065 H 
ATOM     26  C   LIG d   1       9.200   6.569  -4.800  0.00  0.00     0.145 C 
ATOM     27  H   LIG d   1       9.822   5.371  -3.117  0.00  0.00     0.065 H 
ATOM     28  H   LIG d   1       8.257   6.032  -4.902  0.00  0.00     0.068 H 
BRANCH  21  29
ATOM     29  C   LIG d   1      13.383   7.231  -4.216  0.00  0.00     0.073 C 
ATOM     30  H   LIG d   1      14.174   6.561  -4.556  0.00  0.00     0.058 H 
ATOM     31  H   LIG d   1      13.353   8.112  -4.857  0.00  0.00     0.058 H 
BRANCH  29  32
ATOM     32  O   LIG d   1      13.645   7.631  -2.869  0.00  0.00    -0.392 OA
ATOM     33  H   LIG d   1      13.246   8.478  -2.625  0.00  0.00     0.209 HD
ENDBRANCH  29  32
ENDBRANCH  21  29
BRANCH  22  34
ATOM     34  O   LIG d   1      10.929   8.516  -3.514  0.00  0.00    -0.387 OA
ATOM     35  H   LIG d   1      11.148   9.082  -2.762  0.00  0.00     0.210 HD
ENDBRANCH  22  34
BRANCH  24  36
ATOM     36  O   LIG d   1       8.793   7.040  -2.463  0.00  0.00    -0.386 OA
ATOM     37  H   LIG d   1       8.587   7.960  -2.675  0.00  0.00     0.210 HD
ENDBRANCH  24  36
BRANCH  26  38
ATOM     38  O   LIG d   1       8.999   7.950  -5.103  0.00  0.00    -0.383 OA
ATOM     39  H   LIG d   1       8.326   8.111  -5.779  0.00  0.00     0.210 HD
ENDBRANCH  26  38
ENDBRANCH  17  18
ENDBRANCH  11  17
BRANCH   9  40
ATOM     40  O   LIG d   1       8.831   2.989  -9.690  0.00  0.00    -0.506 OA
ATOM     41  H   LIG d   1       9.712   3.076 -10.080  0.00  0.00     0.292 HD
ENDBRANCH   9  40
BRANCH   1  42
ATOM     42  C   LIG d   1       6.522  -0.337  -3.823  0.00  0.00    -0.007 A 
ATOM     43  C   LIG d   1       6.357  -1.618  -4.316  0.00  0.00    -0.052 A 
ATOM     44  C   LIG d   1       5.361  -2.431  -3.812  0.00  0.00    -0.020 A 
ATOM     45  H   LIG d   1       7.011  -1.985  -5.093  0.00  0.00     0.062 H 
ATOM     46  C   LIG d   1       4.524  -1.960  -2.809  0.00  0.00     0.117 A 
ATOM     47  H   LIG d   1       5.232  -3.431  -4.197  0.00  0.00     0.065 H 
ATOM     48  C   LIG d   1       4.691  -0.674  -2.317  0.00  0.00    -0.020 A 
ATOM     49  C   LIG d   1       5.690   0.134  -2.824  0.00  0.00    -0.052 A 
ATOM     50  H   LIG d   1       4.042  -0.306  -1.537  0.00  0.00     0.065 H 
ATOM     51  H   LIG d   1       5.820   1.135  -2.441  0.00  0.00     0.062 H 
BRANCH  46  52
ATOM     52  O   LIG d   1       3.543  -2.758  -2.312  0.00  0.00    -0.507 OA
ATOM     53  H   LIG d   1       2.762  -2.277  -2.007  0.00  0.00     0.292 HD
ENDBRANCH  46  52
ENDBRANCH   1  42
TORSDOF 10
ENDMDL
MODEL 4
REMARK VINA RESULT:      -6.4      4.138      6.084
REMARK  10 active torsions:
REMARK  status: ('A' for Active; 'I' for Inactive)
REMARK    1  A    between atoms: C_3  and  O_37 
REMARK    2  A    between atoms: C_6  and  C_7 
REMARK    3  A    between atoms: C_15  and  O_35 
REMARK    4  A    between atoms: C_17  and  O_18 
REMARK    5  A    between atoms: O_18  and  C_19 
REMARK    6  A    between atoms: C_21  and  O_34 
REMARK    7  A    between atoms: C_23  and  O_33 
REMARK    8  A    between atoms: C_25  and  O_32 
REMARK    9  A    between atoms: C_27  and  C_30 
REMARK   10  A    between atoms: C_30  and  O_31 
ROOT
ATOM      1  C   LIG d   1       9.348   6.744  -7.774  0.00  0.00     0.132 C 
ATOM      2  H   LIG d   1       8.331   7.002  -7.479  0.00  0.00     0.079 H 
ATOM      3  C   LIG d   1      10.340   7.658  -7.043  0.00  0.00     0.052 C 
ATOM      4  C   LIG d   1      10.166   7.413  -5.555  0.00  0.00     0.174 C 
ATOM      5  O   LIG d   1      10.193   8.322  -4.751  0.00  0.00    -0.292 OA
ATOM      6  C   LIG d   1       9.963   6.020  -5.139  0.00  0.00     0.101 A 
ATOM      7  C   LIG d   1       9.681   5.049  -6.118  0.00  0.00     0.139 A 
ATOM      8  C   LIG d   1       9.476   3.738  -5.730  0.00  0.00     0.022 A 
ATOM      9  C   LIG d   1       9.555   3.385  -4.388  0.00  0.00     0.124 A 
ATOM     10  C   LIG d   1       9.840   4.339  -3.419  0.00  0.00     0.023 A 
ATOM     11  C   LIG d   1      10.045   5.658  -3.786  0.00  0.00     0.141 A 
ATOM     12  O   LIG d   1       9.613   5.385  -7.428  0.00  0.00    -0.483 OA
ATOM     13  H   LIG d   1      11.360   7.414  -7.343  0.00  0.00     0.038 H 
ATOM     14  H   LIG d   1      10.125   8.701  -7.275  0.00  0.00     0.038 H 
ATOM     15  H   LIG d   1       9.254   2.985  -6.472  0.00  0.00     0.069 H 
ATOM     16  H   LIG d   1       9.899   4.053  -2.380  0.00  0.00     0.069 H 
ENDROOT
BRANCH  11  17
ATOM     17  O   LIG d   1      10.326   6.592  -2.844  0.00  0.00    -0.460 OA
BRANCH  17  18
ATOM     18  C   LIG d   1       9.859   6.338  -1.518  0.00  0.00     0.231 C 
ATOM     19  H   LIG d   1       9.147   5.512  -1.535  0.00  0.00     0.108 H 
ATOM     20  O   LIG d   1       9.217   7.509  -1.007  0.00  0.00    -0.331 OA
ATOM     21  C   LIG d   1      10.058   8.664  -0.966  0.00  0.00     0.114 C 
ATOM     22  C   LIG d   1      11.251   8.393  -0.045  0.00  0.00     0.112 C 
ATOM     23  H   LIG d   1      10.418   8.888  -1.969  0.00  0.00     0.065 H 
ATOM     24  C   LIG d   1      12.008   7.161  -0.553  0.00  0.00     0.115 C 
ATOM     25  H   LIG d   1      11.916   9.255  -0.047  0.00  0.00     0.065 H 
ATOM     26  C   LIG d   1      11.043   5.974  -0.619  0.00  0.00     0.145 C 
ATOM     27  H   LIG d   1      12.407   7.364  -1.547  0.00  0.00     0.065 H 
ATOM     28  H   LIG d   1      11.560   5.107  -1.032  0.00  0.00     0.068 H 
BRANCH  21  29
ATOM     29  C   LIG d   1       9.263   9.856  -0.432  0.00  0.00     0.073 C 
ATOM     30  H   LIG d   1       8.971   9.665   0.602  0.00  0.00     0.058 H 
ATOM     31  H   LIG d   1       9.879  10.754  -0.474  0.00  0.00     0.058 H 
BRANCH  29  32
ATOM     32  O   LIG d   1       8.092  10.043  -1.229  0.00  0.00    -0.392 OA
ATOM     33  H   LIG d   1       8.101   9.553  -2.063  0.00  0.00     0.209 HD
ENDBRANCH  29  32
ENDBRANCH  21  29
BRANCH  22  34
ATOM     34  O   LIG d   1      10.785   8.151   1.285  0.00  0.00    -0.387 OA
ATOM     35  H   LIG d   1      10.503   7.240   1.443  0.00  0.00     0.210 HD
ENDBRANCH  22  34
BRANCH  24  36
ATOM     36  O   LIG d   1      13.081   6.856   0.340  0.00  0.00    -0.386 OA
ATOM     37  H   LIG d   1      13.738   6.251  -0.028  0.00  0.00     0.210 HD
ENDBRANCH  24  36
BRANCH  26  38
ATOM     38  O   LIG d   1      10.570   5.667   0.693  0.00  0.00    -0.383 OA
ATOM     39  H   LIG d   1       9.610   5.724   0.789  0.00  0.00     0.210 HD
ENDBRANCH  26  38
ENDBRANCH  17  18
ENDBRANCH  11  17
BRANCH   9  40
ATOM     40  O   LIG d   1       9.351   2.095  -4.019  0.00  0.00    -0.506 OA
ATOM     41  H   LIG d   1       9.357   1.954  -3.062  0.00  0.00     0.292 HD
ENDBRANCH   9  40
BRANCH   1  42
ATOM     42  C   LIG d   1       9.500   6.922  -9.262  0.00  0.00    -0.007 A 
ATOM     43  C   LIG d   1      10.198   8.007  -9.759  0.00  0.00    -0.052 A 
ATOM     44  C   LIG d   1      10.340   8.174 -11.123  0.00  0.00    -0.020 A 
ATOM     45  H   LIG d   1      10.636   8.724  -9.081  0.00  0.00     0.062 H 
ATOM     46  C   LIG d   1       9.781   7.249 -11.995  0.00  0.00     0.117 A 
ATOM     47  H   LIG d   1      10.884   9.021 -11.511  0.00  0.00     0.065 H 
ATOM     48  C   LIG d   1       9.082   6.161 -11.494  0.00  0.00    -0.020 A 
ATOM     49  C   LIG d   1       8.943   6.000 -10.129  0.00  0.00    -0.052 A 
ATOM     50  H   LIG d   1       8.646   5.441 -12.170  0.00  0.00     0.065 H 
ATOM     51  H   LIG d   1       8.399   5.153  -9.738  0.00  0.00     0.062 H 
BRANCH  46  52
ATOM     52  O   LIG d   1       9.919   7.411 -13.337  0.00  0.00    -0.507 OA
ATOM     53  H   LIG d   1      10.834   7.359 -13.648  0.00  0.00     0.292 HD
ENDBRANCH  46  52
ENDBRANCH   1  42
TORSDOF 10
ENDMDL
MODEL 5
REMARK VINA RESULT:      -6.3     10.744     12.235
REMARK  10 active torsions:
REMARK  status: ('A' for Active; 'I' for Inactive)
REMARK    1  A    between atoms: C_3  and  O_37 
REMARK    2  A    between atoms: C_6  and  C_7 
REMARK    3  A    between atoms: C_15  and  O_35 
REMARK    4  A    between atoms: C_17  and  O_18 
REMARK    5  A    between atoms: O_18  and  C_19 
REMARK    6  A    between atoms: C_21  and  O_34 
REMARK    7  A    between atoms: C_23  and  O_33 
REMARK    8  A    between atoms: C_25  and  O_32 
REMARK    9  A    between atoms: C_27  and  C_30 
REMARK   10  A    between atoms: C_30  and  O_31 
ROOT
ATOM      1  C   LIG d   1       7.521  -2.927  -4.668  0.00  0.00     0.132 C 
ATOM      2  H   LIG d   1       6.873  -3.801  -4.598  0.00  0.00     0.079 H 
ATOM      3  C   LIG d   1       7.580  -2.451  -6.127  0.00  0.00     0.052 C 
ATOM      4  C   LIG d   1       6.168  -2.070  -6.533  0.00  0.00     0.174 C 
ATOM      5  O   LIG d   1       5.726  -2.339  -7.631  0.00  0.00    -0.292 OA
ATOM      6  C   LIG d   1       5.365  -1.360  -5.531  0.00  0.00     0.101 A 
ATOM      7  C   LIG d   1       5.824  -1.304  -4.202  0.00  0.00     0.139 A 
ATOM      8  C   LIG d   1       5.065  -0.647  -3.251  0.00  0.00     0.022 A 
ATOM      9  C   LIG d   1       3.865  -0.045  -3.608  0.00  0.00     0.124 A 
ATOM     10  C   LIG d   1       3.411  -0.092  -4.921  0.00  0.00     0.023 A 
ATOM     11  C   LIG d   1       4.155  -0.746  -5.887  0.00  0.00     0.141 A 
ATOM     12  O   LIG d   1       6.998  -1.881  -3.849  0.00  0.00    -0.483 OA
ATOM     13  H   LIG d   1       8.236  -1.583  -6.207  0.00  0.00     0.038 H 
ATOM     14  H   LIG d   1       7.947  -3.254  -6.765  0.00  0.00     0.038 H 
ATOM     15  H   LIG d   1       5.406  -0.602  -2.227  0.00  0.00     0.069 H 
ATOM     16  H   LIG d   1       2.478   0.382  -5.187  0.00  0.00     0.069 H 
ENDROOT
BRANCH  11  17
ATOM     17  O   LIG d   1       3.716  -0.792  -7.170  0.00  0.00    -0.460 OA
BRANCH  17  18
ATOM     18  C   LIG d   1       3.242   0.430  -7.739  0.00  0.00     0.231 C 
ATOM     19  H   LIG d   1       2.690   0.991  -6.984  0.00  0.00     0.108 H 
ATOM     20  O   LIG d   1       2.381   0.139  -8.842  0.00  0.00    -0.331 OA
ATOM     21  C   LIG d   1       3.003  -0.620  -9.881  0.00  0.00     0.114 C 
ATOM     22  C   LIG d   1       4.183   0.170 -10.455  0.00  0.00     0.112 C 
ATOM     23  H   LIG d   1       3.362  -1.565  -9.476  0.00  0.00     0.065 H 
ATOM     24  C   LIG d   1       5.167   0.492  -9.326  0.00  0.00     0.115 C 
ATOM     25  H   LIG d   1       4.684  -0.425 -11.216  0.00  0.00     0.065 H 
ATOM     26  C   LIG d   1       4.431   1.263  -8.226  0.00  0.00     0.145 C 
ATOM     27  H   LIG d   1       5.568  -0.435  -8.917  0.00  0.00     0.065 H 
ATOM     28  H   LIG d   1       5.111   1.448  -7.394  0.00  0.00     0.068 H 
BRANCH  21  29
ATOM     29  C   LIG d   1       1.986  -0.894 -10.991  0.00  0.00     0.073 C 
ATOM     30  H   LIG d   1       2.127  -0.176 -11.799  0.00  0.00     0.058 H 
ATOM     31  H   LIG d   1       2.129  -1.905 -11.375  0.00  0.00     0.058 H 
BRANCH  29  32
ATOM     32  O   LIG d   1       0.663  -0.767 -10.466  0.00  0.00    -0.392 OA
ATOM     33  H   LIG d   1      -0.002  -0.531 -11.128  0.00  0.00     0.209 HD
ENDBRANCH  29  32
ENDBRANCH  21  29
BRANCH  22  34
ATOM     34  O   LIG d   1       3.707   1.387 -11.035  0.00  0.00    -0.387 OA
ATOM     35  H   LIG d   1       3.772   2.153 -10.449  0.00  0.00     0.210 HD
ENDBRANCH  22  34
BRANCH  24  36
ATOM     36  O   LIG d   1       6.236   1.292  -9.835  0.00  0.00    -0.386 OA
ATOM     37  H   LIG d   1       7.078   0.823  -9.908  0.00  0.00     0.210 HD
ENDBRANCH  24  36
BRANCH  26  38
ATOM     38  O   LIG d   1       3.962   2.508  -8.744  0.00  0.00    -0.383 OA
ATOM     39  H   LIG d   1       4.286   3.282  -8.264  0.00  0.00     0.210 HD
ENDBRANCH  26  38
ENDBRANCH  17  18
ENDBRANCH  11  17
BRANCH   9  40
ATOM     40  O   LIG d   1       3.129   0.596  -2.666  0.00  0.00    -0.506 OA
ATOM     41  H   LIG d   1       2.192   0.682  -2.891  0.00  0.00     0.292 HD
ENDBRANCH   9  40
BRANCH   1  42
ATOM     42  C   LIG d   1       8.906  -3.288  -4.199  0.00  0.00    -0.007 A 
ATOM     43  C   LIG d   1       9.071  -4.063  -3.067  0.00  0.00    -0.052 A 
ATOM     44  C   LIG d   1      10.340  -4.396  -2.634  0.00  0.00    -0.020 A 
ATOM     45  H   LIG d   1       8.208  -4.412  -2.521  0.00  0.00     0.062 H 
ATOM     46  C   LIG d   1      11.450  -3.952  -3.340  0.00  0.00     0.117 A 
ATOM     47  H   LIG d   1      10.469  -5.001  -1.750  0.00  0.00     0.065 H 
ATOM     48  C   LIG d   1      11.282  -3.175  -4.476  0.00  0.00    -0.020 A 
ATOM     49  C   LIG d   1      10.010  -2.845  -4.903  0.00  0.00    -0.052 A 
ATOM     50  H   LIG d   1      12.144  -2.828  -5.026  0.00  0.00     0.065 H 
ATOM     51  H   LIG d   1       9.878  -2.240  -5.788  0.00  0.00     0.062 H 
BRANCH  46  52
ATOM     52  O   LIG d   1      12.700  -4.278  -2.917  0.00  0.00    -0.507 OA
ATOM     53  H   LIG d   1      12.761  -5.153  -2.510  0.00  0.00     0.292 HD
ENDBRANCH  46  52
ENDBRANCH   1  42
TORSDOF 10
ENDMDL
MODEL 6
REMARK VINA RESULT:      -6.3      3.788      9.575
REMARK  10 active torsions:
REMARK  status: ('A' for Active; 'I' for Inactive)
REMARK    1  A    between atoms: C_3  and  O_37 
REMARK    2  A    between atoms: C_6  and  C_7 
REMARK    3  A    between atoms: C_15  and  O_35 
REMARK    4  A    between atoms: C_17  and  O_18 
REMARK    5  A    between atoms: O_18  and  C_19 
REMARK    6  A    between atoms: C_21  and  O_34 
REMARK    7  A    between atoms: C_23  and  O_33 
REMARK    8  A    between atoms: C_25  and  O_32 
REMARK    9  A    between atoms: C_27  and  C_30 
REMARK   10  A    between atoms: C_30  and  O_31 
ROOT
ATOM      1  C   LIG d   1       9.818   6.366  -3.188  0.00  0.00     0.132 C 
ATOM      2  H   LIG d   1       8.788   6.010  -3.180  0.00  0.00     0.079 H 
ATOM      3  C   LIG d   1      10.734   5.267  -3.744  0.00  0.00     0.052 C 
ATOM      4  C   LIG d   1      10.284   4.984  -5.166  0.00  0.00     0.174 C 
ATOM      5  O   LIG d   1      10.239   3.854  -5.608  0.00  0.00    -0.292 OA
ATOM      6  C   LIG d   1       9.906   6.145  -5.979  0.00  0.00     0.101 A 
ATOM      7  C   LIG d   1       9.726   7.390  -5.349  0.00  0.00     0.139 A 
ATOM      8  C   LIG d   1       9.358   8.486  -6.108  0.00  0.00     0.022 A 
ATOM      9  C   LIG d   1       9.173   8.356  -7.480  0.00  0.00     0.124 A 
ATOM     10  C   LIG d   1       9.356   7.130  -8.106  0.00  0.00     0.023 A 
ATOM     11  C   LIG d   1       9.723   6.021  -7.364  0.00  0.00     0.141 A 
ATOM     12  O   LIG d   1       9.914   7.526  -4.014  0.00  0.00    -0.483 OA
ATOM     13  H   LIG d   1      11.769   5.611  -3.744  0.00  0.00     0.038 H 
ATOM     14  H   LIG d   1      10.642   4.366  -3.139  0.00  0.00     0.038 H 
ATOM     15  H   LIG d   1       9.212   9.446  -5.634  0.00  0.00     0.069 H 
ATOM     16  H   LIG d   1       9.211   7.042  -9.173  0.00  0.00     0.069 H 
ENDROOT
BRANCH  11  17
ATOM     17  O   LIG d   1       9.905   4.822  -7.973  0.00  0.00    -0.460 OA
BRANCH  17  18
ATOM     18  C   LIG d   1       9.324   4.657  -9.269  0.00  0.00     0.231 C 
ATOM     19  H   LIG d   1       9.058   5.633  -9.674  0.00  0.00     0.108 H 
ATOM     20  O   LIG d   1       8.151   3.848  -9.165  0.00  0.00    -0.331 OA
ATOM     21  C   LIG d   1       8.386   2.549  -8.616  0.00  0.00     0.114 C 
ATOM     22  C   LIG d   1       9.357   1.782  -9.519  0.00  0.00     0.112 C 
ATOM     23  H   LIG d   1       8.816   2.647  -7.620  0.00  0.00     0.065 H 
ATOM     24  C   LIG d   1      10.657   2.582  -9.651  0.00  0.00     0.115 C 
ATOM     25  H   LIG d   1       9.571   0.809  -9.079  0.00  0.00     0.065 H 
ATOM     26  C   LIG d   1      10.333   3.975 -10.197  0.00  0.00     0.145 C 
ATOM     27  H   LIG d   1      11.129   2.673  -8.673  0.00  0.00     0.065 H 
ATOM     28  H   LIG d   1      11.245   4.570 -10.242  0.00  0.00     0.068 H 
BRANCH  21  29
ATOM     29  C   LIG d   1       7.063   1.786  -8.527  0.00  0.00     0.073 C 
ATOM     30  H   LIG d   1       7.220   0.748  -8.825  0.00  0.00     0.058 H 
ATOM     31  H   LIG d   1       6.692   1.817  -7.502  0.00  0.00     0.058 H 
BRANCH  29  32
ATOM     32  O   LIG d   1       6.105   2.390  -9.399  0.00  0.00    -0.392 OA
ATOM     33  H   LIG d   1       6.449   2.597 -10.279  0.00  0.00     0.209 HD
ENDBRANCH  29  32
ENDBRANCH  21  29
BRANCH  22  34
ATOM     34  O   LIG d   1       8.771   1.605 -10.811  0.00  0.00    -0.387 OA
ATOM     35  H   LIG d   1       8.816   0.698 -11.142  0.00  0.00     0.210 HD
ENDBRANCH  22  34
BRANCH  24  36
ATOM     36  O   LIG d   1      11.543   1.911 -10.549  0.00  0.00    -0.386 OA
ATOM     37  H   LIG d   1      11.134   1.185 -11.037  0.00  0.00     0.210 HD
ENDBRANCH  24  36
BRANCH  26  38
ATOM     38  O   LIG d   1       9.774   3.859 -11.506  0.00  0.00    -0.383 OA
ATOM     39  H   LIG d   1       9.291   4.644 -11.799  0.00  0.00     0.210 HD
ENDBRANCH  26  38
ENDBRANCH  17  18
ENDBRANCH  11  17
BRANCH   9  40
ATOM     40  O   LIG d   1       8.811   9.438  -8.214  0.00  0.00    -0.506 OA
ATOM     41  H   LIG d   1       9.333   9.559  -9.019  0.00  0.00     0.292 HD
ENDBRANCH   9  40
BRANCH   1  42
ATOM     42  C   LIG d   1      10.242   6.712  -1.784  0.00  0.00    -0.007 A 
ATOM     43  C   LIG d   1      10.656   5.714  -0.923  0.00  0.00    -0.052 A 
ATOM     44  C   LIG d   1      11.046   6.029   0.365  0.00  0.00    -0.020 A 
ATOM     45  H   LIG d   1      10.680   4.688  -1.257  0.00  0.00     0.062 H 
ATOM     46  C   LIG d   1      11.021   7.349   0.792  0.00  0.00     0.117 A 
ATOM     47  H   LIG d   1      11.369   5.249   1.038  0.00  0.00     0.065 H 
ATOM     48  C   LIG d   1      10.604   8.349  -0.074  0.00  0.00    -0.020 A 
ATOM     49  C   LIG d   1      10.216   8.028  -1.361  0.00  0.00    -0.052 A 
ATOM     50  H   LIG d   1      10.584   9.376   0.256  0.00  0.00     0.065 H 
ATOM     51  H   LIG d   1       9.892   8.806  -2.036  0.00  0.00     0.062 H 
BRANCH  46  52
ATOM     52  O   LIG d   1      11.403   7.661   2.059  0.00  0.00    -0.507 OA
ATOM     53  H   LIG d   1      11.578   8.602   2.196  0.00  0.00     0.292 HD
ENDBRANCH  46  52
ENDBRANCH   1  42
TORSDOF 10
ENDMDL
MODEL 7
REMARK VINA RESULT:      -6.2      3.258      6.687
REMARK  10 active torsions:
REMARK  status: ('A' for Active; 'I' for Inactive)
REMARK    1  A    between atoms: C_3  and  O_37 
REMARK    2  A    between atoms: C_6  and  C_7 
REMARK    3  A    between atoms: C_15  and  O_35 
REMARK    4  A    between atoms: C_17  and  O_18 
REMARK    5  A    between atoms: O_18  and  C_19 
REMARK    6  A    between atoms: C_21  and  O_34 
REMARK    7  A    between atoms: C_23  and  O_33 
REMARK    8  A    between atoms: C_25  and  O_32 
REMARK    9  A    between atoms: C_27  and  C_30 
REMARK   10  A    between atoms: C_30  and  O_31 
ROOT
ATOM      1  C   LIG d   1       8.107   0.815  -4.772  0.00  0.00     0.132 C 
ATOM      2  H   LIG d   1       9.064   0.297  -4.702  0.00  0.00     0.079 H 
ATOM      3  C   LIG d   1       7.957   1.776  -3.585  0.00  0.00     0.052 C 
ATOM      4  C   LIG d   1       9.088   2.785  -3.677  0.00  0.00     0.174 C 
ATOM      5  O   LIG d   1       9.686   3.166  -2.691  0.00  0.00    -0.292 OA
ATOM      6  C   LIG d   1       9.421   3.277  -5.019  0.00  0.00     0.101 A 
ATOM      7  C   LIG d   1       8.883   2.619  -6.140  0.00  0.00     0.139 A 
ATOM      8  C   LIG d   1       9.203   3.071  -7.408  0.00  0.00     0.022 A 
ATOM      9  C   LIG d   1      10.043   4.166  -7.568  0.00  0.00     0.124 A 
ATOM     10  C   LIG d   1      10.571   4.823  -6.463  0.00  0.00     0.023 A 
ATOM     11  C   LIG d   1      10.265   4.385  -5.186  0.00  0.00     0.141 A 
ATOM     12  O   LIG d   1       8.056   1.557  -5.991  0.00  0.00    -0.483 OA
ATOM     13  H   LIG d   1       6.996   2.289  -3.641  0.00  0.00     0.038 H 
ATOM     14  H   LIG d   1       8.028   1.223  -2.648  0.00  0.00     0.038 H 
ATOM     15  H   LIG d   1       8.800   2.570  -8.276  0.00  0.00     0.069 H 
ATOM     16  H   LIG d   1      11.221   5.674  -6.600  0.00  0.00     0.069 H 
ENDROOT
BRANCH  11  17
ATOM     17  O   LIG d   1      10.776   5.025  -4.105  0.00  0.00    -0.460 OA
BRANCH  17  18
ATOM     18  C   LIG d   1      10.902   6.446  -4.190  0.00  0.00     0.231 C 
ATOM     19  H   LIG d   1      10.988   6.740  -5.237  0.00  0.00     0.108 H 
ATOM     20  O   LIG d   1      12.070   6.863  -3.480  0.00  0.00    -0.331 OA
ATOM     21  C   LIG d   1      12.071   6.501  -2.097  0.00  0.00     0.114 C 
ATOM     22  C   LIG d   1      10.882   7.165  -1.396  0.00  0.00     0.112 C 
ATOM     23  H   LIG d   1      11.990   5.419  -2.004  0.00  0.00     0.065 H 
ATOM     24  C   LIG d   1       9.586   6.736  -2.090  0.00  0.00     0.115 C 
ATOM     25  H   LIG d   1      10.857   6.855  -0.352  0.00  0.00     0.065 H 
ATOM     26  C   LIG d   1       9.667   7.107  -3.573  0.00  0.00     0.145 C 
ATOM     27  H   LIG d   1       9.459   5.658  -1.989  0.00  0.00     0.065 H 
ATOM     28  H   LIG d   1       8.772   6.755  -4.086  0.00  0.00     0.068 H 
BRANCH  21  29
ATOM     29  C   LIG d   1      13.374   6.972  -1.448  0.00  0.00     0.073 C 
ATOM     30  H   LIG d   1      14.223   6.574  -2.005  0.00  0.00     0.058 H 
ATOM     31  H   LIG d   1      13.413   8.062  -1.458  0.00  0.00     0.058 H 
BRANCH  29  32
ATOM     32  O   LIG d   1      13.429   6.505  -0.099  0.00  0.00    -0.392 OA
ATOM     33  H   LIG d   1      13.403   5.542  -0.014  0.00  0.00     0.209 HD
ENDBRANCH  29  32
ENDBRANCH  21  29
BRANCH  22  34
ATOM     34  O   LIG d   1      11.016   8.587  -1.470  0.00  0.00    -0.387 OA
ATOM     35  H   LIG d   1      11.864   8.919  -1.149  0.00  0.00     0.210 HD
ENDBRANCH  22  34
BRANCH  24  36
ATOM     36  O   LIG d   1       8.476   7.405  -1.489  0.00  0.00    -0.386 OA
ATOM     37  H   LIG d   1       8.699   8.255  -1.088  0.00  0.00     0.210 HD
ENDBRANCH  24  36
BRANCH  26  38
ATOM     38  O   LIG d   1       9.768   8.525  -3.708  0.00  0.00    -0.383 OA
ATOM     39  H   LIG d   1      10.442   8.927  -3.142  0.00  0.00     0.210 HD
ENDBRANCH  26  38
ENDBRANCH  17  18
ENDBRANCH  11  17
BRANCH   9  40
ATOM     40  O   LIG d   1      10.351   4.599  -8.816  0.00  0.00    -0.506 OA
ATOM     41  H   LIG d   1       9.951   5.449  -9.047  0.00  0.00     0.292 HD
ENDBRANCH   9  40
BRANCH   1  42
ATOM     42  C   LIG d   1       6.987  -0.192  -4.749  0.00  0.00    -0.007 A 
ATOM     43  C   LIG d   1       6.174  -0.345  -5.856  0.00  0.00    -0.052 A 
ATOM     44  C   LIG d   1       5.146  -1.268  -5.839  0.00  0.00    -0.020 A 
ATOM     45  H   LIG d   1       6.343   0.255  -6.738  0.00  0.00     0.062 H 
ATOM     46  C   LIG d   1       4.932  -2.043  -4.707  0.00  0.00     0.117 A 
ATOM     47  H   LIG d   1       4.511  -1.387  -6.703  0.00  0.00     0.065 H 
ATOM     48  C   LIG d   1       5.750  -1.888  -3.598  0.00  0.00    -0.020 A 
ATOM     49  C   LIG d   1       6.776  -0.963  -3.622  0.00  0.00    -0.052 A 
ATOM     50  H   LIG d   1       5.585  -2.490  -2.717  0.00  0.00     0.065 H 
ATOM     51  H   LIG d   1       7.413  -0.842  -2.758  0.00  0.00     0.062 H 
BRANCH  46  52
ATOM     52  O   LIG d   1       3.922  -2.952  -4.687  0.00  0.00    -0.507 OA
ATOM     53  H   LIG d   1       3.995  -3.637  -5.366  0.00  0.00     0.292 HD
ENDBRANCH  46  52
ENDBRANCH   1  42
TORSDOF 10
ENDMDL
MODEL 8
REMARK VINA RESULT:      -6.1      5.225     11.590
REMARK  10 active torsions:
REMARK  status: ('A' for Active; 'I' for Inactive)
REMARK    1  A    between atoms: C_3  and  O_37 
REMARK    2  A    between atoms: C_6  and  C_7 
REMARK    3  A    between atoms: C_15  and  O_35 
REMARK    4  A    between atoms: C_17  and  O_18 
REMARK    5  A    between atoms: O_18  and  C_19 
REMARK    6  A    between atoms: C_21  and  O_34 
REMARK    7  A    between atoms: C_23  and  O_33 
REMARK    8  A    between atoms: C_25  and  O_32 
REMARK    9  A    between atoms: C_27  and  C_30 
REMARK   10  A    between atoms: C_30  and  O_31 
ROOT
ATOM      1  C   LIG d   1       8.697   1.900  -4.189  0.00  0.00     0.132 C 
ATOM      2  H   LIG d   1       9.359   1.054  -4.006  0.00  0.00     0.079 H 
ATOM      3  C   LIG d   1       8.287   1.919  -5.668  0.00  0.00     0.052 C 
ATOM      4  C   LIG d   1       7.544   0.625  -5.945  0.00  0.00     0.174 C 
ATOM      5  O   LIG d   1       7.705   0.003  -6.976  0.00  0.00    -0.292 OA
ATOM      6  C   LIG d   1       6.619   0.162  -4.903  0.00  0.00     0.101 A 
ATOM      7  C   LIG d   1       6.663   0.769  -3.634  0.00  0.00     0.139 A 
ATOM      8  C   LIG d   1       5.803   0.329  -2.644  0.00  0.00     0.022 A 
ATOM      9  C   LIG d   1       4.903  -0.698  -2.906  0.00  0.00     0.124 A 
ATOM     10  C   LIG d   1       4.852  -1.294  -4.159  0.00  0.00     0.023 A 
ATOM     11  C   LIG d   1       5.706  -0.870  -5.162  0.00  0.00     0.141 A 
ATOM     12  O   LIG d   1       7.531   1.776  -3.376  0.00  0.00    -0.483 OA
ATOM     13  H   LIG d   1       7.634   2.771  -5.862  0.00  0.00     0.038 H 
ATOM     14  H   LIG d   1       9.173   1.980  -6.299  0.00  0.00     0.038 H 
ATOM     15  H   LIG d   1       5.830   0.784  -1.665  0.00  0.00     0.069 H 
ATOM     16  H   LIG d   1       4.148  -2.089  -4.351  0.00  0.00     0.069 H 
ENDROOT
BRANCH  11  17
ATOM     17  O   LIG d   1       5.658  -1.448  -6.388  0.00  0.00    -0.460 OA
BRANCH  17  18
ATOM     18  C   LIG d   1       4.365  -1.634  -6.969  0.00  0.00     0.231 C 
ATOM     19  H   LIG d   1       3.750  -2.236  -6.300  0.00  0.00     0.108 H 
ATOM     20  O   LIG d   1       4.499  -2.304  -8.225  0.00  0.00    -0.331 OA
ATOM     21  C   LIG d   1       5.314  -1.609  -9.171  0.00  0.00     0.114 C 
ATOM     22  C   LIG d   1       4.689  -0.245  -9.478  0.00  0.00     0.112 C 
ATOM     23  H   LIG d   1       6.312  -1.467  -8.758  0.00  0.00     0.065 H 
ATOM     24  C   LIG d   1       4.542   0.544  -8.174  0.00  0.00     0.115 C 
ATOM     25  H   LIG d   1       5.331   0.303 -10.166  0.00  0.00     0.065 H 
ATOM     26  C   LIG d   1       3.702  -0.272  -7.187  0.00  0.00     0.145 C 
ATOM     27  H   LIG d   1       5.528   0.730  -7.748  0.00  0.00     0.065 H 
ATOM     28  H   LIG d   1       3.639   0.258  -6.236  0.00  0.00     0.068 H 
BRANCH  21  29
ATOM     29  C   LIG d   1       5.409  -2.428 -10.460  0.00  0.00     0.073 C 
ATOM     30  H   LIG d   1       5.555  -1.756 -11.308  0.00  0.00     0.058 H 
ATOM     31  H   LIG d   1       6.251  -3.117 -10.394  0.00  0.00     0.058 H 
BRANCH  29  32
ATOM     32  O   LIG d   1       4.201  -3.168 -10.644  0.00  0.00    -0.392 OA
ATOM     33  H   LIG d   1       4.045  -3.448 -11.557  0.00  0.00     0.209 HD
ENDBRANCH  29  32
ENDBRANCH  21  29
BRANCH  22  34
ATOM     34  O   LIG d   1       3.401  -0.431 -10.071  0.00  0.00    -0.387 OA
ATOM     35  H   LIG d   1       3.035  -1.317  -9.945  0.00  0.00     0.210 HD
ENDBRANCH  22  34
BRANCH  24  36
ATOM     36  O   LIG d   1       3.894   1.790  -8.437  0.00  0.00    -0.386 OA
ATOM     37  H   LIG d   1       4.483   2.477  -8.775  0.00  0.00     0.210 HD
ENDBRANCH  24  36
BRANCH  26  38
ATOM     38  O   LIG d   1       2.389  -0.459  -7.716  0.00  0.00    -0.383 OA
ATOM     39  H   LIG d   1       2.190   0.096  -8.483  0.00  0.00     0.210 HD
ENDBRANCH  26  38
ENDBRANCH  17  18
ENDBRANCH  11  17
BRANCH   9  40
ATOM     40  O   LIG d   1       4.064  -1.121  -1.927  0.00  0.00    -0.506 OA
ATOM     41  H   LIG d   1       3.467  -0.436  -1.597  0.00  0.00     0.292 HD
ENDBRANCH   9  40
BRANCH   1  42
ATOM     42  C   LIG d   1       9.413   3.182  -3.849  0.00  0.00    -0.007 A 
ATOM     43  C   LIG d   1      10.276   3.224  -2.770  0.00  0.00    -0.052 A 
ATOM     44  C   LIG d   1      10.934   4.398  -2.455  0.00  0.00    -0.020 A 
ATOM     45  H   LIG d   1      10.439   2.339  -2.174  0.00  0.00     0.062 H 
ATOM     46  C   LIG d   1      10.729   5.534  -3.226  0.00  0.00     0.117 A 
ATOM     47  H   LIG d   1      11.608   4.431  -1.613  0.00  0.00     0.065 H 
ATOM     48  C   LIG d   1       9.862   5.488  -4.308  0.00  0.00    -0.020 A 
ATOM     49  C   LIG d   1       9.207   4.312  -4.617  0.00  0.00    -0.052 A 
ATOM     50  H   LIG d   1       9.700   6.371  -4.908  0.00  0.00     0.065 H 
ATOM     51  H   LIG d   1       8.532   4.276  -5.460  0.00  0.00     0.062 H 
BRANCH  46  52
ATOM     52  O   LIG d   1      11.375   6.689  -2.918  0.00  0.00    -0.507 OA
ATOM     53  H   LIG d   1      12.292   6.565  -2.639  0.00  0.00     0.292 HD
ENDBRANCH  46  52
ENDBRANCH   1  42
TORSDOF 10
ENDMDL
MODEL 9
REMARK VINA RESULT:      -6.1      4.221     10.911
REMARK  10 active torsions:
REMARK  status: ('A' for Active; 'I' for Inactive)
REMARK    1  A    between atoms: C_3  and  O_37 
REMARK    2  A    between atoms: C_6  and  C_7 
REMARK    3  A    between atoms: C_15  and  O_35 
REMARK    4  A    between atoms: C_17  and  O_18 
REMARK    5  A    between atoms: O_18  and  C_19 
REMARK    6  A    between atoms: C_21  and  O_34 
REMARK    7  A    between atoms: C_23  and  O_33 
REMARK    8  A    between atoms: C_25  and  O_32 
REMARK    9  A    between atoms: C_27  and  C_30 
REMARK   10  A    between atoms: C_30  and  O_31 
ROOT
ATOM      1  C   LIG d   1       9.368   4.233  -4.310  0.00  0.00     0.132 C 
ATOM      2  H   LIG d   1       8.379   4.691  -4.276  0.00  0.00     0.079 H 
ATOM      3  C   LIG d   1       9.372   2.962  -3.450  0.00  0.00     0.052 C 
ATOM      4  C   LIG d   1       8.353   2.010  -4.048  0.00  0.00     0.174 C 
ATOM      5  O   LIG d   1       7.617   1.341  -3.350  0.00  0.00    -0.292 OA
ATOM      6  C   LIG d   1       8.300   1.939  -5.512  0.00  0.00     0.101 A 
ATOM      7  C   LIG d   1       8.980   2.912  -6.268  0.00  0.00     0.139 A 
ATOM      8  C   LIG d   1       8.924   2.858  -7.649  0.00  0.00     0.022 A 
ATOM      9  C   LIG d   1       8.207   1.848  -8.280  0.00  0.00     0.124 A 
ATOM     10  C   LIG d   1       7.540   0.882  -7.538  0.00  0.00     0.023 A 
ATOM     11  C   LIG d   1       7.582   0.920  -6.155  0.00  0.00     0.141 A 
ATOM     12  O   LIG d   1       9.688   3.893  -5.659  0.00  0.00    -0.483 OA
ATOM     13  H   LIG d   1      10.363   2.505  -3.468  0.00  0.00     0.038 H 
ATOM     14  H   LIG d   1       9.096   3.206  -2.424  0.00  0.00     0.038 H 
ATOM     15  H   LIG d   1       9.438   3.603  -8.239  0.00  0.00     0.069 H 
ATOM     16  H   LIG d   1       6.988   0.101  -8.040  0.00  0.00     0.069 H 
ENDROOT
BRANCH  11  17
ATOM     17  O   LIG d   1       6.934  -0.023  -5.427  0.00  0.00    -0.460 OA
BRANCH  17  18
ATOM     18  C   LIG d   1       5.549  -0.229  -5.715  0.00  0.00     0.231 C 
ATOM     19  H   LIG d   1       5.277   0.334  -6.608  0.00  0.00     0.108 H 
ATOM     20  O   LIG d   1       4.761   0.219  -4.610  0.00  0.00    -0.331 OA
ATOM     21  C   LIG d   1       5.059  -0.440  -3.377  0.00  0.00     0.114 C 
ATOM     22  C   LIG d   1       4.783  -1.940  -3.521  0.00  0.00     0.112 C 
ATOM     23  H   LIG d   1       6.108  -0.286  -3.127  0.00  0.00     0.065 H 
ATOM     24  C   LIG d   1       5.622  -2.496  -4.675  0.00  0.00     0.115 C 
ATOM     25  H   LIG d   1       5.050  -2.449  -2.596  0.00  0.00     0.065 H 
ATOM     26  C   LIG d   1       5.293  -1.720  -5.953  0.00  0.00     0.145 C 
ATOM     27  H   LIG d   1       6.681  -2.385  -4.441  0.00  0.00     0.065 H 
ATOM     28  H   LIG d   1       5.926  -2.073  -6.767  0.00  0.00     0.068 H 
BRANCH  21  29
ATOM     29  C   LIG d   1       4.180   0.136  -2.266  0.00  0.00     0.073 C 
ATOM     30  H   LIG d   1       3.268   0.549  -2.701  0.00  0.00     0.058 H 
ATOM     31  H   LIG d   1       3.920  -0.654  -1.561  0.00  0.00     0.058 H 
BRANCH  29  32
ATOM     32  O   LIG d   1       4.891   1.170  -1.583  0.00  0.00    -0.392 OA
ATOM     33  H   LIG d   1       5.459   0.851  -0.868  0.00  0.00     0.209 HD
ENDBRANCH  29  32
ENDBRANCH  21  29
BRANCH  22  34
ATOM     34  O   LIG d   1       3.395  -2.146  -3.797  0.00  0.00    -0.387 OA
ATOM     35  H   LIG d   1       2.857  -2.303  -3.009  0.00  0.00     0.210 HD
ENDBRANCH  22  34
BRANCH  24  36
ATOM     36  O   LIG d   1       5.319  -3.880  -4.865  0.00  0.00    -0.386 OA
ATOM     37  H   LIG d   1       4.950  -4.313  -4.084  0.00  0.00     0.210 HD
ENDBRANCH  24  36
BRANCH  26  38
ATOM     38  O   LIG d   1       3.921  -1.919  -6.295  0.00  0.00    -0.383 OA
ATOM     39  H   LIG d   1       3.309  -1.794  -5.557  0.00  0.00     0.210 HD
ENDBRANCH  26  38
ENDBRANCH  17  18
ENDBRANCH  11  17
BRANCH   9  40
ATOM     40  O   LIG d   1       8.159   1.806  -9.635  0.00  0.00    -0.506 OA
ATOM     41  H   LIG d   1       7.606   2.494 -10.030  0.00  0.00     0.292 HD
ENDBRANCH   9  40
BRANCH   1  42
ATOM     42  C   LIG d   1      10.390   5.205  -3.780  0.00  0.00    -0.007 A 
ATOM     43  C   LIG d   1      10.447   5.475  -2.425  0.00  0.00    -0.052 A 
ATOM     44  C   LIG d   1      11.383   6.365  -1.936  0.00  0.00    -0.020 A 
ATOM     45  H   LIG d   1       9.762   4.988  -1.748  0.00  0.00     0.062 H 
ATOM     46  C   LIG d   1      12.268   6.987  -2.806  0.00  0.00     0.117 A 
ATOM     47  H   LIG d   1      11.428   6.576  -0.878  0.00  0.00     0.065 H 
ATOM     48  C   LIG d   1      12.208   6.714  -4.165  0.00  0.00    -0.020 A 
ATOM     49  C   LIG d   1      11.270   5.823  -4.648  0.00  0.00    -0.052 A 
ATOM     50  H   LIG d   1      12.895   7.197  -4.843  0.00  0.00     0.065 H 
ATOM     51  H   LIG d   1      11.223   5.610  -5.706  0.00  0.00     0.062 H 
BRANCH  46  52
ATOM     52  O   LIG d   1      13.190   7.863  -2.327  0.00  0.00    -0.507 OA
ATOM     53  H   LIG d   1      14.105   7.572  -2.440  0.00  0.00     0.292 HD
ENDBRANCH  46  52
ENDBRANCH   1  42
TORSDOF 10
ENDMDL
