MODEL 1
REMARK VINA RESULT:      -8.0      0.000      0.000
REMARK  5 active torsions:
REMARK  status: ('A' for Active; 'I' for Inactive)
REMARK    1  A    between atoms: C_1  and  C_2 
REMARK    2  A    between atoms: C_12  and  C_13 
REMARK    3  A    between atoms: C_13  and  C_14 
REMARK    4  A    between atoms: C_14  and  C_15 
REMARK    5  A    between atoms: C_19  and  C_20 
ROOT
ATOM      1  C   LIG d   1       5.331  -1.531  -3.214  0.00  0.00    -0.030 A 
ATOM      2  C   LIG d   1       6.394  -2.126  -4.029  0.00  0.00     0.022 A 
ATOM      3  C   LIG d   1       6.377  -3.485  -4.343  0.00  0.00    -0.040 A 
ATOM      4  C   LIG d   1       7.395  -4.017  -5.117  0.00  0.00     0.029 A 
ATOM      5  C   LIG d   1       8.441  -3.196  -5.585  0.00  0.00     0.139 A 
ATOM      6  C   LIG d   1       8.452  -1.846  -5.269  0.00  0.00     0.024 A 
ATOM      7  C   LIG d   1       7.439  -1.304  -4.497  0.00  0.00     0.143 A 
ATOM      8  O   LIG d   1       7.445   0.012  -4.187  0.00  0.00    -0.422 OA
ATOM      9  C   LIG d   1       6.475   0.562  -3.442  0.00  0.00     0.341 A 
ATOM     10  O   LIG d   1       6.523   1.752  -3.189  0.00  0.00    -0.245 OA
ATOM     11  C   LIG d   1       5.400  -0.203  -2.941  0.00  0.00     0.041 A 
ATOM     12  O   LIG d   1       9.276  -3.978  -6.301  0.00  0.00    -0.462 OA
ATOM     13  C   LIG d   1       8.848  -5.251  -6.327  0.00  0.00     0.101 A 
ATOM     14  C   LIG d   1       7.696  -5.368  -5.630  0.00  0.00     0.028 A 
ATOM     15  H   LIG d   1       5.577  -4.117  -3.986  0.00  0.00     0.063 H 
ATOM     16  H   LIG d   1       9.252  -1.215  -5.627  0.00  0.00     0.069 H 
ATOM     17  H   LIG d   1       9.351  -6.062  -6.832  0.00  0.00     0.104 H 
ENDROOT
BRANCH  14  18
ATOM     18  C   LIG d   1       6.901  -6.600  -5.419  0.00  0.00    -0.014 A 
ATOM     19  C   LIG d   1       7.439  -7.648  -4.695  0.00  0.00    -0.046 A 
ATOM     20  C   LIG d   1       6.681  -8.813  -4.499  0.00  0.00    -0.017 A 
ATOM     21  H   LIG d   1       8.435  -7.571  -4.284  0.00  0.00     0.063 H 
ATOM     22  C   LIG d   1       5.375  -8.897  -5.046  0.00  0.00    -0.018 A 
ATOM     23  C   LIG d   1       7.193  -9.900  -3.769  0.00  0.00    -0.054 A 
ATOM     24  C   LIG d   1       4.857  -7.813  -5.778  0.00  0.00    -0.053 A 
ATOM     25  C   LIG d   1       4.620 -10.064  -4.847  0.00  0.00    -0.054 A 
ATOM     26  C   LIG d   1       5.606  -6.694  -5.957  0.00  0.00    -0.053 A 
ATOM     27  H   LIG d   1       3.863  -7.870  -6.197  0.00  0.00     0.062 H 
ATOM     28  H   LIG d   1       5.201  -5.866  -6.519  0.00  0.00     0.062 H 
ATOM     29  C   LIG d   1       5.149 -11.097  -4.135  0.00  0.00    -0.061 A 
ATOM     30  H   LIG d   1       3.624 -10.143  -5.258  0.00  0.00     0.062 H 
ATOM     31  C   LIG d   1       6.430 -11.013  -3.592  0.00  0.00    -0.061 A 
ATOM     32  H   LIG d   1       4.565 -11.993  -3.984  0.00  0.00     0.062 H 
ATOM     33  H   LIG d   1       6.824 -11.845  -3.028  0.00  0.00     0.062 H 
ATOM     34  H   LIG d   1       8.186  -9.851  -3.347  0.00  0.00     0.062 H 
ENDBRANCH  14  18
BRANCH   1  35
ATOM     35  C   LIG d   1       4.193  -2.370  -2.692  0.00  0.00    -0.039 C 
ATOM     36  H   LIG d   1       3.259  -1.817  -2.793  0.00  0.00     0.028 H 
ATOM     37  H   LIG d   1       4.132  -3.295  -3.265  0.00  0.00     0.028 H 
ATOM     38  H   LIG d   1       4.365  -2.603  -1.642  0.00  0.00     0.028 H 
ENDBRANCH   1  35
BRANCH  11  39
ATOM     39  C   LIG d   1       4.330   0.453  -2.106  0.00  0.00    -0.016 C 
ATOM     40  H   LIG d   1       3.664  -0.309  -1.703  0.00  0.00     0.032 H 
ATOM     41  H   LIG d   1       4.794   1.000  -1.285  0.00  0.00     0.032 H 
BRANCH  39  42
ATOM     42  C   LIG d   1       3.527   1.422  -2.976  0.00  0.00    -0.009 C 
ATOM     43  H   LIG d   1       2.755   1.899  -2.371  0.00  0.00     0.033 H 
ATOM     44  H   LIG d   1       4.193   2.184  -3.382  0.00  0.00     0.033 H 
BRANCH  42  45
ATOM     45  C   LIG d   1       2.883   0.665  -4.108  0.00  0.00     0.042 C 
ATOM     46  O   LIG d   1       2.071  -0.199  -3.872  0.00  0.00    -0.550 OA
ATOM     47  O   LIG d   1       3.208   0.950  -5.378  0.00  0.00    -0.550 OA
ENDBRANCH  42  45
ENDBRANCH  39  42
ENDBRANCH  11  39
TORSDOF 5
ENDMDL
MODEL 2
REMARK VINA RESULT:      -8.0      1.935      2.880
REMARK  5 active torsions:
REMARK  status: ('A' for Active; 'I' for Inactive)
REMARK    1  A    between atoms: C_1  and  C_2 
REMARK    2  A    between atoms: C_12  and  C_13 
REMARK    3  A    between atoms: C_13  and  C_14 
REMARK    4  A    between atoms: C_14  and  C_15 
REMARK    5  A    between atoms: C_19  and  C_20 
ROOT
ATOM      1  C   LIG d   1       4.032  -2.046  -3.900  0.00  0.00    -0.030 A 
ATOM      2  C   LIG d   1       4.452  -2.735  -5.124  0.00  0.00     0.022 A 
ATOM      3  C   LIG d   1       4.904  -4.054  -5.083  0.00  0.00    -0.040 A 
ATOM      4  C   LIG d   1       5.292  -4.676  -6.258  0.00  0.00     0.029 A 
ATOM      5  C   LIG d   1       5.231  -3.988  -7.486  0.00  0.00     0.139 A 
ATOM      6  C   LIG d   1       4.781  -2.676  -7.521  0.00  0.00     0.024 A 
ATOM      7  C   LIG d   1       4.390  -2.045  -6.353  0.00  0.00     0.143 A 
ATOM      8  O   LIG d   1       3.949  -0.767  -6.381  0.00  0.00    -0.422 OA
ATOM      9  C   LIG d   1       3.563  -0.133  -5.263  0.00  0.00     0.341 A 
ATOM     10  O   LIG d   1       3.174   1.018  -5.339  0.00  0.00    -0.245 OA
ATOM     11  C   LIG d   1       3.600  -0.763  -4.001  0.00  0.00     0.041 A 
ATOM     12  O   LIG d   1       5.666  -4.834  -8.443  0.00  0.00    -0.462 OA
ATOM     13  C   LIG d   1       6.010  -6.023  -7.922  0.00  0.00     0.101 A 
ATOM     14  C   LIG d   1       5.808  -6.020  -6.586  0.00  0.00     0.028 A 
ATOM     15  H   LIG d   1       4.952  -4.584  -4.143  0.00  0.00     0.063 H 
ATOM     16  H   LIG d   1       4.733  -2.147  -8.461  0.00  0.00     0.069 H 
ATOM     17  H   LIG d   1       6.391  -6.860  -8.489  0.00  0.00     0.104 H 
ENDROOT
BRANCH  14  18
ATOM     18  C   LIG d   1       6.058  -7.135  -5.642  0.00  0.00    -0.014 A 
ATOM     19  C   LIG d   1       5.015  -7.959  -5.262  0.00  0.00    -0.046 A 
ATOM     20  C   LIG d   1       5.258  -9.012  -4.368  0.00  0.00    -0.017 A 
ATOM     21  H   LIG d   1       4.021  -7.793  -5.650  0.00  0.00     0.063 H 
ATOM     22  C   LIG d   1       6.569  -9.215  -3.867  0.00  0.00    -0.018 A 
ATOM     23  C   LIG d   1       4.223  -9.872  -3.957  0.00  0.00    -0.054 A 
ATOM     24  C   LIG d   1       7.609  -8.359  -4.274  0.00  0.00    -0.053 A 
ATOM     25  C   LIG d   1       6.808 -10.272  -2.973  0.00  0.00    -0.054 A 
ATOM     26  C   LIG d   1       7.354  -7.345  -5.140  0.00  0.00    -0.053 A 
ATOM     27  H   LIG d   1       8.610  -8.508  -3.897  0.00  0.00     0.062 H 
ATOM     28  H   LIG d   1       8.157  -6.692  -5.448  0.00  0.00     0.062 H 
ATOM     29  C   LIG d   1       5.781 -11.083  -2.598  0.00  0.00    -0.061 A 
ATOM     30  H   LIG d   1       7.802 -10.439  -2.583  0.00  0.00     0.062 H 
ATOM     31  C   LIG d   1       4.494 -10.888  -3.093  0.00  0.00    -0.061 A 
ATOM     32  H   LIG d   1       5.969 -11.894  -1.909  0.00  0.00     0.062 H 
ATOM     33  H   LIG d   1       3.698 -11.548  -2.783  0.00  0.00     0.062 H 
ATOM     34  H   LIG d   1       3.220  -9.729  -4.330  0.00  0.00     0.062 H 
ENDBRANCH  14  18
BRANCH   1  35
ATOM     35  C   LIG d   1       4.079  -2.744  -2.564  0.00  0.00    -0.039 C 
ATOM     36  H   LIG d   1       3.065  -2.974  -2.240  0.00  0.00     0.028 H 
ATOM     37  H   LIG d   1       4.651  -3.667  -2.657  0.00  0.00     0.028 H 
ATOM     38  H   LIG d   1       4.556  -2.093  -1.832  0.00  0.00     0.028 H 
ENDBRANCH   1  35
BRANCH  11  39
ATOM     39  C   LIG d   1       3.159  -0.015  -2.770  0.00  0.00    -0.016 C 
ATOM     40  H   LIG d   1       2.727   0.943  -3.061  0.00  0.00     0.032 H 
ATOM     41  H   LIG d   1       2.412  -0.602  -2.236  0.00  0.00     0.032 H 
BRANCH  39  42
ATOM     42  C   LIG d   1       4.365   0.225  -1.860  0.00  0.00    -0.009 C 
ATOM     43  H   LIG d   1       4.075   0.879  -1.037  0.00  0.00     0.033 H 
ATOM     44  H   LIG d   1       4.716  -0.727  -1.462  0.00  0.00     0.033 H 
BRANCH  42  45
ATOM     45  C   LIG d   1       5.470   0.875  -2.651  0.00  0.00     0.042 C 
ATOM     46  O   LIG d   1       5.363   2.026  -3.006  0.00  0.00    -0.550 OA
ATOM     47  O   LIG d   1       6.573   0.178  -2.963  0.00  0.00    -0.550 OA
ENDBRANCH  42  45
ENDBRANCH  39  42
ENDBRANCH  11  39
TORSDOF 5
ENDMDL
MODEL 3
REMARK VINA RESULT:      -7.9      4.697      9.789
REMARK  5 active torsions:
REMARK  status: ('A' for Active; 'I' for Inactive)
REMARK    1  A    between atoms: C_1  and  C_2 
REMARK    2  A    between atoms: C_12  and  C_13 
REMARK    3  A    between atoms: C_13  and  C_14 
REMARK    4  A    between atoms: C_14  and  C_15 
REMARK    5  A    between atoms: C_19  and  C_20 
ROOT
ATOM      1  C   LIG d   1       5.543   0.434  -3.205  0.00  0.00    -0.030 A 
ATOM      2  C   LIG d   1       6.883   0.503  -3.796  0.00  0.00     0.022 A 
ATOM      3  C   LIG d   1       7.658   1.657  -3.676  0.00  0.00    -0.040 A 
ATOM      4  C   LIG d   1       8.921   1.690  -4.244  0.00  0.00     0.029 A 
ATOM      5  C   LIG d   1       9.423   0.571  -4.938  0.00  0.00     0.139 A 
ATOM      6  C   LIG d   1       8.647  -0.573  -5.054  0.00  0.00     0.024 A 
ATOM      7  C   LIG d   1       7.384  -0.617  -4.490  0.00  0.00     0.143 A 
ATOM      8  O   LIG d   1       6.625  -1.731  -4.600  0.00  0.00    -0.422 OA
ATOM      9  C   LIG d   1       5.398  -1.799  -4.061  0.00  0.00     0.341 A 
ATOM     10  O   LIG d   1       4.751  -2.823  -4.187  0.00  0.00    -0.245 OA
ATOM     11  C   LIG d   1       4.835  -0.715  -3.354  0.00  0.00     0.041 A 
ATOM     12  O   LIG d   1      10.659   0.890  -5.376  0.00  0.00    -0.462 OA
ATOM     13  C   LIG d   1      10.993   2.141  -5.020  0.00  0.00     0.101 A 
ATOM     14  C   LIG d   1       9.988   2.707  -4.315  0.00  0.00     0.028 A 
ATOM     15  H   LIG d   1       7.276   2.517  -3.144  0.00  0.00     0.063 H 
ATOM     16  H   LIG d   1       9.030  -1.432  -5.586  0.00  0.00     0.069 H 
ATOM     17  H   LIG d   1      11.929   2.623  -5.259  0.00  0.00     0.104 H 
ENDROOT
BRANCH  14  18
ATOM     18  C   LIG d   1       9.960   4.072  -3.738  0.00  0.00    -0.014 A 
ATOM     19  C   LIG d   1      10.346   4.269  -2.425  0.00  0.00    -0.046 A 
ATOM     20  C   LIG d   1      10.317   5.563  -1.884  0.00  0.00    -0.017 A 
ATOM     21  H   LIG d   1      10.666   3.433  -1.820  0.00  0.00     0.063 H 
ATOM     22  C   LIG d   1       9.893   6.649  -2.691  0.00  0.00    -0.018 A 
ATOM     23  C   LIG d   1      10.702   5.804  -0.552  0.00  0.00    -0.054 A 
ATOM     24  C   LIG d   1       9.507   6.415  -4.024  0.00  0.00    -0.053 A 
ATOM     25  C   LIG d   1       9.867   7.943  -2.145  0.00  0.00    -0.054 A 
ATOM     26  C   LIG d   1       9.542   5.155  -4.529  0.00  0.00    -0.053 A 
ATOM     27  H   LIG d   1       9.184   7.237  -4.645  0.00  0.00     0.062 H 
ATOM     28  H   LIG d   1       9.245   4.983  -5.554  0.00  0.00     0.062 H 
ATOM     29  C   LIG d   1      10.246   8.137  -0.852  0.00  0.00    -0.061 A 
ATOM     30  H   LIG d   1       9.546   8.779  -2.748  0.00  0.00     0.062 H 
ATOM     31  C   LIG d   1      10.667   7.072  -0.059  0.00  0.00    -0.061 A 
ATOM     32  H   LIG d   1      10.224   9.134  -0.436  0.00  0.00     0.062 H 
ATOM     33  H   LIG d   1      10.966   7.254   0.962  0.00  0.00     0.062 H 
ATOM     34  H   LIG d   1      11.026   4.987   0.075  0.00  0.00     0.062 H 
ENDBRANCH  14  18
BRANCH   1  35
ATOM     35  C   LIG d   1       4.966   1.606  -2.454  0.00  0.00    -0.039 C 
ATOM     36  H   LIG d   1       4.062   1.949  -2.956  0.00  0.00     0.028 H 
ATOM     37  H   LIG d   1       4.725   1.302  -1.437  0.00  0.00     0.028 H 
ATOM     38  H   LIG d   1       5.696   2.415  -2.428  0.00  0.00     0.028 H 
ENDBRANCH   1  35
BRANCH  11  39
ATOM     39  C   LIG d   1       3.453  -0.833  -2.765  0.00  0.00    -0.016 C 
ATOM     40  H   LIG d   1       3.377  -1.761  -2.200  0.00  0.00     0.032 H 
ATOM     41  H   LIG d   1       3.268   0.012  -2.102  0.00  0.00     0.032 H 
BRANCH  39  42
ATOM     42  C   LIG d   1       2.418  -0.835  -3.891  0.00  0.00    -0.009 C 
ATOM     43  H   LIG d   1       2.462  -1.786  -4.423  0.00  0.00     0.033 H 
ATOM     44  H   LIG d   1       1.422  -0.701  -3.470  0.00  0.00     0.033 H 
BRANCH  42  45
ATOM     45  C   LIG d   1       2.713   0.290  -4.848  0.00  0.00     0.042 C 
ATOM     46  O   LIG d   1       2.419   1.425  -4.557  0.00  0.00    -0.550 OA
ATOM     47  O   LIG d   1       3.306   0.033  -6.024  0.00  0.00    -0.550 OA
ENDBRANCH  42  45
ENDBRANCH  39  42
ENDBRANCH  11  39
TORSDOF 5
ENDMDL
MODEL 4
REMARK VINA RESULT:      -7.6      2.484      3.852
REMARK  5 active torsions:
REMARK  status: ('A' for Active; 'I' for Inactive)
REMARK    1  A    between atoms: C_1  and  C_2 
REMARK    2  A    between atoms: C_12  and  C_13 
REMARK    3  A    between atoms: C_13  and  C_14 
REMARK    4  A    between atoms: C_14  and  C_15 
REMARK    5  A    between atoms: C_19  and  C_20 
ROOT
ATOM      1  C   LIG d   1       4.690  -2.964  -5.245  0.00  0.00    -0.030 A 
ATOM      2  C   LIG d   1       4.544  -4.152  -6.092  0.00  0.00     0.022 A 
ATOM      3  C   LIG d   1       4.789  -5.427  -5.583  0.00  0.00    -0.040 A 
ATOM      4  C   LIG d   1       4.641  -6.529  -6.409  0.00  0.00     0.029 A 
ATOM      5  C   LIG d   1       4.246  -6.369  -7.752  0.00  0.00     0.139 A 
ATOM      6  C   LIG d   1       4.004  -5.098  -8.253  0.00  0.00     0.024 A 
ATOM      7  C   LIG d   1       4.149  -3.990  -7.436  0.00  0.00     0.143 A 
ATOM      8  O   LIG d   1       3.913  -2.749  -7.919  0.00  0.00    -0.422 OA
ATOM      9  C   LIG d   1       4.045  -1.659  -7.148  0.00  0.00     0.341 A 
ATOM     10  O   LIG d   1       3.822  -0.562  -7.628  0.00  0.00    -0.245 OA
ATOM     11  C   LIG d   1       4.438  -1.749  -5.796  0.00  0.00     0.041 A 
ATOM     12  O   LIG d   1       4.186  -7.599  -8.304  0.00  0.00    -0.462 OA
ATOM     13  C   LIG d   1       4.520  -8.548  -7.414  0.00  0.00     0.101 A 
ATOM     14  C   LIG d   1       4.809  -7.984  -6.221  0.00  0.00     0.028 A 
ATOM     15  H   LIG d   1       5.092  -5.554  -4.554  0.00  0.00     0.063 H 
ATOM     16  H   LIG d   1       3.701  -4.972  -9.282  0.00  0.00     0.069 H 
ATOM     17  H   LIG d   1       4.551  -9.607  -7.623  0.00  0.00     0.104 H 
ENDROOT
BRANCH  14  18
ATOM     18  C   LIG d   1       5.217  -8.681  -4.978  0.00  0.00    -0.014 A 
ATOM     19  C   LIG d   1       6.511  -8.544  -4.509  0.00  0.00    -0.046 A 
ATOM     20  C   LIG d   1       6.891  -9.208  -3.332  0.00  0.00    -0.017 A 
ATOM     21  H   LIG d   1       7.222  -7.932  -5.044  0.00  0.00     0.063 H 
ATOM     22  C   LIG d   1       5.945 -10.007  -2.643  0.00  0.00    -0.018 A 
ATOM     23  C   LIG d   1       8.198  -9.093  -2.823  0.00  0.00    -0.054 A 
ATOM     24  C   LIG d   1       4.636 -10.126  -3.148  0.00  0.00    -0.053 A 
ATOM     25  C   LIG d   1       6.330 -10.669  -1.465  0.00  0.00    -0.054 A 
ATOM     26  C   LIG d   1       4.287  -9.476  -4.288  0.00  0.00    -0.053 A 
ATOM     27  H   LIG d   1       3.910 -10.732  -2.628  0.00  0.00     0.062 H 
ATOM     28  H   LIG d   1       3.281  -9.571  -4.669  0.00  0.00     0.062 H 
ATOM     29  C   LIG d   1       7.604 -10.535  -1.003  0.00  0.00    -0.061 A 
ATOM     30  H   LIG d   1       5.620 -11.281  -0.930  0.00  0.00     0.062 H 
ATOM     31  C   LIG d   1       8.533  -9.745  -1.676  0.00  0.00    -0.061 A 
ATOM     32  H   LIG d   1       7.896 -11.045  -0.097  0.00  0.00     0.062 H 
ATOM     33  H   LIG d   1       9.535  -9.653  -1.285  0.00  0.00     0.062 H 
ATOM     34  H   LIG d   1       8.930  -8.488  -3.337  0.00  0.00     0.062 H 
ENDBRANCH  14  18
BRANCH   1  35
ATOM     35  C   LIG d   1       5.110  -3.089  -3.803  0.00  0.00    -0.039 C 
ATOM     36  H   LIG d   1       6.193  -3.200  -3.749  0.00  0.00     0.028 H 
ATOM     37  H   LIG d   1       4.808  -2.195  -3.259  0.00  0.00     0.028 H 
ATOM     38  H   LIG d   1       4.633  -3.963  -3.360  0.00  0.00     0.028 H 
ENDBRANCH   1  35
BRANCH  11  39
ATOM     39  C   LIG d   1       4.576  -0.500  -4.964  0.00  0.00    -0.016 C 
ATOM     40  H   LIG d   1       5.289  -0.676  -4.159  0.00  0.00     0.032 H 
ATOM     41  H   LIG d   1       4.931   0.317  -5.591  0.00  0.00     0.032 H 
BRANCH  39  42
ATOM     42  C   LIG d   1       3.215  -0.133  -4.368  0.00  0.00    -0.009 C 
ATOM     43  H   LIG d   1       2.587   0.308  -5.142  0.00  0.00     0.033 H 
ATOM     44  H   LIG d   1       2.735  -1.029  -3.976  0.00  0.00     0.033 H 
BRANCH  42  45
ATOM     45  C   LIG d   1       3.408   0.861  -3.252  0.00  0.00     0.042 C 
ATOM     46  O   LIG d   1       3.383   0.491  -2.102  0.00  0.00    -0.550 OA
ATOM     47  O   LIG d   1       3.607   2.158  -3.535  0.00  0.00    -0.550 OA
ENDBRANCH  42  45
ENDBRANCH  39  42
ENDBRANCH  11  39
TORSDOF 5
ENDMDL
MODEL 5
REMARK VINA RESULT:      -7.3      5.743      9.208
REMARK  5 active torsions:
REMARK  status: ('A' for Active; 'I' for Inactive)
REMARK    1  A    between atoms: C_1  and  C_2 
REMARK    2  A    between atoms: C_12  and  C_13 
REMARK    3  A    between atoms: C_13  and  C_14 
REMARK    4  A    between atoms: C_14  and  C_15 
REMARK    5  A    between atoms: C_19  and  C_20 
ROOT
ATOM      1  C   LIG d   1       2.678  -4.120 -10.348  0.00  0.00    -0.030 A 
ATOM      2  C   LIG d   1       2.727  -2.657 -10.269  0.00  0.00     0.022 A 
ATOM      3  C   LIG d   1       2.882  -2.013  -9.041  0.00  0.00    -0.040 A 
ATOM      4  C   LIG d   1       2.927  -0.629  -9.001  0.00  0.00     0.029 A 
ATOM      5  C   LIG d   1       2.816   0.126 -10.186  0.00  0.00     0.139 A 
ATOM      6  C   LIG d   1       2.661  -0.521 -11.404  0.00  0.00     0.024 A 
ATOM      7  C   LIG d   1       2.616  -1.903 -11.456  0.00  0.00     0.143 A 
ATOM      8  O   LIG d   1       2.466  -2.538 -12.640  0.00  0.00    -0.422 OA
ATOM      9  C   LIG d   1       2.421  -3.876 -12.718  0.00  0.00     0.341 A 
ATOM     10  O   LIG d   1       2.285  -4.403 -13.807  0.00  0.00    -0.245 OA
ATOM     11  C   LIG d   1       2.525  -4.691 -11.571  0.00  0.00     0.041 A 
ATOM     12  O   LIG d   1       2.891   1.428  -9.842  0.00  0.00    -0.462 OA
ATOM     13  C   LIG d   1       3.037   1.573  -8.514  0.00  0.00     0.101 A 
ATOM     14  C   LIG d   1       3.076   0.362  -7.917  0.00  0.00     0.028 A 
ATOM     15  H   LIG d   1       2.968  -2.588  -8.131  0.00  0.00     0.063 H 
ATOM     16  H   LIG d   1       2.576   0.056 -12.313  0.00  0.00     0.069 H 
ATOM     17  H   LIG d   1       3.116   2.520  -8.001  0.00  0.00     0.104 H 
ENDROOT
BRANCH  14  18
ATOM     18  C   LIG d   1       3.229   0.084  -6.469  0.00  0.00    -0.014 A 
ATOM     19  C   LIG d   1       4.287  -0.689  -6.028  0.00  0.00    -0.046 A 
ATOM     20  C   LIG d   1       4.427  -0.949  -4.656  0.00  0.00    -0.017 A 
ATOM     21  H   LIG d   1       4.999  -1.092  -6.734  0.00  0.00     0.063 H 
ATOM     22  C   LIG d   1       3.483  -0.414  -3.744  0.00  0.00    -0.018 A 
ATOM     23  C   LIG d   1       5.489  -1.732  -4.168  0.00  0.00    -0.054 A 
ATOM     24  C   LIG d   1       2.418   0.370  -4.225  0.00  0.00    -0.053 A 
ATOM     25  C   LIG d   1       3.627  -0.676  -2.371  0.00  0.00    -0.054 A 
ATOM     26  C   LIG d   1       2.300   0.610  -5.556  0.00  0.00    -0.053 A 
ATOM     27  H   LIG d   1       1.696   0.781  -3.536  0.00  0.00     0.062 H 
ATOM     28  H   LIG d   1       1.480   1.213  -5.918  0.00  0.00     0.062 H 
ATOM     29  C   LIG d   1       4.668  -1.438  -1.936  0.00  0.00    -0.061 A 
ATOM     30  H   LIG d   1       2.916  -0.275  -1.664  0.00  0.00     0.062 H 
ATOM     31  C   LIG d   1       5.600  -1.960  -2.831  0.00  0.00    -0.061 A 
ATOM     32  H   LIG d   1       4.776  -1.638  -0.880  0.00  0.00     0.062 H 
ATOM     33  H   LIG d   1       6.418  -2.559  -2.459  0.00  0.00     0.062 H 
ATOM     34  H   LIG d   1       6.216  -2.147  -4.851  0.00  0.00     0.062 H 
ENDBRANCH  14  18
BRANCH   1  35
ATOM     35  C   LIG d   1       2.793  -4.967  -9.107  0.00  0.00    -0.039 C 
ATOM     36  H   LIG d   1       3.799  -4.877  -8.699  0.00  0.00     0.028 H 
ATOM     37  H   LIG d   1       2.068  -4.627  -8.368  0.00  0.00     0.028 H 
ATOM     38  H   LIG d   1       2.595  -6.008  -9.359  0.00  0.00     0.028 H 
ENDBRANCH   1  35
BRANCH  11  39
ATOM     39  C   LIG d   1       2.469  -6.191 -11.701  0.00  0.00    -0.016 C 
ATOM     40  H   LIG d   1       2.974  -6.496 -12.618  0.00  0.00     0.032 H 
ATOM     41  H   LIG d   1       2.963  -6.650 -10.845  0.00  0.00     0.032 H 
BRANCH  39  42
ATOM     42  C   LIG d   1       1.008  -6.644 -11.750  0.00  0.00    -0.009 C 
ATOM     43  H   LIG d   1       0.356  -5.771 -11.712  0.00  0.00     0.033 H 
ATOM     44  H   LIG d   1       0.828  -7.192 -12.675  0.00  0.00     0.033 H 
BRANCH  42  45
ATOM     45  C   LIG d   1       0.719  -7.538 -10.572  0.00  0.00     0.042 C 
ATOM     46  O   LIG d   1       1.126  -8.676 -10.562  0.00  0.00    -0.550 OA
ATOM     47  O   LIG d   1       0.012  -7.070  -9.533  0.00  0.00    -0.550 OA
ENDBRANCH  42  45
ENDBRANCH  39  42
ENDBRANCH  11  39
TORSDOF 5
ENDMDL
MODEL 6
REMARK VINA RESULT:      -7.3      3.814      9.222
REMARK  5 active torsions:
REMARK  status: ('A' for Active; 'I' for Inactive)
REMARK    1  A    between atoms: C_1  and  C_2 
REMARK    2  A    between atoms: C_12  and  C_13 
REMARK    3  A    between atoms: C_13  and  C_14 
REMARK    4  A    between atoms: C_14  and  C_15 
REMARK    5  A    between atoms: C_19  and  C_20 
ROOT
ATOM      1  C   LIG d   1       7.174  -9.731  -4.074  0.00  0.00    -0.030 A 
ATOM      2  C   LIG d   1       6.298  -9.066  -5.044  0.00  0.00     0.022 A 
ATOM      3  C   LIG d   1       6.111  -7.684  -5.007  0.00  0.00    -0.040 A 
ATOM      4  C   LIG d   1       5.277  -7.087  -5.938  0.00  0.00     0.029 A 
ATOM      5  C   LIG d   1       4.623  -7.863  -6.915  0.00  0.00     0.139 A 
ATOM      6  C   LIG d   1       4.813  -9.236  -6.946  0.00  0.00     0.024 A 
ATOM      7  C   LIG d   1       5.644  -9.844  -6.021  0.00  0.00     0.143 A 
ATOM      8  O   LIG d   1       5.833 -11.183  -6.048  0.00  0.00    -0.422 OA
ATOM      9  C   LIG d   1       6.634 -11.796  -5.163  0.00  0.00     0.341 A 
ATOM     10  O   LIG d   1       6.774 -13.004  -5.227  0.00  0.00    -0.245 OA
ATOM     11  C   LIG d   1       7.318 -11.079  -4.159  0.00  0.00     0.041 A 
ATOM     12  O   LIG d   1       3.889  -7.021  -7.672  0.00  0.00    -0.462 OA
ATOM     13  C   LIG d   1       4.016  -5.752  -7.252  0.00  0.00     0.101 A 
ATOM     14  C   LIG d   1       4.856  -5.695  -6.194  0.00  0.00     0.028 A 
ATOM     15  H   LIG d   1       6.611  -7.086  -4.259  0.00  0.00     0.063 H 
ATOM     16  H   LIG d   1       4.313  -9.833  -7.695  0.00  0.00     0.069 H 
ATOM     17  H   LIG d   1       3.522  -4.900  -7.696  0.00  0.00     0.104 H 
ENDROOT
BRANCH  14  18
ATOM     18  C   LIG d   1       5.264  -4.486  -5.441  0.00  0.00    -0.014 A 
ATOM     19  C   LIG d   1       4.390  -3.915  -4.534  0.00  0.00    -0.046 A 
ATOM     20  C   LIG d   1       4.782  -2.770  -3.825  0.00  0.00    -0.017 A 
ATOM     21  H   LIG d   1       3.413  -4.347  -4.374  0.00  0.00     0.063 H 
ATOM     22  C   LIG d   1       6.068  -2.216  -4.048  0.00  0.00    -0.018 A 
ATOM     23  C   LIG d   1       3.921  -2.160  -2.894  0.00  0.00    -0.054 A 
ATOM     24  C   LIG d   1       6.934  -2.821  -4.977  0.00  0.00    -0.053 A 
ATOM     25  C   LIG d   1       6.457  -1.070  -3.334  0.00  0.00    -0.054 A 
ATOM     26  C   LIG d   1       6.536  -3.929  -5.654  0.00  0.00    -0.053 A 
ATOM     27  H   LIG d   1       7.915  -2.405  -5.151  0.00  0.00     0.062 H 
ATOM     28  H   LIG d   1       7.207  -4.388  -6.366  0.00  0.00     0.062 H 
ATOM     29  C   LIG d   1       5.597  -0.507  -2.442  0.00  0.00    -0.061 A 
ATOM     30  H   LIG d   1       7.433  -0.637  -3.494  0.00  0.00     0.062 H 
ATOM     31  C   LIG d   1       4.335  -1.053  -2.218  0.00  0.00    -0.061 A 
ATOM     32  H   LIG d   1       5.899   0.374  -1.896  0.00  0.00     0.062 H 
ATOM     33  H   LIG d   1       3.673  -0.589  -1.502  0.00  0.00     0.062 H 
ATOM     34  H   LIG d   1       2.939  -2.570  -2.714  0.00  0.00     0.062 H 
ENDBRANCH  14  18
BRANCH   1  35
ATOM     35  C   LIG d   1       7.895  -8.941  -3.012  0.00  0.00    -0.039 C 
ATOM     36  H   LIG d   1       7.516  -9.225  -2.030  0.00  0.00     0.028 H 
ATOM     37  H   LIG d   1       8.962  -9.151  -3.065  0.00  0.00     0.028 H 
ATOM     38  H   LIG d   1       7.724  -7.877  -3.173  0.00  0.00     0.028 H 
ENDBRANCH   1  35
BRANCH  11  39
ATOM     39  C   LIG d   1       8.208 -11.806  -3.184  0.00  0.00    -0.016 C 
ATOM     40  H   LIG d   1       8.793 -12.556  -3.715  0.00  0.00     0.032 H 
ATOM     41  H   LIG d   1       8.880 -11.094  -2.705  0.00  0.00     0.032 H 
BRANCH  39  42
ATOM     42  C   LIG d   1       7.347 -12.490  -2.120  0.00  0.00    -0.009 C 
ATOM     43  H   LIG d   1       6.331 -12.608  -2.497  0.00  0.00     0.033 H 
ATOM     44  H   LIG d   1       7.765 -13.469  -1.889  0.00  0.00     0.033 H 
BRANCH  42  45
ATOM     45  C   LIG d   1       7.325 -11.646  -0.873  0.00  0.00     0.042 C 
ATOM     46  O   LIG d   1       8.320 -11.543  -0.194  0.00  0.00    -0.550 OA
ATOM     47  O   LIG d   1       6.200 -11.007  -0.515  0.00  0.00    -0.550 OA
ENDBRANCH  42  45
ENDBRANCH  39  42
ENDBRANCH  11  39
TORSDOF 5
ENDMDL
MODEL 7
REMARK VINA RESULT:      -7.3      6.913      9.391
REMARK  5 active torsions:
REMARK  status: ('A' for Active; 'I' for Inactive)
REMARK    1  A    between atoms: C_1  and  C_2 
REMARK    2  A    between atoms: C_12  and  C_13 
REMARK    3  A    between atoms: C_13  and  C_14 
REMARK    4  A    between atoms: C_14  and  C_15 
REMARK    5  A    between atoms: C_19  and  C_20 
ROOT
ATOM      1  C   LIG d   1       1.636  -2.561 -11.532  0.00  0.00    -0.030 A 
ATOM      2  C   LIG d   1       2.610  -1.510 -11.220  0.00  0.00     0.022 A 
ATOM      3  C   LIG d   1       2.883  -1.160  -9.898  0.00  0.00    -0.040 A 
ATOM      4  C   LIG d   1       3.810  -0.164  -9.637  0.00  0.00     0.029 A 
ATOM      5  C   LIG d   1       4.473   0.492 -10.694  0.00  0.00     0.139 A 
ATOM      6  C   LIG d   1       4.196   0.139 -12.007  0.00  0.00     0.024 A 
ATOM      7  C   LIG d   1       3.272  -0.855 -12.279  0.00  0.00     0.143 A 
ATOM      8  O   LIG d   1       2.999  -1.204 -13.556  0.00  0.00    -0.422 OA
ATOM      9  C   LIG d   1       2.109  -2.165 -13.847  0.00  0.00     0.341 A 
ATOM     10  O   LIG d   1       1.896  -2.444 -15.013  0.00  0.00    -0.245 OA
ATOM     11  C   LIG d   1       1.410  -2.860 -12.837  0.00  0.00     0.041 A 
ATOM     12  O   LIG d   1       5.305   1.401 -10.145  0.00  0.00    -0.462 OA
ATOM     13  C   LIG d   1       5.226   1.386  -8.804  0.00  0.00     0.101 A 
ATOM     14  C   LIG d   1       4.336   0.451  -8.402  0.00  0.00     0.028 A 
ATOM     15  H   LIG d   1       2.378  -1.660  -9.085  0.00  0.00     0.063 H 
ATOM     16  H   LIG d   1       4.702   0.640 -12.818  0.00  0.00     0.069 H 
ATOM     17  H   LIG d   1       5.792   2.026  -8.144  0.00  0.00     0.104 H 
ENDROOT
BRANCH  14  18
ATOM     18  C   LIG d   1       3.961   0.115  -7.008  0.00  0.00    -0.014 A 
ATOM     19  C   LIG d   1       4.798  -0.678  -6.245  0.00  0.00    -0.046 A 
ATOM     20  C   LIG d   1       4.437  -0.993  -4.926  0.00  0.00    -0.017 A 
ATOM     21  H   LIG d   1       5.722  -1.053  -6.661  0.00  0.00     0.063 H 
ATOM     22  C   LIG d   1       3.221  -0.492  -4.397  0.00  0.00    -0.018 A 
ATOM     23  C   LIG d   1       5.262  -1.797  -4.118  0.00  0.00    -0.054 A 
ATOM     24  C   LIG d   1       2.392   0.313  -5.200  0.00  0.00    -0.053 A 
ATOM     25  C   LIG d   1       2.864  -0.809  -3.075  0.00  0.00    -0.054 A 
ATOM     26  C   LIG d   1       2.758   0.606  -6.473  0.00  0.00    -0.053 A 
ATOM     27  H   LIG d   1       1.464   0.697  -4.802  0.00  0.00     0.062 H 
ATOM     28  H   LIG d   1       2.117   1.225  -7.084  0.00  0.00     0.062 H 
ATOM     29  C   LIG d   1       3.687  -1.591  -2.323  0.00  0.00    -0.061 A 
ATOM     30  H   LIG d   1       1.941  -0.435  -2.658  0.00  0.00     0.062 H 
ATOM     31  C   LIG d   1       4.885  -2.078  -2.841  0.00  0.00    -0.061 A 
ATOM     32  H   LIG d   1       3.409  -1.832  -1.308  0.00  0.00     0.062 H 
ATOM     33  H   LIG d   1       5.521  -2.693  -2.222  0.00  0.00     0.062 H 
ATOM     34  H   LIG d   1       6.191  -2.185  -4.509  0.00  0.00     0.062 H 
ENDBRANCH  14  18
BRANCH   1  35
ATOM     35  C   LIG d   1       0.904  -3.289 -10.433  0.00  0.00    -0.039 C 
ATOM     36  H   LIG d   1       1.402  -3.104  -9.482  0.00  0.00     0.028 H 
ATOM     37  H   LIG d   1      -0.123  -2.930 -10.382  0.00  0.00     0.028 H 
ATOM     38  H   LIG d   1       0.906  -4.359 -10.643  0.00  0.00     0.028 H 
ENDBRANCH   1  35
BRANCH  11  39
ATOM     39  C   LIG d   1       0.417  -3.932 -13.205  0.00  0.00    -0.016 C 
ATOM     40  H   LIG d   1       0.751  -4.441 -14.110  0.00  0.00     0.032 H 
ATOM     41  H   LIG d   1       0.341  -4.652 -12.391  0.00  0.00     0.032 H 
BRANCH  39  42
ATOM     42  C   LIG d   1      -0.952  -3.296 -13.454  0.00  0.00    -0.009 C 
ATOM     43  H   LIG d   1      -1.017  -2.352 -12.911  0.00  0.00     0.033 H 
ATOM     44  H   LIG d   1      -1.078  -3.111 -14.521  0.00  0.00     0.033 H 
BRANCH  42  45
ATOM     45  C   LIG d   1      -2.034  -4.227 -12.974  0.00  0.00     0.042 C 
ATOM     46  O   LIG d   1      -2.754  -4.779 -13.772  0.00  0.00    -0.550 OA
ATOM     47  O   LIG d   1      -2.197  -4.446 -11.660  0.00  0.00    -0.550 OA
ENDBRANCH  42  45
ENDBRANCH  39  42
ENDBRANCH  11  39
TORSDOF 5
ENDMDL
MODEL 8
REMARK VINA RESULT:      -7.2      5.658      8.861
REMARK  5 active torsions:
REMARK  status: ('A' for Active; 'I' for Inactive)
REMARK    1  A    between atoms: C_1  and  C_2 
REMARK    2  A    between atoms: C_12  and  C_13 
REMARK    3  A    between atoms: C_13  and  C_14 
REMARK    4  A    between atoms: C_14  and  C_15 
REMARK    5  A    between atoms: C_19  and  C_20 
ROOT
ATOM      1  C   LIG d   1      10.521   5.505  -3.450  0.00  0.00    -0.030 A 
ATOM      2  C   LIG d   1      10.263   4.724  -4.664  0.00  0.00     0.022 A 
ATOM      3  C   LIG d   1       9.458   3.585  -4.624  0.00  0.00    -0.040 A 
ATOM      4  C   LIG d   1       9.234   2.871  -5.789  0.00  0.00     0.029 A 
ATOM      5  C   LIG d   1       9.811   3.286  -7.006  0.00  0.00     0.139 A 
ATOM      6  C   LIG d   1      10.611   4.418  -7.039  0.00  0.00     0.024 A 
ATOM      7  C   LIG d   1      10.842   5.141  -5.881  0.00  0.00     0.143 A 
ATOM      8  O   LIG d   1      11.620   6.246  -5.908  0.00  0.00    -0.422 OA
ATOM      9  C   LIG d   1      11.858   6.964  -4.800  0.00  0.00     0.341 A 
ATOM     10  O   LIG d   1      12.566   7.952  -4.874  0.00  0.00    -0.245 OA
ATOM     11  C   LIG d   1      11.312   6.603  -3.550  0.00  0.00     0.041 A 
ATOM     12  O   LIG d   1       9.423   2.409  -7.955  0.00  0.00    -0.462 OA
ATOM     13  C   LIG d   1       8.637   1.449  -7.439  0.00  0.00     0.101 A 
ATOM     14  C   LIG d   1       8.462   1.655  -6.115  0.00  0.00     0.028 A 
ATOM     15  H   LIG d   1       9.014   3.264  -3.693  0.00  0.00     0.063 H 
ATOM     16  H   LIG d   1      11.054   4.738  -7.970  0.00  0.00     0.069 H 
ATOM     17  H   LIG d   1       8.208   0.633  -8.001  0.00  0.00     0.104 H 
ENDROOT
BRANCH  14  18
ATOM     18  C   LIG d   1       7.663   0.828  -5.180  0.00  0.00    -0.014 A 
ATOM     19  C   LIG d   1       6.782   1.439  -4.306  0.00  0.00    -0.046 A 
ATOM     20  C   LIG d   1       6.029   0.650  -3.423  0.00  0.00    -0.017 A 
ATOM     21  H   LIG d   1       6.676   2.513  -4.302  0.00  0.00     0.063 H 
ATOM     22  C   LIG d   1       6.182  -0.760  -3.441  0.00  0.00    -0.018 A 
ATOM     23  C   LIG d   1       5.123   1.233  -2.518  0.00  0.00    -0.054 A 
ATOM     24  C   LIG d   1       7.086  -1.349  -4.343  0.00  0.00    -0.053 A 
ATOM     25  C   LIG d   1       5.425  -1.545  -2.556  0.00  0.00    -0.054 A 
ATOM     26  C   LIG d   1       7.806  -0.570  -5.190  0.00  0.00    -0.053 A 
ATOM     27  H   LIG d   1       7.207  -2.422  -4.363  0.00  0.00     0.062 H 
ATOM     28  H   LIG d   1       8.498  -1.030  -5.880  0.00  0.00     0.062 H 
ATOM     29  C   LIG d   1       4.558  -0.945  -1.694  0.00  0.00    -0.061 A 
ATOM     30  H   LIG d   1       5.531  -2.620  -2.558  0.00  0.00     0.062 H 
ATOM     31  C   LIG d   1       4.403   0.439  -1.679  0.00  0.00    -0.061 A 
ATOM     32  H   LIG d   1       3.978  -1.552  -1.015  0.00  0.00     0.062 H 
ATOM     33  H   LIG d   1       3.706   0.890  -0.988  0.00  0.00     0.062 H 
ATOM     34  H   LIG d   1       4.997   2.305  -2.493  0.00  0.00     0.062 H 
ENDBRANCH  14  18
BRANCH   1  35
ATOM     35  C   LIG d   1       9.924   5.098  -2.127  0.00  0.00    -0.039 C 
ATOM     36  H   LIG d   1      10.555   4.341  -1.662  0.00  0.00     0.028 H 
ATOM     37  H   LIG d   1       9.859   5.969  -1.475  0.00  0.00     0.028 H 
ATOM     38  H   LIG d   1       8.926   4.690  -2.289  0.00  0.00     0.028 H 
ENDBRANCH   1  35
BRANCH  11  39
ATOM     39  C   LIG d   1      11.605   7.437  -2.329  0.00  0.00    -0.016 C 
ATOM     40  H   LIG d   1      11.577   6.804  -1.441  0.00  0.00     0.032 H 
ATOM     41  H   LIG d   1      12.593   7.885  -2.423  0.00  0.00     0.032 H 
BRANCH  39  42
ATOM     42  C   LIG d   1      10.553   8.540  -2.201  0.00  0.00    -0.009 C 
ATOM     43  H   LIG d   1      11.037   9.514  -2.288  0.00  0.00     0.033 H 
ATOM     44  H   LIG d   1       9.812   8.430  -2.992  0.00  0.00     0.033 H 
BRANCH  42  45
ATOM     45  C   LIG d   1       9.875   8.435  -0.860  0.00  0.00     0.042 C 
ATOM     46  O   LIG d   1       8.697   8.170  -0.797  0.00  0.00    -0.550 OA
ATOM     47  O   LIG d   1      10.578   8.634   0.266  0.00  0.00    -0.550 OA
ENDBRANCH  42  45
ENDBRANCH  39  42
ENDBRANCH  11  39
TORSDOF 5
ENDMDL
MODEL 9
REMARK VINA RESULT:      -7.2      5.063     10.223
REMARK  5 active torsions:
REMARK  status: ('A' for Active; 'I' for Inactive)
REMARK    1  A    between atoms: C_1  and  C_2 
REMARK    2  A    between atoms: C_12  and  C_13 
REMARK    3  A    between atoms: C_13  and  C_14 
REMARK    4  A    between atoms: C_14  and  C_15 
REMARK    5  A    between atoms: C_19  and  C_20 
ROOT
ATOM      1  C   LIG d   1       6.949   0.341  -4.616  0.00  0.00    -0.030 A 
ATOM      2  C   LIG d   1       7.793   1.229  -5.421  0.00  0.00     0.022 A 
ATOM      3  C   LIG d   1       8.359   2.375  -4.862  0.00  0.00    -0.040 A 
ATOM      4  C   LIG d   1       9.154   3.193  -5.649  0.00  0.00     0.029 A 
ATOM      5  C   LIG d   1       9.391   2.875  -7.001  0.00  0.00     0.139 A 
ATOM      6  C   LIG d   1       8.824   1.734  -7.551  0.00  0.00     0.024 A 
ATOM      7  C   LIG d   1       8.029   0.909  -6.774  0.00  0.00     0.143 A 
ATOM      8  O   LIG d   1       7.475  -0.204  -7.305  0.00  0.00    -0.422 OA
ATOM      9  C   LIG d   1       6.702  -1.021  -6.572  0.00  0.00     0.341 A 
ATOM     10  O   LIG d   1       6.225  -2.012  -7.095  0.00  0.00    -0.245 OA
ATOM     11  C   LIG d   1       6.425  -0.760  -5.214  0.00  0.00     0.041 A 
ATOM     12  O   LIG d   1      10.187   3.839  -7.508  0.00  0.00    -0.462 OA
ATOM     13  C   LIG d   1      10.481   4.765  -6.581  0.00  0.00     0.101 A 
ATOM     14  C   LIG d   1       9.894   4.447  -5.406  0.00  0.00     0.028 A 
ATOM     15  H   LIG d   1       8.180   2.622  -3.826  0.00  0.00     0.063 H 
ATOM     16  H   LIG d   1       9.004   1.488  -8.587  0.00  0.00     0.069 H 
ATOM     17  H   LIG d   1      11.098   5.635  -6.749  0.00  0.00     0.104 H 
ENDROOT
BRANCH  14  18
ATOM     18  C   LIG d   1       9.972   5.205  -4.134  0.00  0.00    -0.014 A 
ATOM     19  C   LIG d   1      10.716   4.704  -3.082  0.00  0.00    -0.046 A 
ATOM     20  C   LIG d   1      10.785   5.425  -1.881  0.00  0.00    -0.017 A 
ATOM     21  H   LIG d   1      11.238   3.764  -3.183  0.00  0.00     0.063 H 
ATOM     22  C   LIG d   1      10.092   6.657  -1.765  0.00  0.00    -0.018 A 
ATOM     23  C   LIG d   1      11.531   4.949  -0.787  0.00  0.00    -0.054 A 
ATOM     24  C   LIG d   1       9.344   7.140  -2.854  0.00  0.00    -0.053 A 
ATOM     25  C   LIG d   1      10.165   7.377  -0.560  0.00  0.00    -0.054 A 
ATOM     26  C   LIG d   1       9.290   6.427  -4.008  0.00  0.00    -0.053 A 
ATOM     27  H   LIG d   1       8.815   8.077  -2.773  0.00  0.00     0.062 H 
ATOM     28  H   LIG d   1       8.714   6.804  -4.841  0.00  0.00     0.062 H 
ATOM     29  C   LIG d   1      10.897   6.884   0.477  0.00  0.00    -0.061 A 
ATOM     30  H   LIG d   1       9.643   8.316  -0.457  0.00  0.00     0.062 H 
ATOM     31  C   LIG d   1      11.582   5.676   0.362  0.00  0.00    -0.061 A 
ATOM     32  H   LIG d   1      10.950   7.440   1.401  0.00  0.00     0.062 H 
ATOM     33  H   LIG d   1      12.158   5.309   1.198  0.00  0.00     0.062 H 
ATOM     34  H   LIG d   1      12.063   4.012  -0.861  0.00  0.00     0.062 H 
ENDBRANCH  14  18
BRANCH   1  35
ATOM     35  C   LIG d   1       6.669   0.642  -3.166  0.00  0.00    -0.039 C 
ATOM     36  H   LIG d   1       6.263  -0.247  -2.684  0.00  0.00     0.028 H 
ATOM     37  H   LIG d   1       7.595   0.934  -2.672  0.00  0.00     0.028 H 
ATOM     38  H   LIG d   1       5.947   1.455  -3.097  0.00  0.00     0.028 H 
ENDBRANCH   1  35
BRANCH  11  39
ATOM     39  C   LIG d   1       5.550  -1.702  -4.427  0.00  0.00    -0.016 C 
ATOM     40  H   LIG d   1       5.672  -2.716  -4.809  0.00  0.00     0.032 H 
ATOM     41  H   LIG d   1       5.838  -1.673  -3.376  0.00  0.00     0.032 H 
BRANCH  39  42
ATOM     42  C   LIG d   1       4.087  -1.277  -4.567  0.00  0.00    -0.009 C 
ATOM     43  H   LIG d   1       4.041  -0.230  -4.868  0.00  0.00     0.033 H 
ATOM     44  H   LIG d   1       3.600  -1.894  -5.321  0.00  0.00     0.033 H 
BRANCH  42  45
ATOM     45  C   LIG d   1       3.385  -1.451  -3.246  0.00  0.00     0.042 C 
ATOM     46  O   LIG d   1       2.588  -0.623  -2.871  0.00  0.00    -0.550 OA
ATOM     47  O   LIG d   1       3.643  -2.525  -2.485  0.00  0.00    -0.550 OA
ENDBRANCH  42  45
ENDBRANCH  39  42
ENDBRANCH  11  39
TORSDOF 5
ENDMDL
MODEL 10
REMARK VINA RESULT:      -7.1      3.238      8.230
REMARK  5 active torsions:
REMARK  status: ('A' for Active; 'I' for Inactive)
REMARK    1  A    between atoms: C_1  and  C_2 
REMARK    2  A    between atoms: C_12  and  C_13 
REMARK    3  A    between atoms: C_13  and  C_14 
REMARK    4  A    between atoms: C_14  and  C_15 
REMARK    5  A    between atoms: C_19  and  C_20 
ROOT
ATOM      1  C   LIG d   1       6.253  -8.292  -5.209  0.00  0.00    -0.030 A 
ATOM      2  C   LIG d   1       7.275  -7.250  -5.064  0.00  0.00     0.022 A 
ATOM      3  C   LIG d   1       6.922  -5.901  -5.045  0.00  0.00    -0.040 A 
ATOM      4  C   LIG d   1       7.911  -4.942  -4.905  0.00  0.00     0.029 A 
ATOM      5  C   LIG d   1       9.263  -5.320  -4.782  0.00  0.00     0.139 A 
ATOM      6  C   LIG d   1       9.608  -6.664  -4.803  0.00  0.00     0.024 A 
ATOM      7  C   LIG d   1       8.627  -7.631  -4.942  0.00  0.00     0.143 A 
ATOM      8  O   LIG d   1       8.958  -8.942  -4.961  0.00  0.00    -0.422 OA
ATOM      9  C   LIG d   1       8.027  -9.898  -5.094  0.00  0.00     0.341 A 
ATOM     10  O   LIG d   1       8.373 -11.066  -5.106  0.00  0.00    -0.245 OA
ATOM     11  C   LIG d   1       6.656  -9.588  -5.221  0.00  0.00     0.041 A 
ATOM     12  O   LIG d   1       9.989  -4.189  -4.662  0.00  0.00    -0.462 OA
ATOM     13  C   LIG d   1       9.203  -3.100  -4.704  0.00  0.00     0.101 A 
ATOM     14  C   LIG d   1       7.910  -3.467  -4.844  0.00  0.00     0.028 A 
ATOM     15  H   LIG d   1       5.887  -5.607  -5.138  0.00  0.00     0.063 H 
ATOM     16  H   LIG d   1      10.643  -6.956  -4.709  0.00  0.00     0.069 H 
ATOM     17  H   LIG d   1       9.554  -2.081  -4.633  0.00  0.00     0.104 H 
ENDROOT
BRANCH  14  18
ATOM     18  C   LIG d   1       6.731  -2.571  -4.928  0.00  0.00    -0.014 A 
ATOM     19  C   LIG d   1       5.819  -2.541  -3.889  0.00  0.00    -0.046 A 
ATOM     20  C   LIG d   1       4.705  -1.692  -3.974  0.00  0.00    -0.017 A 
ATOM     21  H   LIG d   1       5.962  -3.167  -3.020  0.00  0.00     0.063 H 
ATOM     22  C   LIG d   1       4.533  -0.878  -5.122  0.00  0.00    -0.018 A 
ATOM     23  C   LIG d   1       3.754  -1.633  -2.939  0.00  0.00    -0.054 A 
ATOM     24  C   LIG d   1       5.480  -0.932  -6.161  0.00  0.00    -0.053 A 
ATOM     25  C   LIG d   1       3.417  -0.028  -5.202  0.00  0.00    -0.054 A 
ATOM     26  C   LIG d   1       6.551  -1.760  -6.061  0.00  0.00    -0.053 A 
ATOM     27  H   LIG d   1       5.355  -0.315  -7.038  0.00  0.00     0.062 H 
ATOM     28  H   LIG d   1       7.275  -1.796  -6.862  0.00  0.00     0.062 H 
ATOM     29  C   LIG d   1       2.517   0.001  -4.181  0.00  0.00    -0.061 A 
ATOM     30  H   LIG d   1       3.272   0.597  -6.071  0.00  0.00     0.062 H 
ATOM     31  C   LIG d   1       2.688  -0.794  -3.050  0.00  0.00    -0.061 A 
ATOM     32  H   LIG d   1       1.660   0.656  -4.246  0.00  0.00     0.062 H 
ATOM     33  H   LIG d   1       1.962  -0.748  -2.252  0.00  0.00     0.062 H 
ATOM     34  H   LIG d   1       3.872  -2.247  -2.059  0.00  0.00     0.062 H 
ENDBRANCH  14  18
BRANCH   1  35
ATOM     35  C   LIG d   1       4.795  -7.933  -5.342  0.00  0.00    -0.039 C 
ATOM     36  H   LIG d   1       4.257  -8.267  -4.455  0.00  0.00     0.028 H 
ATOM     37  H   LIG d   1       4.696  -6.853  -5.443  0.00  0.00     0.028 H 
ATOM     38  H   LIG d   1       4.381  -8.421  -6.224  0.00  0.00     0.028 H 
ENDBRANCH   1  35
BRANCH  11  39
ATOM     39  C   LIG d   1       5.642 -10.693  -5.369  0.00  0.00    -0.016 C 
ATOM     40  H   LIG d   1       4.844 -10.368  -6.037  0.00  0.00     0.032 H 
ATOM     41  H   LIG d   1       6.125 -11.577  -5.784  0.00  0.00     0.032 H 
BRANCH  39  42
ATOM     42  C   LIG d   1       5.052 -11.030  -3.998  0.00  0.00    -0.009 C 
ATOM     43  H   LIG d   1       5.317 -12.054  -3.731  0.00  0.00     0.033 H 
ATOM     44  H   LIG d   1       5.453 -10.345  -3.251  0.00  0.00     0.033 H 
BRANCH  42  45
ATOM     45  C   LIG d   1       3.553 -10.896  -4.049  0.00  0.00     0.042 C 
ATOM     46  O   LIG d   1       2.910 -11.581  -4.809  0.00  0.00    -0.550 OA
ATOM     47  O   LIG d   1       2.930 -10.016  -3.249  0.00  0.00    -0.550 OA
ENDBRANCH  42  45
ENDBRANCH  39  42
ENDBRANCH  11  39
TORSDOF 5
ENDMDL
