MODEL 1
REMARK VINA RESULT:      -6.5      0.000      0.000
REMARK  7 active torsions:
REMARK  status: ('A' for Active; 'I' for Inactive)
REMARK    1  A    between atoms: C_1  and  N_2 
REMARK       I    between atoms: N_2  and  C_3 
REMARK    2  A    between atoms: C_3  and  C_5 
REMARK    3  A    between atoms: C_7  and  C_15 
REMARK    4  A    between atoms: C_18  and  O_23 
REMARK    5  A    between atoms: C_19  and  O_21 
REMARK    6  A    between atoms: O_21  and  C_22 
REMARK    7  A    between atoms: O_23  and  C_24 
ROOT
ATOM      1  C   LIG d   1       7.399  -0.939  -3.981  0.00  0.00     0.048 A 
ATOM      2  C   LIG d   1       8.204   0.119  -4.377  0.00  0.00    -0.023 A 
ATOM      3  C   LIG d   1       7.811   1.433  -4.078  0.00  0.00     0.072 A 
ATOM      4  N   LIG d   1       6.699   1.704  -3.430  0.00  0.00    -0.247 NA
ATOM      5  C   LIG d   1       5.866   0.749  -3.012  0.00  0.00     0.072 A 
ATOM      6  C   LIG d   1       6.164  -0.613  -3.268  0.00  0.00     0.013 A 
ATOM      7  C   LIG d   1       5.292  -1.612  -2.822  0.00  0.00    -0.052 A 
ATOM      8  C   LIG d   1       4.154  -1.264  -2.156  0.00  0.00    -0.061 A 
ATOM      9  C   LIG d   1       3.852   0.073  -1.907  0.00  0.00    -0.060 A 
ATOM     10  C   LIG d   1       4.682   1.069  -2.321  0.00  0.00    -0.036 A 
ATOM     11  H   LIG d   1       9.124  -0.067  -4.911  0.00  0.00     0.065 H 
ATOM     12  H   LIG d   1       5.516  -2.652  -3.009  0.00  0.00     0.062 H 
ATOM     13  H   LIG d   1       3.478  -2.035  -1.817  0.00  0.00     0.062 H 
ATOM     14  H   LIG d   1       2.945   0.323  -1.378  0.00  0.00     0.062 H 
ATOM     15  H   LIG d   1       4.433   2.101  -2.119  0.00  0.00     0.064 H 
ENDROOT
BRANCH   3  16
ATOM     16  C   LIG d   1       8.680   2.554  -4.508  0.00  0.00     0.004 A 
ATOM     17  C   LIG d   1       9.227   3.417  -3.558  0.00  0.00    -0.007 A 
ATOM     18  C   LIG d   1      10.043   4.459  -3.962  0.00  0.00     0.162 A 
ATOM     19  H   LIG d   1       9.019   3.270  -2.509  0.00  0.00     0.066 H 
ATOM     20  C   LIG d   1      10.306   4.651  -5.316  0.00  0.00     0.162 A 
ATOM     21  C   LIG d   1       9.757   3.796  -6.261  0.00  0.00    -0.016 A 
ATOM     22  C   LIG d   1       8.948   2.751  -5.862  0.00  0.00    -0.049 A 
ATOM     23  H   LIG d   1       9.964   3.946  -7.310  0.00  0.00     0.066 H 
ATOM     24  H   LIG d   1       8.522   2.087  -6.598  0.00  0.00     0.062 H 
BRANCH  18  25
ATOM     25  O   LIG d   1      10.582   5.299  -3.039  0.00  0.00    -0.491 OA
BRANCH  25  26
ATOM     26  C   LIG d   1       9.719   6.298  -2.489  0.00  0.00     0.079 C 
ATOM     27  H   LIG d   1       9.554   6.093  -1.432  0.00  0.00     0.066 H 
ATOM     28  H   LIG d   1      10.182   7.279  -2.601  0.00  0.00     0.066 H 
ATOM     29  H   LIG d   1       8.766   6.284  -3.016  0.00  0.00     0.066 H 
ENDBRANCH  25  26
ENDBRANCH  18  25
BRANCH  20  30
ATOM     30  O   LIG d   1      11.103   5.678  -5.714  0.00  0.00    -0.491 OA
BRANCH  30  31
ATOM     31  C   LIG d   1      10.483   6.734  -6.448  0.00  0.00     0.079 C 
ATOM     32  H   LIG d   1      10.972   7.679  -6.211  0.00  0.00     0.066 H 
ATOM     33  H   LIG d   1      10.573   6.537  -7.517  0.00  0.00     0.066 H 
ATOM     34  H   LIG d   1       9.427   6.794  -6.178  0.00  0.00     0.066 H 
ENDBRANCH  30  31
ENDBRANCH  20  30
ENDBRANCH   3  16
BRANCH   1  35
ATOM     35  C   LIG d   1       7.771  -2.340  -4.274  0.00  0.00     0.244 C 
ATOM     36  N   LIG d   1       8.563  -3.019  -3.421  0.00  0.00    -0.314 N 
ATOM     37  H   LIG d   1       8.889  -2.589  -2.616  0.00  0.00     0.149 HD
ATOM     38  O   LIG d   1       7.367  -2.877  -5.287  0.00  0.00    -0.270 OA
BRANCH  36  39
ATOM     39  C   LIG d   1       8.932  -4.407  -3.711  0.00  0.00     0.000 C 
ATOM     40  H   LIG d   1       9.200  -4.500  -4.764  0.00  0.00     0.043 H 
ATOM     41  H   LIG d   1       9.782  -4.694  -3.093  0.00  0.00     0.043 H 
ATOM     42  H   LIG d   1       8.087  -5.061  -3.492  0.00  0.00     0.043 H 
ENDBRANCH  36  39
ENDBRANCH   1  35
TORSDOF 7
ENDMDL
MODEL 2
REMARK VINA RESULT:      -6.3      0.971      2.074
REMARK  7 active torsions:
REMARK  status: ('A' for Active; 'I' for Inactive)
REMARK    1  A    between atoms: C_1  and  N_2 
REMARK       I    between atoms: N_2  and  C_3 
REMARK    2  A    between atoms: C_3  and  C_5 
REMARK    3  A    between atoms: C_7  and  C_15 
REMARK    4  A    between atoms: C_18  and  O_23 
REMARK    5  A    between atoms: C_19  and  O_21 
REMARK    6  A    between atoms: O_21  and  C_22 
REMARK    7  A    between atoms: O_23  and  C_24 
ROOT
ATOM      1  C   LIG d   1       7.394  -0.991  -4.063  0.00  0.00     0.048 A 
ATOM      2  C   LIG d   1       8.160   0.042  -4.581  0.00  0.00    -0.023 A 
ATOM      3  C   LIG d   1       7.783   1.372  -4.335  0.00  0.00     0.072 A 
ATOM      4  N   LIG d   1       6.719   1.680  -3.623  0.00  0.00    -0.247 NA
ATOM      5  C   LIG d   1       5.925   0.751  -3.087  0.00  0.00     0.072 A 
ATOM      6  C   LIG d   1       6.213  -0.624  -3.281  0.00  0.00     0.013 A 
ATOM      7  C   LIG d   1       5.382  -1.595  -2.712  0.00  0.00    -0.052 A 
ATOM      8  C   LIG d   1       4.294  -1.209  -1.986  0.00  0.00    -0.061 A 
ATOM      9  C   LIG d   1       4.003   0.140  -1.797  0.00  0.00    -0.060 A 
ATOM     10  C   LIG d   1       4.795   1.110  -2.331  0.00  0.00    -0.036 A 
ATOM     11  H   LIG d   1       9.040  -0.174  -5.170  0.00  0.00     0.065 H 
ATOM     12  H   LIG d   1       5.598  -2.644  -2.851  0.00  0.00     0.062 H 
ATOM     13  H   LIG d   1       3.650  -1.960  -1.551  0.00  0.00     0.062 H 
ATOM     14  H   LIG d   1       3.137   0.420  -1.218  0.00  0.00     0.062 H 
ATOM     15  H   LIG d   1       4.554   2.152  -2.175  0.00  0.00     0.064 H 
ENDROOT
BRANCH   3  16
ATOM     16  C   LIG d   1       8.610   2.466  -4.895  0.00  0.00     0.004 A 
ATOM     17  C   LIG d   1       8.898   2.494  -6.259  0.00  0.00    -0.007 A 
ATOM     18  C   LIG d   1       9.666   3.520  -6.780  0.00  0.00     0.162 A 
ATOM     19  H   LIG d   1       8.519   1.720  -6.909  0.00  0.00     0.066 H 
ATOM     20  C   LIG d   1      10.159   4.515  -5.939  0.00  0.00     0.162 A 
ATOM     21  C   LIG d   1       9.877   4.483  -4.582  0.00  0.00    -0.016 A 
ATOM     22  C   LIG d   1       9.107   3.465  -4.058  0.00  0.00    -0.049 A 
ATOM     23  H   LIG d   1      10.260   5.257  -3.933  0.00  0.00     0.066 H 
ATOM     24  H   LIG d   1       8.888   3.442  -3.002  0.00  0.00     0.062 H 
BRANCH  18  25
ATOM     25  O   LIG d   1       9.945   3.554  -8.111  0.00  0.00    -0.491 OA
BRANCH  25  26
ATOM     26  C   LIG d   1       8.899   3.993  -8.981  0.00  0.00     0.079 C 
ATOM     27  H   LIG d   1       8.722   3.236  -9.745  0.00  0.00     0.066 H 
ATOM     28  H   LIG d   1       7.988   4.148  -8.405  0.00  0.00     0.066 H 
ATOM     29  H   LIG d   1       9.192   4.928  -9.457  0.00  0.00     0.066 H 
ENDBRANCH  25  26
ENDBRANCH  18  25
BRANCH  20  30
ATOM     30  O   LIG d   1      10.918   5.521  -6.451  0.00  0.00    -0.491 OA
BRANCH  30  31
ATOM     31  C   LIG d   1      10.305   6.807  -6.558  0.00  0.00     0.079 C 
ATOM     32  H   LIG d   1       9.481   6.878  -5.849  0.00  0.00     0.066 H 
ATOM     33  H   LIG d   1      11.041   7.580  -6.339  0.00  0.00     0.066 H 
ATOM     34  H   LIG d   1       9.925   6.944  -7.572  0.00  0.00     0.066 H 
ENDBRANCH  30  31
ENDBRANCH  20  30
ENDBRANCH   3  16
BRANCH   1  35
ATOM     35  C   LIG d   1       7.752  -2.407  -4.297  0.00  0.00     0.244 C 
ATOM     36  N   LIG d   1       8.631  -3.023  -3.482  0.00  0.00    -0.314 N 
ATOM     37  H   LIG d   1       9.029  -2.538  -2.743  0.00  0.00     0.149 HD
ATOM     38  O   LIG d   1       7.257  -3.013  -5.226  0.00  0.00    -0.270 OA
BRANCH  36  39
ATOM     39  C   LIG d   1       8.986  -4.425  -3.713  0.00  0.00     0.000 C 
ATOM     40  H   LIG d   1       9.459  -4.832  -2.820  0.00  0.00     0.043 H 
ATOM     41  H   LIG d   1       8.085  -4.995  -3.939  0.00  0.00     0.043 H 
ATOM     42  H   LIG d   1       9.678  -4.491  -4.553  0.00  0.00     0.043 H 
ENDBRANCH  36  39
ENDBRANCH   1  35
TORSDOF 7
ENDMDL
MODEL 3
REMARK VINA RESULT:      -6.1      5.099      7.300
REMARK  7 active torsions:
REMARK  status: ('A' for Active; 'I' for Inactive)
REMARK    1  A    between atoms: C_1  and  N_2 
REMARK       I    between atoms: N_2  and  C_3 
REMARK    2  A    between atoms: C_3  and  C_5 
REMARK    3  A    between atoms: C_7  and  C_15 
REMARK    4  A    between atoms: C_18  and  O_23 
REMARK    5  A    between atoms: C_19  and  O_21 
REMARK    6  A    between atoms: O_21  and  C_22 
REMARK    7  A    between atoms: O_23  and  C_24 
ROOT
ATOM      1  C   LIG d   1       5.923  -1.072  -5.007  0.00  0.00     0.048 A 
ATOM      2  C   LIG d   1       5.424  -1.159  -6.298  0.00  0.00    -0.023 A 
ATOM      3  C   LIG d   1       4.204  -0.539  -6.609  0.00  0.00     0.072 A 
ATOM      4  N   LIG d   1       3.508   0.130  -5.715  0.00  0.00    -0.247 NA
ATOM      5  C   LIG d   1       3.913   0.265  -4.450  0.00  0.00     0.072 A 
ATOM      6  C   LIG d   1       5.129  -0.330  -4.029  0.00  0.00     0.013 A 
ATOM      7  C   LIG d   1       5.553  -0.181  -2.704  0.00  0.00    -0.052 A 
ATOM      8  C   LIG d   1       4.784   0.524  -1.826  0.00  0.00    -0.061 A 
ATOM      9  C   LIG d   1       3.585   1.105  -2.233  0.00  0.00    -0.060 A 
ATOM     10  C   LIG d   1       3.146   0.985  -3.516  0.00  0.00    -0.036 A 
ATOM     11  H   LIG d   1       5.970  -1.701  -7.058  0.00  0.00     0.065 H 
ATOM     12  H   LIG d   1       6.481  -0.626  -2.377  0.00  0.00     0.062 H 
ATOM     13  H   LIG d   1       5.109   0.635  -0.802  0.00  0.00     0.062 H 
ATOM     14  H   LIG d   1       2.994   1.658  -1.519  0.00  0.00     0.062 H 
ATOM     15  H   LIG d   1       2.214   1.442  -3.814  0.00  0.00     0.064 H 
ENDROOT
BRANCH   3  16
ATOM     16  C   LIG d   1       3.682  -0.641  -7.992  0.00  0.00     0.004 A 
ATOM     17  C   LIG d   1       4.444  -1.262  -8.982  0.00  0.00    -0.007 A 
ATOM     18  C   LIG d   1       3.951  -1.360 -10.271  0.00  0.00     0.162 A 
ATOM     19  H   LIG d   1       5.415  -1.670  -8.742  0.00  0.00     0.066 H 
ATOM     20  C   LIG d   1       2.701  -0.829 -10.580  0.00  0.00     0.162 A 
ATOM     21  C   LIG d   1       1.947  -0.206  -9.597  0.00  0.00    -0.016 A 
ATOM     22  C   LIG d   1       2.431  -0.111  -8.308  0.00  0.00    -0.049 A 
ATOM     23  H   LIG d   1       0.977   0.204  -9.839  0.00  0.00     0.066 H 
ATOM     24  H   LIG d   1       1.843   0.374  -7.544  0.00  0.00     0.062 H 
BRANCH  18  25
ATOM     25  O   LIG d   1       4.689  -1.970 -11.237  0.00  0.00    -0.491 OA
BRANCH  25  26
ATOM     26  C   LIG d   1       4.689  -3.400 -11.247  0.00  0.00     0.079 C 
ATOM     27  H   LIG d   1       3.905  -3.767 -10.585  0.00  0.00     0.066 H 
ATOM     28  H   LIG d   1       4.505  -3.756 -12.260  0.00  0.00     0.066 H 
ATOM     29  H   LIG d   1       5.657  -3.765 -10.903  0.00  0.00     0.066 H 
ENDBRANCH  25  26
ENDBRANCH  18  25
BRANCH  20  30
ATOM     30  O   LIG d   1       2.219  -0.921 -11.847  0.00  0.00    -0.491 OA
BRANCH  30  31
ATOM     31  C   LIG d   1       0.958  -1.572 -12.017  0.00  0.00     0.079 C 
ATOM     32  H   LIG d   1       1.049  -2.351 -12.773  0.00  0.00     0.066 H 
ATOM     33  H   LIG d   1       0.649  -2.017 -11.071  0.00  0.00     0.066 H 
ATOM     34  H   LIG d   1       0.213  -0.841 -12.335  0.00  0.00     0.066 H 
ENDBRANCH  30  31
ENDBRANCH  20  30
ENDBRANCH   3  16
BRANCH   1  35
ATOM     35  C   LIG d   1       7.204  -1.710  -4.633  0.00  0.00     0.244 C 
ATOM     36  N   LIG d   1       7.219  -2.984  -4.193  0.00  0.00    -0.314 N 
ATOM     37  H   LIG d   1       6.391  -3.483  -4.123  0.00  0.00     0.149 HD
ATOM     38  O   LIG d   1       8.242  -1.084  -4.716  0.00  0.00    -0.270 OA
BRANCH  36  39
ATOM     39  C   LIG d   1       8.488  -3.616  -3.823  0.00  0.00     0.000 C 
ATOM     40  H   LIG d   1       8.806  -4.287  -4.621  0.00  0.00     0.043 H 
ATOM     41  H   LIG d   1       9.245  -2.848  -3.669  0.00  0.00     0.043 H 
ATOM     42  H   LIG d   1       8.355  -4.184  -2.901  0.00  0.00     0.043 H 
ENDBRANCH  36  39
ENDBRANCH   1  35
TORSDOF 7
ENDMDL
MODEL 4
REMARK VINA RESULT:      -6.0      2.449      7.394
REMARK  7 active torsions:
REMARK  status: ('A' for Active; 'I' for Inactive)
REMARK    1  A    between atoms: C_1  and  N_2 
REMARK       I    between atoms: N_2  and  C_3 
REMARK    2  A    between atoms: C_3  and  C_5 
REMARK    3  A    between atoms: C_7  and  C_15 
REMARK    4  A    between atoms: C_18  and  O_23 
REMARK    5  A    between atoms: C_19  and  O_21 
REMARK    6  A    between atoms: O_21  and  C_22 
REMARK    7  A    between atoms: O_23  and  C_24 
ROOT
ATOM      1  C   LIG d   1       7.268   0.152  -3.920  0.00  0.00     0.048 A 
ATOM      2  C   LIG d   1       7.814  -1.085  -4.224  0.00  0.00    -0.023 A 
ATOM      3  C   LIG d   1       7.089  -2.251  -3.930  0.00  0.00     0.072 A 
ATOM      4  N   LIG d   1       5.898  -2.215  -3.372  0.00  0.00    -0.247 NA
ATOM      5  C   LIG d   1       5.296  -1.069  -3.047  0.00  0.00     0.072 A 
ATOM      6  C   LIG d   1       5.945   0.167  -3.295  0.00  0.00     0.013 A 
ATOM      7  C   LIG d   1       5.309   1.366  -2.959  0.00  0.00    -0.052 A 
ATOM      8  C   LIG d   1       4.073   1.334  -2.382  0.00  0.00    -0.061 A 
ATOM      9  C   LIG d   1       3.434   0.123  -2.130  0.00  0.00    -0.060 A 
ATOM     10  C   LIG d   1       4.022  -1.062  -2.451  0.00  0.00    -0.036 A 
ATOM     11  H   LIG d   1       8.791  -1.152  -4.682  0.00  0.00     0.065 H 
ATOM     12  H   LIG d   1       5.794   2.312  -3.150  0.00  0.00     0.062 H 
ATOM     13  H   LIG d   1       3.584   2.261  -2.118  0.00  0.00     0.062 H 
ATOM     14  H   LIG d   1       2.456   0.124  -1.673  0.00  0.00     0.062 H 
ATOM     15  H   LIG d   1       3.511  -1.992  -2.249  0.00  0.00     0.064 H 
ENDROOT
BRANCH   3  16
ATOM     16  C   LIG d   1       7.686  -3.566  -4.259  0.00  0.00     0.004 A 
ATOM     17  C   LIG d   1       8.801  -4.023  -3.557  0.00  0.00    -0.007 A 
ATOM     18  C   LIG d   1       9.352  -5.254  -3.862  0.00  0.00     0.162 A 
ATOM     19  H   LIG d   1       9.232  -3.418  -2.772  0.00  0.00     0.066 H 
ATOM     20  C   LIG d   1       8.800  -6.030  -4.878  0.00  0.00     0.162 A 
ATOM     21  C   LIG d   1       7.694  -5.574  -5.580  0.00  0.00    -0.016 A 
ATOM     22  C   LIG d   1       7.137  -4.348  -5.275  0.00  0.00    -0.049 A 
ATOM     23  H   LIG d   1       7.267  -6.178  -6.367  0.00  0.00     0.066 H 
ATOM     24  H   LIG d   1       6.277  -3.995  -5.822  0.00  0.00     0.062 H 
BRANCH  18  25
ATOM     25  O   LIG d   1      10.437  -5.704  -3.176  0.00  0.00    -0.491 OA
BRANCH  25  26
ATOM     26  C   LIG d   1      10.196  -6.284  -1.891  0.00  0.00     0.079 C 
ATOM     27  H   LIG d   1      10.673  -5.674  -1.123  0.00  0.00     0.066 H 
ATOM     28  H   LIG d   1       9.123  -6.326  -1.707  0.00  0.00     0.066 H 
ATOM     29  H   LIG d   1      10.610  -7.291  -1.865  0.00  0.00     0.066 H 
ENDBRANCH  25  26
ENDBRANCH  18  25
BRANCH  20  30
ATOM     30  O   LIG d   1       9.344  -7.238  -5.182  0.00  0.00    -0.491 OA
BRANCH  30  31
ATOM     31  C   LIG d   1       8.462  -8.362  -5.202  0.00  0.00     0.079 C 
ATOM     32  H   LIG d   1       7.585  -8.146  -4.592  0.00  0.00     0.066 H 
ATOM     33  H   LIG d   1       8.151  -8.561  -6.227  0.00  0.00     0.066 H 
ATOM     34  H   LIG d   1       8.978  -9.236  -4.802  0.00  0.00     0.066 H 
ENDBRANCH  30  31
ENDBRANCH  20  30
ENDBRANCH   3  16
BRANCH   1  35
ATOM     35  C   LIG d   1       7.995   1.407  -4.211  0.00  0.00     0.244 C 
ATOM     36  N   LIG d   1       9.019   1.790  -3.424  0.00  0.00    -0.314 N 
ATOM     37  H   LIG d   1       9.280   1.244  -2.667  0.00  0.00     0.149 HD
ATOM     38  O   LIG d   1       7.665   2.095  -5.157  0.00  0.00    -0.270 OA
BRANCH  36  39
ATOM     39  C   LIG d   1       9.739   3.033  -3.712  0.00  0.00     0.000 C 
ATOM     40  H   LIG d   1       9.025   3.850  -3.822  0.00  0.00     0.043 H 
ATOM     41  H   LIG d   1      10.422   3.255  -2.893  0.00  0.00     0.043 H 
ATOM     42  H   LIG d   1      10.306   2.919  -4.637  0.00  0.00     0.043 H 
ENDBRANCH  36  39
ENDBRANCH   1  35
TORSDOF 7
ENDMDL
MODEL 5
REMARK VINA RESULT:      -6.0      5.042      7.215
REMARK  7 active torsions:
REMARK  status: ('A' for Active; 'I' for Inactive)
REMARK    1  A    between atoms: C_1  and  N_2 
REMARK       I    between atoms: N_2  and  C_3 
REMARK    2  A    between atoms: C_3  and  C_5 
REMARK    3  A    between atoms: C_7  and  C_15 
REMARK    4  A    between atoms: C_18  and  O_23 
REMARK    5  A    between atoms: C_19  and  O_21 
REMARK    6  A    between atoms: O_21  and  C_22 
REMARK    7  A    between atoms: O_23  and  C_24 
ROOT
ATOM      1  C   LIG d   1       4.807  -0.796  -5.602  0.00  0.00     0.048 A 
ATOM      2  C   LIG d   1       5.697  -1.860  -5.617  0.00  0.00    -0.023 A 
ATOM      3  C   LIG d   1       6.272  -2.295  -4.412  0.00  0.00     0.072 A 
ATOM      4  N   LIG d   1       5.996  -1.728  -3.257  0.00  0.00    -0.247 NA
ATOM      5  C   LIG d   1       5.152  -0.700  -3.149  0.00  0.00     0.072 A 
ATOM      6  C   LIG d   1       4.522  -0.178  -4.307  0.00  0.00     0.013 A 
ATOM      7  C   LIG d   1       3.632   0.896  -4.190  0.00  0.00    -0.052 A 
ATOM      8  C   LIG d   1       3.391   1.439  -2.962  0.00  0.00    -0.061 A 
ATOM      9  C   LIG d   1       4.012   0.934  -1.823  0.00  0.00    -0.060 A 
ATOM     10  C   LIG d   1       4.878  -0.114  -1.900  0.00  0.00    -0.036 A 
ATOM     11  H   LIG d   1       5.946  -2.348  -6.547  0.00  0.00     0.065 H 
ATOM     12  H   LIG d   1       3.144   1.295  -5.066  0.00  0.00     0.062 H 
ATOM     13  H   LIG d   1       2.708   2.271  -2.872  0.00  0.00     0.062 H 
ATOM     14  H   LIG d   1       3.804   1.381  -0.862  0.00  0.00     0.062 H 
ATOM     15  H   LIG d   1       5.351  -0.494  -1.006  0.00  0.00     0.064 H 
ENDROOT
BRANCH   3  16
ATOM     16  C   LIG d   1       7.222  -3.432  -4.443  0.00  0.00     0.004 A 
ATOM     17  C   LIG d   1       8.397  -3.380  -3.695  0.00  0.00    -0.007 A 
ATOM     18  C   LIG d   1       9.279  -4.446  -3.722  0.00  0.00     0.162 A 
ATOM     19  H   LIG d   1       8.618  -2.512  -3.092  0.00  0.00     0.066 H 
ATOM     20  C   LIG d   1       8.996  -5.563  -4.504  0.00  0.00     0.162 A 
ATOM     21  C   LIG d   1       7.829  -5.612  -5.252  0.00  0.00    -0.016 A 
ATOM     22  C   LIG d   1       6.944  -4.553  -5.224  0.00  0.00    -0.049 A 
ATOM     23  H   LIG d   1       7.612  -6.480  -5.857  0.00  0.00     0.066 H 
ATOM     24  H   LIG d   1       6.036  -4.593  -5.807  0.00  0.00     0.062 H 
BRANCH  18  25
ATOM     25  O   LIG d   1      10.424  -4.400  -2.989  0.00  0.00    -0.491 OA
BRANCH  25  26
ATOM     26  C   LIG d   1      11.491  -3.600  -3.503  0.00  0.00     0.079 C 
ATOM     27  H   LIG d   1      11.382  -2.576  -3.144  0.00  0.00     0.066 H 
ATOM     28  H   LIG d   1      12.444  -4.004  -3.163  0.00  0.00     0.066 H 
ATOM     29  H   LIG d   1      11.459  -3.608  -4.592  0.00  0.00     0.066 H 
ENDBRANCH  25  26
ENDBRANCH  18  25
BRANCH  20  30
ATOM     30  O   LIG d   1       9.865  -6.608  -4.534  0.00  0.00    -0.491 OA
BRANCH  30  31
ATOM     31  C   LIG d   1       9.495  -7.781  -3.806  0.00  0.00     0.079 C 
ATOM     32  H   LIG d   1       8.521  -8.129  -4.149  0.00  0.00     0.066 H 
ATOM     33  H   LIG d   1      10.238  -8.561  -3.971  0.00  0.00     0.066 H 
ATOM     34  H   LIG d   1       9.444  -7.547  -2.742  0.00  0.00     0.066 H 
ENDBRANCH  30  31
ENDBRANCH  20  30
ENDBRANCH   3  16
BRANCH   1  35
ATOM     35  C   LIG d   1       4.177  -0.302  -6.845  0.00  0.00     0.244 C 
ATOM     36  N   LIG d   1       3.024  -0.848  -7.279  0.00  0.00    -0.314 N 
ATOM     37  H   LIG d   1       2.607  -1.564  -6.776  0.00  0.00     0.149 HD
ATOM     38  O   LIG d   1       4.702   0.592  -7.479  0.00  0.00    -0.270 OA
BRANCH  36  39
ATOM     39  C   LIG d   1       2.400  -0.358  -8.511  0.00  0.00     0.000 C 
ATOM     40  H   LIG d   1       2.776   0.639  -8.737  0.00  0.00     0.043 H 
ATOM     41  H   LIG d   1       2.639  -1.033  -9.332  0.00  0.00     0.043 H 
ATOM     42  H   LIG d   1       1.318  -0.318  -8.378  0.00  0.00     0.043 H 
ENDBRANCH  36  39
ENDBRANCH   1  35
TORSDOF 7
ENDMDL
MODEL 6
REMARK VINA RESULT:      -5.9      5.090      7.803
REMARK  7 active torsions:
REMARK  status: ('A' for Active; 'I' for Inactive)
REMARK    1  A    between atoms: C_1  and  N_2 
REMARK       I    between atoms: N_2  and  C_3 
REMARK    2  A    between atoms: C_3  and  C_5 
REMARK    3  A    between atoms: C_7  and  C_15 
REMARK    4  A    between atoms: C_18  and  O_23 
REMARK    5  A    between atoms: C_19  and  O_21 
REMARK    6  A    between atoms: O_21  and  C_22 
REMARK    7  A    between atoms: O_23  and  C_24 
ROOT
ATOM      1  C   LIG d   1       6.110  -0.344  -5.298  0.00  0.00     0.048 A 
ATOM      2  C   LIG d   1       5.464  -0.713  -6.469  0.00  0.00    -0.023 A 
ATOM      3  C   LIG d   1       4.063  -0.649  -6.532  0.00  0.00     0.072 A 
ATOM      4  N   LIG d   1       3.331  -0.247  -5.515  0.00  0.00    -0.247 NA
ATOM      5  C   LIG d   1       3.869   0.126  -4.352  0.00  0.00     0.072 A 
ATOM      6  C   LIG d   1       5.275   0.092  -4.179  0.00  0.00     0.013 A 
ATOM      7  C   LIG d   1       5.836   0.490  -2.960  0.00  0.00    -0.052 A 
ATOM      8  C   LIG d   1       5.020   0.895  -1.945  0.00  0.00    -0.061 A 
ATOM      9  C   LIG d   1       3.638   0.924  -2.107  0.00  0.00    -0.060 A 
ATOM     10  C   LIG d   1       3.060   0.550  -3.282  0.00  0.00    -0.036 A 
ATOM     11  H   LIG d   1       6.034  -1.048  -7.323  0.00  0.00     0.065 H 
ATOM     12  H   LIG d   1       6.907   0.472  -2.823  0.00  0.00     0.062 H 
ATOM     13  H   LIG d   1       5.453   1.198  -1.002  0.00  0.00     0.062 H 
ATOM     14  H   LIG d   1       3.014   1.249  -1.288  0.00  0.00     0.062 H 
ATOM     15  H   LIG d   1       1.986   0.579  -3.390  0.00  0.00     0.064 H 
ENDROOT
BRANCH   3  16
ATOM     16  C   LIG d   1       3.386  -1.047  -7.789  0.00  0.00     0.004 A 
ATOM     17  C   LIG d   1       3.697  -2.264  -8.395  0.00  0.00    -0.007 A 
ATOM     18  C   LIG d   1       3.058  -2.635  -9.564  0.00  0.00     0.162 A 
ATOM     19  H   LIG d   1       4.432  -2.918  -7.949  0.00  0.00     0.066 H 
ATOM     20  C   LIG d   1       2.115  -1.787 -10.140  0.00  0.00     0.162 A 
ATOM     21  C   LIG d   1       1.809  -0.574  -9.540  0.00  0.00    -0.016 A 
ATOM     22  C   LIG d   1       2.440  -0.203  -8.370  0.00  0.00    -0.049 A 
ATOM     23  H   LIG d   1       1.077   0.080  -9.989  0.00  0.00     0.066 H 
ATOM     24  H   LIG d   1       2.201   0.742  -7.905  0.00  0.00     0.062 H 
BRANCH  18  25
ATOM     25  O   LIG d   1       3.356  -3.823 -10.155  0.00  0.00    -0.491 OA
BRANCH  25  26
ATOM     26  C   LIG d   1       2.895  -5.007  -9.499  0.00  0.00     0.079 C 
ATOM     27  H   LIG d   1       2.877  -4.840  -8.422  0.00  0.00     0.066 H 
ATOM     28  H   LIG d   1       1.891  -5.247  -9.846  0.00  0.00     0.066 H 
ATOM     29  H   LIG d   1       3.567  -5.833  -9.728  0.00  0.00     0.066 H 
ENDBRANCH  25  26
ENDBRANCH  18  25
BRANCH  20  30
ATOM     30  O   LIG d   1       1.491  -2.150 -11.292  0.00  0.00    -0.491 OA
BRANCH  30  31
ATOM     31  C   LIG d   1       2.037  -1.646 -12.513  0.00  0.00     0.079 C 
ATOM     32  H   LIG d   1       1.230  -1.296 -13.156  0.00  0.00     0.066 H 
ATOM     33  H   LIG d   1       2.712  -0.818 -12.294  0.00  0.00     0.066 H 
ATOM     34  H   LIG d   1       2.588  -2.440 -13.019  0.00  0.00     0.066 H 
ENDBRANCH  30  31
ENDBRANCH  20  30
ENDBRANCH   3  16
BRANCH   1  35
ATOM     35  C   LIG d   1       7.584  -0.396  -5.184  0.00  0.00     0.244 C 
ATOM     36  N   LIG d   1       8.324   0.677  -5.525  0.00  0.00    -0.314 N 
ATOM     37  H   LIG d   1       7.891   1.483  -5.845  0.00  0.00     0.149 HD
ATOM     38  O   LIG d   1       8.128  -1.408  -4.787  0.00  0.00    -0.270 OA
BRANCH  36  39
ATOM     39  C   LIG d   1       9.784   0.626  -5.411  0.00  0.00     0.000 C 
ATOM     40  H   LIG d   1      10.095  -0.394  -5.187  0.00  0.00     0.043 H 
ATOM     41  H   LIG d   1      10.233   0.944  -6.352  0.00  0.00     0.043 H 
ATOM     42  H   LIG d   1      10.110   1.290  -4.610  0.00  0.00     0.043 H 
ENDBRANCH  36  39
ENDBRANCH   1  35
TORSDOF 7
ENDMDL
MODEL 7
REMARK VINA RESULT:      -5.9      4.043      8.496
REMARK  7 active torsions:
REMARK  status: ('A' for Active; 'I' for Inactive)
REMARK    1  A    between atoms: C_1  and  N_2 
REMARK       I    between atoms: N_2  and  C_3 
REMARK    2  A    between atoms: C_3  and  C_5 
REMARK    3  A    between atoms: C_7  and  C_15 
REMARK    4  A    between atoms: C_18  and  O_23 
REMARK    5  A    between atoms: C_19  and  O_21 
REMARK    6  A    between atoms: O_21  and  C_22 
REMARK    7  A    between atoms: O_23  and  C_24 
ROOT
ATOM      1  C   LIG d   1       6.532  -0.878  -4.987  0.00  0.00     0.048 A 
ATOM      2  C   LIG d   1       6.213  -2.057  -5.644  0.00  0.00    -0.023 A 
ATOM      3  C   LIG d   1       5.061  -2.766  -5.267  0.00  0.00     0.072 A 
ATOM      4  N   LIG d   1       4.264  -2.352  -4.306  0.00  0.00    -0.247 NA
ATOM      5  C   LIG d   1       4.493  -1.230  -3.622  0.00  0.00     0.072 A 
ATOM      6  C   LIG d   1       5.634  -0.441  -3.918  0.00  0.00     0.013 A 
ATOM      7  C   LIG d   1       5.868   0.738  -3.203  0.00  0.00    -0.052 A 
ATOM      8  C   LIG d   1       5.002   1.112  -2.218  0.00  0.00    -0.061 A 
ATOM      9  C   LIG d   1       3.884   0.338  -1.919  0.00  0.00    -0.060 A 
ATOM     10  C   LIG d   1       3.622  -0.812  -2.599  0.00  0.00    -0.036 A 
ATOM     11  H   LIG d   1       6.846  -2.427  -6.437  0.00  0.00     0.065 H 
ATOM     12  H   LIG d   1       6.732   1.347  -3.426  0.00  0.00     0.062 H 
ATOM     13  H   LIG d   1       5.186   2.020  -1.662  0.00  0.00     0.062 H 
ATOM     14  H   LIG d   1       3.213   0.654  -1.134  0.00  0.00     0.062 H 
ATOM     15  H   LIG d   1       2.750  -1.400  -2.354  0.00  0.00     0.064 H 
ENDROOT
BRANCH   3  16
ATOM     16  C   LIG d   1       4.733  -4.025  -5.977  0.00  0.00     0.004 A 
ATOM     17  C   LIG d   1       4.855  -5.249  -5.320  0.00  0.00    -0.007 A 
ATOM     18  C   LIG d   1       4.542  -6.422  -5.983  0.00  0.00     0.162 A 
ATOM     19  H   LIG d   1       5.188  -5.282  -4.293  0.00  0.00     0.066 H 
ATOM     20  C   LIG d   1       4.118  -6.379  -7.309  0.00  0.00     0.162 A 
ATOM     21  C   LIG d   1       4.002  -5.162  -7.964  0.00  0.00    -0.016 A 
ATOM     22  C   LIG d   1       4.307  -3.988  -7.304  0.00  0.00    -0.049 A 
ATOM     23  H   LIG d   1       3.671  -5.131  -8.992  0.00  0.00     0.066 H 
ATOM     24  H   LIG d   1       4.217  -3.042  -7.816  0.00  0.00     0.062 H 
BRANCH  18  25
ATOM     25  O   LIG d   1       4.655  -7.617  -5.344  0.00  0.00    -0.491 OA
BRANCH  25  26
ATOM     26  C   LIG d   1       5.968  -8.170  -5.229  0.00  0.00     0.079 C 
ATOM     27  H   LIG d   1       6.564  -7.870  -6.091  0.00  0.00     0.066 H 
ATOM     28  H   LIG d   1       6.438  -7.804  -4.317  0.00  0.00     0.066 H 
ATOM     29  H   LIG d   1       5.902  -9.257  -5.193  0.00  0.00     0.066 H 
ENDBRANCH  25  26
ENDBRANCH  18  25
BRANCH  20  30
ATOM     30  O   LIG d   1       3.815  -7.532  -7.963  0.00  0.00    -0.491 OA
BRANCH  30  31
ATOM     31  C   LIG d   1       3.335  -7.411  -9.303  0.00  0.00     0.079 C 
ATOM     32  H   LIG d   1       3.226  -8.403  -9.741  0.00  0.00     0.066 H 
ATOM     33  H   LIG d   1       2.369  -6.907  -9.300  0.00  0.00     0.066 H 
ATOM     34  H   LIG d   1       4.046  -6.830  -9.892  0.00  0.00     0.066 H 
ENDBRANCH  30  31
ENDBRANCH  20  30
ENDBRANCH   3  16
BRANCH   1  35
ATOM     35  C   LIG d   1       7.735  -0.097  -5.348  0.00  0.00     0.244 C 
ATOM     36  N   LIG d   1       8.920  -0.382  -4.774  0.00  0.00    -0.314 N 
ATOM     37  H   LIG d   1       8.985  -1.099  -4.125  0.00  0.00     0.149 HD
ATOM     38  O   LIG d   1       7.653   0.805  -6.158  0.00  0.00    -0.270 OA
BRANCH  36  39
ATOM     39  C   LIG d   1      10.112   0.391  -5.132  0.00  0.00     0.000 C 
ATOM     40  H   LIG d   1       9.820   1.408  -5.393  0.00  0.00     0.043 H 
ATOM     41  H   LIG d   1      10.797   0.416  -4.285  0.00  0.00     0.043 H 
ATOM     42  H   LIG d   1      10.606  -0.076  -5.985  0.00  0.00     0.043 H 
ENDBRANCH  36  39
ENDBRANCH   1  35
TORSDOF 7
ENDMDL
MODEL 8
REMARK VINA RESULT:      -5.9      5.484      8.463
REMARK  7 active torsions:
REMARK  status: ('A' for Active; 'I' for Inactive)
REMARK    1  A    between atoms: C_1  and  N_2 
REMARK       I    between atoms: N_2  and  C_3 
REMARK    2  A    between atoms: C_3  and  C_5 
REMARK    3  A    between atoms: C_7  and  C_15 
REMARK    4  A    between atoms: C_18  and  O_23 
REMARK    5  A    between atoms: C_19  and  O_21 
REMARK    6  A    between atoms: O_21  and  C_22 
REMARK    7  A    between atoms: O_23  and  C_24 
ROOT
ATOM      1  C   LIG d   1       4.116  -0.928  -5.832  0.00  0.00     0.048 A 
ATOM      2  C   LIG d   1       4.580  -2.215  -6.060  0.00  0.00    -0.023 A 
ATOM      3  C   LIG d   1       5.016  -2.993  -4.976  0.00  0.00     0.072 A 
ATOM      4  N   LIG d   1       5.000  -2.545  -3.739  0.00  0.00    -0.247 NA
ATOM      5  C   LIG d   1       4.569  -1.321  -3.428  0.00  0.00     0.072 A 
ATOM      6  C   LIG d   1       4.113  -0.450  -4.450  0.00  0.00     0.013 A 
ATOM      7  C   LIG d   1       3.656   0.830  -4.120  0.00  0.00    -0.052 A 
ATOM      8  C   LIG d   1       3.667   1.233  -2.817  0.00  0.00    -0.061 A 
ATOM      9  C   LIG d   1       4.119   0.385  -1.810  0.00  0.00    -0.060 A 
ATOM     10  C   LIG d   1       4.564  -0.870  -2.095  0.00  0.00    -0.036 A 
ATOM     11  H   LIG d   1       4.607  -2.614  -7.064  0.00  0.00     0.065 H 
ATOM     12  H   LIG d   1       3.302   1.497  -4.892  0.00  0.00     0.062 H 
ATOM     13  H   LIG d   1       3.318   2.224  -2.563  0.00  0.00     0.062 H 
ATOM     14  H   LIG d   1       4.117   0.727  -0.786  0.00  0.00     0.062 H 
ATOM     15  H   LIG d   1       4.912  -1.515  -1.302  0.00  0.00     0.064 H 
ENDROOT
BRANCH   3  16
ATOM     16  C   LIG d   1       5.511  -4.365  -5.234  0.00  0.00     0.004 A 
ATOM     17  C   LIG d   1       6.882  -4.622  -5.248  0.00  0.00    -0.007 A 
ATOM     18  C   LIG d   1       7.340  -5.906  -5.484  0.00  0.00     0.162 A 
ATOM     19  H   LIG d   1       7.585  -3.821  -5.070  0.00  0.00     0.066 H 
ATOM     20  C   LIG d   1       6.433  -6.936  -5.718  0.00  0.00     0.162 A 
ATOM     21  C   LIG d   1       5.070  -6.679  -5.709  0.00  0.00    -0.016 A 
ATOM     22  C   LIG d   1       4.607  -5.401  -5.469  0.00  0.00    -0.049 A 
ATOM     23  H   LIG d   1       4.369  -7.481  -5.890  0.00  0.00     0.066 H 
ATOM     24  H   LIG d   1       3.547  -5.203  -5.463  0.00  0.00     0.062 H 
BRANCH  18  25
ATOM     25  O   LIG d   1       8.676  -6.160  -5.493  0.00  0.00    -0.491 OA
BRANCH  25  26
ATOM     26  C   LIG d   1       9.316  -6.314  -4.223  0.00  0.00     0.079 C 
ATOM     27  H   LIG d   1      10.301  -6.759  -4.365  0.00  0.00     0.066 H 
ATOM     28  H   LIG d   1       9.424  -5.338  -3.750  0.00  0.00     0.066 H 
ATOM     29  H   LIG d   1       8.712  -6.961  -3.588  0.00  0.00     0.066 H 
ENDBRANCH  25  26
ENDBRANCH  18  25
BRANCH  20  30
ATOM     30  O   LIG d   1       6.884  -8.197  -5.954  0.00  0.00    -0.491 OA
BRANCH  30  31
ATOM     31  C   LIG d   1       6.237  -9.260  -5.251  0.00  0.00     0.079 C 
ATOM     32  H   LIG d   1       5.833  -8.883  -4.312  0.00  0.00     0.066 H 
ATOM     33  H   LIG d   1       5.427  -9.659  -5.861  0.00  0.00     0.066 H 
ATOM     34  H   LIG d   1       6.960 -10.051  -5.045  0.00  0.00     0.066 H 
ENDBRANCH  30  31
ENDBRANCH  20  30
ENDBRANCH   3  16
BRANCH   1  35
ATOM     35  C   LIG d   1       3.647  -0.071  -6.943  0.00  0.00     0.244 C 
ATOM     36  N   LIG d   1       4.529   0.672  -7.639  0.00  0.00    -0.314 N 
ATOM     37  H   LIG d   1       5.471   0.645  -7.412  0.00  0.00     0.149 HD
ATOM     38  O   LIG d   1       2.465  -0.033  -7.225  0.00  0.00    -0.270 OA
BRANCH  36  39
ATOM     39  C   LIG d   1       4.065   1.521  -8.740  0.00  0.00     0.000 C 
ATOM     40  H   LIG d   1       4.731   2.378  -8.843  0.00  0.00     0.043 H 
ATOM     41  H   LIG d   1       4.064   0.947  -9.666  0.00  0.00     0.043 H 
ATOM     42  H   LIG d   1       3.054   1.869  -8.528  0.00  0.00     0.043 H 
ENDBRANCH  36  39
ENDBRANCH   1  35
TORSDOF 7
ENDMDL
MODEL 9
REMARK VINA RESULT:      -5.8      5.489      8.327
REMARK  7 active torsions:
REMARK  status: ('A' for Active; 'I' for Inactive)
REMARK    1  A    between atoms: C_1  and  N_2 
REMARK       I    between atoms: N_2  and  C_3 
REMARK    2  A    between atoms: C_3  and  C_5 
REMARK    3  A    between atoms: C_7  and  C_15 
REMARK    4  A    between atoms: C_18  and  O_23 
REMARK    5  A    between atoms: C_19  and  O_21 
REMARK    6  A    between atoms: O_21  and  C_22 
REMARK    7  A    between atoms: O_23  and  C_24 
ROOT
ATOM      1  C   LIG d   1       4.257  -0.759  -5.714  0.00  0.00     0.048 A 
ATOM      2  C   LIG d   1       4.935  -1.954  -5.901  0.00  0.00    -0.023 A 
ATOM      3  C   LIG d   1       5.532  -2.588  -4.800  0.00  0.00     0.072 A 
ATOM      4  N   LIG d   1       5.472  -2.089  -3.584  0.00  0.00    -0.247 NA
ATOM      5  C   LIG d   1       4.841  -0.945  -3.313  0.00  0.00     0.072 A 
ATOM      6  C   LIG d   1       4.209  -0.220  -4.355  0.00  0.00     0.013 A 
ATOM      7  C   LIG d   1       3.543   0.975  -4.066  0.00  0.00    -0.052 A 
ATOM      8  C   LIG d   1       3.519   1.439  -2.783  0.00  0.00    -0.061 A 
ATOM      9  C   LIG d   1       4.142   0.735  -1.757  0.00  0.00    -0.060 A 
ATOM     10  C   LIG d   1       4.794  -0.435  -2.002  0.00  0.00    -0.036 A 
ATOM     11  H   LIG d   1       5.004  -2.393  -6.886  0.00  0.00     0.065 H 
ATOM     12  H   LIG d   1       3.055   1.530  -4.853  0.00  0.00     0.062 H 
ATOM     13  H   LIG d   1       3.008   2.365  -2.561  0.00  0.00     0.062 H 
ATOM     14  H   LIG d   1       4.109   1.122  -0.750  0.00  0.00     0.062 H 
ATOM     15  H   LIG d   1       5.272  -0.969  -1.194  0.00  0.00     0.064 H 
ENDROOT
BRANCH   3  16
ATOM     16  C   LIG d   1       6.254  -3.864  -5.015  0.00  0.00     0.004 A 
ATOM     17  C   LIG d   1       5.589  -4.959  -5.565  0.00  0.00    -0.007 A 
ATOM     18  C   LIG d   1       6.268  -6.147  -5.770  0.00  0.00     0.162 A 
ATOM     19  H   LIG d   1       4.546  -4.879  -5.836  0.00  0.00     0.066 H 
ATOM     20  C   LIG d   1       7.610  -6.250  -5.416  0.00  0.00     0.162 A 
ATOM     21  C   LIG d   1       8.271  -5.163  -4.863  0.00  0.00    -0.016 A 
ATOM     22  C   LIG d   1       7.599  -3.974  -4.663  0.00  0.00    -0.049 A 
ATOM     23  H   LIG d   1       9.313  -5.245  -4.591  0.00  0.00     0.066 H 
ATOM     24  H   LIG d   1       8.115  -3.129  -4.233  0.00  0.00     0.062 H 
BRANCH  18  25
ATOM     25  O   LIG d   1       5.623  -7.215  -6.311  0.00  0.00    -0.491 OA
BRANCH  25  26
ATOM     26  C   LIG d   1       4.911  -8.068  -5.410  0.00  0.00     0.079 C 
ATOM     27  H   LIG d   1       3.877  -7.733  -5.335  0.00  0.00     0.066 H 
ATOM     28  H   LIG d   1       4.935  -9.091  -5.784  0.00  0.00     0.066 H 
ATOM     29  H   LIG d   1       5.379  -8.028  -4.427  0.00  0.00     0.066 H 
ENDBRANCH  25  26
ENDBRANCH  18  25
BRANCH  20  30
ATOM     30  O   LIG d   1       8.276  -7.419  -5.612  0.00  0.00    -0.491 OA
BRANCH  30  31
ATOM     31  C   LIG d   1       8.578  -8.197  -4.452  0.00  0.00     0.079 C 
ATOM     32  H   LIG d   1       7.659  -8.409  -3.907  0.00  0.00     0.066 H 
ATOM     33  H   LIG d   1       9.045  -9.134  -4.755  0.00  0.00     0.066 H 
ATOM     34  H   LIG d   1       9.263  -7.641  -3.810  0.00  0.00     0.066 H 
ENDBRANCH  30  31
ENDBRANCH  20  30
ENDBRANCH   3  16
BRANCH   1  35
ATOM     35  C   LIG d   1       3.613  -0.054  -6.844  0.00  0.00     0.244 C 
ATOM     36  N   LIG d   1       4.335   0.783  -7.615  0.00  0.00    -0.314 N 
ATOM     37  H   LIG d   1       5.276   0.923  -7.429  0.00  0.00     0.149 HD
ATOM     38  O   LIG d   1       2.432  -0.226  -7.074  0.00  0.00    -0.270 OA
BRANCH  36  39
ATOM     39  C   LIG d   1       3.697   1.481  -8.734  0.00  0.00     0.000 C 
ATOM     40  H   LIG d   1       4.262   2.383  -8.968  0.00  0.00     0.043 H 
ATOM     41  H   LIG d   1       3.678   0.827  -9.606  0.00  0.00     0.043 H 
ATOM     42  H   LIG d   1       2.677   1.750  -8.460  0.00  0.00     0.043 H 
ENDBRANCH  36  39
ENDBRANCH   1  35
TORSDOF 7
ENDMDL
MODEL 10
REMARK VINA RESULT:      -5.8      4.278      8.824
REMARK  7 active torsions:
REMARK  status: ('A' for Active; 'I' for Inactive)
REMARK    1  A    between atoms: C_1  and  N_2 
REMARK       I    between atoms: N_2  and  C_3 
REMARK    2  A    between atoms: C_3  and  C_5 
REMARK    3  A    between atoms: C_7  and  C_15 
REMARK    4  A    between atoms: C_18  and  O_23 
REMARK    5  A    between atoms: C_19  and  O_21 
REMARK    6  A    between atoms: O_21  and  C_22 
REMARK    7  A    between atoms: O_23  and  C_24 
ROOT
ATOM      1  C   LIG d   1       6.149  -0.982  -5.379  0.00  0.00     0.048 A 
ATOM      2  C   LIG d   1       5.867  -2.212  -5.955  0.00  0.00    -0.023 A 
ATOM      3  C   LIG d   1       5.012  -3.104  -5.291  0.00  0.00     0.072 A 
ATOM      4  N   LIG d   1       4.459  -2.817  -4.131  0.00  0.00    -0.247 NA
ATOM      5  C   LIG d   1       4.674  -1.658  -3.506  0.00  0.00     0.072 A 
ATOM      6  C   LIG d   1       5.529  -0.688  -4.087  0.00  0.00     0.013 A 
ATOM      7  C   LIG d   1       5.747   0.529  -3.432  0.00  0.00    -0.052 A 
ATOM      8  C   LIG d   1       5.144   0.764  -2.231  0.00  0.00    -0.061 A 
ATOM      9  C   LIG d   1       4.309  -0.188  -1.652  0.00  0.00    -0.060 A 
ATOM     10  C   LIG d   1       4.070  -1.379  -2.266  0.00  0.00    -0.036 A 
ATOM     11  H   LIG d   1       6.304  -2.481  -6.906  0.00  0.00     0.065 H 
ATOM     12  H   LIG d   1       6.392   1.275  -3.871  0.00  0.00     0.062 H 
ATOM     13  H   LIG d   1       5.317   1.702  -1.722  0.00  0.00     0.062 H 
ATOM     14  H   LIG d   1       3.843   0.022  -0.701  0.00  0.00     0.062 H 
ATOM     15  H   LIG d   1       3.419  -2.106  -1.803  0.00  0.00     0.064 H 
ENDROOT
BRANCH   3  16
ATOM     16  C   LIG d   1       4.720  -4.415  -5.917  0.00  0.00     0.004 A 
ATOM     17  C   LIG d   1       3.958  -4.478  -7.083  0.00  0.00    -0.007 A 
ATOM     18  C   LIG d   1       3.693  -5.703  -7.669  0.00  0.00     0.162 A 
ATOM     19  H   LIG d   1       3.579  -3.571  -7.532  0.00  0.00     0.066 H 
ATOM     20  C   LIG d   1       4.178  -6.871  -7.086  0.00  0.00     0.162 A 
ATOM     21  C   LIG d   1       4.931  -6.809  -5.923  0.00  0.00    -0.016 A 
ATOM     22  C   LIG d   1       5.203  -5.589  -5.339  0.00  0.00    -0.049 A 
ATOM     23  H   LIG d   1       5.306  -7.717  -5.474  0.00  0.00     0.066 H 
ATOM     24  H   LIG d   1       5.789  -5.542  -4.434  0.00  0.00     0.062 H 
BRANCH  18  25
ATOM     25  O   LIG d   1       2.954  -5.767  -8.809  0.00  0.00    -0.491 OA
BRANCH  25  26
ATOM     26  C   LIG d   1       3.592  -5.351 -10.019  0.00  0.00     0.079 C 
ATOM     27  H   LIG d   1       2.968  -4.612 -10.522  0.00  0.00     0.066 H 
ATOM     28  H   LIG d   1       4.561  -4.911  -9.786  0.00  0.00     0.066 H 
ATOM     29  H   LIG d   1       3.731  -6.213 -10.671  0.00  0.00     0.066 H 
ENDBRANCH  25  26
ENDBRANCH  18  25
BRANCH  20  30
ATOM     30  O   LIG d   1       3.913  -8.075  -7.659  0.00  0.00    -0.491 OA
BRANCH  30  31
ATOM     31  C   LIG d   1       4.758  -9.168  -7.293  0.00  0.00     0.079 C 
ATOM     32  H   LIG d   1       5.734  -9.045  -7.762  0.00  0.00     0.066 H 
ATOM     33  H   LIG d   1       4.876  -9.190  -6.210  0.00  0.00     0.066 H 
ATOM     34  H   LIG d   1       4.308 -10.103  -7.629  0.00  0.00     0.066 H 
ENDBRANCH  30  31
ENDBRANCH  20  30
ENDBRANCH   3  16
BRANCH   1  35
ATOM     35  C   LIG d   1       7.046  -0.009  -6.041  0.00  0.00     0.244 C 
ATOM     36  N   LIG d   1       8.370  -0.038  -5.795  0.00  0.00    -0.314 N 
ATOM     37  H   LIG d   1       8.736  -0.696  -5.184  0.00  0.00     0.149 HD
ATOM     38  O   LIG d   1       6.587   0.819  -6.803  0.00  0.00    -0.270 OA
BRANCH  36  39
ATOM     39  C   LIG d   1       9.258   0.925  -6.451  0.00  0.00     0.000 C 
ATOM     40  H   LIG d   1       9.784   0.435  -7.270  0.00  0.00     0.043 H 
ATOM     41  H   LIG d   1       8.669   1.755  -6.841  0.00  0.00     0.043 H 
ATOM     42  H   LIG d   1       9.982   1.302  -5.728  0.00  0.00     0.043 H 
ENDBRANCH  36  39
ENDBRANCH   1  35
TORSDOF 7
ENDMDL
