MODEL 1
REMARK VINA RESULT:      -7.0      0.000      0.000
REMARK  8 active torsions:
REMARK  status: ('A' for Active; 'I' for Inactive)
REMARK    1  A    between atoms: C_1  and  C_2 
REMARK    2  A    between atoms: C_2  and  C_4 
REMARK    3  A    between atoms: C_2  and  N_15 
REMARK    4  A    between atoms: C_4  and  C_5 
REMARK       I    between atoms: N_15  and  C_16 
REMARK    5  A    between atoms: C_16  and  C_18 
REMARK    6  A    between atoms: C_18  and  N_19 
REMARK    7  A    between atoms: C_26  and  O_28 
REMARK    8  A    between atoms: O_28  and  C_29 
ROOT
ATOM      1  N   LIG d   1       7.312  -1.115  -6.428  0.00  0.00    -0.311 N 
ATOM      2  C   LIG d   1       6.910   0.089  -6.878  0.00  0.00     0.233 C 
ATOM      3  O   LIG d   1       7.038   1.072  -6.179  0.00  0.00    -0.274 OA
ATOM      4  H   LIG d   1       7.195  -2.007  -7.062  0.00  0.00     0.149 HD
ENDROOT
BRANCH   1   5
ATOM      5  C   LIG d   1       7.903  -1.239  -5.093  0.00  0.00     0.024 C 
ATOM      6  H   LIG d   1       7.711  -0.293  -4.564  0.00  0.00     0.050 H 
BRANCH   5   7
ATOM      7  C   LIG d   1       9.407  -1.488  -5.222  0.00  0.00    -0.046 C 
ATOM      8  H   LIG d   1       9.774  -1.992  -4.316  0.00  0.00     0.025 H 
ATOM      9  H   LIG d   1       9.928  -0.527  -5.344  0.00  0.00     0.025 H 
ATOM     10  H   LIG d   1       9.599  -2.124  -6.099  0.00  0.00     0.025 H 
ENDBRANCH   5   7
BRANCH   5  11
ATOM     11  C   LIG d   1       7.254  -2.411  -4.353  0.00  0.00    -0.007 C 
ATOM     12  H   LIG d   1       7.362  -3.326  -4.953  0.00  0.00     0.033 H 
ATOM     13  H   LIG d   1       7.747  -2.549  -3.381  0.00  0.00     0.033 H 
BRANCH  11  14
ATOM     14  C   LIG d   1       5.791  -2.120  -4.138  0.00  0.00    -0.021 A 
ATOM     15  C   LIG d   1       5.225  -0.962  -3.443  0.00  0.00     0.003 A 
ATOM     16  C   LIG d   1       3.828  -1.120  -3.496  0.00  0.00     0.047 A 
ATOM     17  C   LIG d   1       5.775   0.153  -2.808  0.00  0.00    -0.052 A 
ATOM     18  N   LIG d   1       3.578  -2.296  -4.168  0.00  0.00    -0.360 N 
ATOM     19  C   LIG d   1       3.011  -0.159  -2.912  0.00  0.00    -0.038 A 
ATOM     20  C   LIG d   1       4.759  -2.878  -4.542  0.00  0.00     0.006 A 
ATOM     21  H   LIG d   1       2.622  -2.780  -4.417  0.00  0.00     0.165 HD
ATOM     22  H   LIG d   1       4.847  -3.808  -5.085  0.00  0.00     0.081 H 
ATOM     23  C   LIG d   1       3.575   0.930  -2.284  0.00  0.00    -0.060 A 
ATOM     24  H   LIG d   1       1.937  -0.270  -2.941  0.00  0.00     0.064 H 
ATOM     25  C   LIG d   1       4.954   1.084  -2.237  0.00  0.00    -0.061 A 
ATOM     26  H   LIG d   1       2.939   1.674  -1.829  0.00  0.00     0.062 H 
ATOM     27  H   LIG d   1       5.381   1.946  -1.747  0.00  0.00     0.062 H 
ATOM     28  H   LIG d   1       6.848   0.279  -2.767  0.00  0.00     0.062 H 
ENDBRANCH  11  14
ENDBRANCH   5  11
ENDBRANCH   1   5
BRANCH   2  29
ATOM     29  C   LIG d   1       6.302   0.215  -8.251  0.00  0.00     0.100 C 
ATOM     30  H   LIG d   1       6.487   1.227  -8.642  0.00  0.00     0.059 H 
ATOM     31  H   LIG d   1       6.755  -0.528  -8.924  0.00  0.00     0.059 H 
BRANCH  29  32
ATOM     32  N   LIG d   1       4.857  -0.019  -8.168  0.00  0.00    -0.338 N 
ATOM     33  C   LIG d   1       4.031  -0.261  -9.245  0.00  0.00     0.050 A 
ATOM     34  C   LIG d   1       2.730  -0.430  -8.739  0.00  0.00     0.003 A 
ATOM     35  C   LIG d   1       4.251  -0.356 -10.615  0.00  0.00    -0.034 A 
ATOM     36  C   LIG d   1       2.837  -0.273  -7.286  0.00  0.00    -0.036 A 
ATOM     37  C   LIG d   1       1.670  -0.692  -9.610  0.00  0.00    -0.011 A 
ATOM     38  C   LIG d   1       4.128  -0.030  -7.011  0.00  0.00     0.006 A 
ATOM     39  H   LIG d   1       2.029  -0.339  -6.572  0.00  0.00     0.064 H 
ATOM     40  H   LIG d   1       4.531   0.133  -6.022  0.00  0.00     0.081 H 
ATOM     41  C   LIG d   1       1.909  -0.782 -10.967  0.00  0.00     0.121 A 
ATOM     42  H   LIG d   1       0.670  -0.823  -9.224  0.00  0.00     0.066 H 
ATOM     43  C   LIG d   1       3.200  -0.620 -11.465  0.00  0.00    -0.018 A 
ATOM     44  H   LIG d   1       3.376  -0.697 -12.527  0.00  0.00     0.066 H 
ATOM     45  H   LIG d   1       5.247  -0.227 -11.012  0.00  0.00     0.064 H 
BRANCH  41  46
ATOM     46  O   LIG d   1       0.881  -1.037 -11.819  0.00  0.00    -0.495 OA
BRANCH  46  47
ATOM     47  C   LIG d   1       1.081  -2.071 -12.786  0.00  0.00     0.079 C 
ATOM     48  H   LIG d   1       0.201  -2.135 -13.442  0.00  0.00     0.066 H 
ATOM     49  H   LIG d   1       1.225  -3.032 -12.271  0.00  0.00     0.066 H 
ATOM     50  H   LIG d   1       1.972  -1.841 -13.389  0.00  0.00     0.066 H 
ENDBRANCH  46  47
ENDBRANCH  41  46
ENDBRANCH  29  32
ENDBRANCH   2  29
TORSDOF 8
ENDMDL
MODEL 2
REMARK VINA RESULT:      -6.8      1.581      2.730
REMARK  8 active torsions:
REMARK  status: ('A' for Active; 'I' for Inactive)
REMARK    1  A    between atoms: C_1  and  C_2 
REMARK    2  A    between atoms: C_2  and  C_4 
REMARK    3  A    between atoms: C_2  and  N_15 
REMARK    4  A    between atoms: C_4  and  C_5 
REMARK       I    between atoms: N_15  and  C_16 
REMARK    5  A    between atoms: C_16  and  C_18 
REMARK    6  A    between atoms: C_18  and  N_19 
REMARK    7  A    between atoms: C_26  and  O_28 
REMARK    8  A    between atoms: O_28  and  C_29 
ROOT
ATOM      1  N   LIG d   1       4.024  -2.236  -6.478  0.00  0.00    -0.311 N 
ATOM      2  C   LIG d   1       4.565  -1.153  -7.069  0.00  0.00     0.233 C 
ATOM      3  O   LIG d   1       5.754  -1.120  -7.304  0.00  0.00    -0.274 OA
ATOM      4  H   LIG d   1       2.946  -2.265  -6.263  0.00  0.00     0.149 HD
ENDROOT
BRANCH   1   5
ATOM      5  C   LIG d   1       4.873  -3.376  -6.120  0.00  0.00     0.024 C 
ATOM      6  H   LIG d   1       5.882  -3.163  -6.504  0.00  0.00     0.050 H 
BRANCH   5   7
ATOM      7  C   LIG d   1       4.312  -4.649  -6.757  0.00  0.00    -0.046 C 
ATOM      8  H   LIG d   1       3.483  -4.387  -7.430  0.00  0.00     0.025 H 
ATOM      9  H   LIG d   1       3.945  -5.322  -5.968  0.00  0.00     0.025 H 
ATOM     10  H   LIG d   1       5.105  -5.152  -7.330  0.00  0.00     0.025 H 
ENDBRANCH   5   7
BRANCH   5  11
ATOM     11  C   LIG d   1       4.898  -3.536  -4.599  0.00  0.00    -0.007 C 
ATOM     12  H   LIG d   1       3.871  -3.665  -4.227  0.00  0.00     0.033 H 
ATOM     13  H   LIG d   1       5.498  -4.418  -4.333  0.00  0.00     0.033 H 
BRANCH  11  14
ATOM     14  C   LIG d   1       5.508  -2.307  -3.974  0.00  0.00    -0.021 A 
ATOM     15  C   LIG d   1       4.784  -1.186  -3.371  0.00  0.00     0.003 A 
ATOM     16  C   LIG d   1       5.767  -0.284  -2.924  0.00  0.00     0.047 A 
ATOM     17  C   LIG d   1       3.433  -0.892  -3.181  0.00  0.00    -0.052 A 
ATOM     18  N   LIG d   1       6.992  -0.825  -3.246  0.00  0.00    -0.360 N 
ATOM     19  C   LIG d   1       5.377   0.893  -2.296  0.00  0.00    -0.038 A 
ATOM     20  C   LIG d   1       6.818  -2.030  -3.872  0.00  0.00     0.006 A 
ATOM     21  H   LIG d   1       8.006  -0.435  -3.075  0.00  0.00     0.165 HD
ATOM     22  H   LIG d   1       7.616  -2.664  -4.228  0.00  0.00     0.081 H 
ATOM     23  C   LIG d   1       4.037   1.167  -2.126  0.00  0.00    -0.060 A 
ATOM     24  H   LIG d   1       6.120   1.597  -1.952  0.00  0.00     0.064 H 
ATOM     25  C   LIG d   1       3.070   0.273  -2.565  0.00  0.00    -0.061 A 
ATOM     26  H   LIG d   1       3.735   2.083  -1.640  0.00  0.00     0.062 H 
ATOM     27  H   LIG d   1       2.025   0.498  -2.419  0.00  0.00     0.062 H 
ATOM     28  H   LIG d   1       2.675  -1.583  -3.522  0.00  0.00     0.062 H 
ENDBRANCH  11  14
ENDBRANCH   5  11
ENDBRANCH   1   5
BRANCH   2  29
ATOM     29  C   LIG d   1       3.692   0.019  -7.436  0.00  0.00     0.100 C 
ATOM     30  H   LIG d   1       2.677  -0.143  -7.043  0.00  0.00     0.059 H 
ATOM     31  H   LIG d   1       4.111   0.940  -7.002  0.00  0.00     0.059 H 
BRANCH  29  32
ATOM     32  N   LIG d   1       3.636   0.149  -8.894  0.00  0.00    -0.338 N 
ATOM     33  C   LIG d   1       2.911  -0.669  -9.735  0.00  0.00     0.050 A 
ATOM     34  C   LIG d   1       3.126  -0.210 -11.047  0.00  0.00     0.003 A 
ATOM     35  C   LIG d   1       2.083  -1.767  -9.520  0.00  0.00    -0.034 A 
ATOM     36  C   LIG d   1       4.028   0.939 -10.930  0.00  0.00    -0.036 A 
ATOM     37  C   LIG d   1       2.510  -0.854 -12.122  0.00  0.00    -0.011 A 
ATOM     38  C   LIG d   1       4.293   1.099  -9.625  0.00  0.00     0.006 A 
ATOM     39  H   LIG d   1       4.408   1.541 -11.743  0.00  0.00     0.064 H 
ATOM     40  H   LIG d   1       4.932   1.867  -9.212  0.00  0.00     0.081 H 
ATOM     41  C   LIG d   1       1.693  -1.942 -11.888  0.00  0.00     0.121 A 
ATOM     42  H   LIG d   1       2.673  -0.503 -13.130  0.00  0.00     0.066 H 
ATOM     43  C   LIG d   1       1.477  -2.391 -10.587  0.00  0.00    -0.018 A 
ATOM     44  H   LIG d   1       0.832  -3.240 -10.416  0.00  0.00     0.066 H 
ATOM     45  H   LIG d   1       1.913  -2.127  -8.516  0.00  0.00     0.064 H 
BRANCH  41  46
ATOM     46  O   LIG d   1       1.091  -2.573 -12.931  0.00  0.00    -0.495 OA
BRANCH  46  47
ATOM     47  C   LIG d   1      -0.249  -2.182 -13.239  0.00  0.00     0.079 C 
ATOM     48  H   LIG d   1      -0.832  -2.107 -12.310  0.00  0.00     0.066 H 
ATOM     49  H   LIG d   1      -0.707  -2.933 -13.900  0.00  0.00     0.066 H 
ATOM     50  H   LIG d   1      -0.239  -1.205 -13.745  0.00  0.00     0.066 H 
ENDBRANCH  46  47
ENDBRANCH  41  46
ENDBRANCH  29  32
ENDBRANCH   2  29
TORSDOF 8
ENDMDL
MODEL 3
REMARK VINA RESULT:      -6.7      2.946      6.628
REMARK  8 active torsions:
REMARK  status: ('A' for Active; 'I' for Inactive)
REMARK    1  A    between atoms: C_1  and  C_2 
REMARK    2  A    between atoms: C_2  and  C_4 
REMARK    3  A    between atoms: C_2  and  N_15 
REMARK    4  A    between atoms: C_4  and  C_5 
REMARK       I    between atoms: N_15  and  C_16 
REMARK    5  A    between atoms: C_16  and  C_18 
REMARK    6  A    between atoms: C_18  and  N_19 
REMARK    7  A    between atoms: C_26  and  O_28 
REMARK    8  A    between atoms: O_28  and  C_29 
ROOT
ATOM      1  N   LIG d   1       5.124   1.146  -7.856  0.00  0.00    -0.311 N 
ATOM      2  C   LIG d   1       6.263   0.482  -8.134  0.00  0.00     0.233 C 
ATOM      3  O   LIG d   1       6.215  -0.625  -8.627  0.00  0.00    -0.274 OA
ATOM      4  H   LIG d   1       5.168   2.149  -7.407  0.00  0.00     0.149 HD
ENDROOT
BRANCH   1   5
ATOM      5  C   LIG d   1       3.827   0.532  -8.151  0.00  0.00     0.024 C 
ATOM      6  H   LIG d   1       4.024  -0.496  -8.490  0.00  0.00     0.050 H 
BRANCH   5   7
ATOM      7  C   LIG d   1       3.121   1.334  -9.246  0.00  0.00    -0.046 C 
ATOM      8  H   LIG d   1       2.573   2.172  -8.791  0.00  0.00     0.025 H 
ATOM      9  H   LIG d   1       2.414   0.682  -9.780  0.00  0.00     0.025 H 
ATOM     10  H   LIG d   1       3.867   1.723  -9.954  0.00  0.00     0.025 H 
ENDBRANCH   5   7
BRANCH   5  11
ATOM     11  C   LIG d   1       2.965   0.527  -6.887  0.00  0.00    -0.007 C 
ATOM     12  H   LIG d   1       2.930   1.541  -6.464  0.00  0.00     0.033 H 
ATOM     13  H   LIG d   1       1.946   0.200  -7.139  0.00  0.00     0.033 H 
BRANCH  11  14
ATOM     14  C   LIG d   1       3.561  -0.419  -5.877  0.00  0.00    -0.021 A 
ATOM     15  C   LIG d   1       3.756  -0.160  -4.449  0.00  0.00     0.003 A 
ATOM     16  C   LIG d   1       4.337  -1.326  -3.917  0.00  0.00     0.047 A 
ATOM     17  C   LIG d   1       3.490   0.927  -3.615  0.00  0.00    -0.052 A 
ATOM     18  N   LIG d   1       4.487  -2.216  -4.958  0.00  0.00    -0.360 N 
ATOM     19  C   LIG d   1       4.640  -1.379  -2.561  0.00  0.00    -0.038 A 
ATOM     20  C   LIG d   1       4.020  -1.658  -6.117  0.00  0.00     0.006 A 
ATOM     21  H   LIG d   1       4.903  -3.234  -4.964  0.00  0.00     0.165 HD
ATOM     22  H   LIG d   1       4.018  -2.144  -7.082  0.00  0.00     0.081 H 
ATOM     23  C   LIG d   1       4.376  -0.291  -1.758  0.00  0.00    -0.060 A 
ATOM     24  H   LIG d   1       5.090  -2.266  -2.141  0.00  0.00     0.064 H 
ATOM     25  C   LIG d   1       3.799   0.856  -2.285  0.00  0.00    -0.061 A 
ATOM     26  H   LIG d   1       4.613  -0.333  -0.705  0.00  0.00     0.062 H 
ATOM     27  H   LIG d   1       3.592   1.697  -1.641  0.00  0.00     0.062 H 
ATOM     28  H   LIG d   1       3.042   1.824  -4.019  0.00  0.00     0.062 H 
ENDBRANCH  11  14
ENDBRANCH   5  11
ENDBRANCH   1   5
BRANCH   2  29
ATOM     29  C   LIG d   1       7.596   1.114  -7.829  0.00  0.00     0.100 C 
ATOM     30  H   LIG d   1       8.398   0.518  -8.291  0.00  0.00     0.059 H 
ATOM     31  H   LIG d   1       7.620   2.137  -8.233  0.00  0.00     0.059 H 
BRANCH  29  32
ATOM     32  N   LIG d   1       7.796   1.158  -6.378  0.00  0.00    -0.338 N 
ATOM     33  C   LIG d   1       8.512   2.126  -5.706  0.00  0.00     0.050 A 
ATOM     34  C   LIG d   1       8.460   1.804  -4.337  0.00  0.00     0.003 A 
ATOM     35  C   LIG d   1       9.207   3.258  -6.118  0.00  0.00    -0.034 A 
ATOM     36  C   LIG d   1       7.665   0.577  -4.240  0.00  0.00    -0.036 A 
ATOM     37  C   LIG d   1       9.106   2.618  -3.404  0.00  0.00    -0.011 A 
ATOM     38  C   LIG d   1       7.300   0.245  -5.488  0.00  0.00     0.006 A 
ATOM     39  H   LIG d   1       7.420   0.042  -3.335  0.00  0.00     0.064 H 
ATOM     40  H   LIG d   1       6.703  -0.616  -5.751  0.00  0.00     0.081 H 
ATOM     41  C   LIG d   1       9.791   3.737  -3.833  0.00  0.00     0.121 A 
ATOM     42  H   LIG d   1       9.068   2.373  -2.353  0.00  0.00     0.066 H 
ATOM     43  C   LIG d   1       9.835   4.057  -5.188  0.00  0.00    -0.018 A 
ATOM     44  H   LIG d   1      10.370   4.937  -5.511  0.00  0.00     0.066 H 
ATOM     45  H   LIG d   1       9.252   3.513  -7.166  0.00  0.00     0.064 H 
BRANCH  41  46
ATOM     46  O   LIG d   1      10.420   4.533  -2.928  0.00  0.00    -0.495 OA
BRANCH  46  47
ATOM     47  C   LIG d   1       9.843   5.818  -2.683  0.00  0.00     0.079 C 
ATOM     48  H   LIG d   1      10.444   6.591  -3.184  0.00  0.00     0.066 H 
ATOM     49  H   LIG d   1       9.826   6.011  -1.600  0.00  0.00     0.066 H 
ATOM     50  H   LIG d   1       8.816   5.839  -3.076  0.00  0.00     0.066 H 
ENDBRANCH  46  47
ENDBRANCH  41  46
ENDBRANCH  29  32
ENDBRANCH   2  29
TORSDOF 8
ENDMDL
MODEL 4
REMARK VINA RESULT:      -6.4      2.486      5.579
REMARK  8 active torsions:
REMARK  status: ('A' for Active; 'I' for Inactive)
REMARK    1  A    between atoms: C_1  and  C_2 
REMARK    2  A    between atoms: C_2  and  C_4 
REMARK    3  A    between atoms: C_2  and  N_15 
REMARK    4  A    between atoms: C_4  and  C_5 
REMARK       I    between atoms: N_15  and  C_16 
REMARK    5  A    between atoms: C_16  and  C_18 
REMARK    6  A    between atoms: C_18  and  N_19 
REMARK    7  A    between atoms: C_26  and  O_28 
REMARK    8  A    between atoms: O_28  and  C_29 
ROOT
ATOM      1  N   LIG d   1       5.474   1.080  -7.717  0.00  0.00    -0.311 N 
ATOM      2  C   LIG d   1       6.620   0.622  -8.256  0.00  0.00     0.233 C 
ATOM      3  O   LIG d   1       6.604   0.066  -9.334  0.00  0.00    -0.274 OA
ATOM      4  H   LIG d   1       5.489   1.583  -6.739  0.00  0.00     0.149 HD
ENDROOT
BRANCH   1   5
ATOM      5  C   LIG d   1       4.207   0.908  -8.433  0.00  0.00     0.024 C 
ATOM      6  H   LIG d   1       4.356   0.103  -9.168  0.00  0.00     0.050 H 
BRANCH   5   7
ATOM      7  C   LIG d   1       3.836   2.216  -9.135  0.00  0.00    -0.046 C 
ATOM      8  H   LIG d   1       4.709   2.597  -9.685  0.00  0.00     0.025 H 
ATOM      9  H   LIG d   1       3.524   2.958  -8.386  0.00  0.00     0.025 H 
ATOM     10  H   LIG d   1       3.011   2.033  -9.838  0.00  0.00     0.025 H 
ENDBRANCH   5   7
BRANCH   5  11
ATOM     11  C   LIG d   1       3.106   0.533  -7.440  0.00  0.00    -0.007 C 
ATOM     12  H   LIG d   1       2.819   1.422  -6.859  0.00  0.00     0.033 H 
ATOM     13  H   LIG d   1       2.231   0.155  -7.987  0.00  0.00     0.033 H 
BRANCH  11  14
ATOM     14  C   LIG d   1       3.615  -0.535  -6.505  0.00  0.00    -0.021 A 
ATOM     15  C   LIG d   1       3.611  -0.486  -5.042  0.00  0.00     0.003 A 
ATOM     16  C   LIG d   1       4.178  -1.700  -4.611  0.00  0.00     0.047 A 
ATOM     17  C   LIG d   1       3.186   0.455  -4.103  0.00  0.00    -0.052 A 
ATOM     18  N   LIG d   1       4.505  -2.419  -5.739  0.00  0.00    -0.360 N 
ATOM     19  C   LIG d   1       4.307  -1.946  -3.249  0.00  0.00    -0.038 A 
ATOM     20  C   LIG d   1       4.162  -1.709  -6.858  0.00  0.00     0.006 A 
ATOM     21  H   LIG d   1       4.969  -3.411  -5.837  0.00  0.00     0.165 HD
ATOM     22  H   LIG d   1       4.309  -2.045  -7.874  0.00  0.00     0.081 H 
ATOM     23  C   LIG d   1       3.887  -0.999  -2.339  0.00  0.00    -0.060 A 
ATOM     24  H   LIG d   1       4.744  -2.871  -2.904  0.00  0.00     0.064 H 
ATOM     25  C   LIG d   1       3.326   0.195  -2.768  0.00  0.00    -0.061 A 
ATOM     26  H   LIG d   1       3.990  -1.191  -1.281  0.00  0.00     0.062 H 
ATOM     27  H   LIG d   1       2.995   0.923  -2.043  0.00  0.00     0.062 H 
ATOM     28  H   LIG d   1       2.749   1.388  -4.430  0.00  0.00     0.062 H 
ENDBRANCH  11  14
ENDBRANCH   5  11
ENDBRANCH   1   5
BRANCH   2  29
ATOM     29  C   LIG d   1       7.922   0.798  -7.519  0.00  0.00     0.100 C 
ATOM     30  H   LIG d   1       8.731   0.310  -8.083  0.00  0.00     0.059 H 
ATOM     31  H   LIG d   1       8.143   1.871  -7.414  0.00  0.00     0.059 H 
BRANCH  29  32
ATOM     32  N   LIG d   1       7.818   0.188  -6.191  0.00  0.00    -0.338 N 
ATOM     33  C   LIG d   1       7.939  -1.159  -5.925  0.00  0.00     0.050 A 
ATOM     34  C   LIG d   1       7.776  -1.324  -4.538  0.00  0.00     0.003 A 
ATOM     35  C   LIG d   1       8.174  -2.273  -6.725  0.00  0.00    -0.034 A 
ATOM     36  C   LIG d   1       7.550   0.017  -3.994  0.00  0.00    -0.036 A 
ATOM     37  C   LIG d   1       7.849  -2.600  -3.973  0.00  0.00    -0.011 A 
ATOM     38  C   LIG d   1       7.586   0.872  -5.029  0.00  0.00     0.006 A 
ATOM     39  H   LIG d   1       7.384   0.270  -2.958  0.00  0.00     0.064 H 
ATOM     40  H   LIG d   1       7.453   1.941  -4.954  0.00  0.00     0.081 H 
ATOM     41  C   LIG d   1       8.083  -3.693  -4.785  0.00  0.00     0.121 A 
ATOM     42  H   LIG d   1       7.725  -2.729  -2.908  0.00  0.00     0.066 H 
ATOM     43  C   LIG d   1       8.250  -3.525  -6.157  0.00  0.00    -0.018 A 
ATOM     44  H   LIG d   1       8.436  -4.386  -6.781  0.00  0.00     0.066 H 
ATOM     45  H   LIG d   1       8.300  -2.155  -7.791  0.00  0.00     0.064 H 
BRANCH  41  46
ATOM     46  O   LIG d   1       8.155  -4.936  -4.239  0.00  0.00    -0.495 OA
BRANCH  46  47
ATOM     47  C   LIG d   1       8.101  -6.043  -5.142  0.00  0.00     0.079 C 
ATOM     48  H   LIG d   1       8.853  -5.909  -5.933  0.00  0.00     0.066 H 
ATOM     49  H   LIG d   1       7.100  -6.100  -5.593  0.00  0.00     0.066 H 
ATOM     50  H   LIG d   1       8.309  -6.974  -4.593  0.00  0.00     0.066 H 
ENDBRANCH  46  47
ENDBRANCH  41  46
ENDBRANCH  29  32
ENDBRANCH   2  29
TORSDOF 8
ENDMDL
MODEL 5
REMARK VINA RESULT:      -6.3      3.039      6.838
REMARK  8 active torsions:
REMARK  status: ('A' for Active; 'I' for Inactive)
REMARK    1  A    between atoms: C_1  and  C_2 
REMARK    2  A    between atoms: C_2  and  C_4 
REMARK    3  A    between atoms: C_2  and  N_15 
REMARK    4  A    between atoms: C_4  and  C_5 
REMARK       I    between atoms: N_15  and  C_16 
REMARK    5  A    between atoms: C_16  and  C_18 
REMARK    6  A    between atoms: C_18  and  N_19 
REMARK    7  A    between atoms: C_26  and  O_28 
REMARK    8  A    between atoms: O_28  and  C_29 
ROOT
ATOM      1  N   LIG d   1       4.731  -5.260  -7.714  0.00  0.00    -0.311 N 
ATOM      2  C   LIG d   1       4.418  -5.239  -6.404  0.00  0.00     0.233 C 
ATOM      3  O   LIG d   1       3.257  -5.186  -6.058  0.00  0.00    -0.274 OA
ATOM      4  H   LIG d   1       5.784  -5.307  -8.028  0.00  0.00     0.149 HD
ENDROOT
BRANCH   1   5
ATOM      5  C   LIG d   1       3.668  -5.219  -8.722  0.00  0.00     0.024 C 
ATOM      6  H   LIG d   1       2.747  -4.901  -8.210  0.00  0.00     0.050 H 
BRANCH   5   7
ATOM      7  C   LIG d   1       3.490  -6.610  -9.333  0.00  0.00    -0.046 C 
ATOM      8  H   LIG d   1       2.639  -6.600 -10.028  0.00  0.00     0.025 H 
ATOM      9  H   LIG d   1       3.301  -7.341  -8.533  0.00  0.00     0.025 H 
ATOM     10  H   LIG d   1       4.404  -6.891  -9.877  0.00  0.00     0.025 H 
ENDBRANCH   5   7
BRANCH   5  11
ATOM     11  C   LIG d   1       4.044  -4.224  -9.821  0.00  0.00    -0.007 C 
ATOM     12  H   LIG d   1       5.107  -3.958  -9.726  0.00  0.00     0.033 H 
ATOM     13  H   LIG d   1       3.867  -4.681 -10.805  0.00  0.00     0.033 H 
BRANCH  11  14
ATOM     14  C   LIG d   1       3.201  -2.982  -9.684  0.00  0.00    -0.021 A 
ATOM     15  C   LIG d   1       3.371  -1.919  -8.690  0.00  0.00     0.003 A 
ATOM     16  C   LIG d   1       2.361  -0.975  -8.954  0.00  0.00     0.047 A 
ATOM     17  C   LIG d   1       4.266  -1.705  -7.642  0.00  0.00    -0.052 A 
ATOM     18  N   LIG d   1       1.634  -1.447 -10.026  0.00  0.00    -0.360 N 
ATOM     19  C   LIG d   1       2.270   0.164  -8.163  0.00  0.00    -0.038 A 
ATOM     20  C   LIG d   1       2.149  -2.643 -10.446  0.00  0.00     0.006 A 
ATOM     21  H   LIG d   1       0.764  -1.011 -10.537  0.00  0.00     0.165 HD
ATOM     22  H   LIG d   1       1.767  -3.227 -11.271  0.00  0.00     0.081 H 
ATOM     23  C   LIG d   1       3.160   0.352  -7.128  0.00  0.00    -0.060 A 
ATOM     24  H   LIG d   1       1.497   0.895  -8.352  0.00  0.00     0.064 H 
ATOM     25  C   LIG d   1       4.156  -0.580  -6.873  0.00  0.00    -0.061 A 
ATOM     26  H   LIG d   1       3.087   1.237  -6.513  0.00  0.00     0.062 H 
ATOM     27  H   LIG d   1       4.851  -0.415  -6.063  0.00  0.00     0.062 H 
ATOM     28  H   LIG d   1       5.044  -2.426  -7.437  0.00  0.00     0.062 H 
ENDBRANCH  11  14
ENDBRANCH   5  11
ENDBRANCH   1   5
BRANCH   2  29
ATOM     29  C   LIG d   1       5.512  -5.281  -5.368  0.00  0.00     0.100 C 
ATOM     30  H   LIG d   1       5.109  -5.682  -4.426  0.00  0.00     0.059 H 
ATOM     31  H   LIG d   1       6.330  -5.926  -5.722  0.00  0.00     0.059 H 
BRANCH  29  32
ATOM     32  N   LIG d   1       6.023  -3.926  -5.143  0.00  0.00    -0.338 N 
ATOM     33  C   LIG d   1       5.483  -3.012  -4.263  0.00  0.00     0.050 A 
ATOM     34  C   LIG d   1       6.263  -1.844  -4.348  0.00  0.00     0.003 A 
ATOM     35  C   LIG d   1       4.401  -3.051  -3.389  0.00  0.00    -0.034 A 
ATOM     36  C   LIG d   1       7.305  -2.125  -5.340  0.00  0.00    -0.036 A 
ATOM     37  C   LIG d   1       5.949  -0.735  -3.559  0.00  0.00    -0.011 A 
ATOM     38  C   LIG d   1       7.105  -3.379  -5.774  0.00  0.00     0.006 A 
ATOM     39  H   LIG d   1       8.084  -1.449  -5.660  0.00  0.00     0.064 H 
ATOM     40  H   LIG d   1       7.711  -3.882  -6.514  0.00  0.00     0.081 H 
ATOM     41  C   LIG d   1       4.871  -0.794  -2.698  0.00  0.00     0.121 A 
ATOM     42  H   LIG d   1       6.546   0.162  -3.623  0.00  0.00     0.066 H 
ATOM     43  C   LIG d   1       4.104  -1.953  -2.612  0.00  0.00    -0.018 A 
ATOM     44  H   LIG d   1       3.266  -1.990  -1.932  0.00  0.00     0.066 H 
ATOM     45  H   LIG d   1       3.797  -3.943  -3.317  0.00  0.00     0.064 H 
BRANCH  41  46
ATOM     46  O   LIG d   1       4.561   0.283  -1.928  0.00  0.00    -0.495 OA
BRANCH  46  47
ATOM     47  C   LIG d   1       3.609   1.208  -2.460  0.00  0.00     0.079 C 
ATOM     48  H   LIG d   1       3.423   0.974  -3.519  0.00  0.00     0.066 H 
ATOM     49  H   LIG d   1       4.005   2.231  -2.375  0.00  0.00     0.066 H 
ATOM     50  H   LIG d   1       2.668   1.130  -1.896  0.00  0.00     0.066 H 
ENDBRANCH  46  47
ENDBRANCH  41  46
ENDBRANCH  29  32
ENDBRANCH   2  29
TORSDOF 8
ENDMDL
MODEL 6
REMARK VINA RESULT:      -6.3      5.101      8.562
REMARK  8 active torsions:
REMARK  status: ('A' for Active; 'I' for Inactive)
REMARK    1  A    between atoms: C_1  and  C_2 
REMARK    2  A    between atoms: C_2  and  C_4 
REMARK    3  A    between atoms: C_2  and  N_15 
REMARK    4  A    between atoms: C_4  and  C_5 
REMARK       I    between atoms: N_15  and  C_16 
REMARK    5  A    between atoms: C_16  and  C_18 
REMARK    6  A    between atoms: C_18  and  N_19 
REMARK    7  A    between atoms: C_26  and  O_28 
REMARK    8  A    between atoms: O_28  and  C_29 
ROOT
ATOM      1  N   LIG d   1       9.412   0.685  -4.691  0.00  0.00    -0.311 N 
ATOM      2  C   LIG d   1       9.352   1.859  -4.034  0.00  0.00     0.233 C 
ATOM      3  O   LIG d   1       8.343   2.170  -3.437  0.00  0.00    -0.274 OA
ATOM      4  H   LIG d   1      10.327   0.404  -5.233  0.00  0.00     0.149 HD
ENDROOT
BRANCH   1   5
ATOM      5  C   LIG d   1       8.258  -0.219  -4.684  0.00  0.00     0.024 C 
ATOM      6  H   LIG d   1       7.787  -0.137  -3.693  0.00  0.00     0.050 H 
BRANCH   5   7
ATOM      7  C   LIG d   1       8.732  -1.652  -4.937  0.00  0.00    -0.046 C 
ATOM      8  H   LIG d   1       9.272  -1.696  -5.894  0.00  0.00     0.025 H 
ATOM      9  H   LIG d   1       7.862  -2.323  -4.976  0.00  0.00     0.025 H 
ATOM     10  H   LIG d   1       9.401  -1.965  -4.123  0.00  0.00     0.025 H 
ENDBRANCH   5   7
BRANCH   5  11
ATOM     11  C   LIG d   1       7.278   0.195  -5.783  0.00  0.00    -0.007 C 
ATOM     12  H   LIG d   1       7.227   1.293  -5.833  0.00  0.00     0.033 H 
ATOM     13  H   LIG d   1       7.622  -0.200  -6.749  0.00  0.00     0.033 H 
BRANCH  11  14
ATOM     14  C   LIG d   1       5.911  -0.358  -5.471  0.00  0.00    -0.021 A 
ATOM     15  C   LIG d   1       5.113  -0.085  -4.274  0.00  0.00     0.003 A 
ATOM     16  C   LIG d   1       3.919  -0.815  -4.428  0.00  0.00     0.047 A 
ATOM     17  C   LIG d   1       5.311   0.691  -3.132  0.00  0.00    -0.052 A 
ATOM     18  N   LIG d   1       4.004  -1.483  -5.630  0.00  0.00    -0.360 N 
ATOM     19  C   LIG d   1       2.948  -0.750  -3.435  0.00  0.00    -0.038 A 
ATOM     20  C   LIG d   1       5.197  -1.199  -6.237  0.00  0.00     0.006 A 
ATOM     21  H   LIG d   1       3.286  -2.159  -6.116  0.00  0.00     0.165 HD
ATOM     22  H   LIG d   1       5.516  -1.592  -7.191  0.00  0.00     0.081 H 
ATOM     23  C   LIG d   1       3.168   0.017  -2.312  0.00  0.00    -0.060 A 
ATOM     24  H   LIG d   1       2.029  -1.308  -3.539  0.00  0.00     0.064 H 
ATOM     25  C   LIG d   1       4.345   0.737  -2.165  0.00  0.00    -0.061 A 
ATOM     26  H   LIG d   1       2.414   0.064  -1.541  0.00  0.00     0.062 H 
ATOM     27  H   LIG d   1       4.499   1.339  -1.283  0.00  0.00     0.062 H 
ATOM     28  H   LIG d   1       6.225   1.254  -3.010  0.00  0.00     0.062 H 
ENDBRANCH  11  14
ENDBRANCH   5  11
ENDBRANCH   1   5
BRANCH   2  29
ATOM     29  C   LIG d   1      10.538   2.788  -4.042  0.00  0.00     0.100 C 
ATOM     30  H   LIG d   1      11.182   2.568  -3.178  0.00  0.00     0.059 H 
ATOM     31  H   LIG d   1      11.109   2.648  -4.972  0.00  0.00     0.059 H 
BRANCH  29  32
ATOM     32  N   LIG d   1      10.072   4.176  -3.962  0.00  0.00    -0.338 N 
ATOM     33  C   LIG d   1      10.179   4.984  -2.850  0.00  0.00     0.050 A 
ATOM     34  C   LIG d   1       9.617   6.228  -3.186  0.00  0.00     0.003 A 
ATOM     35  C   LIG d   1      10.700   4.790  -1.574  0.00  0.00    -0.034 A 
ATOM     36  C   LIG d   1       9.168   6.107  -4.576  0.00  0.00    -0.036 A 
ATOM     37  C   LIG d   1       9.584   7.258  -2.244  0.00  0.00    -0.011 A 
ATOM     38  C   LIG d   1       9.468   4.862  -4.978  0.00  0.00     0.006 A 
ATOM     39  H   LIG d   1       8.686   6.874  -5.164  0.00  0.00     0.064 H 
ATOM     40  H   LIG d   1       9.262   4.462  -5.960  0.00  0.00     0.081 H 
ATOM     41  C   LIG d   1      10.107   7.046  -0.983  0.00  0.00     0.121 A 
ATOM     42  H   LIG d   1       9.153   8.215  -2.500  0.00  0.00     0.066 H 
ATOM     43  C   LIG d   1      10.668   5.814  -0.654  0.00  0.00    -0.018 A 
ATOM     44  H   LIG d   1      11.078   5.661   0.332  0.00  0.00     0.066 H 
ATOM     45  H   LIG d   1      11.133   3.838  -1.307  0.00  0.00     0.064 H 
BRANCH  41  46
ATOM     46  O   LIG d   1      10.078   8.045  -0.062  0.00  0.00    -0.495 OA
BRANCH  46  47
ATOM     47  C   LIG d   1       9.753   9.354  -0.536  0.00  0.00     0.079 C 
ATOM     48  H   LIG d   1       9.924  10.087   0.265  0.00  0.00     0.066 H 
ATOM     49  H   LIG d   1       8.695   9.382  -0.839  0.00  0.00     0.066 H 
ATOM     50  H   LIG d   1      10.388   9.600  -1.400  0.00  0.00     0.066 H 
ENDBRANCH  46  47
ENDBRANCH  41  46
ENDBRANCH  29  32
ENDBRANCH   2  29
TORSDOF 8
ENDMDL
MODEL 7
REMARK VINA RESULT:      -6.3      5.096      8.084
REMARK  8 active torsions:
REMARK  status: ('A' for Active; 'I' for Inactive)
REMARK    1  A    between atoms: C_1  and  C_2 
REMARK    2  A    between atoms: C_2  and  C_4 
REMARK    3  A    between atoms: C_2  and  N_15 
REMARK    4  A    between atoms: C_4  and  C_5 
REMARK       I    between atoms: N_15  and  C_16 
REMARK    5  A    between atoms: C_16  and  C_18 
REMARK    6  A    between atoms: C_18  and  N_19 
REMARK    7  A    between atoms: C_26  and  O_28 
REMARK    8  A    between atoms: O_28  and  C_29 
ROOT
ATOM      1  N   LIG d   1       8.900  -3.794  -4.917  0.00  0.00    -0.311 N 
ATOM      2  C   LIG d   1       8.485  -4.991  -5.375  0.00  0.00     0.233 C 
ATOM      3  O   LIG d   1       7.357  -5.121  -5.801  0.00  0.00    -0.274 OA
ATOM      4  H   LIG d   1       9.922  -3.677  -4.530  0.00  0.00     0.149 HD
ENDROOT
BRANCH   1   5
ATOM      5  C   LIG d   1       7.988  -2.647  -4.934  0.00  0.00     0.024 C 
ATOM      6  H   LIG d   1       7.194  -2.873  -5.662  0.00  0.00     0.050 H 
BRANCH   5   7
ATOM      7  C   LIG d   1       8.756  -1.391  -5.349  0.00  0.00    -0.046 C 
ATOM      8  H   LIG d   1       9.831  -1.544  -5.175  0.00  0.00     0.025 H 
ATOM      9  H   LIG d   1       8.408  -0.535  -4.753  0.00  0.00     0.025 H 
ATOM     10  H   LIG d   1       8.582  -1.190  -6.416  0.00  0.00     0.025 H 
ENDBRANCH   5   7
BRANCH   5  11
ATOM     11  C   LIG d   1       7.397  -2.445  -3.538  0.00  0.00    -0.007 C 
ATOM     12  H   LIG d   1       7.574  -3.344  -2.931  0.00  0.00     0.033 H 
ATOM     13  H   LIG d   1       7.875  -1.579  -3.058  0.00  0.00     0.033 H 
BRANCH  11  14
ATOM     14  C   LIG d   1       5.913  -2.200  -3.651  0.00  0.00    -0.021 A 
ATOM     15  C   LIG d   1       5.183  -1.031  -3.155  0.00  0.00     0.003 A 
ATOM     16  C   LIG d   1       3.833  -1.245  -3.491  0.00  0.00     0.047 A 
ATOM     17  C   LIG d   1       5.556   0.133  -2.482  0.00  0.00    -0.052 A 
ATOM     18  N   LIG d   1       3.763  -2.461  -4.135  0.00  0.00    -0.360 N 
ATOM     19  C   LIG d   1       2.886  -0.288  -3.147  0.00  0.00    -0.038 A 
ATOM     20  C   LIG d   1       5.011  -3.014  -4.220  0.00  0.00     0.006 A 
ATOM     21  H   LIG d   1       2.894  -2.992  -4.552  0.00  0.00     0.165 HD
ATOM     22  H   LIG d   1       5.237  -3.966  -4.679  0.00  0.00     0.081 H 
ATOM     23  C   LIG d   1       3.275   0.851  -2.475  0.00  0.00    -0.060 A 
ATOM     24  H   LIG d   1       1.846  -0.441  -3.395  0.00  0.00     0.064 H 
ATOM     25  C   LIG d   1       4.608   1.059  -2.149  0.00  0.00    -0.061 A 
ATOM     26  H   LIG d   1       2.537   1.592  -2.207  0.00  0.00     0.062 H 
ATOM     27  H   LIG d   1       4.898   1.960  -1.629  0.00  0.00     0.062 H 
ATOM     28  H   LIG d   1       6.592   0.302  -2.224  0.00  0.00     0.062 H 
ENDBRANCH  11  14
ENDBRANCH   5  11
ENDBRANCH   1   5
BRANCH   2  29
ATOM     29  C   LIG d   1       9.423  -6.170  -5.357  0.00  0.00     0.100 C 
ATOM     30  H   LIG d   1       9.169  -6.853  -6.182  0.00  0.00     0.059 H 
ATOM     31  H   LIG d   1      10.459  -5.818  -5.477  0.00  0.00     0.059 H 
BRANCH  29  32
ATOM     32  N   LIG d   1       9.293  -6.878  -4.081  0.00  0.00    -0.338 N 
ATOM     33  C   LIG d   1       8.371  -7.867  -3.813  0.00  0.00     0.050 A 
ATOM     34  C   LIG d   1       8.580  -8.281  -2.485  0.00  0.00     0.003 A 
ATOM     35  C   LIG d   1       7.367  -8.466  -4.568  0.00  0.00    -0.034 A 
ATOM     36  C   LIG d   1       9.691  -7.470  -1.979  0.00  0.00    -0.036 A 
ATOM     37  C   LIG d   1       7.782  -9.285  -1.933  0.00  0.00    -0.011 A 
ATOM     38  C   LIG d   1      10.069  -6.656  -2.977  0.00  0.00     0.006 A 
ATOM     39  H   LIG d   1      10.122  -7.519  -0.990  0.00  0.00     0.064 H 
ATOM     40  H   LIG d   1      10.869  -5.932  -2.916  0.00  0.00     0.081 H 
ATOM     41  C   LIG d   1       6.790  -9.867  -2.698  0.00  0.00     0.121 A 
ATOM     42  H   LIG d   1       7.941  -9.605  -0.913  0.00  0.00     0.066 H 
ATOM     43  C   LIG d   1       6.590  -9.459  -4.014  0.00  0.00    -0.018 A 
ATOM     44  H   LIG d   1       5.814  -9.924  -4.605  0.00  0.00     0.066 H 
ATOM     45  H   LIG d   1       7.199  -8.154  -5.588  0.00  0.00     0.064 H 
BRANCH  41  46
ATOM     46  O   LIG d   1       6.011 -10.845  -2.164  0.00  0.00    -0.495 OA
BRANCH  46  47
ATOM     47  C   LIG d   1       6.348 -11.298  -0.851  0.00  0.00     0.079 C 
ATOM     48  H   LIG d   1       7.440 -11.272  -0.724  0.00  0.00     0.066 H 
ATOM     49  H   LIG d   1       5.987 -12.328  -0.715  0.00  0.00     0.066 H 
ATOM     50  H   LIG d   1       5.876 -10.642  -0.105  0.00  0.00     0.066 H 
ENDBRANCH  46  47
ENDBRANCH  41  46
ENDBRANCH  29  32
ENDBRANCH   2  29
TORSDOF 8
ENDMDL
MODEL 8
REMARK VINA RESULT:      -6.3      5.801      9.493
REMARK  8 active torsions:
REMARK  status: ('A' for Active; 'I' for Inactive)
REMARK    1  A    between atoms: C_1  and  C_2 
REMARK    2  A    between atoms: C_2  and  C_4 
REMARK    3  A    between atoms: C_2  and  N_15 
REMARK    4  A    between atoms: C_4  and  C_5 
REMARK       I    between atoms: N_15  and  C_16 
REMARK    5  A    between atoms: C_16  and  C_18 
REMARK    6  A    between atoms: C_18  and  N_19 
REMARK    7  A    between atoms: C_26  and  O_28 
REMARK    8  A    between atoms: O_28  and  C_29 
ROOT
ATOM      1  N   LIG d   1       9.328   2.703  -5.023  0.00  0.00    -0.311 N 
ATOM      2  C   LIG d   1      10.467   2.843  -4.316  0.00  0.00     0.233 C 
ATOM      3  O   LIG d   1      10.853   1.942  -3.602  0.00  0.00    -0.274 OA
ATOM      4  H   LIG d   1       8.977   3.520  -5.669  0.00  0.00     0.149 HD
ENDROOT
BRANCH   1   5
ATOM      5  C   LIG d   1       8.556   1.460  -4.929  0.00  0.00     0.024 C 
ATOM      6  H   LIG d   1       9.264   0.656  -4.680  0.00  0.00     0.050 H 
BRANCH   5   7
ATOM      7  C   LIG d   1       7.875   1.181  -6.271  0.00  0.00    -0.046 C 
ATOM      8  H   LIG d   1       6.797   1.034  -6.112  0.00  0.00     0.025 H 
ATOM      9  H   LIG d   1       8.306   0.274  -6.718  0.00  0.00     0.025 H 
ATOM     10  H   LIG d   1       8.033   2.034  -6.946  0.00  0.00     0.025 H 
ENDBRANCH   5   7
BRANCH   5  11
ATOM     11  C   LIG d   1       7.493   1.600  -3.838  0.00  0.00    -0.007 C 
ATOM     12  H   LIG d   1       7.958   1.991  -2.922  0.00  0.00     0.033 H 
ATOM     13  H   LIG d   1       6.710   2.294  -4.176  0.00  0.00     0.033 H 
BRANCH  11  14
ATOM     14  C   LIG d   1       6.882   0.251  -3.556  0.00  0.00    -0.021 A 
ATOM     15  C   LIG d   1       5.484  -0.018  -3.214  0.00  0.00     0.003 A 
ATOM     16  C   LIG d   1       5.386  -1.411  -3.045  0.00  0.00     0.047 A 
ATOM     17  C   LIG d   1       4.354   0.784  -3.048  0.00  0.00    -0.052 A 
ATOM     18  N   LIG d   1       6.641  -1.936  -3.262  0.00  0.00    -0.360 N 
ATOM     19  C   LIG d   1       4.158  -1.973  -2.713  0.00  0.00    -0.038 A 
ATOM     20  C   LIG d   1       7.519  -0.931  -3.565  0.00  0.00     0.006 A 
ATOM     21  H   LIG d   1       6.989  -2.978  -3.224  0.00  0.00     0.165 HD
ATOM     22  H   LIG d   1       8.568  -1.069  -3.781  0.00  0.00     0.081 H 
ATOM     23  C   LIG d   1       3.057  -1.161  -2.546  0.00  0.00    -0.060 A 
ATOM     24  H   LIG d   1       4.070  -3.040  -2.576  0.00  0.00     0.064 H 
ATOM     25  C   LIG d   1       3.157   0.212  -2.718  0.00  0.00    -0.061 A 
ATOM     26  H   LIG d   1       2.104  -1.599  -2.287  0.00  0.00     0.062 H 
ATOM     27  H   LIG d   1       2.284   0.834  -2.590  0.00  0.00     0.062 H 
ATOM     28  H   LIG d   1       4.424   1.854  -3.179  0.00  0.00     0.062 H 
ENDBRANCH  11  14
ENDBRANCH   5  11
ENDBRANCH   1   5
BRANCH   2  29
ATOM     29  C   LIG d   1      11.259   4.121  -4.412  0.00  0.00     0.100 C 
ATOM     30  H   LIG d   1      12.286   3.942  -4.060  0.00  0.00     0.059 H 
ATOM     31  H   LIG d   1      11.283   4.461  -5.458  0.00  0.00     0.059 H 
BRANCH  29  32
ATOM     32  N   LIG d   1      10.630   5.149  -3.579  0.00  0.00    -0.338 N 
ATOM     33  C   LIG d   1      10.995   5.453  -2.284  0.00  0.00     0.050 A 
ATOM     34  C   LIG d   1      10.150   6.489  -1.848  0.00  0.00     0.003 A 
ATOM     35  C   LIG d   1      11.966   4.952  -1.423  0.00  0.00    -0.034 A 
ATOM     36  C   LIG d   1       9.257   6.783  -2.971  0.00  0.00    -0.036 A 
ATOM     37  C   LIG d   1      10.289   7.008  -0.559  0.00  0.00    -0.011 A 
ATOM     38  C   LIG d   1       9.594   5.952  -3.970  0.00  0.00     0.006 A 
ATOM     39  H   LIG d   1       8.474   7.527  -2.991  0.00  0.00     0.064 H 
ATOM     40  H   LIG d   1       9.117   5.921  -4.938  0.00  0.00     0.081 H 
ATOM     41  C   LIG d   1      11.260   6.497   0.281  0.00  0.00     0.121 A 
ATOM     42  H   LIG d   1       9.642   7.804  -0.221  0.00  0.00     0.066 H 
ATOM     43  C   LIG d   1      12.098   5.474  -0.156  0.00  0.00    -0.018 A 
ATOM     44  H   LIG d   1      12.856   5.086   0.507  0.00  0.00     0.066 H 
ATOM     45  H   LIG d   1      12.619   4.156  -1.750  0.00  0.00     0.064 H 
BRANCH  41  46
ATOM     46  O   LIG d   1      11.399   6.998   1.537  0.00  0.00    -0.495 OA
BRANCH  46  47
ATOM     47  C   LIG d   1      11.486   8.420   1.661  0.00  0.00     0.079 C 
ATOM     48  H   LIG d   1      10.592   8.798   2.178  0.00  0.00     0.066 H 
ATOM     49  H   LIG d   1      11.549   8.872   0.660  0.00  0.00     0.066 H 
ATOM     50  H   LIG d   1      12.383   8.684   2.240  0.00  0.00     0.066 H 
ENDBRANCH  46  47
ENDBRANCH  41  46
ENDBRANCH  29  32
ENDBRANCH   2  29
TORSDOF 8
ENDMDL
MODEL 9
REMARK VINA RESULT:      -6.3      4.804      6.875
REMARK  8 active torsions:
REMARK  status: ('A' for Active; 'I' for Inactive)
REMARK    1  A    between atoms: C_1  and  C_2 
REMARK    2  A    between atoms: C_2  and  C_4 
REMARK    3  A    between atoms: C_2  and  N_15 
REMARK    4  A    between atoms: C_4  and  C_5 
REMARK       I    between atoms: N_15  and  C_16 
REMARK    5  A    between atoms: C_16  and  C_18 
REMARK    6  A    between atoms: C_18  and  N_19 
REMARK    7  A    between atoms: C_26  and  O_28 
REMARK    8  A    between atoms: O_28  and  C_29 
ROOT
ATOM      1  N   LIG d   1       8.432  -3.891  -5.566  0.00  0.00    -0.311 N 
ATOM      2  C   LIG d   1       7.803  -4.802  -6.334  0.00  0.00     0.233 C 
ATOM      3  O   LIG d   1       6.720  -4.545  -6.815  0.00  0.00    -0.274 OA
ATOM      4  H   LIG d   1       9.413  -4.125  -5.128  0.00  0.00     0.149 HD
ENDROOT
BRANCH   1   5
ATOM      5  C   LIG d   1       7.809  -2.589  -5.313  0.00  0.00     0.024 C 
ATOM      6  H   LIG d   1       6.951  -2.502  -5.996  0.00  0.00     0.050 H 
BRANCH   5   7
ATOM      7  C   LIG d   1       8.826  -1.478  -5.580  0.00  0.00    -0.046 C 
ATOM      8  H   LIG d   1       8.297  -0.523  -5.719  0.00  0.00     0.025 H 
ATOM      9  H   LIG d   1       9.398  -1.715  -6.489  0.00  0.00     0.025 H 
ATOM     10  H   LIG d   1       9.512  -1.395  -4.725  0.00  0.00     0.025 H 
ENDBRANCH   5   7
BRANCH   5  11
ATOM     11  C   LIG d   1       7.348  -2.518  -3.856  0.00  0.00    -0.007 C 
ATOM     12  H   LIG d   1       7.555  -3.477  -3.359  0.00  0.00     0.033 H 
ATOM     13  H   LIG d   1       7.888  -1.713  -3.339  0.00  0.00     0.033 H 
BRANCH  11  14
ATOM     14  C   LIG d   1       5.867  -2.239  -3.812  0.00  0.00    -0.021 A 
ATOM     15  C   LIG d   1       5.220  -1.057  -3.238  0.00  0.00     0.003 A 
ATOM     16  C   LIG d   1       3.837  -1.239  -3.431  0.00  0.00     0.047 A 
ATOM     17  C   LIG d   1       5.688   0.094  -2.604  0.00  0.00    -0.052 A 
ATOM     18  N   LIG d   1       3.671  -2.449  -4.068  0.00  0.00    -0.360 N 
ATOM     19  C   LIG d   1       2.954  -0.263  -2.985  0.00  0.00    -0.038 A 
ATOM     20  C   LIG d   1       4.891  -3.030  -4.286  0.00  0.00     0.006 A 
ATOM     21  H   LIG d   1       2.752  -2.958  -4.392  0.00  0.00     0.165 HD
ATOM     22  H   LIG d   1       5.045  -3.984  -4.769  0.00  0.00     0.081 H 
ATOM     23  C   LIG d   1       3.438   0.863  -2.354  0.00  0.00    -0.060 A 
ATOM     24  H   LIG d   1       1.890  -0.391  -3.122  0.00  0.00     0.064 H 
ATOM     25  C   LIG d   1       4.802   1.039  -2.169  0.00  0.00    -0.061 A 
ATOM     26  H   LIG d   1       2.749   1.619  -2.007  0.00  0.00     0.062 H 
ATOM     27  H   LIG d   1       5.166   1.930  -1.679  0.00  0.00     0.062 H 
ATOM     28  H   LIG d   1       6.749   0.238  -2.455  0.00  0.00     0.062 H 
ENDBRANCH  11  14
ENDBRANCH   5  11
ENDBRANCH   1   5
BRANCH   2  29
ATOM     29  C   LIG d   1       8.443  -6.141  -6.592  0.00  0.00     0.100 C 
ATOM     30  H   LIG d   1       8.110  -6.524  -7.568  0.00  0.00     0.059 H 
ATOM     31  H   LIG d   1       9.538  -6.031  -6.595  0.00  0.00     0.059 H 
BRANCH  29  32
ATOM     32  N   LIG d   1       8.051  -7.082  -5.539  0.00  0.00    -0.338 N 
ATOM     33  C   LIG d   1       6.897  -7.836  -5.540  0.00  0.00     0.050 A 
ATOM     34  C   LIG d   1       6.901  -8.601  -4.360  0.00  0.00     0.003 A 
ATOM     35  C   LIG d   1       5.834  -7.955  -6.431  0.00  0.00    -0.034 A 
ATOM     36  C   LIG d   1       8.137  -8.251  -3.655  0.00  0.00    -0.036 A 
ATOM     37  C   LIG d   1       5.843  -9.471  -4.088  0.00  0.00    -0.011 A 
ATOM     38  C   LIG d   1       8.775  -7.342  -4.409  0.00  0.00     0.006 A 
ATOM     39  H   LIG d   1       8.469  -8.648  -2.707  0.00  0.00     0.064 H 
ATOM     40  H   LIG d   1       9.721  -6.885  -4.159  0.00  0.00     0.081 H 
ATOM     41  C   LIG d   1       4.797  -9.574  -4.984  0.00  0.00     0.121 A 
ATOM     42  H   LIG d   1       5.843 -10.060  -3.183  0.00  0.00     0.066 H 
ATOM     43  C   LIG d   1       4.799  -8.819  -6.155  0.00  0.00    -0.018 A 
ATOM     44  H   LIG d   1       3.978  -8.911  -6.850  0.00  0.00     0.066 H 
ATOM     45  H   LIG d   1       5.823  -7.371  -7.339  0.00  0.00     0.064 H 
BRANCH  41  46
ATOM     46  O   LIG d   1       3.764 -10.420  -4.724  0.00  0.00    -0.495 OA
BRANCH  46  47
ATOM     47  C   LIG d   1       3.755 -11.665  -5.425  0.00  0.00     0.079 C 
ATOM     48  H   LIG d   1       4.497 -12.343  -4.979  0.00  0.00     0.066 H 
ATOM     49  H   LIG d   1       4.005 -11.493  -6.483  0.00  0.00     0.066 H 
ATOM     50  H   LIG d   1       2.755 -12.118  -5.354  0.00  0.00     0.066 H 
ENDBRANCH  46  47
ENDBRANCH  41  46
ENDBRANCH  29  32
ENDBRANCH   2  29
TORSDOF 8
ENDMDL
MODEL 10
REMARK VINA RESULT:      -6.2      6.316      9.244
REMARK  8 active torsions:
REMARK  status: ('A' for Active; 'I' for Inactive)
REMARK    1  A    between atoms: C_1  and  C_2 
REMARK    2  A    between atoms: C_2  and  C_4 
REMARK    3  A    between atoms: C_2  and  N_15 
REMARK    4  A    between atoms: C_4  and  C_5 
REMARK       I    between atoms: N_15  and  C_16 
REMARK    5  A    between atoms: C_16  and  C_18 
REMARK    6  A    between atoms: C_18  and  N_19 
REMARK    7  A    between atoms: C_26  and  O_28 
REMARK    8  A    between atoms: O_28  and  C_29 
ROOT
ATOM      1  N   LIG d   1      10.085   3.397  -4.799  0.00  0.00    -0.311 N 
ATOM      2  C   LIG d   1      11.155   3.228  -3.998  0.00  0.00     0.233 C 
ATOM      3  O   LIG d   1      11.391   2.137  -3.523  0.00  0.00    -0.274 OA
ATOM      4  H   LIG d   1       9.870   4.387  -5.228  0.00  0.00     0.149 HD
ENDROOT
BRANCH   1   5
ATOM      5  C   LIG d   1       9.206   2.263  -5.098  0.00  0.00     0.024 C 
ATOM      6  H   LIG d   1       9.782   1.346  -4.901  0.00  0.00     0.050 H 
BRANCH   5   7
ATOM      7  C   LIG d   1       8.775   2.324  -6.564  0.00  0.00    -0.046 C 
ATOM      8  H   LIG d   1       7.904   2.988  -6.663  0.00  0.00     0.025 H 
ATOM      9  H   LIG d   1       8.508   1.315  -6.910  0.00  0.00     0.025 H 
ATOM     10  H   LIG d   1       9.604   2.714  -7.173  0.00  0.00     0.025 H 
ENDBRANCH   5   7
BRANCH   5  11
ATOM     11  C   LIG d   1       7.969   2.326  -4.200  0.00  0.00    -0.007 C 
ATOM     12  H   LIG d   1       8.226   2.828  -3.256  0.00  0.00     0.033 H 
ATOM     13  H   LIG d   1       7.174   2.888  -4.710  0.00  0.00     0.033 H 
BRANCH  11  14
ATOM     14  C   LIG d   1       7.488   0.927  -3.910  0.00  0.00    -0.021 A 
ATOM     15  C   LIG d   1       6.260   0.557  -3.202  0.00  0.00     0.003 A 
ATOM     16  C   LIG d   1       6.235  -0.850  -3.176  0.00  0.00     0.047 A 
ATOM     17  C   LIG d   1       5.222   1.282  -2.616  0.00  0.00    -0.052 A 
ATOM     18  N   LIG d   1       7.373  -1.288  -3.816  0.00  0.00    -0.360 N 
ATOM     19  C   LIG d   1       5.170  -1.501  -2.564  0.00  0.00    -0.038 A 
ATOM     20  C   LIG d   1       8.107  -0.216  -4.246  0.00  0.00     0.006 A 
ATOM     21  H   LIG d   1       7.730  -2.311  -4.005  0.00  0.00     0.165 HD
ATOM     22  H   LIG d   1       9.045  -0.280  -4.778  0.00  0.00     0.081 H 
ATOM     23  C   LIG d   1       4.160  -0.765  -1.984  0.00  0.00    -0.060 A 
ATOM     24  H   LIG d   1       5.140  -2.580  -2.533  0.00  0.00     0.064 H 
ATOM     25  C   LIG d   1       4.187   0.622  -2.015  0.00  0.00    -0.061 A 
ATOM     26  H   LIG d   1       3.335  -1.273  -1.507  0.00  0.00     0.062 H 
ATOM     27  H   LIG d   1       3.384   1.184  -1.562  0.00  0.00     0.062 H 
ATOM     28  H   LIG d   1       5.237   2.362  -2.635  0.00  0.00     0.062 H 
ENDBRANCH  11  14
ENDBRANCH   5  11
ENDBRANCH   1   5
BRANCH   2  29
ATOM     29  C   LIG d   1      12.058   4.395  -3.691  0.00  0.00     0.100 C 
ATOM     30  H   LIG d   1      12.968   4.032  -3.192  0.00  0.00     0.059 H 
ATOM     31  H   LIG d   1      12.330   4.905  -4.627  0.00  0.00     0.059 H 
BRANCH  29  32
ATOM     32  N   LIG d   1      11.359   5.334  -2.809  0.00  0.00    -0.338 N 
ATOM     33  C   LIG d   1      11.062   6.643  -3.123  0.00  0.00     0.050 A 
ATOM     34  C   LIG d   1      10.393   7.193  -2.015  0.00  0.00     0.003 A 
ATOM     35  C   LIG d   1      11.292   7.433  -4.245  0.00  0.00    -0.034 A 
ATOM     36  C   LIG d   1      10.311   6.121  -1.019  0.00  0.00    -0.036 A 
ATOM     37  C   LIG d   1       9.965   8.522  -2.046  0.00  0.00    -0.011 A 
ATOM     38  C   LIG d   1      10.904   5.042  -1.553  0.00  0.00     0.006 A 
ATOM     39  H   LIG d   1       9.859   6.188  -0.040  0.00  0.00     0.064 H 
ATOM     40  H   LIG d   1      11.006   4.085  -1.063  0.00  0.00     0.081 H 
ATOM     41  C   LIG d   1      10.204   9.289  -3.169  0.00  0.00     0.121 A 
ATOM     42  H   LIG d   1       9.451   8.947  -1.196  0.00  0.00     0.066 H 
ATOM     43  C   LIG d   1      10.862   8.741  -4.267  0.00  0.00    -0.018 A 
ATOM     44  H   LIG d   1      11.039   9.348  -5.142  0.00  0.00     0.066 H 
ATOM     45  H   LIG d   1      11.806   7.019  -5.100  0.00  0.00     0.064 H 
BRANCH  41  46
ATOM     46  O   LIG d   1       9.790  10.584  -3.204  0.00  0.00    -0.495 OA
BRANCH  46  47
ATOM     47  C   LIG d   1       9.150  11.027  -4.403  0.00  0.00     0.079 C 
ATOM     48  H   LIG d   1       9.509  12.035  -4.659  0.00  0.00     0.066 H 
ATOM     49  H   LIG d   1       8.061  11.054  -4.250  0.00  0.00     0.066 H 
ATOM     50  H   LIG d   1       9.388  10.334  -5.224  0.00  0.00     0.066 H 
ENDBRANCH  46  47
ENDBRANCH  41  46
ENDBRANCH  29  32
ENDBRANCH   2  29
TORSDOF 8
ENDMDL
