MODEL 1
REMARK VINA RESULT:      -8.6      0.000      0.000
REMARK  7 active torsions:
REMARK  status: ('A' for Active; 'I' for Inactive)
REMARK    1  A    between atoms: C_1  and  C_2 
REMARK    2  A    between atoms: C_2  and  C_3 
REMARK    3  A    between atoms: C_3  and  C_4 
REMARK    4  A    between atoms: C_11  and  O_16 
REMARK    5  A    between atoms: C_13  and  C_15 
REMARK    6  A    between atoms: O_16  and  C_17 
REMARK    7  A    between atoms: C_17  and  C_18 
REMARK       I    between atoms: C_18  and  N_20 
ROOT
ATOM      1  C   LIG d   1       4.236  -1.454  -6.629  0.00  0.00     0.165 C 
ATOM      2  H   LIG d   1       3.884  -2.418  -6.262  0.00  0.00     0.080 H 
ATOM      3  H   LIG d   1       5.326  -1.452  -6.661  0.00  0.00     0.080 H 
ENDROOT
BRANCH   1   4
ATOM      4  O   LIG d   1       3.721  -1.228  -7.943  0.00  0.00    -0.482 OA
BRANCH   4   5
ATOM      5  C   LIG d   1       3.328  -2.321  -8.647  0.00  0.00     0.132 A 
ATOM      6  C   LIG d   1       2.488  -2.178  -9.762  0.00  0.00     0.062 A 
ATOM      7  C   LIG d   1       2.018  -0.860 -10.191  0.00  0.00    -0.026 A 
ATOM      8  C   LIG d   1       2.085  -3.316 -10.486  0.00  0.00     0.143 A 
ATOM      9  C   LIG d   1       1.202  -0.791 -11.275  0.00  0.00     0.027 A 
ATOM     10  C   LIG d   1       0.841  -1.972 -11.956  0.00  0.00     0.338 A 
ATOM     11  H   LIG d   1       0.833   0.165 -11.615  0.00  0.00     0.069 H 
ATOM     12  O   LIG d   1       0.112  -1.895 -12.929  0.00  0.00    -0.245 OA
ATOM     13  O   LIG d   1       1.276  -3.177 -11.558  0.00  0.00    -0.422 OA
ATOM     14  C   LIG d   1       2.526  -4.569 -10.087  0.00  0.00    -0.015 A 
ATOM     15  C   LIG d   1       3.352  -4.696  -8.989  0.00  0.00    -0.043 A 
ATOM     16  H   LIG d   1       2.221  -5.447 -10.638  0.00  0.00     0.066 H 
ATOM     17  C   LIG d   1       3.752  -3.582  -8.270  0.00  0.00    -0.016 A 
ATOM     18  H   LIG d   1       4.399  -3.699  -7.414  0.00  0.00     0.066 H 
BRANCH   7  19
ATOM     19  C   LIG d   1       2.424   0.386  -9.446  0.00  0.00    -0.027 C 
ATOM     20  H   LIG d   1       2.916   0.108  -8.514  0.00  0.00     0.031 H 
ATOM     21  H   LIG d   1       1.539   0.982  -9.226  0.00  0.00     0.031 H 
BRANCH  19  22
ATOM     22  C   LIG d   1       3.389   1.203 -10.308  0.00  0.00    -0.052 C 
ATOM     23  H   LIG d   1       2.883   1.518 -11.220  0.00  0.00     0.027 H 
ATOM     24  H   LIG d   1       4.254   0.592 -10.564  0.00  0.00     0.027 H 
BRANCH  22  25
ATOM     25  C   LIG d   1       3.848   2.437  -9.527  0.00  0.00    -0.065 C 
ATOM     26  H   LIG d   1       4.935   2.514  -9.577  0.00  0.00     0.023 H 
ATOM     27  H   LIG d   1       3.401   3.330  -9.963  0.00  0.00     0.023 H 
ATOM     28  H   LIG d   1       3.538   2.346  -8.487  0.00  0.00     0.023 H 
ENDBRANCH  22  25
ENDBRANCH  19  22
ENDBRANCH   7  19
BRANCH  15  29
ATOM     29  C   LIG d   1       3.824  -6.064  -8.566  0.00  0.00    -0.040 C 
ATOM     30  H   LIG d   1       2.988  -6.622  -8.145  0.00  0.00     0.028 H 
ATOM     31  H   LIG d   1       4.218  -6.596  -9.431  0.00  0.00     0.028 H 
ATOM     32  H   LIG d   1       4.607  -5.962  -7.815  0.00  0.00     0.028 H 
ENDBRANCH  15  29
ENDBRANCH   4   5
ENDBRANCH   1   4
BRANCH   1  33
ATOM     33  C   LIG d   1       3.757  -0.361  -5.707  0.00  0.00     0.253 C 
ATOM     34  O   LIG d   1       3.459   0.725  -6.158  0.00  0.00    -0.272 OA
ATOM     35  N   LIG d   1       3.662  -0.590  -4.383  0.00  0.00    -0.298 N 
ATOM     36  C   LIG d   1       4.020  -1.902  -3.819  0.00  0.00     0.023 C 
ATOM     37  C   LIG d   1       3.205   0.463  -3.470  0.00  0.00     0.019 C 
ATOM     38  C   LIG d   1       5.077  -1.657  -2.728  0.00  0.00     0.016 C 
ATOM     39  H   LIG d   1       3.138  -2.371  -3.382  0.00  0.00     0.047 H 
ATOM     40  H   LIG d   1       4.434  -2.541  -4.599  0.00  0.00     0.047 H 
ATOM     41  C   LIG d   1       4.463  -0.747  -1.661  0.00  0.00    -0.037 C 
ATOM     42  H   LIG d   1       5.383  -2.604  -2.283  0.00  0.00     0.038 H 
ATOM     43  C   LIG d   1       6.252  -0.964  -3.376  0.00  0.00     0.027 A 
ATOM     44  C   LIG d   1       4.161   0.609  -2.301  0.00  0.00    -0.006 C 
ATOM     45  H   LIG d   1       3.540  -1.190  -1.286  0.00  0.00     0.028 H 
ATOM     46  H   LIG d   1       5.169  -0.616  -0.840  0.00  0.00     0.028 H 
ATOM     47  H   LIG d   1       3.674   1.234  -1.553  0.00  0.00     0.033 H 
ATOM     48  C   LIG d   1       5.458   1.287  -2.708  0.00  0.00     0.031 C 
ATOM     49  N   LIG d   1       6.363   0.384  -3.418  0.00  0.00    -0.312 N 
ATOM     50  H   LIG d   1       5.225   2.133  -3.354  0.00  0.00     0.050 H 
ATOM     51  H   LIG d   1       5.958   1.655  -1.813  0.00  0.00     0.050 H 
ATOM     52  C   LIG d   1       7.363   0.958  -4.132  0.00  0.00     0.252 A 
ATOM     53  C   LIG d   1       8.367   0.174  -4.717  0.00  0.00     0.003 A 
ATOM     54  O   LIG d   1       7.389   2.170  -4.268  0.00  0.00    -0.268 OA
ATOM     55  C   LIG d   1       8.298  -1.184  -4.606  0.00  0.00    -0.055 A 
ATOM     56  H   LIG d   1       9.185   0.639  -5.248  0.00  0.00     0.067 H 
ATOM     57  C   LIG d   1       7.212  -1.752  -3.932  0.00  0.00    -0.042 A 
ATOM     58  H   LIG d   1       9.068  -1.810  -5.032  0.00  0.00     0.062 H 
ATOM     59  H   LIG d   1       7.135  -2.826  -3.849  0.00  0.00     0.064 H 
ATOM     60  H   LIG d   1       3.150   1.409  -4.009  0.00  0.00     0.047 H 
ATOM     61  H   LIG d   1       2.214   0.208  -3.092  0.00  0.00     0.047 H 
ENDBRANCH   1  33
TORSDOF 7
ENDMDL
MODEL 2
REMARK VINA RESULT:      -7.9      2.332      2.644
REMARK  7 active torsions:
REMARK  status: ('A' for Active; 'I' for Inactive)
REMARK    1  A    between atoms: C_1  and  C_2 
REMARK    2  A    between atoms: C_2  and  C_3 
REMARK    3  A    between atoms: C_3  and  C_4 
REMARK    4  A    between atoms: C_11  and  O_16 
REMARK    5  A    between atoms: C_13  and  C_15 
REMARK    6  A    between atoms: O_16  and  C_17 
REMARK    7  A    between atoms: C_17  and  C_18 
REMARK       I    between atoms: C_18  and  N_20 
ROOT
ATOM      1  C   LIG d   1       2.901  -0.522  -6.291  0.00  0.00     0.165 C 
ATOM      2  H   LIG d   1       2.124  -0.190  -6.980  0.00  0.00     0.080 H 
ATOM      3  H   LIG d   1       2.693  -1.544  -5.974  0.00  0.00     0.080 H 
ENDROOT
BRANCH   1   4
ATOM      4  O   LIG d   1       4.170  -0.475  -6.948  0.00  0.00    -0.482 OA
BRANCH   4   5
ATOM      5  C   LIG d   1       4.477  -1.512  -7.769  0.00  0.00     0.132 A 
ATOM      6  C   LIG d   1       5.234  -1.294  -8.930  0.00  0.00     0.062 A 
ATOM      7  C   LIG d   1       5.707   0.046  -9.282  0.00  0.00    -0.026 A 
ATOM      8  C   LIG d   1       5.548  -2.373  -9.776  0.00  0.00     0.143 A 
ATOM      9  C   LIG d   1       6.430   0.191 -10.424  0.00  0.00     0.027 A 
ATOM     10  C   LIG d   1       6.712  -0.936 -11.223  0.00  0.00     0.338 A 
ATOM     11  H   LIG d   1       6.791   1.166 -10.715  0.00  0.00     0.069 H 
ATOM     12  O   LIG d   1       7.365  -0.792 -12.241  0.00  0.00    -0.245 OA
ATOM     13  O   LIG d   1       6.275  -2.161 -10.894  0.00  0.00    -0.422 OA
ATOM     14  C   LIG d   1       5.103  -3.647  -9.451  0.00  0.00    -0.015 A 
ATOM     15  C   LIG d   1       4.359  -3.849  -8.305  0.00  0.00    -0.043 A 
ATOM     16  H   LIG d   1       5.339  -4.481 -10.095  0.00  0.00     0.066 H 
ATOM     17  C   LIG d   1       4.045  -2.792  -7.468  0.00  0.00    -0.016 A 
ATOM     18  H   LIG d   1       3.463  -2.967  -6.576  0.00  0.00     0.066 H 
BRANCH   7  19
ATOM     19  C   LIG d   1       5.396   1.232  -8.407  0.00  0.00    -0.027 C 
ATOM     20  H   LIG d   1       6.325   1.660  -8.030  0.00  0.00     0.031 H 
ATOM     21  H   LIG d   1       4.777   0.912  -7.569  0.00  0.00     0.031 H 
BRANCH  19  22
ATOM     22  C   LIG d   1       4.645   2.285  -9.224  0.00  0.00    -0.052 C 
ATOM     23  H   LIG d   1       4.778   2.083 -10.287  0.00  0.00     0.027 H 
ATOM     24  H   LIG d   1       5.037   3.275  -8.990  0.00  0.00     0.027 H 
BRANCH  22  25
ATOM     25  C   LIG d   1       3.154   2.232  -8.877  0.00  0.00    -0.065 C 
ATOM     26  H   LIG d   1       2.571   2.151  -9.795  0.00  0.00     0.023 H 
ATOM     27  H   LIG d   1       2.959   1.365  -8.246  0.00  0.00     0.023 H 
ATOM     28  H   LIG d   1       2.872   3.140  -8.345  0.00  0.00     0.023 H 
ENDBRANCH  22  25
ENDBRANCH  19  22
ENDBRANCH   7  19
BRANCH  15  29
ATOM     29  C   LIG d   1       3.882  -5.237  -7.963  0.00  0.00    -0.040 C 
ATOM     30  H   LIG d   1       4.725  -5.837  -7.622  0.00  0.00     0.028 H 
ATOM     31  H   LIG d   1       3.134  -5.178  -7.172  0.00  0.00     0.028 H 
ATOM     32  H   LIG d   1       3.441  -5.698  -8.847  0.00  0.00     0.028 H 
ENDBRANCH  15  29
ENDBRANCH   4   5
ENDBRANCH   1   4
BRANCH   1  33
ATOM     33  C   LIG d   1       2.926   0.383  -5.086  0.00  0.00     0.253 C 
ATOM     34  O   LIG d   1       2.745   1.575  -5.219  0.00  0.00    -0.272 OA
ATOM     35  N   LIG d   1       3.149  -0.132  -3.861  0.00  0.00    -0.298 N 
ATOM     36  C   LIG d   1       3.371  -1.576  -3.682  0.00  0.00     0.023 C 
ATOM     37  C   LIG d   1       3.183   0.735  -2.678  0.00  0.00     0.019 C 
ATOM     38  C   LIG d   1       4.711  -1.744  -2.946  0.00  0.00     0.016 C 
ATOM     39  H   LIG d   1       2.564  -2.003  -3.085  0.00  0.00     0.047 H 
ATOM     40  H   LIG d   1       3.417  -2.068  -4.653  0.00  0.00     0.047 H 
ATOM     41  C   LIG d   1       4.611  -1.029  -1.596  0.00  0.00    -0.037 C 
ATOM     42  H   LIG d   1       4.927  -2.802  -2.795  0.00  0.00     0.038 H 
ATOM     43  C   LIG d   1       5.782  -1.094  -3.789  0.00  0.00     0.027 A 
ATOM     44  C   LIG d   1       4.430   0.467  -1.856  0.00  0.00    -0.006 C 
ATOM     45  H   LIG d   1       3.754  -1.411  -1.040  0.00  0.00     0.028 H 
ATOM     46  H   LIG d   1       5.524  -1.195  -1.023  0.00  0.00     0.028 H 
ATOM     47  H   LIG d   1       4.303   0.963  -0.894  0.00  0.00     0.033 H 
ATOM     48  C   LIG d   1       5.677   1.030  -2.514  0.00  0.00     0.031 C 
ATOM     49  N   LIG d   1       6.151   0.198  -3.620  0.00  0.00    -0.312 N 
ATOM     50  H   LIG d   1       5.456   2.028  -2.893  0.00  0.00     0.050 H 
ATOM     51  H   LIG d   1       6.467   1.105  -1.767  0.00  0.00     0.050 H 
ATOM     52  C   LIG d   1       7.014   0.774  -4.493  0.00  0.00     0.252 A 
ATOM     53  C   LIG d   1       7.639   0.013  -5.490  0.00  0.00     0.003 A 
ATOM     54  O   LIG d   1       7.250   1.968  -4.409  0.00  0.00    -0.268 OA
ATOM     55  C   LIG d   1       7.326  -1.310  -5.610  0.00  0.00    -0.055 A 
ATOM     56  H   LIG d   1       8.358   0.468  -6.156  0.00  0.00     0.067 H 
ATOM     57  C   LIG d   1       6.372  -1.859  -4.747  0.00  0.00    -0.042 A 
ATOM     58  H   LIG d   1       7.807  -1.922  -6.359  0.00  0.00     0.062 H 
ATOM     59  H   LIG d   1       6.103  -2.900  -4.839  0.00  0.00     0.064 H 
ATOM     60  H   LIG d   1       3.178   1.777  -2.994  0.00  0.00     0.047 H 
ATOM     61  H   LIG d   1       2.302   0.542  -2.064  0.00  0.00     0.047 H 
ENDBRANCH   1  33
TORSDOF 7
ENDMDL
MODEL 3
REMARK VINA RESULT:      -7.9      2.828      4.123
REMARK  7 active torsions:
REMARK  status: ('A' for Active; 'I' for Inactive)
REMARK    1  A    between atoms: C_1  and  C_2 
REMARK    2  A    between atoms: C_2  and  C_3 
REMARK    3  A    between atoms: C_3  and  C_4 
REMARK    4  A    between atoms: C_11  and  O_16 
REMARK    5  A    between atoms: C_13  and  C_15 
REMARK    6  A    between atoms: O_16  and  C_17 
REMARK    7  A    between atoms: C_17  and  C_18 
REMARK       I    between atoms: C_18  and  N_20 
ROOT
ATOM      1  C   LIG d   1       4.122  -1.452  -6.605  0.00  0.00     0.165 C 
ATOM      2  H   LIG d   1       3.247  -1.947  -7.027  0.00  0.00     0.080 H 
ATOM      3  H   LIG d   1       4.723  -2.180  -6.060  0.00  0.00     0.080 H 
ENDROOT
BRANCH   1   4
ATOM      4  O   LIG d   1       4.901  -0.883  -7.659  0.00  0.00    -0.482 OA
BRANCH   4   5
ATOM      5  C   LIG d   1       6.141  -1.401  -7.857  0.00  0.00     0.132 A 
ATOM      6  C   LIG d   1       7.151  -0.615  -8.432  0.00  0.00     0.062 A 
ATOM      7  C   LIG d   1       6.896   0.770  -8.831  0.00  0.00    -0.026 A 
ATOM      8  C   LIG d   1       8.434  -1.158  -8.634  0.00  0.00     0.143 A 
ATOM      9  C   LIG d   1       7.916   1.475  -9.389  0.00  0.00     0.027 A 
ATOM     10  C   LIG d   1       9.177   0.869  -9.557  0.00  0.00     0.338 A 
ATOM     11  H   LIG d   1       7.760   2.498  -9.698  0.00  0.00     0.069 H 
ATOM     12  O   LIG d   1      10.083   1.514 -10.054  0.00  0.00    -0.245 OA
ATOM     13  O   LIG d   1       9.404  -0.402  -9.189  0.00  0.00    -0.422 OA
ATOM     14  C   LIG d   1       8.685  -2.471  -8.259  0.00  0.00    -0.015 A 
ATOM     15  C   LIG d   1       7.683  -3.233  -7.693  0.00  0.00    -0.043 A 
ATOM     16  H   LIG d   1       9.666  -2.895  -8.411  0.00  0.00     0.066 H 
ATOM     17  C   LIG d   1       6.418  -2.707  -7.493  0.00  0.00    -0.016 A 
ATOM     18  H   LIG d   1       5.646  -3.316  -7.049  0.00  0.00     0.066 H 
BRANCH   7  19
ATOM     19  C   LIG d   1       5.539   1.394  -8.634  0.00  0.00    -0.027 C 
ATOM     20  H   LIG d   1       5.655   2.386  -8.197  0.00  0.00     0.031 H 
ATOM     21  H   LIG d   1       4.945   0.770  -7.968  0.00  0.00     0.031 H 
BRANCH  19  22
ATOM     22  C   LIG d   1       4.832   1.513  -9.987  0.00  0.00    -0.052 C 
ATOM     23  H   LIG d   1       4.551   0.521 -10.338  0.00  0.00     0.027 H 
ATOM     24  H   LIG d   1       5.504   1.978 -10.708  0.00  0.00     0.027 H 
BRANCH  22  25
ATOM     25  C   LIG d   1       3.576   2.375  -9.831  0.00  0.00    -0.065 C 
ATOM     26  H   LIG d   1       2.845   2.090 -10.588  0.00  0.00     0.023 H 
ATOM     27  H   LIG d   1       3.151   2.221  -8.839  0.00  0.00     0.023 H 
ATOM     28  H   LIG d   1       3.838   3.425  -9.955  0.00  0.00     0.023 H 
ENDBRANCH  22  25
ENDBRANCH  19  22
ENDBRANCH   7  19
BRANCH  15  29
ATOM     29  C   LIG d   1       7.968  -4.658  -7.291  0.00  0.00    -0.040 C 
ATOM     30  H   LIG d   1       8.513  -4.666  -6.347  0.00  0.00     0.028 H 
ATOM     31  H   LIG d   1       7.028  -5.197  -7.174  0.00  0.00     0.028 H 
ATOM     32  H   LIG d   1       8.569  -5.140  -8.062  0.00  0.00     0.028 H 
ENDBRANCH  15  29
ENDBRANCH   4   5
ENDBRANCH   1   4
BRANCH   1  33
ATOM     33  C   LIG d   1       3.677  -0.362  -5.665  0.00  0.00     0.253 C 
ATOM     34  O   LIG d   1       3.373   0.728  -6.101  0.00  0.00    -0.272 OA
ATOM     35  N   LIG d   1       3.619  -0.597  -4.339  0.00  0.00    -0.298 N 
ATOM     36  C   LIG d   1       3.986  -1.914  -3.793  0.00  0.00     0.023 C 
ATOM     37  C   LIG d   1       3.196   0.454  -3.408  0.00  0.00     0.019 C 
ATOM     38  C   LIG d   1       5.075  -1.681  -2.732  0.00  0.00     0.016 C 
ATOM     39  H   LIG d   1       3.114  -2.380  -3.333  0.00  0.00     0.047 H 
ATOM     40  H   LIG d   1       4.372  -2.552  -4.588  0.00  0.00     0.047 H 
ATOM     41  C   LIG d   1       4.499  -0.773  -1.643  0.00  0.00    -0.037 C 
ATOM     42  H   LIG d   1       5.389  -2.632  -2.301  0.00  0.00     0.038 H 
ATOM     43  C   LIG d   1       6.236  -0.992  -3.411  0.00  0.00     0.027 A 
ATOM     44  C   LIG d   1       4.187   0.588  -2.267  0.00  0.00    -0.006 C 
ATOM     45  H   LIG d   1       3.585  -1.213  -1.243  0.00  0.00     0.028 H 
ATOM     46  H   LIG d   1       5.229  -0.651  -0.842  0.00  0.00     0.028 H 
ATOM     47  H   LIG d   1       3.725   1.211  -1.501  0.00  0.00     0.033 H 
ATOM     48  C   LIG d   1       5.475   1.260  -2.708  0.00  0.00     0.031 C 
ATOM     49  N   LIG d   1       6.353   0.356  -3.448  0.00  0.00    -0.312 N 
ATOM     50  H   LIG d   1       5.228   2.111  -3.342  0.00  0.00     0.050 H 
ATOM     51  H   LIG d   1       6.003   1.621  -1.826  0.00  0.00     0.050 H 
ATOM     52  C   LIG d   1       7.336   0.927  -4.189  0.00  0.00     0.252 A 
ATOM     53  C   LIG d   1       8.317   0.140  -4.807  0.00  0.00     0.003 A 
ATOM     54  O   LIG d   1       7.365   2.140  -4.319  0.00  0.00    -0.268 OA
ATOM     55  C   LIG d   1       8.243  -1.218  -4.701  0.00  0.00    -0.055 A 
ATOM     56  H   LIG d   1       9.122   0.603  -5.359  0.00  0.00     0.067 H 
ATOM     57  C   LIG d   1       7.174  -1.783  -3.998  0.00  0.00    -0.042 A 
ATOM     58  H   LIG d   1       8.997  -1.846  -5.153  0.00  0.00     0.062 H 
ATOM     59  H   LIG d   1       7.093  -2.857  -3.919  0.00  0.00     0.064 H 
ATOM     60  H   LIG d   1       3.131   1.403  -3.940  0.00  0.00     0.047 H 
ATOM     61  H   LIG d   1       2.215   0.203  -3.002  0.00  0.00     0.047 H 
ENDBRANCH   1  33
TORSDOF 7
ENDMDL
MODEL 4
REMARK VINA RESULT:      -7.8      2.196      2.976
REMARK  7 active torsions:
REMARK  status: ('A' for Active; 'I' for Inactive)
REMARK    1  A    between atoms: C_1  and  C_2 
REMARK    2  A    between atoms: C_2  and  C_3 
REMARK    3  A    between atoms: C_3  and  C_4 
REMARK    4  A    between atoms: C_11  and  O_16 
REMARK    5  A    between atoms: C_13  and  C_15 
REMARK    6  A    between atoms: O_16  and  C_17 
REMARK    7  A    between atoms: C_17  and  C_18 
REMARK       I    between atoms: C_18  and  N_20 
ROOT
ATOM      1  C   LIG d   1       4.116  -1.073  -6.723  0.00  0.00     0.165 C 
ATOM      2  H   LIG d   1       3.425  -1.898  -6.895  0.00  0.00     0.080 H 
ATOM      3  H   LIG d   1       5.099  -1.470  -6.467  0.00  0.00     0.080 H 
ENDROOT
BRANCH   1   4
ATOM      4  O   LIG d   1       4.216  -0.281  -7.909  0.00  0.00    -0.482 OA
BRANCH   4   5
ATOM      5  C   LIG d   1       5.264  -0.537  -8.733  0.00  0.00     0.132 A 
ATOM      6  C   LIG d   1       5.090  -0.512 -10.126  0.00  0.00     0.062 A 
ATOM      7  C   LIG d   1       3.785  -0.213 -10.718  0.00  0.00    -0.026 A 
ATOM      8  C   LIG d   1       6.180  -0.779 -10.974  0.00  0.00     0.143 A 
ATOM      9  C   LIG d   1       3.682  -0.211 -12.074  0.00  0.00     0.027 A 
ATOM     10  C   LIG d   1       4.817  -0.483 -12.863  0.00  0.00     0.338 A 
ATOM     11  H   LIG d   1       2.733   0.002 -12.543  0.00  0.00     0.069 H 
ATOM     12  O   LIG d   1       4.711  -0.473 -14.077  0.00  0.00    -0.245 OA
ATOM     13  O   LIG d   1       6.011  -0.756 -12.313  0.00  0.00    -0.422 OA
ATOM     14  C   LIG d   1       7.421  -1.064 -10.421  0.00  0.00    -0.015 A 
ATOM     15  C   LIG d   1       7.580  -1.085  -9.050  0.00  0.00    -0.043 A 
ATOM     16  H   LIG d   1       8.263  -1.270 -11.066  0.00  0.00     0.066 H 
ATOM     17  C   LIG d   1       6.511  -0.825  -8.208  0.00  0.00    -0.016 A 
ATOM     18  H   LIG d   1       6.653  -0.845  -7.138  0.00  0.00     0.066 H 
BRANCH   7  19
ATOM     19  C   LIG d   1       2.589   0.079  -9.850  0.00  0.00    -0.027 C 
ATOM     20  H   LIG d   1       2.256   1.102 -10.021  0.00  0.00     0.031 H 
ATOM     21  H   LIG d   1       2.863  -0.043  -8.802  0.00  0.00     0.031 H 
BRANCH  19  22
ATOM     22  C   LIG d   1       1.458  -0.890 -10.198  0.00  0.00    -0.052 C 
ATOM     23  H   LIG d   1       1.236  -0.822 -11.264  0.00  0.00     0.027 H 
ATOM     24  H   LIG d   1       0.568  -0.632  -9.624  0.00  0.00     0.027 H 
BRANCH  22  25
ATOM     25  C   LIG d   1       1.888  -2.320  -9.858  0.00  0.00    -0.065 C 
ATOM     26  H   LIG d   1       2.884  -2.303  -9.416  0.00  0.00     0.023 H 
ATOM     27  H   LIG d   1       1.183  -2.752  -9.148  0.00  0.00     0.023 H 
ATOM     28  H   LIG d   1       1.903  -2.921 -10.767  0.00  0.00     0.023 H 
ENDBRANCH  22  25
ENDBRANCH  19  22
ENDBRANCH   7  19
BRANCH  15  29
ATOM     29  C   LIG d   1       8.932  -1.397  -8.462  0.00  0.00    -0.040 C 
ATOM     30  H   LIG d   1       9.123  -0.733  -7.620  0.00  0.00     0.028 H 
ATOM     31  H   LIG d   1       8.950  -2.432  -8.122  0.00  0.00     0.028 H 
ATOM     32  H   LIG d   1       9.701  -1.251  -9.221  0.00  0.00     0.028 H 
ENDBRANCH  15  29
ENDBRANCH   4   5
ENDBRANCH   1   4
BRANCH   1  33
ATOM     33  C   LIG d   1       3.608  -0.220  -5.590  0.00  0.00     0.253 C 
ATOM     34  O   LIG d   1       3.224   0.910  -5.807  0.00  0.00    -0.272 OA
ATOM     35  N   LIG d   1       3.581  -0.711  -4.336  0.00  0.00    -0.298 N 
ATOM     36  C   LIG d   1       4.044  -2.079  -4.054  0.00  0.00     0.023 C 
ATOM     37  C   LIG d   1       3.096   0.109  -3.219  0.00  0.00     0.019 C 
ATOM     38  C   LIG d   1       5.127  -1.980  -2.966  0.00  0.00     0.016 C 
ATOM     39  H   LIG d   1       3.212  -2.686  -3.695  0.00  0.00     0.047 H 
ATOM     40  H   LIG d   1       4.465  -2.522  -4.956  0.00  0.00     0.047 H 
ATOM     41  C   LIG d   1       4.501  -1.342  -1.722  0.00  0.00    -0.037 C 
ATOM     42  H   LIG d   1       5.510  -2.972  -2.726  0.00  0.00     0.038 H 
ATOM     43  C   LIG d   1       6.229  -1.093  -3.495  0.00  0.00     0.027 A 
ATOM     44  C   LIG d   1       4.088   0.088  -2.071  0.00  0.00    -0.006 C 
ATOM     45  H   LIG d   1       3.624  -1.914  -1.418  0.00  0.00     0.028 H 
ATOM     46  H   LIG d   1       5.230  -1.327  -0.911  0.00  0.00     0.028 H 
ATOM     47  H   LIG d   1       3.594   0.518  -1.201  0.00  0.00     0.033 H 
ATOM     48  C   LIG d   1       5.322   0.922  -2.371  0.00  0.00     0.031 C 
ATOM     49  N   LIG d   1       6.252   0.242  -3.270  0.00  0.00    -0.312 N 
ATOM     50  H   LIG d   1       5.009   1.860  -2.829  0.00  0.00     0.050 H 
ATOM     51  H   LIG d   1       5.834   1.141  -1.434  0.00  0.00     0.050 H 
ATOM     52  C   LIG d   1       7.184   1.013  -3.884  0.00  0.00     0.252 A 
ATOM     53  C   LIG d   1       8.211   0.432  -4.640  0.00  0.00     0.003 A 
ATOM     54  O   LIG d   1       7.128   2.227  -3.776  0.00  0.00    -0.268 OA
ATOM     55  C   LIG d   1       8.233  -0.923  -4.800  0.00  0.00    -0.055 A 
ATOM     56  H   LIG d   1       8.975   1.048  -5.090  0.00  0.00     0.067 H 
ATOM     57  C   LIG d   1       7.213  -1.687  -4.222  0.00  0.00    -0.042 A 
ATOM     58  H   LIG d   1       9.023  -1.397  -5.362  0.00  0.00     0.062 H 
ATOM     59  H   LIG d   1       7.208  -2.759  -4.353  0.00  0.00     0.064 H 
ATOM     60  H   LIG d   1       2.960   1.135  -3.557  0.00  0.00     0.047 H 
ATOM     61  H   LIG d   1       2.140  -0.285  -2.872  0.00  0.00     0.047 H 
ENDBRANCH   1  33
TORSDOF 7
ENDMDL
MODEL 5
REMARK VINA RESULT:      -7.5      2.432      3.543
REMARK  7 active torsions:
REMARK  status: ('A' for Active; 'I' for Inactive)
REMARK    1  A    between atoms: C_1  and  C_2 
REMARK    2  A    between atoms: C_2  and  C_3 
REMARK    3  A    between atoms: C_3  and  C_4 
REMARK    4  A    between atoms: C_11  and  O_16 
REMARK    5  A    between atoms: C_13  and  C_15 
REMARK    6  A    between atoms: O_16  and  C_17 
REMARK    7  A    between atoms: C_17  and  C_18 
REMARK       I    between atoms: C_18  and  N_20 
ROOT
ATOM      1  C   LIG d   1       4.150  -1.271  -6.712  0.00  0.00     0.165 C 
ATOM      2  H   LIG d   1       3.293  -1.766  -7.169  0.00  0.00     0.080 H 
ATOM      3  H   LIG d   1       4.781  -2.014  -6.224  0.00  0.00     0.080 H 
ENDROOT
BRANCH   1   4
ATOM      4  O   LIG d   1       4.903  -0.596  -7.722  0.00  0.00    -0.482 OA
BRANCH   4   5
ATOM      5  C   LIG d   1       4.430  -0.666  -8.993  0.00  0.00     0.132 A 
ATOM      6  C   LIG d   1       5.321  -0.718 -10.076  0.00  0.00     0.062 A 
ATOM      7  C   LIG d   1       6.769  -0.697  -9.865  0.00  0.00    -0.026 A 
ATOM      8  C   LIG d   1       4.824  -0.790 -11.391  0.00  0.00     0.143 A 
ATOM      9  C   LIG d   1       7.577  -0.743 -10.957  0.00  0.00     0.027 A 
ATOM     10  C   LIG d   1       7.011  -0.819 -12.245  0.00  0.00     0.338 A 
ATOM     11  H   LIG d   1       8.650  -0.726 -10.837  0.00  0.00     0.069 H 
ATOM     12  O   LIG d   1       7.747  -0.864 -13.215  0.00  0.00    -0.245 OA
ATOM     13  O   LIG d   1       5.682  -0.838 -12.432  0.00  0.00    -0.422 OA
ATOM     14  C   LIG d   1       3.452  -0.809 -11.601  0.00  0.00    -0.015 A 
ATOM     15  C   LIG d   1       2.586  -0.759 -10.527  0.00  0.00    -0.043 A 
ATOM     16  H   LIG d   1       3.062  -0.864 -12.607  0.00  0.00     0.066 H 
ATOM     17  C   LIG d   1       3.067  -0.686  -9.230  0.00  0.00    -0.016 A 
ATOM     18  H   LIG d   1       2.377  -0.648  -8.402  0.00  0.00     0.066 H 
BRANCH   7  19
ATOM     19  C   LIG d   1       7.347  -0.621  -8.476  0.00  0.00    -0.027 C 
ATOM     20  H   LIG d   1       6.540  -0.647  -7.744  0.00  0.00     0.031 H 
ATOM     21  H   LIG d   1       7.908   0.307  -8.366  0.00  0.00     0.031 H 
BRANCH  19  22
ATOM     22  C   LIG d   1       8.281  -1.812  -8.246  0.00  0.00    -0.052 C 
ATOM     23  H   LIG d   1       8.970  -1.582  -7.433  0.00  0.00     0.027 H 
ATOM     24  H   LIG d   1       8.846  -2.012  -9.157  0.00  0.00     0.027 H 
BRANCH  22  25
ATOM     25  C   LIG d   1       7.452  -3.045  -7.879  0.00  0.00    -0.065 C 
ATOM     26  H   LIG d   1       8.102  -3.920  -7.840  0.00  0.00     0.023 H 
ATOM     27  H   LIG d   1       6.988  -2.894  -6.905  0.00  0.00     0.023 H 
ATOM     28  H   LIG d   1       6.678  -3.200  -8.630  0.00  0.00     0.023 H 
ENDBRANCH  22  25
ENDBRANCH  19  22
ENDBRANCH   7  19
BRANCH  15  29
ATOM     29  C   LIG d   1       1.098  -0.780 -10.768  0.00  0.00    -0.040 C 
ATOM     30  H   LIG d   1       0.638  -1.533 -10.129  0.00  0.00     0.028 H 
ATOM     31  H   LIG d   1       0.679   0.199 -10.538  0.00  0.00     0.028 H 
ATOM     32  H   LIG d   1       0.903  -1.022 -11.813  0.00  0.00     0.028 H 
ENDBRANCH  15  29
ENDBRANCH   4   5
ENDBRANCH   1   4
BRANCH   1  33
ATOM     33  C   LIG d   1       3.669  -0.271  -5.692  0.00  0.00     0.253 C 
ATOM     34  O   LIG d   1       3.344   0.843  -6.042  0.00  0.00    -0.272 OA
ATOM     35  N   LIG d   1       3.600  -0.616  -4.391  0.00  0.00    -0.298 N 
ATOM     36  C   LIG d   1       3.991  -1.964  -3.949  0.00  0.00     0.023 C 
ATOM     37  C   LIG d   1       3.141   0.347  -3.383  0.00  0.00     0.019 C 
ATOM     38  C   LIG d   1       5.062  -1.794  -2.858  0.00  0.00     0.016 C 
ATOM     39  H   LIG d   1       3.125  -2.486  -3.540  0.00  0.00     0.047 H 
ATOM     40  H   LIG d   1       4.402  -2.526  -4.787  0.00  0.00     0.047 H 
ATOM     41  C   LIG d   1       4.451  -0.991  -1.706  0.00  0.00    -0.037 C 
ATOM     42  H   LIG d   1       5.393  -2.770  -2.501  0.00  0.00     0.038 H 
ATOM     43  C   LIG d   1       6.214  -1.026  -3.462  0.00  0.00     0.027 A 
ATOM     44  C   LIG d   1       4.115   0.409  -2.222  0.00  0.00    -0.006 C 
ATOM     45  H   LIG d   1       3.543  -1.482  -1.356  0.00  0.00     0.028 H 
ATOM     46  H   LIG d   1       5.169  -0.919  -0.888  0.00  0.00     0.028 H 
ATOM     47  H   LIG d   1       3.630   0.957  -1.414  0.00  0.00     0.033 H 
ATOM     48  C   LIG d   1       5.392   1.143  -2.588  0.00  0.00     0.031 C 
ATOM     49  N   LIG d   1       6.300   0.323  -3.388  0.00  0.00    -0.312 N 
ATOM     50  H   LIG d   1       5.133   2.038  -3.155  0.00  0.00     0.050 H 
ATOM     51  H   LIG d   1       5.902   1.443  -1.673  0.00  0.00     0.050 H 
ATOM     52  C   LIG d   1       7.278   0.975  -4.066  0.00  0.00     0.252 A 
ATOM     53  C   LIG d   1       8.285   0.263  -4.732  0.00  0.00     0.003 A 
ATOM     54  O   LIG d   1       7.280   2.194  -4.096  0.00  0.00    -0.268 OA
ATOM     55  C   LIG d   1       8.241  -1.101  -4.738  0.00  0.00    -0.055 A 
ATOM     56  H   LIG d   1       9.085   0.787  -5.234  0.00  0.00     0.067 H 
ATOM     57  C   LIG d   1       7.177  -1.745  -4.098  0.00  0.00    -0.042 A 
ATOM     58  H   LIG d   1       9.015  -1.673  -5.229  0.00  0.00     0.062 H 
ATOM     59  H   LIG d   1       7.120  -2.823  -4.108  0.00  0.00     0.064 H 
ATOM     60  H   LIG d   1       3.060   1.334  -3.837  0.00  0.00     0.047 H 
ATOM     61  H   LIG d   1       2.162   0.041  -3.013  0.00  0.00     0.047 H 
ENDBRANCH   1  33
TORSDOF 7
ENDMDL
MODEL 6
REMARK VINA RESULT:      -7.4      2.716      7.436
REMARK  7 active torsions:
REMARK  status: ('A' for Active; 'I' for Inactive)
REMARK    1  A    between atoms: C_1  and  C_2 
REMARK    2  A    between atoms: C_2  and  C_3 
REMARK    3  A    between atoms: C_3  and  C_4 
REMARK    4  A    between atoms: C_11  and  O_16 
REMARK    5  A    between atoms: C_13  and  C_15 
REMARK    6  A    between atoms: O_16  and  C_17 
REMARK    7  A    between atoms: C_17  and  C_18 
REMARK       I    between atoms: C_18  and  N_20 
ROOT
ATOM      1  C   LIG d   1       5.578  -2.664  -7.200  0.00  0.00     0.165 C 
ATOM      2  H   LIG d   1       6.427  -3.149  -6.718  0.00  0.00     0.080 H 
ATOM      3  H   LIG d   1       4.655  -3.153  -6.888  0.00  0.00     0.080 H 
ENDROOT
BRANCH   1   4
ATOM      4  O   LIG d   1       5.539  -1.287  -6.819  0.00  0.00    -0.482 OA
BRANCH   4   5
ATOM      5  C   LIG d   1       5.538  -1.015  -5.489  0.00  0.00     0.132 A 
ATOM      6  C   LIG d   1       6.391  -0.030  -4.968  0.00  0.00     0.062 A 
ATOM      7  C   LIG d   1       7.296   0.722  -5.838  0.00  0.00    -0.026 A 
ATOM      8  C   LIG d   1       6.384   0.245  -3.588  0.00  0.00     0.143 A 
ATOM      9  C   LIG d   1       8.102   1.658  -5.270  0.00  0.00     0.027 A 
ATOM     10  C   LIG d   1       8.039   1.885  -3.880  0.00  0.00     0.338 A 
ATOM     11  H   LIG d   1       8.784   2.228  -5.882  0.00  0.00     0.069 H 
ATOM     12  O   LIG d   1       8.764   2.730  -3.384  0.00  0.00    -0.245 OA
ATOM     13  O   LIG d   1       7.206   1.192  -3.088  0.00  0.00    -0.422 OA
ATOM     14  C   LIG d   1       5.530  -0.463  -2.755  0.00  0.00    -0.015 A 
ATOM     15  C   LIG d   1       4.695  -1.429  -3.280  0.00  0.00    -0.043 A 
ATOM     16  H   LIG d   1       5.519  -0.258  -1.695  0.00  0.00     0.066 H 
ATOM     17  C   LIG d   1       4.696  -1.707  -4.636  0.00  0.00    -0.016 A 
ATOM     18  H   LIG d   1       4.037  -2.466  -5.030  0.00  0.00     0.066 H 
BRANCH   7  19
ATOM     19  C   LIG d   1       7.338   0.462  -7.321  0.00  0.00    -0.027 C 
ATOM     20  H   LIG d   1       6.410  -0.018  -7.633  0.00  0.00     0.031 H 
ATOM     21  H   LIG d   1       8.179  -0.191  -7.552  0.00  0.00     0.031 H 
BRANCH  19  22
ATOM     22  C   LIG d   1       7.501   1.788  -8.067  0.00  0.00    -0.052 C 
ATOM     23  H   LIG d   1       8.022   2.502  -7.429  0.00  0.00     0.027 H 
ATOM     24  H   LIG d   1       6.519   2.182  -8.327  0.00  0.00     0.027 H 
BRANCH  22  25
ATOM     25  C   LIG d   1       8.313   1.558  -9.345  0.00  0.00    -0.065 C 
ATOM     26  H   LIG d   1       9.025   2.373  -9.474  0.00  0.00     0.023 H 
ATOM     27  H   LIG d   1       8.851   0.613  -9.268  0.00  0.00     0.023 H 
ATOM     28  H   LIG d   1       7.640   1.524 -10.201  0.00  0.00     0.023 H 
ENDBRANCH  22  25
ENDBRANCH  19  22
ENDBRANCH   7  19
BRANCH  15  29
ATOM     29  C   LIG d   1       3.771  -2.192  -2.365  0.00  0.00    -0.040 C 
ATOM     30  H   LIG d   1       2.892  -1.586  -2.149  0.00  0.00     0.028 H 
ATOM     31  H   LIG d   1       3.466  -3.120  -2.849  0.00  0.00     0.028 H 
ATOM     32  H   LIG d   1       4.290  -2.423  -1.434  0.00  0.00     0.028 H 
ENDBRANCH  15  29
ENDBRANCH   4   5
ENDBRANCH   1   4
BRANCH   1  33
ATOM     33  C   LIG d   1       5.722  -2.768  -8.696  0.00  0.00     0.253 C 
ATOM     34  O   LIG d   1       6.801  -2.578  -9.216  0.00  0.00    -0.272 OA
ATOM     35  N   LIG d   1       4.652  -3.070  -9.457  0.00  0.00    -0.298 N 
ATOM     36  C   LIG d   1       3.334  -3.304  -8.842  0.00  0.00     0.023 C 
ATOM     37  C   LIG d   1       4.772  -3.169 -10.915  0.00  0.00     0.019 C 
ATOM     38  C   LIG d   1       2.340  -2.344  -9.517  0.00  0.00     0.016 C 
ATOM     39  H   LIG d   1       3.025  -4.336  -9.009  0.00  0.00     0.047 H 
ATOM     40  H   LIG d   1       3.382  -3.097  -7.773  0.00  0.00     0.047 H 
ATOM     41  C   LIG d   1       2.312  -2.656 -11.015  0.00  0.00    -0.037 C 
ATOM     42  H   LIG d   1       1.345  -2.472  -9.089  0.00  0.00     0.038 H 
ATOM     43  C   LIG d   1       2.840  -0.936  -9.298  0.00  0.00     0.027 A 
ATOM     44  C   LIG d   1       3.693  -2.347 -11.596  0.00  0.00    -0.006 C 
ATOM     45  H   LIG d   1       2.077  -3.710 -11.167  0.00  0.00     0.028 H 
ATOM     46  H   LIG d   1       1.560  -2.037 -11.507  0.00  0.00     0.028 H 
ATOM     47  H   LIG d   1       3.684  -2.624 -12.650  0.00  0.00     0.033 H 
ATOM     48  C   LIG d   1       3.969  -0.857 -11.504  0.00  0.00     0.031 C 
ATOM     49  N   LIG d   1       3.645  -0.309 -10.188  0.00  0.00    -0.312 N 
ATOM     50  H   LIG d   1       5.025  -0.681 -11.709  0.00  0.00     0.050 H 
ATOM     51  H   LIG d   1       3.374  -0.341 -12.257  0.00  0.00     0.050 H 
ATOM     52  C   LIG d   1       4.180   0.899  -9.879  0.00  0.00     0.252 A 
ATOM     53  C   LIG d   1       3.804   1.572  -8.709  0.00  0.00     0.003 A 
ATOM     54  O   LIG d   1       4.999   1.405 -10.629  0.00  0.00    -0.268 OA
ATOM     55  C   LIG d   1       2.929   0.973  -7.850  0.00  0.00    -0.055 A 
ATOM     56  H   LIG d   1       4.200   2.553  -8.490  0.00  0.00     0.067 H 
ATOM     57  C   LIG d   1       2.455  -0.307  -8.155  0.00  0.00    -0.042 A 
ATOM     58  H   LIG d   1       2.609   1.478  -6.951  0.00  0.00     0.062 H 
ATOM     59  H   LIG d   1       1.774  -0.801  -7.477  0.00  0.00     0.064 H 
ATOM     60  H   LIG d   1       5.750  -2.802 -11.223  0.00  0.00     0.047 H 
ATOM     61  H   LIG d   1       4.669  -4.212 -11.216  0.00  0.00     0.047 H 
ENDBRANCH   1  33
TORSDOF 7
ENDMDL
MODEL 7
REMARK VINA RESULT:      -7.3      4.061      9.658
REMARK  7 active torsions:
REMARK  status: ('A' for Active; 'I' for Inactive)
REMARK    1  A    between atoms: C_1  and  C_2 
REMARK    2  A    between atoms: C_2  and  C_3 
REMARK    3  A    between atoms: C_3  and  C_4 
REMARK    4  A    between atoms: C_11  and  O_16 
REMARK    5  A    between atoms: C_13  and  C_15 
REMARK    6  A    between atoms: O_16  and  C_17 
REMARK    7  A    between atoms: C_17  and  C_18 
REMARK       I    between atoms: C_18  and  N_20 
ROOT
ATOM      1  C   LIG d   1       8.180   1.313  -3.993  0.00  0.00     0.165 C 
ATOM      2  H   LIG d   1       7.934   0.728  -3.107  0.00  0.00     0.080 H 
ATOM      3  H   LIG d   1       7.853   2.344  -3.850  0.00  0.00     0.080 H 
ENDROOT
BRANCH   1   4
ATOM      4  O   LIG d   1       9.594   1.287  -4.202  0.00  0.00    -0.482 OA
BRANCH   4   5
ATOM      5  C   LIG d   1      10.296   2.379  -3.803  0.00  0.00     0.132 A 
ATOM      6  C   LIG d   1      11.697   2.335  -3.744  0.00  0.00     0.062 A 
ATOM      7  C   LIG d   1      12.431   1.121  -4.107  0.00  0.00    -0.026 A 
ATOM      8  C   LIG d   1      12.418   3.470  -3.329  0.00  0.00     0.143 A 
ATOM      9  C   LIG d   1      13.787   1.142  -4.022  0.00  0.00     0.027 A 
ATOM     10  C   LIG d   1      14.445   2.316  -3.603  0.00  0.00     0.338 A 
ATOM     11  H   LIG d   1      14.359   0.263  -4.278  0.00  0.00     0.069 H 
ATOM     12  O   LIG d   1      15.661   2.323  -3.535  0.00  0.00    -0.245 OA
ATOM     13  O   LIG d   1      13.766   3.426  -3.272  0.00  0.00    -0.422 OA
ATOM     14  C   LIG d   1      11.731   4.625  -2.983  0.00  0.00    -0.015 A 
ATOM     15  C   LIG d   1      10.352   4.656  -3.046  0.00  0.00    -0.043 A 
ATOM     16  H   LIG d   1      12.277   5.501  -2.664  0.00  0.00     0.066 H 
ATOM     17  C   LIG d   1       9.635   3.543  -3.452  0.00  0.00    -0.016 A 
ATOM     18  H   LIG d   1       8.558   3.584  -3.496  0.00  0.00     0.066 H 
BRANCH   7  19
ATOM     19  C   LIG d   1      11.702  -0.118  -4.556  0.00  0.00    -0.027 C 
ATOM     20  H   LIG d   1      11.546  -0.078  -5.634  0.00  0.00     0.031 H 
ATOM     21  H   LIG d   1      10.738  -0.176  -4.051  0.00  0.00     0.031 H 
BRANCH  19  22
ATOM     22  C   LIG d   1      12.535  -1.354  -4.208  0.00  0.00    -0.052 C 
ATOM     23  H   LIG d   1      12.940  -1.247  -3.202  0.00  0.00     0.027 H 
ATOM     24  H   LIG d   1      13.354  -1.453  -4.921  0.00  0.00     0.027 H 
BRANCH  22  25
ATOM     25  C   LIG d   1      11.649  -2.601  -4.272  0.00  0.00    -0.065 C 
ATOM     26  H   LIG d   1      11.760  -3.172  -3.351  0.00  0.00     0.023 H 
ATOM     27  H   LIG d   1      10.609  -2.301  -4.392  0.00  0.00     0.023 H 
ATOM     28  H   LIG d   1      11.949  -3.216  -5.120  0.00  0.00     0.023 H 
ENDBRANCH  22  25
ENDBRANCH  19  22
ENDBRANCH   7  19
BRANCH  15  29
ATOM     29  C   LIG d   1       9.618   5.916  -2.667  0.00  0.00    -0.040 C 
ATOM     30  H   LIG d   1       8.821   5.675  -1.964  0.00  0.00     0.028 H 
ATOM     31  H   LIG d   1      10.313   6.616  -2.204  0.00  0.00     0.028 H 
ATOM     32  H   LIG d   1       9.188   6.369  -3.561  0.00  0.00     0.028 H 
ENDBRANCH  15  29
ENDBRANCH   4   5
ENDBRANCH   1   4
BRANCH   1  33
ATOM     33  C   LIG d   1       7.484   0.726  -5.193  0.00  0.00     0.253 C 
ATOM     34  O   LIG d   1       7.291   1.408  -6.176  0.00  0.00    -0.272 OA
ATOM     35  N   LIG d   1       7.074  -0.558  -5.173  0.00  0.00    -0.298 N 
ATOM     36  C   LIG d   1       7.299  -1.401  -3.988  0.00  0.00     0.023 C 
ATOM     37  C   LIG d   1       6.389  -1.144  -6.330  0.00  0.00     0.019 C 
ATOM     38  C   LIG d   1       5.932  -1.961  -3.560  0.00  0.00     0.016 C 
ATOM     39  H   LIG d   1       7.974  -2.220  -4.238  0.00  0.00     0.047 H 
ATOM     40  H   LIG d   1       7.724  -0.802  -3.181  0.00  0.00     0.047 H 
ATOM     41  C   LIG d   1       5.365  -2.782  -4.721  0.00  0.00    -0.037 C 
ATOM     42  H   LIG d   1       6.044  -2.589  -2.676  0.00  0.00     0.038 H 
ATOM     43  C   LIG d   1       5.025  -0.788  -3.273  0.00  0.00     0.027 A 
ATOM     44  C   LIG d   1       5.111  -1.839  -5.897  0.00  0.00    -0.006 C 
ATOM     45  H   LIG d   1       6.082  -3.550  -5.013  0.00  0.00     0.028 H 
ATOM     46  H   LIG d   1       4.428  -3.251  -4.416  0.00  0.00     0.028 H 
ATOM     47  H   LIG d   1       4.760  -2.437  -6.738  0.00  0.00     0.033 H 
ATOM     48  C   LIG d   1       4.019  -0.848  -5.537  0.00  0.00     0.031 C 
ATOM     49  N   LIG d   1       4.216  -0.253  -4.217  0.00  0.00    -0.312 N 
ATOM     50  H   LIG d   1       4.003  -0.054  -6.284  0.00  0.00     0.050 H 
ATOM     51  H   LIG d   1       3.058  -1.362  -5.551  0.00  0.00     0.050 H 
ATOM     52  C   LIG d   1       3.528   0.885  -3.949  0.00  0.00     0.252 A 
ATOM     53  C   LIG d   1       3.534   1.441  -2.663  0.00  0.00     0.003 A 
ATOM     54  O   LIG d   1       2.896   1.431  -4.839  0.00  0.00    -0.268 OA
ATOM     55  C   LIG d   1       4.288   0.854  -1.689  0.00  0.00    -0.055 A 
ATOM     56  H   LIG d   1       2.949   2.323  -2.445  0.00  0.00     0.067 H 
ATOM     57  C   LIG d   1       5.051  -0.273  -2.014  0.00  0.00    -0.042 A 
ATOM     58  H   LIG d   1       4.296   1.252  -0.685  0.00  0.00     0.062 H 
ATOM     59  H   LIG d   1       5.665  -0.740  -1.258  0.00  0.00     0.064 H 
ATOM     60  H   LIG d   1       6.146  -0.358  -7.043  0.00  0.00     0.047 H 
ATOM     61  H   LIG d   1       7.046  -1.871  -6.808  0.00  0.00     0.047 H 
ENDBRANCH   1  33
TORSDOF 7
ENDMDL
MODEL 8
REMARK VINA RESULT:      -7.2      1.592      2.198
REMARK  7 active torsions:
REMARK  status: ('A' for Active; 'I' for Inactive)
REMARK    1  A    between atoms: C_1  and  C_2 
REMARK    2  A    between atoms: C_2  and  C_3 
REMARK    3  A    between atoms: C_3  and  C_4 
REMARK    4  A    between atoms: C_11  and  O_16 
REMARK    5  A    between atoms: C_13  and  C_15 
REMARK    6  A    between atoms: O_16  and  C_17 
REMARK    7  A    between atoms: C_17  and  C_18 
REMARK       I    between atoms: C_18  and  N_20 
ROOT
ATOM      1  C   LIG d   1       3.337  -0.894  -6.767  0.00  0.00     0.165 C 
ATOM      2  H   LIG d   1       2.436  -0.281  -6.801  0.00  0.00     0.080 H 
ATOM      3  H   LIG d   1       3.104  -1.856  -6.309  0.00  0.00     0.080 H 
ENDROOT
BRANCH   1   4
ATOM      4  O   LIG d   1       3.821  -1.103  -8.095  0.00  0.00    -0.482 OA
BRANCH   4   5
ATOM      5  C   LIG d   1       3.386  -2.216  -8.741  0.00  0.00     0.132 A 
ATOM      6  C   LIG d   1       2.515  -2.103  -9.835  0.00  0.00     0.062 A 
ATOM      7  C   LIG d   1       2.057  -0.794 -10.304  0.00  0.00    -0.026 A 
ATOM      8  C   LIG d   1       2.068  -3.260 -10.499  0.00  0.00     0.143 A 
ATOM      9  C   LIG d   1       1.209  -0.753 -11.365  0.00  0.00     0.027 A 
ATOM     10  C   LIG d   1       0.805  -1.953 -11.985  0.00  0.00     0.338 A 
ATOM     11  H   LIG d   1       0.848   0.196 -11.733  0.00  0.00     0.069 H 
ATOM     12  O   LIG d   1       0.048  -1.902 -12.938  0.00  0.00    -0.245 OA
ATOM     13  O   LIG d   1       1.229  -3.150 -11.550  0.00  0.00    -0.422 OA
ATOM     14  C   LIG d   1       2.497  -4.506 -10.061  0.00  0.00    -0.015 A 
ATOM     15  C   LIG d   1       3.354  -4.604  -8.984  0.00  0.00    -0.043 A 
ATOM     16  H   LIG d   1       2.158  -5.399 -10.565  0.00  0.00     0.066 H 
ATOM     17  C   LIG d   1       3.797  -3.470  -8.324  0.00  0.00    -0.016 A 
ATOM     18  H   LIG d   1       4.468  -3.564  -7.484  0.00  0.00     0.066 H 
BRANCH   7  19
ATOM     19  C   LIG d   1       2.509   0.473  -9.624  0.00  0.00    -0.027 C 
ATOM     20  H   LIG d   1       2.936   0.231  -8.651  0.00  0.00     0.031 H 
ATOM     21  H   LIG d   1       1.656   1.138  -9.492  0.00  0.00     0.031 H 
BRANCH  19  22
ATOM     22  C   LIG d   1       3.566   1.164 -10.487  0.00  0.00    -0.052 C 
ATOM     23  H   LIG d   1       3.076   1.721 -11.287  0.00  0.00     0.027 H 
ATOM     24  H   LIG d   1       4.230   0.416 -10.919  0.00  0.00     0.027 H 
BRANCH  22  25
ATOM     25  C   LIG d   1       4.381   2.128  -9.621  0.00  0.00    -0.065 C 
ATOM     26  H   LIG d   1       4.818   1.583  -8.784  0.00  0.00     0.023 H 
ATOM     27  H   LIG d   1       5.176   2.572 -10.220  0.00  0.00     0.023 H 
ATOM     28  H   LIG d   1       3.730   2.915  -9.241  0.00  0.00     0.023 H 
ENDBRANCH  22  25
ENDBRANCH  19  22
ENDBRANCH   7  19
BRANCH  15  29
ATOM     29  C   LIG d   1       3.812  -5.962  -8.518  0.00  0.00    -0.040 C 
ATOM     30  H   LIG d   1       2.959  -6.522  -8.138  0.00  0.00     0.028 H 
ATOM     31  H   LIG d   1       4.259  -6.501  -9.354  0.00  0.00     0.028 H 
ATOM     32  H   LIG d   1       4.552  -5.844  -7.726  0.00  0.00     0.028 H 
ENDBRANCH  15  29
ENDBRANCH   4   5
ENDBRANCH   1   4
BRANCH   1  33
ATOM     33  C   LIG d   1       4.392  -0.192  -5.952  0.00  0.00     0.253 C 
ATOM     34  O   LIG d   1       5.270   0.434  -6.508  0.00  0.00    -0.272 OA
ATOM     35  N   LIG d   1       4.362  -0.259  -4.607  0.00  0.00    -0.298 N 
ATOM     36  C   LIG d   1       3.304  -1.015  -3.916  0.00  0.00     0.023 C 
ATOM     37  C   LIG d   1       5.385   0.412  -3.798  0.00  0.00     0.019 C 
ATOM     38  C   LIG d   1       3.998  -2.033  -2.994  0.00  0.00     0.016 C 
ATOM     39  H   LIG d   1       2.690  -0.336  -3.323  0.00  0.00     0.047 H 
ATOM     40  H   LIG d   1       2.684  -1.537  -4.645  0.00  0.00     0.047 H 
ATOM     41  C   LIG d   1       4.867  -1.263  -1.997  0.00  0.00    -0.037 C 
ATOM     42  H   LIG d   1       3.253  -2.626  -2.463  0.00  0.00     0.038 H 
ATOM     43  C   LIG d   1       4.869  -2.914  -3.858  0.00  0.00     0.027 A 
ATOM     44  C   LIG d   1       5.970  -0.544  -2.775  0.00  0.00    -0.006 C 
ATOM     45  H   LIG d   1       4.257  -0.533  -1.464  0.00  0.00     0.028 H 
ATOM     46  H   LIG d   1       5.314  -1.959  -1.285  0.00  0.00     0.028 H 
ATOM     47  H   LIG d   1       6.551   0.047  -2.067  0.00  0.00     0.033 H 
ATOM     48  C   LIG d   1       6.898  -1.561  -3.413  0.00  0.00     0.031 C 
ATOM     49  N   LIG d   1       6.172  -2.633  -4.093  0.00  0.00    -0.312 N 
ATOM     50  H   LIG d   1       7.535  -1.052  -4.137  0.00  0.00     0.050 H 
ATOM     51  H   LIG d   1       7.527  -1.999  -2.638  0.00  0.00     0.050 H 
ATOM     52  C   LIG d   1       6.873  -3.376  -4.986  0.00  0.00     0.252 A 
ATOM     53  C   LIG d   1       6.306  -4.517  -5.570  0.00  0.00     0.003 A 
ATOM     54  O   LIG d   1       8.009  -3.046  -5.285  0.00  0.00    -0.268 OA
ATOM     55  C   LIG d   1       5.016  -4.845  -5.271  0.00  0.00    -0.055 A 
ATOM     56  H   LIG d   1       6.883  -5.129  -6.248  0.00  0.00     0.067 H 
ATOM     57  C   LIG d   1       4.292  -4.016  -4.408  0.00  0.00    -0.042 A 
ATOM     58  H   LIG d   1       4.562  -5.729  -5.693  0.00  0.00     0.062 H 
ATOM     59  H   LIG d   1       3.265  -4.253  -4.174  0.00  0.00     0.064 H 
ATOM     60  H   LIG d   1       6.181   0.772  -4.449  0.00  0.00     0.047 H 
ATOM     61  H   LIG d   1       4.936   1.260  -3.280  0.00  0.00     0.047 H 
ENDBRANCH   1  33
TORSDOF 7
ENDMDL
MODEL 9
REMARK VINA RESULT:      -7.1      4.058      9.068
REMARK  7 active torsions:
REMARK  status: ('A' for Active; 'I' for Inactive)
REMARK    1  A    between atoms: C_1  and  C_2 
REMARK    2  A    between atoms: C_2  and  C_3 
REMARK    3  A    between atoms: C_3  and  C_4 
REMARK    4  A    between atoms: C_11  and  O_16 
REMARK    5  A    between atoms: C_13  and  C_15 
REMARK    6  A    between atoms: O_16  and  C_17 
REMARK    7  A    between atoms: C_17  and  C_18 
REMARK       I    between atoms: C_18  and  N_20 
ROOT
ATOM      1  C   LIG d   1       8.155   1.301  -4.190  0.00  0.00     0.165 C 
ATOM      2  H   LIG d   1       8.619   0.523  -3.584  0.00  0.00     0.080 H 
ATOM      3  H   LIG d   1       7.457   1.872  -3.577  0.00  0.00     0.080 H 
ENDROOT
BRANCH   1   4
ATOM      4  O   LIG d   1       9.165   2.173  -4.701  0.00  0.00    -0.482 OA
BRANCH   4   5
ATOM      5  C   LIG d   1      10.455   1.845  -4.433  0.00  0.00     0.132 A 
ATOM      6  C   LIG d   1      11.359   2.830  -4.005  0.00  0.00     0.062 A 
ATOM      7  C   LIG d   1      10.939   4.222  -3.839  0.00  0.00    -0.026 A 
ATOM      8  C   LIG d   1      12.695   2.483  -3.729  0.00  0.00     0.143 A 
ATOM      9  C   LIG d   1      11.865   5.127  -3.428  0.00  0.00     0.027 A 
ATOM     10  C   LIG d   1      13.185   4.709  -3.165  0.00  0.00     0.338 A 
ATOM     11  H   LIG d   1      11.589   6.164  -3.300  0.00  0.00     0.069 H 
ATOM     12  O   LIG d   1      14.004   5.530  -2.793  0.00  0.00    -0.245 OA
ATOM     13  O   LIG d   1      13.564   3.431  -3.319  0.00  0.00    -0.422 OA
ATOM     14  C   LIG d   1      13.103   1.165  -3.883  0.00  0.00    -0.015 A 
ATOM     15  C   LIG d   1      12.204   0.206  -4.304  0.00  0.00    -0.043 A 
ATOM     16  H   LIG d   1      14.127   0.891  -3.673  0.00  0.00     0.066 H 
ATOM     17  C   LIG d   1      10.888   0.540  -4.579  0.00  0.00    -0.016 A 
ATOM     18  H   LIG d   1      10.198  -0.222  -4.907  0.00  0.00     0.066 H 
BRANCH   7  19
ATOM     19  C   LIG d   1       9.519   4.640  -4.123  0.00  0.00    -0.027 C 
ATOM     20  H   LIG d   1       9.061   5.018  -3.209  0.00  0.00     0.031 H 
ATOM     21  H   LIG d   1       8.953   3.782  -4.486  0.00  0.00     0.031 H 
BRANCH  19  22
ATOM     22  C   LIG d   1       9.515   5.740  -5.186  0.00  0.00    -0.052 C 
ATOM     23  H   LIG d   1      10.264   6.491  -4.935  0.00  0.00     0.027 H 
ATOM     24  H   LIG d   1       8.531   6.207  -5.224  0.00  0.00     0.027 H 
BRANCH  22  25
ATOM     25  C   LIG d   1       9.842   5.131  -6.552  0.00  0.00    -0.065 C 
ATOM     26  H   LIG d   1      10.223   4.118  -6.416  0.00  0.00     0.023 H 
ATOM     27  H   LIG d   1       8.940   5.101  -7.162  0.00  0.00     0.023 H 
ATOM     28  H   LIG d   1      10.597   5.739  -7.050  0.00  0.00     0.023 H 
ENDBRANCH  22  25
ENDBRANCH  19  22
ENDBRANCH   7  19
BRANCH  15  29
ATOM     29  C   LIG d   1      12.660  -1.221  -4.468  0.00  0.00    -0.040 C 
ATOM     30  H   LIG d   1      11.790  -1.876  -4.522  0.00  0.00     0.028 H 
ATOM     31  H   LIG d   1      13.243  -1.313  -5.384  0.00  0.00     0.028 H 
ATOM     32  H   LIG d   1      13.276  -1.506  -3.615  0.00  0.00     0.028 H 
ENDBRANCH  15  29
ENDBRANCH   4   5
ENDBRANCH   1   4
BRANCH   1  33
ATOM     33  C   LIG d   1       7.412   0.666  -5.338  0.00  0.00     0.253 C 
ATOM     34  O   LIG d   1       7.174   1.311  -6.337  0.00  0.00    -0.272 OA
ATOM     35  N   LIG d   1       7.011  -0.617  -5.254  0.00  0.00    -0.298 N 
ATOM     36  C   LIG d   1       7.290  -1.415  -4.049  0.00  0.00     0.023 C 
ATOM     37  C   LIG d   1       6.281  -1.249  -6.358  0.00  0.00     0.019 C 
ATOM     38  C   LIG d   1       5.946  -1.965  -3.543  0.00  0.00     0.016 C 
ATOM     39  H   LIG d   1       7.959  -2.240  -4.297  0.00  0.00     0.047 H 
ATOM     40  H   LIG d   1       7.745  -0.786  -3.284  0.00  0.00     0.047 H 
ATOM     41  C   LIG d   1       5.335  -2.831  -4.648  0.00  0.00    -0.037 C 
ATOM     42  H   LIG d   1       6.098  -2.559  -2.642  0.00  0.00     0.038 H 
ATOM     43  C   LIG d   1       5.045  -0.786  -3.261  0.00  0.00     0.027 A 
ATOM     44  C   LIG d   1       5.026  -1.933  -5.847  0.00  0.00    -0.006 C 
ATOM     45  H   LIG d   1       6.043  -3.606  -4.942  0.00  0.00     0.028 H 
ATOM     46  H   LIG d   1       4.414  -3.291  -4.288  0.00  0.00     0.028 H 
ATOM     47  H   LIG d   1       4.644  -2.563  -6.650  0.00  0.00     0.033 H 
ATOM     48  C   LIG d   1       3.944  -0.934  -5.478  0.00  0.00     0.031 C 
ATOM     49  N   LIG d   1       4.194  -0.289  -4.189  0.00  0.00    -0.312 N 
ATOM     50  H   LIG d   1       3.893  -0.168  -6.252  0.00  0.00     0.050 H 
ATOM     51  H   LIG d   1       2.987  -1.452  -5.432  0.00  0.00     0.050 H 
ATOM     52  C   LIG d   1       3.511   0.855  -3.935  0.00  0.00     0.252 A 
ATOM     53  C   LIG d   1       3.568   1.458  -2.671  0.00  0.00     0.003 A 
ATOM     54  O   LIG d   1       2.839   1.365  -4.817  0.00  0.00    -0.268 OA
ATOM     55  C   LIG d   1       4.365   0.910  -1.709  0.00  0.00    -0.055 A 
ATOM     56  H   LIG d   1       2.988   2.345  -2.461  0.00  0.00     0.067 H 
ATOM     57  C   LIG d   1       5.120  -0.224  -2.025  0.00  0.00    -0.042 A 
ATOM     58  H   LIG d   1       4.413   1.345  -0.722  0.00  0.00     0.062 H 
ATOM     59  H   LIG d   1       5.768  -0.660  -1.279  0.00  0.00     0.064 H 
ATOM     60  H   LIG d   1       6.003  -0.490  -7.089  0.00  0.00     0.047 H 
ATOM     61  H   LIG d   1       6.922  -1.990  -6.837  0.00  0.00     0.047 H 
ENDBRANCH   1  33
TORSDOF 7
ENDMDL
