MODEL 1
REMARK VINA RESULT:      -6.7      0.000      0.000
REMARK  6 active torsions:
REMARK  status: ('A' for Active; 'I' for Inactive)
REMARK    1  A    between atoms: C_1  and  N_2 
REMARK    2  A    between atoms: N_2  and  C_3 
REMARK       I    between atoms: N_2  and  C_11 
REMARK    3  A    between atoms: C_8  and  C_9 
REMARK    4  A    between atoms: C_11  and  C_13 
REMARK    5  A    between atoms: C_13  and  C_14 
REMARK    6  A    between atoms: C_14  and  C_15 
ROOT
ATOM      1  N   LIG d   1       3.032   1.017  -8.312  0.00  0.00    -0.274 N 
ATOM      2  C   LIG d   1       3.077   0.322  -7.157  0.00  0.00     0.220 C 
ATOM      3  O   LIG d   1       3.364  -0.856  -7.169  0.00  0.00    -0.275 OA
ENDROOT
BRANCH   2   4
ATOM      4  C   LIG d   1       2.769   1.010  -5.852  0.00  0.00     0.028 C 
ATOM      5  H   LIG d   1       3.694   1.377  -5.408  0.00  0.00     0.036 H 
ATOM      6  H   LIG d   1       2.095   1.848  -6.033  0.00  0.00     0.036 H 
BRANCH   4   7
ATOM      7  C   LIG d   1       2.104   0.017  -4.897  0.00  0.00    -0.019 C 
ATOM      8  H   LIG d   1       1.138   0.411  -4.578  0.00  0.00     0.032 H 
ATOM      9  H   LIG d   1       1.957  -0.935  -5.406  0.00  0.00     0.032 H 
BRANCH   7  10
ATOM     10  C   LIG d   1       2.985  -0.189  -3.692  0.00  0.00    -0.047 A 
ATOM     11  C   LIG d   1       3.281  -1.469  -3.263  0.00  0.00    -0.059 A 
ATOM     12  C   LIG d   1       4.091  -1.657  -2.158  0.00  0.00    -0.061 A 
ATOM     13  H   LIG d   1       2.882  -2.322  -3.792  0.00  0.00     0.062 H 
ATOM     14  C   LIG d   1       4.602  -0.566  -1.481  0.00  0.00    -0.062 A 
ATOM     15  H   LIG d   1       4.322  -2.657  -1.823  0.00  0.00     0.062 H 
ATOM     16  C   LIG d   1       4.305   0.714  -1.911  0.00  0.00    -0.061 A 
ATOM     17  H   LIG d   1       5.234  -0.713  -0.618  0.00  0.00     0.062 H 
ATOM     18  C   LIG d   1       3.501   0.902  -3.019  0.00  0.00    -0.059 A 
ATOM     19  H   LIG d   1       4.705   1.567  -1.382  0.00  0.00     0.062 H 
ATOM     20  H   LIG d   1       3.272   1.903  -3.357  0.00  0.00     0.062 H 
ENDBRANCH   7  10
ENDBRANCH   4   7
ENDBRANCH   2   4
BRANCH   1  21
ATOM     21  C   LIG d   1       2.685   2.440  -8.297  0.00  0.00     0.008 C 
ATOM     22  H   LIG d   1       1.621   2.553  -8.087  0.00  0.00     0.043 H 
ATOM     23  H   LIG d   1       3.263   2.947  -7.523  0.00  0.00     0.043 H 
ATOM     24  H   LIG d   1       2.913   2.879  -9.268  0.00  0.00     0.043 H 
ENDBRANCH   1  21
BRANCH   1  25
ATOM     25  C   LIG d   1       3.317   0.381  -9.518  0.00  0.00     0.045 A 
ATOM     26  C   LIG d   1       4.629   0.366 -10.014  0.00  0.00     0.019 A 
ATOM     27  C   LIG d   1       4.901  -0.276 -11.226  0.00  0.00    -0.051 A 
ATOM     28  C   LIG d   1       3.882  -0.886 -11.924  0.00  0.00    -0.061 A 
ATOM     29  H   LIG d   1       5.908  -0.292 -11.615  0.00  0.00     0.062 H 
ATOM     30  C   LIG d   1       2.587  -0.870 -11.430  0.00  0.00    -0.060 A 
ATOM     31  H   LIG d   1       4.093  -1.382 -12.860  0.00  0.00     0.062 H 
ATOM     32  C   LIG d   1       2.305  -0.245 -10.232  0.00  0.00    -0.040 A 
ATOM     33  H   LIG d   1       1.795  -1.352 -11.984  0.00  0.00     0.062 H 
ATOM     34  H   LIG d   1       1.293  -0.240  -9.852  0.00  0.00     0.064 H 
BRANCH  26  35
ATOM     35  C   LIG d   1       5.714   1.021  -9.263  0.00  0.00     0.073 C 
ATOM     36  O   LIG d   1       6.379   0.381  -8.473  0.00  0.00    -0.545 OA
ATOM     37  O   LIG d   1       5.970   2.330  -9.453  0.00  0.00    -0.545 OA
ENDBRANCH  26  35
ENDBRANCH   1  25
TORSDOF 6
ENDMDL
MODEL 2
REMARK VINA RESULT:      -6.5      2.223      6.894
REMARK  6 active torsions:
REMARK  status: ('A' for Active; 'I' for Inactive)
REMARK    1  A    between atoms: C_1  and  N_2 
REMARK    2  A    between atoms: N_2  and  C_3 
REMARK       I    between atoms: N_2  and  C_11 
REMARK    3  A    between atoms: C_8  and  C_9 
REMARK    4  A    between atoms: C_11  and  C_13 
REMARK    5  A    between atoms: C_13  and  C_14 
REMARK    6  A    between atoms: C_14  and  C_15 
ROOT
ATOM      1  N   LIG d   1       4.953  -0.335  -5.615  0.00  0.00    -0.274 N 
ATOM      2  C   LIG d   1       3.963   0.079  -6.431  0.00  0.00     0.220 C 
ATOM      3  O   LIG d   1       2.805  -0.058  -6.099  0.00  0.00    -0.275 OA
ENDROOT
BRANCH   2   4
ATOM      4  C   LIG d   1       4.297   0.712  -7.758  0.00  0.00     0.028 C 
ATOM      5  H   LIG d   1       4.969   1.555  -7.599  0.00  0.00     0.036 H 
ATOM      6  H   LIG d   1       4.782  -0.024  -8.399  0.00  0.00     0.036 H 
BRANCH   4   7
ATOM      7  C   LIG d   1       3.011   1.204  -8.426  0.00  0.00    -0.019 C 
ATOM      8  H   LIG d   1       2.174   1.080  -7.739  0.00  0.00     0.032 H 
ATOM      9  H   LIG d   1       3.116   2.257  -8.684  0.00  0.00     0.032 H 
BRANCH   7  10
ATOM     10  C   LIG d   1       2.757   0.404  -9.677  0.00  0.00    -0.047 A 
ATOM     11  C   LIG d   1       1.632  -0.394  -9.770  0.00  0.00    -0.059 A 
ATOM     12  C   LIG d   1       1.399  -1.127 -10.919  0.00  0.00    -0.061 A 
ATOM     13  H   LIG d   1       0.935  -0.443  -8.947  0.00  0.00     0.062 H 
ATOM     14  C   LIG d   1       2.291  -1.064 -11.973  0.00  0.00    -0.062 A 
ATOM     15  H   LIG d   1       0.520  -1.750 -10.992  0.00  0.00     0.062 H 
ATOM     16  C   LIG d   1       3.415  -0.267 -11.879  0.00  0.00    -0.061 A 
ATOM     17  H   LIG d   1       2.108  -1.637 -12.870  0.00  0.00     0.062 H 
ATOM     18  C   LIG d   1       3.646   0.471 -10.733  0.00  0.00    -0.059 A 
ATOM     19  H   LIG d   1       4.113  -0.217 -12.703  0.00  0.00     0.062 H 
ATOM     20  H   LIG d   1       4.523   1.098 -10.661  0.00  0.00     0.062 H 
ENDBRANCH   7  10
ENDBRANCH   4   7
ENDBRANCH   2   4
BRANCH   1  21
ATOM     21  C   LIG d   1       6.351  -0.169  -6.016  0.00  0.00     0.008 C 
ATOM     22  H   LIG d   1       6.735  -1.117  -6.396  0.00  0.00     0.043 H 
ATOM     23  H   LIG d   1       6.418   0.588  -6.798  0.00  0.00     0.043 H 
ATOM     24  H   LIG d   1       6.942   0.144  -5.156  0.00  0.00     0.043 H 
ENDBRANCH   1  21
BRANCH   1  25
ATOM     25  C   LIG d   1       4.644  -0.920  -4.389  0.00  0.00     0.045 A 
ATOM     26  C   LIG d   1       4.571  -0.131  -3.230  0.00  0.00     0.019 A 
ATOM     27  C   LIG d   1       4.260  -0.732  -2.006  0.00  0.00    -0.051 A 
ATOM     28  C   LIG d   1       4.029  -2.088  -1.945  0.00  0.00    -0.061 A 
ATOM     29  H   LIG d   1       4.202  -0.132  -1.110  0.00  0.00     0.062 H 
ATOM     30  C   LIG d   1       4.101  -2.863  -3.091  0.00  0.00    -0.060 A 
ATOM     31  H   LIG d   1       3.789  -2.550  -0.998  0.00  0.00     0.062 H 
ATOM     32  C   LIG d   1       4.401  -2.284  -4.308  0.00  0.00    -0.040 A 
ATOM     33  H   LIG d   1       3.918  -3.926  -3.034  0.00  0.00     0.062 H 
ATOM     34  H   LIG d   1       4.452  -2.895  -5.198  0.00  0.00     0.064 H 
BRANCH  26  35
ATOM     35  C   LIG d   1       4.820   1.319  -3.303  0.00  0.00     0.073 C 
ATOM     36  O   LIG d   1       3.891   2.088  -3.458  0.00  0.00    -0.545 OA
ATOM     37  O   LIG d   1       6.076   1.793  -3.196  0.00  0.00    -0.545 OA
ENDBRANCH  26  35
ENDBRANCH   1  25
TORSDOF 6
ENDMDL
MODEL 3
REMARK VINA RESULT:      -6.4      2.026      6.980
REMARK  6 active torsions:
REMARK  status: ('A' for Active; 'I' for Inactive)
REMARK    1  A    between atoms: C_1  and  N_2 
REMARK    2  A    between atoms: N_2  and  C_3 
REMARK       I    between atoms: N_2  and  C_11 
REMARK    3  A    between atoms: C_8  and  C_9 
REMARK    4  A    between atoms: C_11  and  C_13 
REMARK    5  A    between atoms: C_13  and  C_14 
REMARK    6  A    between atoms: C_14  and  C_15 
ROOT
ATOM      1  N   LIG d   1       4.103  -0.842  -5.649  0.00  0.00    -0.274 N 
ATOM      2  C   LIG d   1       3.529  -0.133  -6.642  0.00  0.00     0.220 C 
ATOM      3  O   LIG d   1       3.159   1.004  -6.441  0.00  0.00    -0.275 OA
ENDROOT
BRANCH   2   4
ATOM      4  C   LIG d   1       3.345  -0.756  -8.002  0.00  0.00     0.028 C 
ATOM      5  H   LIG d   1       4.320  -0.995  -8.427  0.00  0.00     0.036 H 
ATOM      6  H   LIG d   1       2.757  -1.670  -7.907  0.00  0.00     0.036 H 
BRANCH   4   7
ATOM      7  C   LIG d   1       2.615   0.227  -8.919  0.00  0.00    -0.019 C 
ATOM      8  H   LIG d   1       1.629   0.444  -8.508  0.00  0.00     0.032 H 
ATOM      9  H   LIG d   1       3.189   1.150  -8.992  0.00  0.00     0.032 H 
BRANCH   7  10
ATOM     10  C   LIG d   1       2.466  -0.380 -10.290  0.00  0.00    -0.047 A 
ATOM     11  C   LIG d   1       1.271  -0.971 -10.657  0.00  0.00    -0.059 A 
ATOM     12  C   LIG d   1       1.134  -1.528 -11.915  0.00  0.00    -0.061 A 
ATOM     13  H   LIG d   1       0.445  -0.996  -9.962  0.00  0.00     0.062 H 
ATOM     14  C   LIG d   1       2.191  -1.495 -12.805  0.00  0.00    -0.062 A 
ATOM     15  H   LIG d   1       0.201  -1.990 -12.202  0.00  0.00     0.062 H 
ATOM     16  C   LIG d   1       3.385  -0.904 -12.437  0.00  0.00    -0.061 A 
ATOM     17  H   LIG d   1       2.084  -1.930 -13.787  0.00  0.00     0.062 H 
ATOM     18  C   LIG d   1       3.521  -0.343 -11.181  0.00  0.00    -0.059 A 
ATOM     19  H   LIG d   1       4.211  -0.878 -13.133  0.00  0.00     0.062 H 
ATOM     20  H   LIG d   1       4.453   0.123 -10.896  0.00  0.00     0.062 H 
ENDBRANCH   7  10
ENDBRANCH   4   7
ENDBRANCH   2   4
BRANCH   1  21
ATOM     21  C   LIG d   1       4.549  -2.216  -5.892  0.00  0.00     0.008 C 
ATOM     22  H   LIG d   1       5.256  -2.511  -5.117  0.00  0.00     0.043 H 
ATOM     23  H   LIG d   1       3.688  -2.885  -5.872  0.00  0.00     0.043 H 
ATOM     24  H   LIG d   1       5.032  -2.274  -6.866  0.00  0.00     0.043 H 
ENDBRANCH   1  21
BRANCH   1  25
ATOM     25  C   LIG d   1       4.272  -0.265  -4.392  0.00  0.00     0.045 A 
ATOM     26  C   LIG d   1       5.535   0.203  -3.996  0.00  0.00     0.019 A 
ATOM     27  C   LIG d   1       5.691   0.778  -2.731  0.00  0.00    -0.051 A 
ATOM     28  C   LIG d   1       4.609   0.881  -1.885  0.00  0.00    -0.061 A 
ATOM     29  H   LIG d   1       6.659   1.141  -2.419  0.00  0.00     0.062 H 
ATOM     30  C   LIG d   1       3.364   0.418  -2.280  0.00  0.00    -0.060 A 
ATOM     31  H   LIG d   1       4.731   1.326  -0.908  0.00  0.00     0.062 H 
ATOM     32  C   LIG d   1       3.193  -0.147  -3.528  0.00  0.00    -0.040 A 
ATOM     33  H   LIG d   1       2.522   0.504  -1.610  0.00  0.00     0.062 H 
ATOM     34  H   LIG d   1       2.218  -0.503  -3.829  0.00  0.00     0.064 H 
BRANCH  26  35
ATOM     35  C   LIG d   1       6.688   0.089  -4.906  0.00  0.00     0.073 C 
ATOM     36  O   LIG d   1       7.494  -0.808  -4.756  0.00  0.00    -0.545 OA
ATOM     37  O   LIG d   1       6.847   0.978  -5.906  0.00  0.00    -0.545 OA
ENDBRANCH  26  35
ENDBRANCH   1  25
TORSDOF 6
ENDMDL
MODEL 4
REMARK VINA RESULT:      -6.3      2.189      3.241
REMARK  6 active torsions:
REMARK  status: ('A' for Active; 'I' for Inactive)
REMARK    1  A    between atoms: C_1  and  N_2 
REMARK    2  A    between atoms: N_2  and  C_3 
REMARK       I    between atoms: N_2  and  C_11 
REMARK    3  A    between atoms: C_8  and  C_9 
REMARK    4  A    between atoms: C_11  and  C_13 
REMARK    5  A    between atoms: C_13  and  C_14 
REMARK    6  A    between atoms: C_14  and  C_15 
ROOT
ATOM      1  N   LIG d   1       5.235  -0.536  -7.364  0.00  0.00    -0.274 N 
ATOM      2  C   LIG d   1       6.319  -0.135  -6.671  0.00  0.00     0.220 C 
ATOM      3  O   LIG d   1       6.714   1.007  -6.768  0.00  0.00    -0.275 OA
ENDROOT
BRANCH   2   4
ATOM      4  C   LIG d   1       7.042  -1.108  -5.775  0.00  0.00     0.028 C 
ATOM      5  H   LIG d   1       6.379  -1.937  -5.529  0.00  0.00     0.036 H 
ATOM      6  H   LIG d   1       7.925  -1.488  -6.289  0.00  0.00     0.036 H 
BRANCH   4   7
ATOM      7  C   LIG d   1       7.467  -0.397  -4.488  0.00  0.00    -0.019 C 
ATOM      8  H   LIG d   1       8.301  -0.934  -4.035  0.00  0.00     0.032 H 
ATOM      9  H   LIG d   1       7.775   0.622  -4.720  0.00  0.00     0.032 H 
BRANCH   7  10
ATOM     10  C   LIG d   1       6.308  -0.364  -3.525  0.00  0.00    -0.047 A 
ATOM     11  C   LIG d   1       5.883   0.840  -2.997  0.00  0.00    -0.059 A 
ATOM     12  C   LIG d   1       4.818   0.869  -2.115  0.00  0.00    -0.061 A 
ATOM     13  H   LIG d   1       6.380   1.757  -3.275  0.00  0.00     0.062 H 
ATOM     14  C   LIG d   1       4.181  -0.305  -1.759  0.00  0.00    -0.062 A 
ATOM     15  H   LIG d   1       4.486   1.810  -1.702  0.00  0.00     0.062 H 
ATOM     16  C   LIG d   1       4.608  -1.508  -2.288  0.00  0.00    -0.061 A 
ATOM     17  H   LIG d   1       3.351  -0.281  -1.070  0.00  0.00     0.062 H 
ATOM     18  C   LIG d   1       5.668  -1.538  -3.175  0.00  0.00    -0.059 A 
ATOM     19  H   LIG d   1       4.109  -2.426  -2.011  0.00  0.00     0.062 H 
ATOM     20  H   LIG d   1       5.998  -2.478  -3.591  0.00  0.00     0.062 H 
ENDBRANCH   7  10
ENDBRANCH   4   7
ENDBRANCH   2   4
BRANCH   1  21
ATOM     21  C   LIG d   1       4.759  -1.916  -7.246  0.00  0.00     0.008 C 
ATOM     22  H   LIG d   1       3.702  -1.960  -7.507  0.00  0.00     0.043 H 
ATOM     23  H   LIG d   1       5.327  -2.555  -7.924  0.00  0.00     0.043 H 
ATOM     24  H   LIG d   1       4.896  -2.261  -6.222  0.00  0.00     0.043 H 
ENDBRANCH   1  21
BRANCH   1  25
ATOM     25  C   LIG d   1       4.568   0.363  -8.192  0.00  0.00     0.045 A 
ATOM     26  C   LIG d   1       4.986   0.542  -9.520  0.00  0.00     0.019 A 
ATOM     27  C   LIG d   1       4.308   1.448 -10.341  0.00  0.00    -0.051 A 
ATOM     28  C   LIG d   1       3.238   2.159  -9.842  0.00  0.00    -0.061 A 
ATOM     29  H   LIG d   1       4.623   1.591 -11.363  0.00  0.00     0.062 H 
ATOM     30  C   LIG d   1       2.828   1.980  -8.531  0.00  0.00    -0.060 A 
ATOM     31  H   LIG d   1       2.715   2.859 -10.477  0.00  0.00     0.062 H 
ATOM     32  C   LIG d   1       3.484   1.084  -7.710  0.00  0.00    -0.040 A 
ATOM     33  H   LIG d   1       1.988   2.540  -8.149  0.00  0.00     0.062 H 
ATOM     34  H   LIG d   1       3.156   0.948  -6.690  0.00  0.00     0.064 H 
BRANCH  26  35
ATOM     35  C   LIG d   1       6.131  -0.221 -10.046  0.00  0.00     0.073 C 
ATOM     36  O   LIG d   1       5.957  -1.322 -10.532  0.00  0.00    -0.545 OA
ATOM     37  O   LIG d   1       7.371   0.301  -9.990  0.00  0.00    -0.545 OA
ENDBRANCH  26  35
ENDBRANCH   1  25
TORSDOF 6
ENDMDL
MODEL 5
REMARK VINA RESULT:      -6.3      2.458      6.772
REMARK  6 active torsions:
REMARK  status: ('A' for Active; 'I' for Inactive)
REMARK    1  A    between atoms: C_1  and  N_2 
REMARK    2  A    between atoms: N_2  and  C_3 
REMARK       I    between atoms: N_2  and  C_11 
REMARK    3  A    between atoms: C_8  and  C_9 
REMARK    4  A    between atoms: C_11  and  C_13 
REMARK    5  A    between atoms: C_13  and  C_14 
REMARK    6  A    between atoms: C_14  and  C_15 
ROOT
ATOM      1  N   LIG d   1       5.178  -0.918  -6.223  0.00  0.00    -0.274 N 
ATOM      2  C   LIG d   1       6.243  -0.095  -6.277  0.00  0.00     0.220 C 
ATOM      3  O   LIG d   1       6.520   0.603  -5.324  0.00  0.00    -0.275 OA
ENDROOT
BRANCH   2   4
ATOM      4  C   LIG d   1       7.091  -0.040  -7.521  0.00  0.00     0.028 C 
ATOM      5  H   LIG d   1       8.135  -0.207  -7.257  0.00  0.00     0.036 H 
ATOM      6  H   LIG d   1       6.765  -0.813  -8.218  0.00  0.00     0.036 H 
BRANCH   4   7
ATOM      7  C   LIG d   1       6.945   1.334  -8.179  0.00  0.00    -0.019 C 
ATOM      8  H   LIG d   1       6.726   2.080  -7.415  0.00  0.00     0.032 H 
ATOM      9  H   LIG d   1       7.873   1.595  -8.685  0.00  0.00     0.032 H 
BRANCH   7  10
ATOM     10  C   LIG d   1       5.819   1.295  -9.180  0.00  0.00    -0.047 A 
ATOM     11  C   LIG d   1       4.777   2.197  -9.082  0.00  0.00    -0.059 A 
ATOM     12  C   LIG d   1       3.744   2.161 -10.002  0.00  0.00    -0.061 A 
ATOM     13  H   LIG d   1       4.768   2.930  -8.289  0.00  0.00     0.062 H 
ATOM     14  C   LIG d   1       3.755   1.223 -11.018  0.00  0.00    -0.062 A 
ATOM     15  H   LIG d   1       2.929   2.866  -9.926  0.00  0.00     0.062 H 
ATOM     16  C   LIG d   1       4.798   0.322 -11.114  0.00  0.00    -0.061 A 
ATOM     17  H   LIG d   1       2.949   1.196 -11.735  0.00  0.00     0.062 H 
ATOM     18  C   LIG d   1       5.833   0.361 -10.198  0.00  0.00    -0.059 A 
ATOM     19  H   LIG d   1       4.807  -0.410 -11.908  0.00  0.00     0.062 H 
ATOM     20  H   LIG d   1       6.650  -0.341 -10.277  0.00  0.00     0.062 H 
ENDBRANCH   7  10
ENDBRANCH   4   7
ENDBRANCH   2   4
BRANCH   1  21
ATOM     21  C   LIG d   1       4.844  -1.760  -7.375  0.00  0.00     0.008 C 
ATOM     22  H   LIG d   1       3.824  -2.132  -7.269  0.00  0.00     0.043 H 
ATOM     23  H   LIG d   1       4.923  -1.172  -8.290  0.00  0.00     0.043 H 
ATOM     24  H   LIG d   1       5.535  -2.601  -7.422  0.00  0.00     0.043 H 
ENDBRANCH   1  21
BRANCH   1  25
ATOM     25  C   LIG d   1       4.394  -0.968  -5.073  0.00  0.00     0.045 A 
ATOM     26  C   LIG d   1       4.695  -1.886  -4.055  0.00  0.00     0.019 A 
ATOM     27  C   LIG d   1       3.900  -1.926  -2.905  0.00  0.00    -0.051 A 
ATOM     28  C   LIG d   1       2.830  -1.068  -2.779  0.00  0.00    -0.061 A 
ATOM     29  H   LIG d   1       4.125  -2.630  -2.117  0.00  0.00     0.062 H 
ATOM     30  C   LIG d   1       2.537  -0.162  -3.786  0.00  0.00    -0.060 A 
ATOM     31  H   LIG d   1       2.217  -1.100  -1.890  0.00  0.00     0.062 H 
ATOM     32  C   LIG d   1       3.316  -0.107  -4.925  0.00  0.00    -0.040 A 
ATOM     33  H   LIG d   1       1.697   0.507  -3.678  0.00  0.00     0.062 H 
ATOM     34  H   LIG d   1       3.082   0.604  -5.704  0.00  0.00     0.064 H 
BRANCH  26  35
ATOM     35  C   LIG d   1       5.841  -2.802  -4.196  0.00  0.00     0.073 C 
ATOM     36  O   LIG d   1       5.698  -3.871  -4.757  0.00  0.00    -0.545 OA
ATOM     37  O   LIG d   1       7.046  -2.455  -3.705  0.00  0.00    -0.545 OA
ENDBRANCH  26  35
ENDBRANCH   1  25
TORSDOF 6
ENDMDL
MODEL 6
REMARK VINA RESULT:      -6.2      2.377      3.368
REMARK  6 active torsions:
REMARK  status: ('A' for Active; 'I' for Inactive)
REMARK    1  A    between atoms: C_1  and  N_2 
REMARK    2  A    between atoms: N_2  and  C_3 
REMARK       I    between atoms: N_2  and  C_11 
REMARK    3  A    between atoms: C_8  and  C_9 
REMARK    4  A    between atoms: C_11  and  C_13 
REMARK    5  A    between atoms: C_13  and  C_14 
REMARK    6  A    between atoms: C_14  and  C_15 
ROOT
ATOM      1  N   LIG d   1       5.275  -1.644  -7.561  0.00  0.00    -0.274 N 
ATOM      2  C   LIG d   1       5.321  -2.237  -6.352  0.00  0.00     0.220 C 
ATOM      3  O   LIG d   1       4.356  -2.840  -5.934  0.00  0.00    -0.275 OA
ENDROOT
BRANCH   2   4
ATOM      4  C   LIG d   1       6.573  -2.150  -5.518  0.00  0.00     0.028 C 
ATOM      5  H   LIG d   1       7.324  -2.833  -5.916  0.00  0.00     0.036 H 
ATOM      6  H   LIG d   1       6.959  -1.130  -5.547  0.00  0.00     0.036 H 
BRANCH   4   7
ATOM      7  C   LIG d   1       6.251  -2.533  -4.072  0.00  0.00    -0.019 C 
ATOM      8  H   LIG d   1       5.496  -3.318  -4.064  0.00  0.00     0.032 H 
ATOM      9  H   LIG d   1       7.155  -2.894  -3.582  0.00  0.00     0.032 H 
BRANCH   7  10
ATOM     10  C   LIG d   1       5.729  -1.326  -3.336  0.00  0.00    -0.047 A 
ATOM     11  C   LIG d   1       6.249  -0.074  -3.606  0.00  0.00    -0.059 A 
ATOM     12  C   LIG d   1       5.769   1.033  -2.931  0.00  0.00    -0.061 A 
ATOM     13  H   LIG d   1       7.029   0.040  -4.344  0.00  0.00     0.062 H 
ATOM     14  C   LIG d   1       4.770   0.888  -1.986  0.00  0.00    -0.062 A 
ATOM     15  H   LIG d   1       6.175   2.011  -3.141  0.00  0.00     0.062 H 
ATOM     16  C   LIG d   1       4.251  -0.364  -1.717  0.00  0.00    -0.061 A 
ATOM     17  H   LIG d   1       4.396   1.753  -1.459  0.00  0.00     0.062 H 
ATOM     18  C   LIG d   1       4.727  -1.471  -2.396  0.00  0.00    -0.059 A 
ATOM     19  H   LIG d   1       3.470  -0.478  -0.979  0.00  0.00     0.062 H 
ATOM     20  H   LIG d   1       4.318  -2.449  -2.189  0.00  0.00     0.062 H 
ENDBRANCH   7  10
ENDBRANCH   4   7
ENDBRANCH   2   4
BRANCH   1  21
ATOM     21  C   LIG d   1       6.442  -0.915  -8.065  0.00  0.00     0.008 C 
ATOM     22  H   LIG d   1       6.681  -0.097  -7.386  0.00  0.00     0.043 H 
ATOM     23  H   LIG d   1       7.293  -1.594  -8.130  0.00  0.00     0.043 H 
ATOM     24  H   LIG d   1       6.220  -0.514  -9.054  0.00  0.00     0.043 H 
ENDBRANCH   1  21
BRANCH   1  25
ATOM     25  C   LIG d   1       4.117  -1.724  -8.331  0.00  0.00     0.045 A 
ATOM     26  C   LIG d   1       3.185  -0.675  -8.314  0.00  0.00     0.019 A 
ATOM     27  C   LIG d   1       2.027  -0.769  -9.091  0.00  0.00    -0.051 A 
ATOM     28  C   LIG d   1       1.807  -1.886  -9.866  0.00  0.00    -0.061 A 
ATOM     29  H   LIG d   1       1.305   0.035  -9.084  0.00  0.00     0.062 H 
ATOM     30  C   LIG d   1       2.730  -2.920  -9.880  0.00  0.00    -0.060 A 
ATOM     31  H   LIG d   1       0.912  -1.958 -10.466  0.00  0.00     0.062 H 
ATOM     32  C   LIG d   1       3.882  -2.840  -9.123  0.00  0.00    -0.040 A 
ATOM     33  H   LIG d   1       2.550  -3.792 -10.491  0.00  0.00     0.062 H 
ATOM     34  H   LIG d   1       4.597  -3.649  -9.142  0.00  0.00     0.064 H 
BRANCH  26  35
ATOM     35  C   LIG d   1       3.426   0.518  -7.484  0.00  0.00     0.073 C 
ATOM     36  O   LIG d   1       3.886   1.525  -7.985  0.00  0.00    -0.545 OA
ATOM     37  O   LIG d   1       3.135   0.493  -6.169  0.00  0.00    -0.545 OA
ENDBRANCH  26  35
ENDBRANCH   1  25
TORSDOF 6
ENDMDL
MODEL 7
REMARK VINA RESULT:      -6.2      1.590      2.102
REMARK  6 active torsions:
REMARK  status: ('A' for Active; 'I' for Inactive)
REMARK    1  A    between atoms: C_1  and  N_2 
REMARK    2  A    between atoms: N_2  and  C_3 
REMARK       I    between atoms: N_2  and  C_11 
REMARK    3  A    between atoms: C_8  and  C_9 
REMARK    4  A    between atoms: C_11  and  C_13 
REMARK    5  A    between atoms: C_13  and  C_14 
REMARK    6  A    between atoms: C_14  and  C_15 
ROOT
ATOM      1  N   LIG d   1       4.272  -0.427  -7.515  0.00  0.00    -0.274 N 
ATOM      2  C   LIG d   1       3.054   0.056  -7.198  0.00  0.00     0.220 C 
ATOM      3  O   LIG d   1       2.103  -0.176  -7.914  0.00  0.00    -0.275 OA
ENDROOT
BRANCH   2   4
ATOM      4  C   LIG d   1       2.873   0.886  -5.953  0.00  0.00     0.028 C 
ATOM      5  H   LIG d   1       3.850   1.155  -5.551  0.00  0.00     0.036 H 
ATOM      6  H   LIG d   1       2.319   1.792  -6.197  0.00  0.00     0.036 H 
BRANCH   4   7
ATOM      7  C   LIG d   1       2.098   0.079  -4.910  0.00  0.00    -0.019 C 
ATOM      8  H   LIG d   1       1.218   0.640  -4.597  0.00  0.00     0.032 H 
ATOM      9  H   LIG d   1       1.788  -0.871  -5.343  0.00  0.00     0.032 H 
BRANCH   7  10
ATOM     10  C   LIG d   1       2.981  -0.178  -3.715  0.00  0.00    -0.047 A 
ATOM     11  C   LIG d   1       3.497   0.883  -2.997  0.00  0.00    -0.059 A 
ATOM     12  C   LIG d   1       4.306   0.647  -1.901  0.00  0.00    -0.061 A 
ATOM     13  H   LIG d   1       3.268   1.897  -3.290  0.00  0.00     0.062 H 
ATOM     14  C   LIG d   1       4.600  -0.651  -1.525  0.00  0.00    -0.062 A 
ATOM     15  H   LIG d   1       4.710   1.476  -1.339  0.00  0.00     0.062 H 
ATOM     16  C   LIG d   1       4.083  -1.711  -2.244  0.00  0.00    -0.061 A 
ATOM     17  H   LIG d   1       5.232  -0.835  -0.669  0.00  0.00     0.062 H 
ATOM     18  C   LIG d   1       3.270  -1.476  -3.336  0.00  0.00    -0.059 A 
ATOM     19  H   LIG d   1       4.312  -2.726  -1.950  0.00  0.00     0.062 H 
ATOM     20  H   LIG d   1       2.862  -2.305  -3.896  0.00  0.00     0.062 H 
ENDBRANCH   7  10
ENDBRANCH   4   7
ENDBRANCH   2   4
BRANCH   1  21
ATOM     21  C   LIG d   1       5.419  -0.145  -6.650  0.00  0.00     0.008 C 
ATOM     22  H   LIG d   1       6.334  -0.155  -7.244  0.00  0.00     0.043 H 
ATOM     23  H   LIG d   1       5.296   0.836  -6.190  0.00  0.00     0.043 H 
ATOM     24  H   LIG d   1       5.483  -0.906  -5.872  0.00  0.00     0.043 H 
ENDBRANCH   1  21
BRANCH   1  25
ATOM     25  C   LIG d   1       4.438  -1.193  -8.666  0.00  0.00     0.045 A 
ATOM     26  C   LIG d   1       4.737  -0.572  -9.889  0.00  0.00     0.019 A 
ATOM     27  C   LIG d   1       4.900  -1.353 -11.038  0.00  0.00    -0.051 A 
ATOM     28  C   LIG d   1       4.766  -2.721 -10.962  0.00  0.00    -0.061 A 
ATOM     29  H   LIG d   1       5.130  -0.883 -11.982  0.00  0.00     0.062 H 
ATOM     30  C   LIG d   1       4.472  -3.331  -9.753  0.00  0.00    -0.060 A 
ATOM     31  H   LIG d   1       4.893  -3.324 -11.850  0.00  0.00     0.062 H 
ATOM     32  C   LIG d   1       4.313  -2.574  -8.609  0.00  0.00    -0.040 A 
ATOM     33  H   LIG d   1       4.370  -4.405  -9.704  0.00  0.00     0.062 H 
ATOM     34  H   LIG d   1       4.087  -3.058  -7.670  0.00  0.00     0.064 H 
BRANCH  26  35
ATOM     35  C   LIG d   1       4.877   0.893  -9.962  0.00  0.00     0.073 C 
ATOM     36  O   LIG d   1       5.955   1.411  -9.745  0.00  0.00    -0.545 OA
ATOM     37  O   LIG d   1       3.812   1.658 -10.272  0.00  0.00    -0.545 OA
ENDBRANCH  26  35
ENDBRANCH   1  25
TORSDOF 6
ENDMDL
MODEL 8
REMARK VINA RESULT:      -5.9      4.703      7.000
REMARK  6 active torsions:
REMARK  status: ('A' for Active; 'I' for Inactive)
REMARK    1  A    between atoms: C_1  and  N_2 
REMARK    2  A    between atoms: N_2  and  C_3 
REMARK       I    between atoms: N_2  and  C_11 
REMARK    3  A    between atoms: C_8  and  C_9 
REMARK    4  A    between atoms: C_11  and  C_13 
REMARK    5  A    between atoms: C_13  and  C_14 
REMARK    6  A    between atoms: C_14  and  C_15 
ROOT
ATOM      1  N   LIG d   1       5.731  -2.806  -4.718  0.00  0.00    -0.274 N 
ATOM      2  C   LIG d   1       7.018  -2.458  -4.519  0.00  0.00     0.220 C 
ATOM      3  O   LIG d   1       7.286  -1.463  -3.881  0.00  0.00    -0.275 OA
ENDROOT
BRANCH   2   4
ATOM      4  C   LIG d   1       8.124  -3.307  -5.092  0.00  0.00     0.028 C 
ATOM      5  H   LIG d   1       7.758  -4.320  -5.254  0.00  0.00     0.036 H 
ATOM      6  H   LIG d   1       8.453  -2.883  -6.041  0.00  0.00     0.036 H 
BRANCH   4   7
ATOM      7  C   LIG d   1       9.300  -3.340  -4.113  0.00  0.00    -0.019 C 
ATOM      8  H   LIG d   1      10.229  -3.165  -4.656  0.00  0.00     0.032 H 
ATOM      9  H   LIG d   1       9.168  -2.564  -3.360  0.00  0.00     0.032 H 
BRANCH   7  10
ATOM     10  C   LIG d   1       9.357  -4.688  -3.442  0.00  0.00    -0.047 A 
ATOM     11  C   LIG d   1       9.767  -4.787  -2.126  0.00  0.00    -0.059 A 
ATOM     12  C   LIG d   1       9.819  -6.024  -1.510  0.00  0.00    -0.061 A 
ATOM     13  H   LIG d   1      10.046  -3.899  -1.578  0.00  0.00     0.062 H 
ATOM     14  C   LIG d   1       9.462  -7.161  -2.210  0.00  0.00    -0.062 A 
ATOM     15  H   LIG d   1      10.140  -6.101  -0.481  0.00  0.00     0.062 H 
ATOM     16  C   LIG d   1       9.052  -7.061  -3.526  0.00  0.00    -0.061 A 
ATOM     17  H   LIG d   1       9.503  -8.126  -1.729  0.00  0.00     0.062 H 
ATOM     18  C   LIG d   1       8.995  -5.824  -4.141  0.00  0.00    -0.059 A 
ATOM     19  H   LIG d   1       8.772  -7.949  -4.073  0.00  0.00     0.062 H 
ATOM     20  H   LIG d   1       8.670  -5.745  -5.168  0.00  0.00     0.062 H 
ENDBRANCH   7  10
ENDBRANCH   4   7
ENDBRANCH   2   4
BRANCH   1  21
ATOM     21  C   LIG d   1       5.407  -4.008  -5.490  0.00  0.00     0.008 C 
ATOM     22  H   LIG d   1       4.383  -3.940  -5.856  0.00  0.00     0.043 H 
ATOM     23  H   LIG d   1       6.091  -4.092  -6.336  0.00  0.00     0.043 H 
ATOM     24  H   LIG d   1       5.508  -4.886  -4.853  0.00  0.00     0.043 H 
ENDBRANCH   1  21
BRANCH   1  25
ATOM     25  C   LIG d   1       4.709  -2.021  -4.189  0.00  0.00     0.045 A 
ATOM     26  C   LIG d   1       4.170  -0.966  -4.942  0.00  0.00     0.019 A 
ATOM     27  C   LIG d   1       3.145  -0.185  -4.398  0.00  0.00    -0.051 A 
ATOM     28  C   LIG d   1       2.673  -0.454  -3.133  0.00  0.00    -0.061 A 
ATOM     29  H   LIG d   1       2.724   0.628  -4.971  0.00  0.00     0.062 H 
ATOM     30  C   LIG d   1       3.207  -1.497  -2.393  0.00  0.00    -0.060 A 
ATOM     31  H   LIG d   1       1.881   0.150  -2.715  0.00  0.00     0.062 H 
ATOM     32  C   LIG d   1       4.216  -2.281  -2.918  0.00  0.00    -0.040 A 
ATOM     33  H   LIG d   1       2.830  -1.702  -1.402  0.00  0.00     0.062 H 
ATOM     34  H   LIG d   1       4.625  -3.094  -2.336  0.00  0.00     0.064 H 
BRANCH  26  35
ATOM     35  C   LIG d   1       4.680  -0.683  -6.295  0.00  0.00     0.073 C 
ATOM     36  O   LIG d   1       4.176  -1.225  -7.259  0.00  0.00    -0.545 OA
ATOM     37  O   LIG d   1       5.702   0.177  -6.463  0.00  0.00    -0.545 OA
ENDBRANCH  26  35
ENDBRANCH   1  25
TORSDOF 6
ENDMDL
MODEL 9
REMARK VINA RESULT:      -5.9      4.848      6.947
REMARK  6 active torsions:
REMARK  status: ('A' for Active; 'I' for Inactive)
REMARK    1  A    between atoms: C_1  and  N_2 
REMARK    2  A    between atoms: N_2  and  C_3 
REMARK       I    between atoms: N_2  and  C_11 
REMARK    3  A    between atoms: C_8  and  C_9 
REMARK    4  A    between atoms: C_11  and  C_13 
REMARK    5  A    between atoms: C_13  and  C_14 
REMARK    6  A    between atoms: C_14  and  C_15 
ROOT
ATOM      1  N   LIG d   1       6.295  -0.817  -4.247  0.00  0.00    -0.274 N 
ATOM      2  C   LIG d   1       6.539  -2.123  -4.018  0.00  0.00     0.220 C 
ATOM      3  O   LIG d   1       5.647  -2.937  -4.131  0.00  0.00    -0.275 OA
ENDROOT
BRANCH   2   4
ATOM      4  C   LIG d   1       7.921  -2.572  -3.620  0.00  0.00     0.028 C 
ATOM      5  H   LIG d   1       8.603  -1.723  -3.655  0.00  0.00     0.036 H 
ATOM      6  H   LIG d   1       7.895  -2.976  -2.608  0.00  0.00     0.036 H 
BRANCH   4   7
ATOM      7  C   LIG d   1       8.405  -3.654  -4.588  0.00  0.00    -0.019 C 
ATOM      8  H   LIG d   1       7.585  -3.947  -5.244  0.00  0.00     0.032 H 
ATOM      9  H   LIG d   1       9.227  -3.264  -5.187  0.00  0.00     0.032 H 
BRANCH   7  10
ATOM     10  C   LIG d   1       8.877  -4.853  -3.807  0.00  0.00    -0.047 A 
ATOM     11  C   LIG d   1       9.486  -4.681  -2.579  0.00  0.00    -0.059 A 
ATOM     12  C   LIG d   1       9.918  -5.782  -1.862  0.00  0.00    -0.061 A 
ATOM     13  H   LIG d   1       9.623  -3.688  -2.178  0.00  0.00     0.062 H 
ATOM     14  C   LIG d   1       9.742  -7.054  -2.375  0.00  0.00    -0.062 A 
ATOM     15  H   LIG d   1      10.394  -5.648  -0.902  0.00  0.00     0.062 H 
ATOM     16  C   LIG d   1       9.133  -7.224  -3.604  0.00  0.00    -0.061 A 
ATOM     17  H   LIG d   1      10.080  -7.913  -1.815  0.00  0.00     0.062 H 
ATOM     18  C   LIG d   1       8.696  -6.125  -4.318  0.00  0.00    -0.059 A 
ATOM     19  H   LIG d   1       8.995  -8.218  -4.004  0.00  0.00     0.062 H 
ATOM     20  H   LIG d   1       8.216  -6.259  -5.276  0.00  0.00     0.062 H 
ENDBRANCH   7  10
ENDBRANCH   4   7
ENDBRANCH   2   4
BRANCH   1  21
ATOM     21  C   LIG d   1       7.373   0.165  -4.109  0.00  0.00     0.008 C 
ATOM     22  H   LIG d   1       8.273  -0.214  -4.593  0.00  0.00     0.043 H 
ATOM     23  H   LIG d   1       7.073   1.101  -4.582  0.00  0.00     0.043 H 
ATOM     24  H   LIG d   1       7.573   0.339  -3.053  0.00  0.00     0.043 H 
ENDBRANCH   1  21
BRANCH   1  25
ATOM     25  C   LIG d   1       5.016  -0.403  -4.613  0.00  0.00     0.045 A 
ATOM     26  C   LIG d   1       4.119   0.061  -3.639  0.00  0.00     0.019 A 
ATOM     27  C   LIG d   1       2.839   0.473  -4.021  0.00  0.00    -0.051 A 
ATOM     28  C   LIG d   1       2.467   0.421  -5.346  0.00  0.00    -0.061 A 
ATOM     29  H   LIG d   1       2.143   0.832  -3.277  0.00  0.00     0.062 H 
ATOM     30  C   LIG d   1       3.355  -0.038  -6.305  0.00  0.00    -0.060 A 
ATOM     31  H   LIG d   1       1.477   0.740  -5.639  0.00  0.00     0.062 H 
ATOM     32  C   LIG d   1       4.625  -0.443  -5.945  0.00  0.00    -0.040 A 
ATOM     33  H   LIG d   1       3.055  -0.074  -7.342  0.00  0.00     0.062 H 
ATOM     34  H   LIG d   1       5.313  -0.796  -6.699  0.00  0.00     0.064 H 
BRANCH  26  35
ATOM     35  C   LIG d   1       4.524   0.114  -2.223  0.00  0.00     0.073 C 
ATOM     36  O   LIG d   1       4.946   1.151  -1.750  0.00  0.00    -0.545 OA
ATOM     37  O   LIG d   1       4.424  -0.986  -1.452  0.00  0.00    -0.545 OA
ENDBRANCH  26  35
ENDBRANCH   1  25
TORSDOF 6
ENDMDL
