MODEL 1
REMARK VINA RESULT:      -8.2      0.000      0.000
REMARK  1 active torsions:
REMARK  status: ('A' for Active; 'I' for Inactive)
REMARK    1  A    between atoms: N_17  and  C_20 
ROOT
ATOM      1  C   LIG d   1       4.665  -3.091  -3.686  0.00  0.00    -0.061 A 
ATOM      2  C   LIG d   1       3.861  -2.525  -2.708  0.00  0.00    -0.061 A 
ATOM      3  C   LIG d   1       4.075  -1.231  -2.282  0.00  0.00    -0.047 A 
ATOM      4  C   LIG d   1       5.111  -0.486  -2.841  0.00  0.00     0.067 A 
ATOM      5  C   LIG d   1       5.928  -1.062  -3.837  0.00  0.00    -0.000 A 
ATOM      6  C   LIG d   1       5.696  -2.368  -4.253  0.00  0.00    -0.053 A 
ATOM      7  C   LIG d   1       7.014  -0.241  -4.404  0.00  0.00     0.026 A 
ATOM      8  C   LIG d   1       7.855  -0.754  -5.390  0.00  0.00    -0.047 A 
ATOM      9  C   LIG d   1       8.861   0.028  -5.908  0.00  0.00    -0.019 A 
ATOM     10  C   LIG d   1       9.044   1.332  -5.450  0.00  0.00     0.131 A 
ATOM     11  C   LIG d   1       8.213   1.850  -4.474  0.00  0.00     0.054 A 
ATOM     12  C   LIG d   1       7.192   1.070  -3.940  0.00  0.00     0.148 A 
ATOM     13  O   LIG d   1       6.388   1.589  -2.985  0.00  0.00    -0.421 OA
ATOM     14  C   LIG d   1       5.382   0.897  -2.425  0.00  0.00     0.345 A 
ATOM     15  O   LIG d   1       4.693   1.418  -1.569  0.00  0.00    -0.244 OA
ATOM     16  C   LIG d   1       8.392   3.261  -3.974  0.00  0.00     0.047 C 
ATOM     17  N   LIG d   1       9.730   3.747  -4.342  0.00  0.00    -0.293 NA
ATOM     18  C   LIG d   1       9.987   3.494  -5.769  0.00  0.00     0.157 C 
ATOM     19  O   LIG d   1      10.049   2.081  -5.978  0.00  0.00    -0.473 OA
ATOM     20  H   LIG d   1       4.484  -4.105  -4.009  0.00  0.00     0.062 H 
ATOM     21  H   LIG d   1       3.058  -3.104  -2.276  0.00  0.00     0.062 H 
ATOM     22  H   LIG d   1       3.444  -0.799  -1.520  0.00  0.00     0.063 H 
ATOM     23  H   LIG d   1       6.318  -2.814  -5.015  0.00  0.00     0.062 H 
ATOM     24  H   LIG d   1       7.717  -1.764  -5.747  0.00  0.00     0.063 H 
ATOM     25  H   LIG d   1       9.513  -0.369  -6.672  0.00  0.00     0.065 H 
ATOM     26  H   LIG d   1       8.285   3.279  -2.889  0.00  0.00     0.052 H 
ATOM     27  H   LIG d   1       7.636   3.905  -4.424  0.00  0.00     0.052 H 
ATOM     28  H   LIG d   1       9.179   3.917  -6.367  0.00  0.00     0.091 H 
ATOM     29  H   LIG d   1      10.935   3.948  -6.056  0.00  0.00     0.091 H 
ENDROOT
BRANCH  17  30
ATOM     30  C   LIG d   1       9.870   5.104  -4.041  0.00  0.00     0.035 A 
ATOM     31  C   LIG d   1       9.586   6.063  -5.005  0.00  0.00    -0.022 A 
ATOM     32  C   LIG d   1       9.725   7.405  -4.704  0.00  0.00     0.044 A 
ATOM     33  H   LIG d   1       9.255   5.761  -5.988  0.00  0.00     0.065 H 
ATOM     34  C   LIG d   1      10.149   7.793  -3.445  0.00  0.00    -0.025 A 
ATOM     35 CL   LIG d   1       9.369   8.605  -5.907  0.00  0.00    -0.083 Cl
ATOM     36  C   LIG d   1      10.428   6.839  -2.482  0.00  0.00     0.044 A 
ATOM     37  H   LIG d   1      10.257   8.842  -3.212  0.00  0.00     0.065 H 
ATOM     38  C   LIG d   1      10.295   5.496  -2.778  0.00  0.00    -0.022 A 
ATOM     39 CL   LIG d   1      10.951   7.331  -0.901  0.00  0.00    -0.083 Cl
ATOM     40  H   LIG d   1      10.518   4.752  -2.028  0.00  0.00     0.065 H 
ENDBRANCH  17  30
TORSDOF 1
ENDMDL
MODEL 2
REMARK VINA RESULT:      -7.2      3.510      8.110
REMARK  1 active torsions:
REMARK  status: ('A' for Active; 'I' for Inactive)
REMARK    1  A    between atoms: N_17  and  C_20 
ROOT
ATOM      1  C   LIG d   1      12.133   9.043  -4.008  0.00  0.00    -0.061 A 
ATOM      2  C   LIG d   1      11.991   9.062  -2.629  0.00  0.00    -0.061 A 
ATOM      3  C   LIG d   1      11.346   8.034  -1.973  0.00  0.00    -0.047 A 
ATOM      4  C   LIG d   1      10.832   6.967  -2.705  0.00  0.00     0.067 A 
ATOM      5  C   LIG d   1      10.979   6.948  -4.109  0.00  0.00    -0.000 A 
ATOM      6  C   LIG d   1      11.632   7.993  -4.751  0.00  0.00    -0.053 A 
ATOM      7  C   LIG d   1      10.422   5.800  -4.849  0.00  0.00     0.026 A 
ATOM      8  C   LIG d   1      10.533   5.724  -6.237  0.00  0.00    -0.047 A 
ATOM      9  C   LIG d   1      10.009   4.645  -6.909  0.00  0.00    -0.019 A 
ATOM     10  C   LIG d   1       9.364   3.627  -6.208  0.00  0.00     0.131 A 
ATOM     11  C   LIG d   1       9.250   3.692  -4.831  0.00  0.00     0.054 A 
ATOM     12  C   LIG d   1       9.775   4.779  -4.138  0.00  0.00     0.148 A 
ATOM     13  O   LIG d   1       9.655   4.831  -2.793  0.00  0.00    -0.421 OA
ATOM     14  C   LIG d   1      10.137   5.845  -2.058  0.00  0.00     0.345 A 
ATOM     15  O   LIG d   1       9.998   5.836  -0.850  0.00  0.00    -0.244 OA
ATOM     16  C   LIG d   1       8.564   2.595  -4.059  0.00  0.00     0.047 C 
ATOM     17  N   LIG d   1       7.744   1.787  -4.974  0.00  0.00    -0.293 NA
ATOM     18  C   LIG d   1       8.534   1.397  -6.152  0.00  0.00     0.157 C 
ATOM     19  O   LIG d   1       8.852   2.574  -6.899  0.00  0.00    -0.473 OA
ATOM     20  H   LIG d   1      12.641   9.855  -4.506  0.00  0.00     0.062 H 
ATOM     21  H   LIG d   1      12.390   9.890  -2.062  0.00  0.00     0.062 H 
ATOM     22  H   LIG d   1      11.239   8.058  -0.899  0.00  0.00     0.063 H 
ATOM     23  H   LIG d   1      11.747   7.983  -5.825  0.00  0.00     0.062 H 
ATOM     24  H   LIG d   1      11.032   6.512  -6.783  0.00  0.00     0.063 H 
ATOM     25  H   LIG d   1      10.096   4.586  -7.984  0.00  0.00     0.065 H 
ATOM     26  H   LIG d   1       7.926   3.035  -3.292  0.00  0.00     0.052 H 
ATOM     27  H   LIG d   1       9.313   1.959  -3.587  0.00  0.00     0.052 H 
ATOM     28  H   LIG d   1       9.454   0.908  -5.830  0.00  0.00     0.091 H 
ATOM     29  H   LIG d   1       7.953   0.715  -6.773  0.00  0.00     0.091 H 
ENDROOT
BRANCH  17  30
ATOM     30  C   LIG d   1       7.225   0.665  -4.324  0.00  0.00     0.035 A 
ATOM     31  C   LIG d   1       7.741  -0.596  -4.595  0.00  0.00    -0.022 A 
ATOM     32  C   LIG d   1       7.226  -1.705  -3.950  0.00  0.00     0.044 A 
ATOM     33  H   LIG d   1       8.544  -0.710  -5.309  0.00  0.00     0.065 H 
ATOM     34  C   LIG d   1       6.198  -1.560  -3.036  0.00  0.00    -0.025 A 
ATOM     35 CL   LIG d   1       7.870  -3.281  -4.288  0.00  0.00    -0.083 Cl
ATOM     36  C   LIG d   1       5.686  -0.303  -2.760  0.00  0.00     0.044 A 
ATOM     37  H   LIG d   1       5.798  -2.427  -2.533  0.00  0.00     0.065 H 
ATOM     38  C   LIG d   1       6.193   0.808  -3.405  0.00  0.00    -0.022 A 
ATOM     39 CL   LIG d   1       4.401  -0.125  -1.606  0.00  0.00    -0.083 Cl
ATOM     40  H   LIG d   1       5.791   1.787  -3.193  0.00  0.00     0.065 H 
ENDBRANCH  17  30
TORSDOF 1
ENDMDL
MODEL 3
REMARK VINA RESULT:      -7.0      7.108      9.604
REMARK  1 active torsions:
REMARK  status: ('A' for Active; 'I' for Inactive)
REMARK    1  A    between atoms: N_17  and  C_20 
ROOT
ATOM      1  C   LIG d   1       4.648  -0.263  -1.583  0.00  0.00    -0.061 A 
ATOM      2  C   LIG d   1       3.997   0.902  -1.961  0.00  0.00    -0.061 A 
ATOM      3  C   LIG d   1       3.574   1.082  -3.261  0.00  0.00    -0.047 A 
ATOM      4  C   LIG d   1       3.806   0.083  -4.204  0.00  0.00     0.067 A 
ATOM      5  C   LIG d   1       4.468  -1.102  -3.818  0.00  0.00    -0.000 A 
ATOM      6  C   LIG d   1       4.886  -1.265  -2.503  0.00  0.00    -0.053 A 
ATOM      7  C   LIG d   1       4.693  -2.136  -4.845  0.00  0.00     0.026 A 
ATOM      8  C   LIG d   1       5.342  -3.328  -4.526  0.00  0.00    -0.047 A 
ATOM      9  C   LIG d   1       5.542  -4.282  -5.497  0.00  0.00    -0.019 A 
ATOM     10  C   LIG d   1       5.100  -4.060  -6.801  0.00  0.00     0.131 A 
ATOM     11  C   LIG d   1       4.453  -2.881  -7.126  0.00  0.00     0.054 A 
ATOM     12  C   LIG d   1       4.245  -1.908  -6.154  0.00  0.00     0.148 A 
ATOM     13  O   LIG d   1       3.614  -0.760  -6.486  0.00  0.00    -0.421 OA
ATOM     14  C   LIG d   1       3.376   0.222  -5.602  0.00  0.00     0.345 A 
ATOM     15  O   LIG d   1       2.804   1.234  -5.962  0.00  0.00    -0.244 OA
ATOM     16  C   LIG d   1       3.961  -2.631  -8.529  0.00  0.00     0.047 C 
ATOM     17  N   LIG d   1       4.628  -3.556  -9.457  0.00  0.00    -0.293 NA
ATOM     18  C   LIG d   1       4.547  -4.933  -8.945  0.00  0.00     0.157 C 
ATOM     19  O   LIG d   1       5.314  -5.018  -7.741  0.00  0.00    -0.473 OA
ATOM     20  H   LIG d   1       4.972  -0.388  -0.561  0.00  0.00     0.062 H 
ATOM     21  H   LIG d   1       3.818   1.675  -1.229  0.00  0.00     0.062 H 
ATOM     22  H   LIG d   1       3.069   1.992  -3.547  0.00  0.00     0.063 H 
ATOM     23  H   LIG d   1       5.392  -2.170  -2.202  0.00  0.00     0.062 H 
ATOM     24  H   LIG d   1       5.687  -3.503  -3.517  0.00  0.00     0.063 H 
ATOM     25  H   LIG d   1       6.045  -5.205  -5.251  0.00  0.00     0.065 H 
ATOM     26  H   LIG d   1       4.188  -1.604  -8.815  0.00  0.00     0.052 H 
ATOM     27  H   LIG d   1       2.883  -2.790  -8.570  0.00  0.00     0.052 H 
ATOM     28  H   LIG d   1       3.507  -5.185  -8.734  0.00  0.00     0.091 H 
ATOM     29  H   LIG d   1       4.951  -5.624  -9.685  0.00  0.00     0.091 H 
ENDROOT
BRANCH  17  30
ATOM     30  C   LIG d   1       4.076  -3.465 -10.737  0.00  0.00     0.035 A 
ATOM     31  C   LIG d   1       2.907  -2.743 -10.941  0.00  0.00    -0.022 A 
ATOM     32  C   LIG d   1       2.364  -2.654 -12.209  0.00  0.00     0.044 A 
ATOM     33  H   LIG d   1       2.423  -2.251 -10.110  0.00  0.00     0.065 H 
ATOM     34  C   LIG d   1       2.982  -3.285 -13.274  0.00  0.00    -0.025 A 
ATOM     35 CL   LIG d   1       0.903  -1.751 -12.465  0.00  0.00    -0.083 Cl
ATOM     36  C   LIG d   1       4.151  -3.999 -13.074  0.00  0.00     0.044 A 
ATOM     37  H   LIG d   1       2.556  -3.213 -14.263  0.00  0.00     0.065 H 
ATOM     38  C   LIG d   1       4.695  -4.096 -11.808  0.00  0.00    -0.022 A 
ATOM     39 CL   LIG d   1       4.928  -4.782 -14.415  0.00  0.00    -0.083 Cl
ATOM     40  H   LIG d   1       5.604  -4.658 -11.652  0.00  0.00     0.065 H 
ENDBRANCH  17  30
TORSDOF 1
ENDMDL
MODEL 4
REMARK VINA RESULT:      -6.8      5.809      7.814
REMARK  1 active torsions:
REMARK  status: ('A' for Active; 'I' for Inactive)
REMARK    1  A    between atoms: N_17  and  C_20 
ROOT
ATOM      1  C   LIG d   1       9.038   5.737 -10.059  0.00  0.00    -0.061 A 
ATOM      2  C   LIG d   1       9.267   4.431  -9.653  0.00  0.00    -0.061 A 
ATOM      3  C   LIG d   1       9.605   4.148  -8.347  0.00  0.00    -0.047 A 
ATOM      4  C   LIG d   1       9.720   5.187  -7.426  0.00  0.00     0.067 A 
ATOM      5  C   LIG d   1       9.486   6.516  -7.840  0.00  0.00    -0.000 A 
ATOM      6  C   LIG d   1       9.146   6.780  -9.161  0.00  0.00    -0.053 A 
ATOM      7  C   LIG d   1       9.617   7.588  -6.835  0.00  0.00     0.026 A 
ATOM      8  C   LIG d   1       9.399   8.921  -7.182  0.00  0.00    -0.047 A 
ATOM      9  C   LIG d   1       9.524   9.907  -6.231  0.00  0.00    -0.019 A 
ATOM     10  C   LIG d   1       9.869   9.579  -4.921  0.00  0.00     0.131 A 
ATOM     11  C   LIG d   1      10.084   8.259  -4.566  0.00  0.00     0.054 A 
ATOM     12  C   LIG d   1       9.962   7.252  -5.519  0.00  0.00     0.148 A 
ATOM     13  O   LIG d   1      10.178   5.967  -5.159  0.00  0.00    -0.421 OA
ATOM     14  C   LIG d   1      10.077   4.943  -6.022  0.00  0.00     0.345 A 
ATOM     15  O   LIG d   1      10.284   3.807  -5.638  0.00  0.00    -0.244 OA
ATOM     16  C   LIG d   1      10.449   7.888  -3.152  0.00  0.00     0.047 C 
ATOM     17  N   LIG d   1      10.922   9.081  -2.436  0.00  0.00    -0.293 NA
ATOM     18  C   LIG d   1       9.977  10.193  -2.624  0.00  0.00     0.157 C 
ATOM     19  O   LIG d   1       9.989  10.574  -4.002  0.00  0.00    -0.473 OA
ATOM     20  H   LIG d   1       8.774   5.941 -11.086  0.00  0.00     0.062 H 
ATOM     21  H   LIG d   1       9.178   3.626 -10.368  0.00  0.00     0.062 H 
ATOM     22  H   LIG d   1       9.782   3.128  -8.040  0.00  0.00     0.063 H 
ATOM     23  H   LIG d   1       8.966   7.796  -9.482  0.00  0.00     0.062 H 
ATOM     24  H   LIG d   1       9.133   9.179  -8.197  0.00  0.00     0.063 H 
ATOM     25  H   LIG d   1       9.356  10.939  -6.500  0.00  0.00     0.065 H 
ATOM     26  H   LIG d   1      11.238   7.136  -3.165  0.00  0.00     0.052 H 
ATOM     27  H   LIG d   1       9.572   7.485  -2.644  0.00  0.00     0.052 H 
ATOM     28  H   LIG d   1       8.974   9.873  -2.342  0.00  0.00     0.091 H 
ATOM     29  H   LIG d   1      10.281  11.040  -2.008  0.00  0.00     0.091 H 
ENDROOT
BRANCH  17  30
ATOM     30  C   LIG d   1      11.112   8.809  -1.079  0.00  0.00     0.035 A 
ATOM     31  C   LIG d   1      11.432   9.837  -0.201  0.00  0.00    -0.022 A 
ATOM     32  C   LIG d   1      11.619   9.564   1.141  0.00  0.00     0.044 A 
ATOM     33  H   LIG d   1      11.535  10.848  -0.567  0.00  0.00     0.065 H 
ATOM     34  C   LIG d   1      11.488   8.269   1.610  0.00  0.00    -0.025 A 
ATOM     35 CL   LIG d   1      12.019  10.848   2.239  0.00  0.00    -0.083 Cl
ATOM     36  C   LIG d   1      11.163   7.245   0.738  0.00  0.00     0.044 A 
ATOM     37  H   LIG d   1      11.634   8.059   2.659  0.00  0.00     0.065 H 
ATOM     38  C   LIG d   1      10.981   7.510  -0.605  0.00  0.00    -0.022 A 
ATOM     39 CL   LIG d   1      10.991   5.622   1.333  0.00  0.00    -0.083 Cl
ATOM     40  H   LIG d   1      10.732   6.709  -1.286  0.00  0.00     0.065 H 
ENDBRANCH  17  30
TORSDOF 1
ENDMDL
MODEL 5
REMARK VINA RESULT:      -6.8      7.700     11.222
REMARK  1 active torsions:
REMARK  status: ('A' for Active; 'I' for Inactive)
REMARK    1  A    between atoms: N_17  and  C_20 
ROOT
ATOM      1  C   LIG d   1       2.453   0.615  -9.598  0.00  0.00    -0.061 A 
ATOM      2  C   LIG d   1       3.104   1.285  -8.573  0.00  0.00    -0.061 A 
ATOM      3  C   LIG d   1       3.780   0.587  -7.594  0.00  0.00    -0.047 A 
ATOM      4  C   LIG d   1       3.806  -0.805  -7.636  0.00  0.00     0.067 A 
ATOM      5  C   LIG d   1       3.143  -1.485  -8.680  0.00  0.00    -0.000 A 
ATOM      6  C   LIG d   1       2.468  -0.764  -9.657  0.00  0.00    -0.053 A 
ATOM      7  C   LIG d   1       3.194  -2.960  -8.690  0.00  0.00     0.026 A 
ATOM      8  C   LIG d   1       2.558  -3.688  -9.694  0.00  0.00    -0.047 A 
ATOM      9  C   LIG d   1       2.618  -5.062  -9.687  0.00  0.00    -0.019 A 
ATOM     10  C   LIG d   1       3.311  -5.730  -8.679  0.00  0.00     0.131 A 
ATOM     11  C   LIG d   1       3.947  -5.015  -7.679  0.00  0.00     0.054 A 
ATOM     12  C   LIG d   1       3.894  -3.625  -7.673  0.00  0.00     0.148 A 
ATOM     13  O   LIG d   1       4.518  -2.940  -6.690  0.00  0.00    -0.421 OA
ATOM     14  C   LIG d   1       4.511  -1.599  -6.619  0.00  0.00     0.345 A 
ATOM     15  O   LIG d   1       5.090  -1.038  -5.709  0.00  0.00    -0.244 OA
ATOM     16  C   LIG d   1       4.708  -5.723  -6.587  0.00  0.00     0.047 C 
ATOM     17  N   LIG d   1       4.302  -7.135  -6.539  0.00  0.00    -0.293 NA
ATOM     18  C   LIG d   1       4.348  -7.721  -7.888  0.00  0.00     0.157 C 
ATOM     19  O   LIG d   1       3.351  -7.089  -8.695  0.00  0.00    -0.473 OA
ATOM     20  H   LIG d   1       1.929   1.177 -10.357  0.00  0.00     0.062 H 
ATOM     21  H   LIG d   1       3.084   2.364  -8.541  0.00  0.00     0.062 H 
ATOM     22  H   LIG d   1       4.284   1.116  -6.799  0.00  0.00     0.063 H 
ATOM     23  H   LIG d   1       1.959  -1.279 -10.459  0.00  0.00     0.062 H 
ATOM     24  H   LIG d   1       2.020  -3.174 -10.477  0.00  0.00     0.063 H 
ATOM     25  H   LIG d   1       2.126  -5.627 -10.465  0.00  0.00     0.065 H 
ATOM     26  H   LIG d   1       4.491  -5.250  -5.629  0.00  0.00     0.052 H 
ATOM     27  H   LIG d   1       5.777  -5.659  -6.789  0.00  0.00     0.052 H 
ATOM     28  H   LIG d   1       5.332  -7.555  -8.326  0.00  0.00     0.091 H 
ATOM     29  H   LIG d   1       4.146  -8.791  -7.830  0.00  0.00     0.091 H 
ENDROOT
BRANCH  17  30
ATOM     30  C   LIG d   1       5.104  -7.857  -5.652  0.00  0.00     0.035 A 
ATOM     31  C   LIG d   1       6.408  -7.448  -5.403  0.00  0.00    -0.022 A 
ATOM     32  C   LIG d   1       7.199  -8.164  -4.525  0.00  0.00     0.044 A 
ATOM     33  H   LIG d   1       6.804  -6.572  -5.895  0.00  0.00     0.065 H 
ATOM     34  C   LIG d   1       6.693  -9.287  -3.894  0.00  0.00    -0.025 A 
ATOM     35 CL   LIG d   1       8.829  -7.654  -4.212  0.00  0.00    -0.083 Cl
ATOM     36  C   LIG d   1       5.392  -9.693  -4.136  0.00  0.00     0.044 A 
ATOM     37  H   LIG d   1       7.313  -9.845  -3.208  0.00  0.00     0.065 H 
ATOM     38  C   LIG d   1       4.599  -8.984  -5.017  0.00  0.00    -0.022 A 
ATOM     39 CL   LIG d   1       4.759 -11.098  -3.336  0.00  0.00    -0.083 Cl
ATOM     40  H   LIG d   1       3.585  -9.304  -5.210  0.00  0.00     0.065 H 
ENDBRANCH  17  30
TORSDOF 1
ENDMDL
MODEL 6
REMARK VINA RESULT:      -6.7      4.886      7.632
REMARK  1 active torsions:
REMARK  status: ('A' for Active; 'I' for Inactive)
REMARK    1  A    between atoms: N_17  and  C_20 
ROOT
ATOM      1  C   LIG d   1       9.594   6.019 -12.028  0.00  0.00    -0.061 A 
ATOM      2  C   LIG d   1       9.788   7.390 -12.110  0.00  0.00    -0.061 A 
ATOM      3  C   LIG d   1       9.962   8.146 -10.970  0.00  0.00    -0.047 A 
ATOM      4  C   LIG d   1       9.940   7.525  -9.723  0.00  0.00     0.067 A 
ATOM      5  C   LIG d   1       9.742   6.130  -9.641  0.00  0.00    -0.000 A 
ATOM      6  C   LIG d   1       9.570   5.385 -10.801  0.00  0.00    -0.053 A 
ATOM      7  C   LIG d   1       9.726   5.509  -8.302  0.00  0.00     0.026 A 
ATOM      8  C   LIG d   1       9.535   4.136  -8.156  0.00  0.00    -0.047 A 
ATOM      9  C   LIG d   1       9.524   3.576  -6.900  0.00  0.00    -0.019 A 
ATOM     10  C   LIG d   1       9.703   4.376  -5.772  0.00  0.00     0.131 A 
ATOM     11  C   LIG d   1       9.895   5.739  -5.908  0.00  0.00     0.054 A 
ATOM     12  C   LIG d   1       9.907   6.319  -7.172  0.00  0.00     0.148 A 
ATOM     13  O   LIG d   1      10.095   7.653  -7.290  0.00  0.00    -0.421 OA
ATOM     14  C   LIG d   1      10.120   8.282  -8.476  0.00  0.00     0.345 A 
ATOM     15  O   LIG d   1      10.291   9.485  -8.518  0.00  0.00    -0.244 OA
ATOM     16  C   LIG d   1      10.098   6.615  -4.699  0.00  0.00     0.047 C 
ATOM     17  N   LIG d   1       9.646   5.905  -3.494  0.00  0.00    -0.293 NA
ATOM     18  C   LIG d   1      10.223   4.552  -3.457  0.00  0.00     0.157 C 
ATOM     19  O   LIG d   1       9.684   3.795  -4.543  0.00  0.00    -0.473 OA
ATOM     20  H   LIG d   1       9.460   5.442 -12.930  0.00  0.00     0.062 H 
ATOM     21  H   LIG d   1       9.806   7.870 -13.077  0.00  0.00     0.062 H 
ATOM     22  H   LIG d   1      10.112   9.213 -11.043  0.00  0.00     0.063 H 
ATOM     23  H   LIG d   1       9.419   4.318 -10.744  0.00  0.00     0.062 H 
ATOM     24  H   LIG d   1       9.396   3.514  -9.028  0.00  0.00     0.063 H 
ATOM     25  H   LIG d   1       9.376   2.512  -6.786  0.00  0.00     0.065 H 
ATOM     26  H   LIG d   1       9.523   7.534  -4.815  0.00  0.00     0.052 H 
ATOM     27  H   LIG d   1      11.156   6.859  -4.600  0.00  0.00     0.052 H 
ATOM     28  H   LIG d   1      11.308   4.614  -3.557  0.00  0.00     0.091 H 
ATOM     29  H   LIG d   1       9.968   4.070  -2.512  0.00  0.00     0.091 H 
ENDROOT
BRANCH  17  30
ATOM     30  C   LIG d   1       9.971   6.620  -2.339  0.00  0.00     0.035 A 
ATOM     31  C   LIG d   1       9.946   8.009  -2.351  0.00  0.00    -0.022 A 
ATOM     32  C   LIG d   1      10.269   8.714  -1.207  0.00  0.00     0.044 A 
ATOM     33  H   LIG d   1       9.675   8.538  -3.253  0.00  0.00     0.065 H 
ATOM     34  C   LIG d   1      10.617   8.039  -0.051  0.00  0.00    -0.025 A 
ATOM     35 CL   LIG d   1      10.237  10.450  -1.221  0.00  0.00    -0.083 Cl
ATOM     36  C   LIG d   1      10.636   6.655  -0.035  0.00  0.00     0.044 A 
ATOM     37  H   LIG d   1      10.867   8.592   0.842  0.00  0.00     0.065 H 
ATOM     38  C   LIG d   1      10.321   5.945  -1.177  0.00  0.00    -0.022 A 
ATOM     39 CL   LIG d   1      11.066   5.811   1.420  0.00  0.00    -0.083 Cl
ATOM     40  H   LIG d   1      10.341   4.865  -1.166  0.00  0.00     0.065 H 
ENDBRANCH  17  30
TORSDOF 1
ENDMDL
MODEL 7
REMARK VINA RESULT:      -6.7      3.723      8.523
REMARK  1 active torsions:
REMARK  status: ('A' for Active; 'I' for Inactive)
REMARK    1  A    between atoms: N_17  and  C_20 
ROOT
ATOM      1  C   LIG d   1      11.755  10.293  -0.010  0.00  0.00    -0.061 A 
ATOM      2  C   LIG d   1      11.765   9.597   1.189  0.00  0.00    -0.061 A 
ATOM      3  C   LIG d   1      11.416   8.263   1.232  0.00  0.00    -0.047 A 
ATOM      4  C   LIG d   1      11.049   7.611   0.057  0.00  0.00     0.067 A 
ATOM      5  C   LIG d   1      11.039   8.320  -1.163  0.00  0.00    -0.000 A 
ATOM      6  C   LIG d   1      11.395   9.664  -1.185  0.00  0.00    -0.053 A 
ATOM      7  C   LIG d   1      10.645   7.594  -2.385  0.00  0.00     0.026 A 
ATOM      8  C   LIG d   1      10.615   8.241  -3.620  0.00  0.00    -0.047 A 
ATOM      9  C   LIG d   1      10.246   7.547  -4.749  0.00  0.00    -0.019 A 
ATOM     10  C   LIG d   1       9.900   6.199  -4.662  0.00  0.00     0.131 A 
ATOM     11  C   LIG d   1       9.929   5.549  -3.441  0.00  0.00     0.054 A 
ATOM     12  C   LIG d   1      10.299   6.239  -2.292  0.00  0.00     0.148 A 
ATOM     13  O   LIG d   1      10.321   5.592  -1.105  0.00  0.00    -0.421 OA
ATOM     14  C   LIG d   1      10.668   6.191   0.045  0.00  0.00     0.345 A 
ATOM     15  O   LIG d   1      10.668   5.556   1.082  0.00  0.00    -0.244 OA
ATOM     16  C   LIG d   1       9.565   4.090  -3.334  0.00  0.00     0.047 C 
ATOM     17  N   LIG d   1       8.827   3.676  -4.536  0.00  0.00    -0.293 NA
ATOM     18  C   LIG d   1       9.544   4.110  -5.745  0.00  0.00     0.157 C 
ATOM     19  O   LIG d   1       9.536   5.539  -5.793  0.00  0.00    -0.473 OA
ATOM     20  H   LIG d   1      12.032  11.337  -0.026  0.00  0.00     0.062 H 
ATOM     21  H   LIG d   1      12.051  10.103   2.099  0.00  0.00     0.062 H 
ATOM     22  H   LIG d   1      11.427   7.728   2.169  0.00  0.00     0.063 H 
ATOM     23  H   LIG d   1      11.390  10.212  -2.116  0.00  0.00     0.062 H 
ATOM     24  H   LIG d   1      10.882   9.285  -3.690  0.00  0.00     0.063 H 
ATOM     25  H   LIG d   1      10.223   8.047  -5.705  0.00  0.00     0.065 H 
ATOM     26  H   LIG d   1       8.941   3.935  -2.453  0.00  0.00     0.052 H 
ATOM     27  H   LIG d   1      10.474   3.495  -3.244  0.00  0.00     0.052 H 
ATOM     28  H   LIG d   1      10.573   3.752  -5.709  0.00  0.00     0.091 H 
ATOM     29  H   LIG d   1       9.046   3.711  -6.629  0.00  0.00     0.091 H 
ENDROOT
BRANCH  17  30
ATOM     30  C   LIG d   1       8.619   2.295  -4.545  0.00  0.00     0.035 A 
ATOM     31  C   LIG d   1       7.546   1.748  -3.853  0.00  0.00    -0.022 A 
ATOM     32  C   LIG d   1       7.343   0.381  -3.863  0.00  0.00     0.044 A 
ATOM     33  H   LIG d   1       6.871   2.390  -3.307  0.00  0.00     0.065 H 
ATOM     34  C   LIG d   1       8.208  -0.443  -4.562  0.00  0.00    -0.025 A 
ATOM     35 CL   LIG d   1       6.002  -0.303  -2.999  0.00  0.00    -0.083 Cl
ATOM     36  C   LIG d   1       9.274   0.100  -5.258  0.00  0.00     0.044 A 
ATOM     37  H   LIG d   1       8.047  -1.511  -4.569  0.00  0.00     0.065 H 
ATOM     38  C   LIG d   1       9.486   1.465  -5.245  0.00  0.00    -0.022 A 
ATOM     39 CL   LIG d   1      10.352  -0.937  -6.139  0.00  0.00    -0.083 Cl
ATOM     40  H   LIG d   1      10.321   1.888  -5.784  0.00  0.00     0.065 H 
ENDBRANCH  17  30
TORSDOF 1
ENDMDL
MODEL 8
REMARK VINA RESULT:      -6.6      5.396      7.805
REMARK  1 active torsions:
REMARK  status: ('A' for Active; 'I' for Inactive)
REMARK    1  A    between atoms: N_17  and  C_20 
ROOT
ATOM      1  C   LIG d   1       9.229   5.171  -9.388  0.00  0.00    -0.061 A 
ATOM      2  C   LIG d   1       9.296   6.443  -9.935  0.00  0.00    -0.061 A 
ATOM      3  C   LIG d   1       9.514   7.544  -9.132  0.00  0.00    -0.047 A 
ATOM      4  C   LIG d   1       9.667   7.372  -7.758  0.00  0.00     0.067 A 
ATOM      5  C   LIG d   1       9.599   6.076  -7.203  0.00  0.00    -0.000 A 
ATOM      6  C   LIG d   1       9.379   4.981  -8.029  0.00  0.00    -0.053 A 
ATOM      7  C   LIG d   1       9.767   5.937  -5.745  0.00  0.00     0.026 A 
ATOM      8  C   LIG d   1       9.709   4.683  -5.138  0.00  0.00    -0.047 A 
ATOM      9  C   LIG d   1       9.869   4.572  -3.776  0.00  0.00    -0.019 A 
ATOM     10  C   LIG d   1      10.087   5.710  -3.000  0.00  0.00     0.131 A 
ATOM     11  C   LIG d   1      10.148   6.958  -3.594  0.00  0.00     0.054 A 
ATOM     12  C   LIG d   1       9.987   7.084  -4.970  0.00  0.00     0.148 A 
ATOM     13  O   LIG d   1      10.046   8.310  -5.537  0.00  0.00    -0.421 OA
ATOM     14  C   LIG d   1       9.902   8.509  -6.857  0.00  0.00     0.345 A 
ATOM     15  O   LIG d   1       9.964   9.637  -7.308  0.00  0.00    -0.244 OA
ATOM     16  C   LIG d   1      10.392   8.196  -2.769  0.00  0.00     0.047 C 
ATOM     17  N   LIG d   1      10.122   7.905  -1.353  0.00  0.00    -0.293 NA
ATOM     18  C   LIG d   1      10.814   6.672  -0.948  0.00  0.00     0.157 C 
ATOM     19  O   LIG d   1      10.238   5.571  -1.656  0.00  0.00    -0.473 OA
ATOM     20  H   LIG d   1       9.058   4.320 -10.031  0.00  0.00     0.062 H 
ATOM     21  H   LIG d   1       9.177   6.575 -11.000  0.00  0.00     0.062 H 
ATOM     22  H   LIG d   1       9.564   8.531  -9.565  0.00  0.00     0.063 H 
ATOM     23  H   LIG d   1       9.327   3.987  -7.610  0.00  0.00     0.062 H 
ATOM     24  H   LIG d   1       9.540   3.800  -5.736  0.00  0.00     0.063 H 
ATOM     25  H   LIG d   1       9.825   3.601  -3.305  0.00  0.00     0.065 H 
ATOM     26  H   LIG d   1       9.731   8.994  -3.108  0.00  0.00     0.052 H 
ATOM     27  H   LIG d   1      11.429   8.510  -2.883  0.00  0.00     0.052 H 
ATOM     28  H   LIG d   1      11.874   6.750  -1.192  0.00  0.00     0.091 H 
ATOM     29  H   LIG d   1      10.694   6.520   0.125  0.00  0.00     0.091 H 
ENDROOT
BRANCH  17  30
ATOM     30  C   LIG d   1      10.495   8.979  -0.542  0.00  0.00     0.035 A 
ATOM     31  C   LIG d   1      11.123   8.746   0.675  0.00  0.00    -0.022 A 
ATOM     32  C   LIG d   1      11.491   9.811   1.476  0.00  0.00     0.044 A 
ATOM     33  H   LIG d   1      11.324   7.734   0.995  0.00  0.00     0.065 H 
ATOM     34  C   LIG d   1      11.234  11.108   1.067  0.00  0.00    -0.025 A 
ATOM     35 CL   LIG d   1      12.277   9.521   2.996  0.00  0.00    -0.083 Cl
ATOM     36  C   LIG d   1      10.613  11.342  -0.148  0.00  0.00     0.044 A 
ATOM     37  H   LIG d   1      11.523  11.938   1.694  0.00  0.00     0.065 H 
ATOM     38  C   LIG d   1      10.238  10.282  -0.950  0.00  0.00    -0.022 A 
ATOM     39 CL   LIG d   1      10.300  12.971  -0.661  0.00  0.00    -0.083 Cl
ATOM     40  H   LIG d   1       9.749  10.465  -1.895  0.00  0.00     0.065 H 
ENDBRANCH  17  30
TORSDOF 1
ENDMDL
MODEL 9
REMARK VINA RESULT:      -6.6     16.627     18.570
REMARK  1 active torsions:
REMARK  status: ('A' for Active; 'I' for Inactive)
REMARK    1  A    between atoms: N_17  and  C_20 
ROOT
ATOM      1  C   LIG d   1      -1.350  12.362 -16.389  0.00  0.00    -0.061 A 
ATOM      2  C   LIG d   1      -0.100  11.806 -16.160  0.00  0.00    -0.061 A 
ATOM      3  C   LIG d   1       0.023  10.496 -15.748  0.00  0.00    -0.047 A 
ATOM      4  C   LIG d   1      -1.121   9.725 -15.559  0.00  0.00     0.067 A 
ATOM      5  C   LIG d   1      -2.393  10.291 -15.792  0.00  0.00    -0.000 A 
ATOM      6  C   LIG d   1      -2.495  11.613 -16.208  0.00  0.00    -0.053 A 
ATOM      7  C   LIG d   1      -3.580   9.442 -15.582  0.00  0.00     0.026 A 
ATOM      8  C   LIG d   1      -4.863   9.945 -15.795  0.00  0.00    -0.047 A 
ATOM      9  C   LIG d   1      -5.958   9.137 -15.594  0.00  0.00    -0.019 A 
ATOM     10  C   LIG d   1      -5.790   7.818 -15.177  0.00  0.00     0.131 A 
ATOM     11  C   LIG d   1      -4.521   7.310 -14.964  0.00  0.00     0.054 A 
ATOM     12  C   LIG d   1      -3.405   8.116 -15.163  0.00  0.00     0.148 A 
ATOM     13  O   LIG d   1      -2.171   7.607 -14.949  0.00  0.00    -0.421 OA
ATOM     14  C   LIG d   1      -1.048   8.324 -15.121  0.00  0.00     0.345 A 
ATOM     15  O   LIG d   1       0.034   7.810 -14.912  0.00  0.00    -0.244 OA
ATOM     16  C   LIG d   1      -4.324   5.883 -14.521  0.00  0.00     0.047 C 
ATOM     17  N   LIG d   1      -5.586   5.355 -13.983  0.00  0.00    -0.293 NA
ATOM     18  C   LIG d   1      -6.689   5.629 -14.917  0.00  0.00     0.157 C 
ATOM     19  O   LIG d   1      -6.891   7.043 -14.983  0.00  0.00    -0.473 OA
ATOM     20  H   LIG d   1      -1.428  13.390 -16.712  0.00  0.00     0.062 H 
ATOM     21  H   LIG d   1       0.786  12.405 -16.308  0.00  0.00     0.062 H 
ATOM     22  H   LIG d   1       1.000  10.071 -15.572  0.00  0.00     0.063 H 
ATOM     23  H   LIG d   1      -3.466  12.052 -16.389  0.00  0.00     0.062 H 
ATOM     24  H   LIG d   1      -4.996  10.967 -16.118  0.00  0.00     0.063 H 
ATOM     25  H   LIG d   1      -6.952   9.526 -15.760  0.00  0.00     0.065 H 
ATOM     26  H   LIG d   1      -3.556   5.845 -13.748  0.00  0.00     0.052 H 
ATOM     27  H   LIG d   1      -4.011   5.277 -15.372  0.00  0.00     0.052 H 
ATOM     28  H   LIG d   1      -6.434   5.250 -15.907  0.00  0.00     0.091 H 
ATOM     29  H   LIG d   1      -7.599   5.146 -14.561  0.00  0.00     0.091 H 
ENDROOT
BRANCH  17  30
ATOM     30  C   LIG d   1      -5.484   3.987 -13.716  0.00  0.00     0.035 A 
ATOM     31  C   LIG d   1      -4.233   3.395 -13.589  0.00  0.00    -0.022 A 
ATOM     32  C   LIG d   1      -4.136   2.042 -13.325  0.00  0.00     0.044 A 
ATOM     33  H   LIG d   1      -3.339   3.991 -13.695  0.00  0.00     0.065 H 
ATOM     34  C   LIG d   1      -5.281   1.277 -13.189  0.00  0.00    -0.025 A 
ATOM     35 CL   LIG d   1      -2.574   1.301 -13.165  0.00  0.00    -0.083 Cl
ATOM     36  C   LIG d   1      -6.527   1.867 -13.309  0.00  0.00     0.044 A 
ATOM     37  H   LIG d   1      -5.201   0.220 -12.982  0.00  0.00     0.065 H 
ATOM     38  C   LIG d   1      -6.631   3.217 -13.579  0.00  0.00    -0.022 A 
ATOM     39 CL   LIG d   1      -7.961   0.905 -13.130  0.00  0.00    -0.083 Cl
ATOM     40  H   LIG d   1      -7.604   3.676 -13.678  0.00  0.00     0.065 H 
ENDBRANCH  17  30
TORSDOF 1
ENDMDL
