MODEL 1
REMARK VINA RESULT:      -5.2      0.000      0.000
REMARK  8 active torsions:
REMARK  status: ('A' for Active; 'I' for Inactive)
REMARK    1  A    between atoms: C_1  and  C_2 
REMARK    2  A    between atoms: C_2  and  C_3 
REMARK    3  A    between atoms: C_2  and  C_12 
REMARK    4  A    between atoms: C_2  and  N_29 
REMARK    5  A    between atoms: C_3  and  C_4 
REMARK    6  A    between atoms: C_7  and  O_11 
REMARK    7  A    between atoms: C_8  and  O_10 
REMARK    8  A    between atoms: C_14  and  N_29 
ROOT
ATOM      1  C   LIG d   1       4.543  -1.251  -2.508  0.00  0.00     0.024 C 
ATOM      2  H   LIG d   1       3.756  -1.885  -2.103  0.00  0.00     0.037 H 
ATOM      3  H   LIG d   1       5.110  -0.806  -1.690  0.00  0.00     0.037 H 
ENDROOT
BRANCH   1   4
ATOM      4  C   LIG d   1       3.919  -0.142  -3.358  0.00  0.00     0.029 C 
BRANCH   4   5
ATOM      5  C   LIG d   1       2.425  -0.418  -3.538  0.00  0.00    -0.013 C 
ATOM      6  H   LIG d   1       1.960   0.422  -4.055  0.00  0.00     0.029 H 
ATOM      7  H   LIG d   1       2.291  -1.326  -4.126  0.00  0.00     0.029 H 
ATOM      8  H   LIG d   1       1.959  -0.545  -2.561  0.00  0.00     0.029 H 
ENDBRANCH   4   5
BRANCH   4   9
ATOM      9  C   LIG d   1       4.107   1.185  -2.670  0.00  0.00     0.093 C 
ATOM     10  O   LIG d   1       3.689   2.196  -3.184  0.00  0.00    -0.544 OA
ATOM     11  O   LIG d   1       4.738   1.245  -1.487  0.00  0.00    -0.544 OA
ENDBRANCH   4   9
BRANCH   4  12
ATOM     12  N   LIG d   1       4.580  -0.114  -4.676  0.00  0.00     0.233 N 
ATOM     13  H   LIG d   1       5.181  -0.942  -4.772  0.00  0.00     0.202 HD
ATOM     14  H   LIG d   1       5.155   0.734  -4.749  0.00  0.00     0.202 HD
BRANCH  12  15
ATOM     15  C   LIG d   1       3.575  -0.116  -5.755  0.00  0.00    -0.044 C 
ATOM     16  H   LIG d   1       3.847  -0.857  -6.508  0.00  0.00     0.078 H 
ATOM     17  H   LIG d   1       2.601  -0.365  -5.335  0.00  0.00     0.078 H 
ATOM     18  H   LIG d   1       3.531   0.871  -6.217  0.00  0.00     0.078 H 
ENDBRANCH  12  15
ENDBRANCH   4  12
ENDBRANCH   1   4
BRANCH   1  19
ATOM     19  C   LIG d   1       5.466  -2.080  -3.365  0.00  0.00    -0.038 A 
ATOM     20  C   LIG d   1       6.827  -1.841  -3.345  0.00  0.00    -0.013 A 
ATOM     21  C   LIG d   1       7.676  -2.602  -4.133  0.00  0.00     0.159 A 
ATOM     22  H   LIG d   1       7.228  -1.057  -2.720  0.00  0.00     0.066 H 
ATOM     23  C   LIG d   1       7.155  -3.606  -4.942  0.00  0.00     0.158 A 
ATOM     24  C   LIG d   1       5.789  -3.842  -4.957  0.00  0.00    -0.016 A 
ATOM     25  C   LIG d   1       4.948  -3.079  -4.169  0.00  0.00    -0.055 A 
ATOM     26  H   LIG d   1       5.382  -4.621  -5.584  0.00  0.00     0.066 H 
ATOM     27  H   LIG d   1       3.884  -3.262  -4.182  0.00  0.00     0.062 H 
BRANCH  21  28
ATOM     28  O   LIG d   1       9.015  -2.368  -4.114  0.00  0.00    -0.503 OA
ATOM     29  H   LIG d   1       9.355  -1.960  -4.923  0.00  0.00     0.292 HD
ENDBRANCH  21  28
BRANCH  23  30
ATOM     30  O   LIG d   1       7.984  -4.357  -5.716  0.00  0.00    -0.503 OA
ATOM     31  H   LIG d   1       7.729  -5.288  -5.778  0.00  0.00     0.292 HD
ENDBRANCH  23  30
ENDBRANCH   1  19
TORSDOF 8
ENDMDL
MODEL 2
REMARK VINA RESULT:      -5.2      2.154      4.896
REMARK  8 active torsions:
REMARK  status: ('A' for Active; 'I' for Inactive)
REMARK    1  A    between atoms: C_1  and  C_2 
REMARK    2  A    between atoms: C_2  and  C_3 
REMARK    3  A    between atoms: C_2  and  C_12 
REMARK    4  A    between atoms: C_2  and  N_29 
REMARK    5  A    between atoms: C_3  and  C_4 
REMARK    6  A    between atoms: C_7  and  O_11 
REMARK    7  A    between atoms: C_8  and  O_10 
REMARK    8  A    between atoms: C_14  and  N_29 
ROOT
ATOM      1  C   LIG d   1       5.794  -3.378  -4.651  0.00  0.00     0.024 C 
ATOM      2  H   LIG d   1       6.863  -3.321  -4.851  0.00  0.00     0.037 H 
ATOM      3  H   LIG d   1       5.572  -4.307  -4.125  0.00  0.00     0.037 H 
ENDROOT
BRANCH   1   4
ATOM      4  C   LIG d   1       5.024  -3.344  -5.973  0.00  0.00     0.029 C 
BRANCH   4   5
ATOM      5  C   LIG d   1       6.012  -3.249  -7.136  0.00  0.00    -0.013 C 
ATOM      6  H   LIG d   1       5.555  -3.659  -8.037  0.00  0.00     0.029 H 
ATOM      7  H   LIG d   1       6.275  -2.204  -7.305  0.00  0.00     0.029 H 
ATOM      8  H   LIG d   1       6.912  -3.815  -6.896  0.00  0.00     0.029 H 
ENDBRANCH   4   5
BRANCH   4   9
ATOM      9  C   LIG d   1       4.205  -4.601  -6.110  0.00  0.00     0.093 C 
ATOM     10  O   LIG d   1       3.651  -4.849  -7.155  0.00  0.00    -0.544 OA
ATOM     11  O   LIG d   1       4.091  -5.445  -5.072  0.00  0.00    -0.544 OA
ENDBRANCH   4   9
BRANCH   4  12
ATOM     12  N   LIG d   1       4.132  -2.169  -5.982  0.00  0.00     0.233 N 
ATOM     13  H   LIG d   1       4.342  -1.578  -5.168  0.00  0.00     0.202 HD
ATOM     14  H   LIG d   1       3.156  -2.484  -5.932  0.00  0.00     0.202 HD
BRANCH  12  15
ATOM     15  C   LIG d   1       4.329  -1.385  -7.215  0.00  0.00    -0.044 C 
ATOM     16  H   LIG d   1       5.007  -0.554  -7.016  0.00  0.00     0.078 H 
ATOM     17  H   LIG d   1       4.757  -2.028  -7.983  0.00  0.00     0.078 H 
ATOM     18  H   LIG d   1       3.370  -0.996  -7.559  0.00  0.00     0.078 H 
ENDBRANCH  12  15
ENDBRANCH   4  12
ENDBRANCH   1   4
BRANCH   1  19
ATOM     19  C   LIG d   1       5.378  -2.207  -3.798  0.00  0.00    -0.038 A 
ATOM     20  C   LIG d   1       6.119  -1.040  -3.821  0.00  0.00    -0.013 A 
ATOM     21  C   LIG d   1       5.738   0.038  -3.037  0.00  0.00     0.159 A 
ATOM     22  H   LIG d   1       6.997  -0.970  -4.446  0.00  0.00     0.066 H 
ATOM     23  C   LIG d   1       4.610  -0.057  -2.230  0.00  0.00     0.158 A 
ATOM     24  C   LIG d   1       3.871  -1.230  -2.212  0.00  0.00    -0.016 A 
ATOM     25  C   LIG d   1       4.256  -2.301  -2.995  0.00  0.00    -0.055 A 
ATOM     26  H   LIG d   1       2.995  -1.307  -1.585  0.00  0.00     0.066 H 
ATOM     27  H   LIG d   1       3.681  -3.215  -2.980  0.00  0.00     0.062 H 
BRANCH  21  28
ATOM     28  O   LIG d   1       6.466   1.187  -3.059  0.00  0.00    -0.503 OA
ATOM     29  H   LIG d   1       6.138   1.871  -2.460  0.00  0.00     0.292 HD
ENDBRANCH  21  28
BRANCH  23  30
ATOM     30  O   LIG d   1       4.232   0.997  -1.460  0.00  0.00    -0.503 OA
ATOM     31  H   LIG d   1       4.811   1.159  -0.701  0.00  0.00     0.292 HD
ENDBRANCH  23  30
ENDBRANCH   1  19
TORSDOF 8
ENDMDL
MODEL 3
REMARK VINA RESULT:      -5.1      1.089      2.058
REMARK  8 active torsions:
REMARK  status: ('A' for Active; 'I' for Inactive)
REMARK    1  A    between atoms: C_1  and  C_2 
REMARK    2  A    between atoms: C_2  and  C_3 
REMARK    3  A    between atoms: C_2  and  C_12 
REMARK    4  A    between atoms: C_2  and  N_29 
REMARK    5  A    between atoms: C_3  and  C_4 
REMARK    6  A    between atoms: C_7  and  O_11 
REMARK    7  A    between atoms: C_8  and  O_10 
REMARK    8  A    between atoms: C_14  and  N_29 
ROOT
ATOM      1  C   LIG d   1       4.822  -1.175  -2.512  0.00  0.00     0.024 C 
ATOM      2  H   LIG d   1       4.166  -1.673  -1.799  0.00  0.00     0.037 H 
ATOM      3  H   LIG d   1       5.638  -0.689  -1.977  0.00  0.00     0.037 H 
ENDROOT
BRANCH   1   4
ATOM      4  C   LIG d   1       4.026  -0.127  -3.292  0.00  0.00     0.029 C 
BRANCH   4   5
ATOM      5  C   LIG d   1       2.550  -0.525  -3.323  0.00  0.00    -0.013 C 
ATOM      6  H   LIG d   1       1.949   0.328  -3.638  0.00  0.00     0.029 H 
ATOM      7  H   LIG d   1       2.410  -1.347  -4.025  0.00  0.00     0.029 H 
ATOM      8  H   LIG d   1       2.238  -0.841  -2.327  0.00  0.00     0.029 H 
ENDBRANCH   4   5
BRANCH   4   9
ATOM      9  C   LIG d   1       4.171   1.215  -2.621  0.00  0.00     0.093 C 
ATOM     10  O   LIG d   1       4.723   1.297  -1.549  0.00  0.00    -0.544 OA
ATOM     11  O   LIG d   1       3.687   2.318  -3.214  0.00  0.00    -0.544 OA
ENDBRANCH   4   9
BRANCH   4  12
ATOM     12  N   LIG d   1       4.549  -0.050  -4.669  0.00  0.00     0.233 N 
ATOM     13  H   LIG d   1       5.158  -0.859  -4.846  0.00  0.00     0.202 HD
ATOM     14  H   LIG d   1       5.090   0.815  -4.779  0.00  0.00     0.202 HD
BRANCH  12  15
ATOM     15  C   LIG d   1       3.439  -0.057  -5.640  0.00  0.00    -0.044 C 
ATOM     16  H   LIG d   1       2.489   0.027  -5.111  0.00  0.00     0.078 H 
ATOM     17  H   LIG d   1       3.553   0.786  -6.320  0.00  0.00     0.078 H 
ATOM     18  H   LIG d   1       3.456  -0.988  -6.209  0.00  0.00     0.078 H 
ENDBRANCH  12  15
ENDBRANCH   4  12
ENDBRANCH   1   4
BRANCH   1  19
ATOM     19  C   LIG d   1       5.386  -2.192  -3.471  0.00  0.00    -0.038 A 
ATOM     20  C   LIG d   1       4.556  -3.142  -4.035  0.00  0.00    -0.013 A 
ATOM     21  C   LIG d   1       5.074  -4.078  -4.917  0.00  0.00     0.159 A 
ATOM     22  H   LIG d   1       3.507  -3.159  -3.785  0.00  0.00     0.066 H 
ATOM     23  C   LIG d   1       6.429  -4.057  -5.233  0.00  0.00     0.158 A 
ATOM     24  C   LIG d   1       7.255  -3.101  -4.664  0.00  0.00    -0.016 A 
ATOM     25  C   LIG d   1       6.733  -2.172  -3.785  0.00  0.00    -0.055 A 
ATOM     26  H   LIG d   1       8.308  -3.083  -4.907  0.00  0.00     0.066 H 
ATOM     27  H   LIG d   1       7.378  -1.427  -3.342  0.00  0.00     0.062 H 
BRANCH  21  28
ATOM     28  O   LIG d   1       4.259  -5.014  -5.473  0.00  0.00    -0.503 OA
ATOM     29  H   LIG d   1       4.165  -4.934  -6.433  0.00  0.00     0.292 HD
ENDBRANCH  21  28
BRANCH  23  30
ATOM     30  O   LIG d   1       6.941  -4.973  -6.098  0.00  0.00    -0.503 OA
ATOM     31  H   LIG d   1       6.272  -5.518  -6.536  0.00  0.00     0.292 HD
ENDBRANCH  23  30
ENDBRANCH   1  19
TORSDOF 8
ENDMDL
MODEL 4
REMARK VINA RESULT:      -4.8      2.132      2.974
REMARK  8 active torsions:
REMARK  status: ('A' for Active; 'I' for Inactive)
REMARK    1  A    between atoms: C_1  and  C_2 
REMARK    2  A    between atoms: C_2  and  C_3 
REMARK    3  A    between atoms: C_2  and  C_12 
REMARK    4  A    between atoms: C_2  and  N_29 
REMARK    5  A    between atoms: C_3  and  C_4 
REMARK    6  A    between atoms: C_7  and  O_11 
REMARK    7  A    between atoms: C_8  and  O_10 
REMARK    8  A    between atoms: C_14  and  N_29 
ROOT
ATOM      1  C   LIG d   1       5.999  -1.383  -3.810  0.00  0.00     0.024 C 
ATOM      2  H   LIG d   1       6.531  -1.981  -3.071  0.00  0.00     0.037 H 
ATOM      3  H   LIG d   1       6.688  -0.675  -4.270  0.00  0.00     0.037 H 
ENDROOT
BRANCH   1   4
ATOM      4  C   LIG d   1       4.864  -0.619  -3.126  0.00  0.00     0.029 C 
BRANCH   4   5
ATOM      5  C   LIG d   1       4.400  -1.392  -1.890  0.00  0.00    -0.013 C 
ATOM      6  H   LIG d   1       4.415  -2.461  -2.103  0.00  0.00     0.029 H 
ATOM      7  H   LIG d   1       5.069  -1.179  -1.056  0.00  0.00     0.029 H 
ATOM      8  H   LIG d   1       3.386  -1.088  -1.630  0.00  0.00     0.029 H 
ENDBRANCH   4   5
BRANCH   4   9
ATOM      9  C   LIG d   1       5.354   0.744  -2.711  0.00  0.00     0.093 C 
ATOM     10  O   LIG d   1       5.047   1.193  -1.632  0.00  0.00    -0.544 OA
ATOM     11  O   LIG d   1       6.130   1.460  -3.540  0.00  0.00    -0.544 OA
ENDBRANCH   4   9
BRANCH   4  12
ATOM     12  N   LIG d   1       3.740  -0.474  -4.071  0.00  0.00     0.233 N 
ATOM     13  H   LIG d   1       3.804  -1.208  -4.787  0.00  0.00     0.202 HD
ATOM     14  H   LIG d   1       3.792   0.447  -4.521  0.00  0.00     0.202 HD
BRANCH  12  15
ATOM     15  C   LIG d   1       2.453  -0.599  -3.362  0.00  0.00    -0.044 C 
ATOM     16  H   LIG d   1       1.866   0.308  -3.507  0.00  0.00     0.078 H 
ATOM     17  H   LIG d   1       1.908  -1.454  -3.760  0.00  0.00     0.078 H 
ATOM     18  H   LIG d   1       2.635  -0.747  -2.297  0.00  0.00     0.078 H 
ENDBRANCH  12  15
ENDBRANCH   4  12
ENDBRANCH   1   4
BRANCH   1  19
ATOM     19  C   LIG d   1       5.426  -2.287  -4.871  0.00  0.00    -0.038 A 
ATOM     20  C   LIG d   1       5.014  -3.564  -4.540  0.00  0.00    -0.013 A 
ATOM     21  C   LIG d   1       4.487  -4.397  -5.515  0.00  0.00     0.159 A 
ATOM     22  H   LIG d   1       5.106  -3.915  -3.523  0.00  0.00     0.066 H 
ATOM     23  C   LIG d   1       4.375  -3.944  -6.825  0.00  0.00     0.158 A 
ATOM     24  C   LIG d   1       4.789  -2.662  -7.151  0.00  0.00    -0.016 A 
ATOM     25  C   LIG d   1       5.314  -1.837  -6.174  0.00  0.00    -0.055 A 
ATOM     26  H   LIG d   1       4.703  -2.308  -8.168  0.00  0.00     0.066 H 
ATOM     27  H   LIG d   1       5.637  -0.838  -6.428  0.00  0.00     0.062 H 
BRANCH  21  28
ATOM     28  O   LIG d   1       4.081  -5.653  -5.191  0.00  0.00    -0.503 OA
ATOM     29  H   LIG d   1       4.147  -6.288  -5.918  0.00  0.00     0.292 HD
ENDBRANCH  21  28
BRANCH  23  30
ATOM     30  O   LIG d   1       3.858  -4.757  -7.785  0.00  0.00    -0.503 OA
ATOM     31  H   LIG d   1       3.586  -5.627  -7.460  0.00  0.00     0.292 HD
ENDBRANCH  23  30
ENDBRANCH   1  19
TORSDOF 8
ENDMDL
MODEL 5
REMARK VINA RESULT:      -4.5      3.473      5.224
REMARK  8 active torsions:
REMARK  status: ('A' for Active; 'I' for Inactive)
REMARK    1  A    between atoms: C_1  and  C_2 
REMARK    2  A    between atoms: C_2  and  C_3 
REMARK    3  A    between atoms: C_2  and  C_12 
REMARK    4  A    between atoms: C_2  and  N_29 
REMARK    5  A    between atoms: C_3  and  C_4 
REMARK    6  A    between atoms: C_7  and  O_11 
REMARK    7  A    between atoms: C_8  and  O_10 
REMARK    8  A    between atoms: C_14  and  N_29 
ROOT
ATOM      1  C   LIG d   1       4.319  -1.186  -6.113  0.00  0.00     0.024 C 
ATOM      2  H   LIG d   1       3.678  -2.058  -6.231  0.00  0.00     0.037 H 
ATOM      3  H   LIG d   1       5.362  -1.502  -6.079  0.00  0.00     0.037 H 
ENDROOT
BRANCH   1   4
ATOM      4  C   LIG d   1       3.962  -0.462  -4.813  0.00  0.00     0.029 C 
BRANCH   4   5
ATOM      5  C   LIG d   1       2.704   0.380  -5.026  0.00  0.00    -0.013 C 
ATOM      6  H   LIG d   1       2.086   0.345  -4.129  0.00  0.00     0.029 H 
ATOM      7  H   LIG d   1       2.988   1.413  -5.232  0.00  0.00     0.029 H 
ATOM      8  H   LIG d   1       2.140  -0.016  -5.871  0.00  0.00     0.029 H 
ENDBRANCH   4   5
BRANCH   4   9
ATOM      9  C   LIG d   1       3.711  -1.475  -3.727  0.00  0.00     0.093 C 
ATOM     10  O   LIG d   1       3.239  -1.124  -2.671  0.00  0.00    -0.544 OA
ATOM     11  O   LIG d   1       4.012  -2.768  -3.931  0.00  0.00    -0.544 OA
ENDBRANCH   4   9
BRANCH   4  12
ATOM     12  N   LIG d   1       5.085   0.413  -4.424  0.00  0.00     0.233 N 
ATOM     13  H   LIG d   1       4.876   0.848  -3.517  0.00  0.00     0.202 HD
ATOM     14  H   LIG d   1       5.207   1.144  -5.133  0.00  0.00     0.202 HD
BRANCH  12  15
ATOM     15  C   LIG d   1       6.330  -0.370  -4.310  0.00  0.00    -0.044 C 
ATOM     16  H   LIG d   1       6.120  -1.422  -4.510  0.00  0.00     0.078 H 
ATOM     17  H   LIG d   1       7.053   0.002  -5.035  0.00  0.00     0.078 H 
ATOM     18  H   LIG d   1       6.737  -0.267  -3.304  0.00  0.00     0.078 H 
ENDBRANCH  12  15
ENDBRANCH   4  12
ENDBRANCH   1   4
BRANCH   1  19
ATOM     19  C   LIG d   1       4.116  -0.251  -7.279  0.00  0.00    -0.038 A 
ATOM     20  C   LIG d   1       5.177   0.491  -7.761  0.00  0.00    -0.013 A 
ATOM     21  C   LIG d   1       4.991   1.350  -8.832  0.00  0.00     0.159 A 
ATOM     22  H   LIG d   1       6.149   0.405  -7.300  0.00  0.00     0.066 H 
ATOM     23  C   LIG d   1       3.736   1.463  -9.420  0.00  0.00     0.158 A 
ATOM     24  C   LIG d   1       2.676   0.715  -8.932  0.00  0.00    -0.016 A 
ATOM     25  C   LIG d   1       2.868  -0.140  -7.863  0.00  0.00    -0.055 A 
ATOM     26  H   LIG d   1       1.700   0.801  -9.387  0.00  0.00     0.066 H 
ATOM     27  H   LIG d   1       2.041  -0.722  -7.483  0.00  0.00     0.062 H 
BRANCH  21  28
ATOM     28  O   LIG d   1       6.035   2.082  -9.308  0.00  0.00    -0.503 OA
ATOM     29  H   LIG d   1       6.398   2.710  -8.669  0.00  0.00     0.292 HD
ENDBRANCH  21  28
BRANCH  23  30
ATOM     30  O   LIG d   1       3.548   2.304 -10.472  0.00  0.00    -0.503 OA
ATOM     31  H   LIG d   1       2.620   2.513 -10.648  0.00  0.00     0.292 HD
ENDBRANCH  23  30
ENDBRANCH   1  19
TORSDOF 8
ENDMDL
MODEL 6
REMARK VINA RESULT:      -4.4      2.098      4.968
REMARK  8 active torsions:
REMARK  status: ('A' for Active; 'I' for Inactive)
REMARK    1  A    between atoms: C_1  and  C_2 
REMARK    2  A    between atoms: C_2  and  C_3 
REMARK    3  A    between atoms: C_2  and  C_12 
REMARK    4  A    between atoms: C_2  and  N_29 
REMARK    5  A    between atoms: C_3  and  C_4 
REMARK    6  A    between atoms: C_7  and  O_11 
REMARK    7  A    between atoms: C_8  and  O_10 
REMARK    8  A    between atoms: C_14  and  N_29 
ROOT
ATOM      1  C   LIG d   1       6.985  -2.784  -3.704  0.00  0.00     0.024 C 
ATOM      2  H   LIG d   1       7.998  -2.401  -3.823  0.00  0.00     0.037 H 
ATOM      3  H   LIG d   1       6.987  -3.597  -2.978  0.00  0.00     0.037 H 
ENDROOT
BRANCH   1   4
ATOM      4  C   LIG d   1       6.473  -3.302  -5.049  0.00  0.00     0.029 C 
BRANCH   4   5
ATOM      5  C   LIG d   1       5.014  -3.740  -4.905  0.00  0.00    -0.013 C 
ATOM      6  H   LIG d   1       4.677  -3.553  -3.886  0.00  0.00     0.029 H 
ATOM      7  H   LIG d   1       4.395  -3.176  -5.603  0.00  0.00     0.029 H 
ATOM      8  H   LIG d   1       4.931  -4.805  -5.125  0.00  0.00     0.029 H 
ENDBRANCH   4   5
BRANCH   4   9
ATOM      9  C   LIG d   1       6.569  -2.206  -6.079  0.00  0.00     0.093 C 
ATOM     10  O   LIG d   1       7.651  -1.772  -6.399  0.00  0.00    -0.544 OA
ATOM     11  O   LIG d   1       5.455  -1.712  -6.641  0.00  0.00    -0.544 OA
ENDBRANCH   4   9
BRANCH   4  12
ATOM     12  N   LIG d   1       7.297  -4.450  -5.470  0.00  0.00     0.233 N 
ATOM     13  H   LIG d   1       7.680  -4.268  -6.406  0.00  0.00     0.202 HD
ATOM     14  H   LIG d   1       6.714  -5.294  -5.498  0.00  0.00     0.202 HD
BRANCH  12  15
ATOM     15  C   LIG d   1       8.409  -4.658  -4.523  0.00  0.00    -0.044 C 
ATOM     16  H   LIG d   1       9.353  -4.686  -5.069  0.00  0.00     0.078 H 
ATOM     17  H   LIG d   1       8.426  -3.838  -3.807  0.00  0.00     0.078 H 
ATOM     18  H   LIG d   1       8.268  -5.601  -3.994  0.00  0.00     0.078 H 
ENDBRANCH  12  15
ENDBRANCH   4  12
ENDBRANCH   1   4
BRANCH   1  19
ATOM     19  C   LIG d   1       6.084  -1.677  -3.216  0.00  0.00    -0.038 A 
ATOM     20  C   LIG d   1       6.456  -0.358  -3.390  0.00  0.00    -0.013 A 
ATOM     21  C   LIG d   1       5.629   0.660  -2.942  0.00  0.00     0.159 A 
ATOM     22  H   LIG d   1       7.393  -0.120  -3.871  0.00  0.00     0.066 H 
ATOM     23  C   LIG d   1       4.425   0.350  -2.319  0.00  0.00     0.158 A 
ATOM     24  C   LIG d   1       4.057  -0.976  -2.148  0.00  0.00    -0.016 A 
ATOM     25  C   LIG d   1       4.887  -1.986  -2.596  0.00  0.00    -0.055 A 
ATOM     26  H   LIG d   1       3.123  -1.219  -1.664  0.00  0.00     0.066 H 
ATOM     27  H   LIG d   1       4.600  -3.018  -2.463  0.00  0.00     0.062 H 
BRANCH  21  28
ATOM     28  O   LIG d   1       5.993   1.959  -3.113  0.00  0.00    -0.503 OA
ATOM     29  H   LIG d   1       5.361   2.481  -3.626  0.00  0.00     0.292 HD
ENDBRANCH  21  28
BRANCH  23  30
ATOM     30  O   LIG d   1       3.609   1.345  -1.878  0.00  0.00    -0.503 OA
ATOM     31  H   LIG d   1       2.778   1.032  -1.494  0.00  0.00     0.292 HD
ENDBRANCH  23  30
ENDBRANCH   1  19
TORSDOF 8
ENDMDL
MODEL 7
REMARK VINA RESULT:      -4.4      9.818     12.137
REMARK  8 active torsions:
REMARK  status: ('A' for Active; 'I' for Inactive)
REMARK    1  A    between atoms: C_1  and  C_2 
REMARK    2  A    between atoms: C_2  and  C_3 
REMARK    3  A    between atoms: C_2  and  C_12 
REMARK    4  A    between atoms: C_2  and  N_29 
REMARK    5  A    between atoms: C_3  and  C_4 
REMARK    6  A    between atoms: C_7  and  O_11 
REMARK    7  A    between atoms: C_8  and  O_10 
REMARK    8  A    between atoms: C_14  and  N_29 
ROOT
ATOM      1  C   LIG d   1      10.487   6.353  -0.096  0.00  0.00     0.024 C 
ATOM      2  H   LIG d   1      10.970   6.093   0.845  0.00  0.00     0.037 H 
ATOM      3  H   LIG d   1       9.514   5.865  -0.152  0.00  0.00     0.037 H 
ENDROOT
BRANCH   1   4
ATOM      4  C   LIG d   1      11.360   5.886  -1.263  0.00  0.00     0.029 C 
BRANCH   4   5
ATOM      5  C   LIG d   1      10.833   6.487  -2.567  0.00  0.00    -0.013 C 
ATOM      6  H   LIG d   1      10.359   7.447  -2.360  0.00  0.00     0.029 H 
ATOM      7  H   LIG d   1      11.661   6.633  -3.261  0.00  0.00     0.029 H 
ATOM      8  H   LIG d   1      10.102   5.811  -3.010  0.00  0.00     0.029 H 
ENDBRANCH   4   5
BRANCH   4   9
ATOM      9  C   LIG d   1      12.780   6.336  -1.040  0.00  0.00     0.093 C 
ATOM     10  O   LIG d   1      13.346   6.059  -0.009  0.00  0.00    -0.544 OA
ATOM     11  O   LIG d   1      13.417   7.044  -1.986  0.00  0.00    -0.544 OA
ENDBRANCH   4   9
BRANCH   4  12
ATOM     12  N   LIG d   1      11.314   4.413  -1.342  0.00  0.00     0.233 N 
ATOM     13  H   LIG d   1      10.843   4.044  -0.507  0.00  0.00     0.202 HD
ATOM     14  H   LIG d   1      12.271   4.046  -1.384  0.00  0.00     0.202 HD
BRANCH  12  15
ATOM     15  C   LIG d   1      10.574   3.986  -2.544  0.00  0.00    -0.044 C 
ATOM     16  H   LIG d   1      10.203   4.864  -3.076  0.00  0.00     0.078 H 
ATOM     17  H   LIG d   1      11.243   3.424  -3.194  0.00  0.00     0.078 H 
ATOM     18  H   LIG d   1       9.734   3.356  -2.253  0.00  0.00     0.078 H 
ENDBRANCH  12  15
ENDBRANCH   4  12
ENDBRANCH   1   4
BRANCH   1  19
ATOM     19  C   LIG d   1      10.306   7.847  -0.172  0.00  0.00    -0.038 A 
ATOM     20  C   LIG d   1       9.229   8.377  -0.857  0.00  0.00    -0.013 A 
ATOM     21  C   LIG d   1       9.061   9.751  -0.928  0.00  0.00     0.159 A 
ATOM     22  H   LIG d   1       8.521   7.721  -1.341  0.00  0.00     0.066 H 
ATOM     23  C   LIG d   1       9.978  10.594  -0.308  0.00  0.00     0.158 A 
ATOM     24  C   LIG d   1      11.056  10.056   0.378  0.00  0.00    -0.016 A 
ATOM     25  C   LIG d   1      11.217   8.685   0.444  0.00  0.00    -0.055 A 
ATOM     26  H   LIG d   1      11.769  10.708   0.860  0.00  0.00     0.066 H 
ATOM     27  H   LIG d   1      12.058   8.266   0.978  0.00  0.00     0.062 H 
BRANCH  21  28
ATOM     28  O   LIG d   1       8.002  10.274  -1.602  0.00  0.00    -0.503 OA
ATOM     29  H   LIG d   1       8.242  10.955  -2.245  0.00  0.00     0.292 HD
ENDBRANCH  21  28
BRANCH  23  30
ATOM     30  O   LIG d   1       9.818  11.942  -0.375  0.00  0.00    -0.503 OA
ATOM     31  H   LIG d   1      10.558  12.445  -0.006  0.00  0.00     0.292 HD
ENDBRANCH  23  30
ENDBRANCH   1  19
TORSDOF 8
ENDMDL
MODEL 8
REMARK VINA RESULT:      -4.3     10.049     11.709
REMARK  8 active torsions:
REMARK  status: ('A' for Active; 'I' for Inactive)
REMARK    1  A    between atoms: C_1  and  C_2 
REMARK    2  A    between atoms: C_2  and  C_3 
REMARK    3  A    between atoms: C_2  and  C_12 
REMARK    4  A    between atoms: C_2  and  N_29 
REMARK    5  A    between atoms: C_3  and  C_4 
REMARK    6  A    between atoms: C_7  and  O_11 
REMARK    7  A    between atoms: C_8  and  O_10 
REMARK    8  A    between atoms: C_14  and  N_29 
ROOT
ATOM      1  C   LIG d   1       8.962   9.543  -0.825  0.00  0.00     0.024 C 
ATOM      2  H   LIG d   1       7.998   9.491  -1.331  0.00  0.00     0.037 H 
ATOM      3  H   LIG d   1       8.815   9.861   0.207  0.00  0.00     0.037 H 
ENDROOT
BRANCH   1   4
ATOM      4  C   LIG d   1       9.862  10.549  -1.545  0.00  0.00     0.029 C 
BRANCH   4   5
ATOM      5  C   LIG d   1      11.282   9.988  -1.639  0.00  0.00    -0.013 C 
ATOM      6  H   LIG d   1      11.291   9.130  -2.311  0.00  0.00     0.029 H 
ATOM      7  H   LIG d   1      11.952  10.757  -2.023  0.00  0.00     0.029 H 
ATOM      8  H   LIG d   1      11.616   9.677  -0.649  0.00  0.00     0.029 H 
ENDBRANCH   4   5
BRANCH   4   9
ATOM      9  C   LIG d   1       9.328  10.799  -2.932  0.00  0.00     0.093 C 
ATOM     10  O   LIG d   1       9.845  10.263  -3.883  0.00  0.00    -0.544 OA
ATOM     11  O   LIG d   1       8.278  11.617  -3.110  0.00  0.00    -0.544 OA
ENDBRANCH   4   9
BRANCH   4  12
ATOM     12  N   LIG d   1       9.877  11.814  -0.786  0.00  0.00     0.233 N 
ATOM     13  H   LIG d   1       8.928  12.206  -0.763  0.00  0.00     0.202 HD
ATOM     14  H   LIG d   1      10.510  12.478  -1.245  0.00  0.00     0.202 HD
BRANCH  12  15
ATOM     15  C   LIG d   1      10.337  11.577   0.596  0.00  0.00    -0.044 C 
ATOM     16  H   LIG d   1      11.374  11.238   0.583  0.00  0.00     0.078 H 
ATOM     17  H   LIG d   1      10.265  12.506   1.160  0.00  0.00     0.078 H 
ATOM     18  H   LIG d   1       9.713  10.816   1.065  0.00  0.00     0.078 H 
ENDBRANCH  12  15
ENDBRANCH   4  12
ENDBRANCH   1   4
BRANCH   1  19
ATOM     19  C   LIG d   1       9.613   8.184  -0.845  0.00  0.00    -0.038 A 
ATOM     20  C   LIG d   1      10.453   7.807   0.187  0.00  0.00    -0.013 A 
ATOM     21  C   LIG d   1      11.053   6.558   0.170  0.00  0.00     0.159 A 
ATOM     22  H   LIG d   1      10.646   8.487   1.002  0.00  0.00     0.066 H 
ATOM     23  C   LIG d   1      10.807   5.685  -0.886  0.00  0.00     0.158 A 
ATOM     24  C   LIG d   1       9.963   6.069  -1.916  0.00  0.00    -0.016 A 
ATOM     25  C   LIG d   1       9.369   7.317  -1.894  0.00  0.00    -0.055 A 
ATOM     26  H   LIG d   1       9.771   5.394  -2.737  0.00  0.00     0.066 H 
ATOM     27  H   LIG d   1       8.712   7.616  -2.697  0.00  0.00     0.062 H 
BRANCH  21  28
ATOM     28  O   LIG d   1      11.879   6.185   1.184  0.00  0.00    -0.503 OA
ATOM     29  H   LIG d   1      12.718   5.805   0.888  0.00  0.00     0.292 HD
ENDBRANCH  21  28
BRANCH  23  30
ATOM     30  O   LIG d   1      11.393   4.459  -0.906  0.00  0.00    -0.503 OA
ATOM     31  H   LIG d   1      10.793   3.740  -1.152  0.00  0.00     0.292 HD
ENDBRANCH  23  30
ENDBRANCH   1  19
TORSDOF 8
ENDMDL
MODEL 9
REMARK VINA RESULT:      -4.3      9.408     11.761
REMARK  8 active torsions:
REMARK  status: ('A' for Active; 'I' for Inactive)
REMARK    1  A    between atoms: C_1  and  C_2 
REMARK    2  A    between atoms: C_2  and  C_3 
REMARK    3  A    between atoms: C_2  and  C_12 
REMARK    4  A    between atoms: C_2  and  N_29 
REMARK    5  A    between atoms: C_3  and  C_4 
REMARK    6  A    between atoms: C_7  and  O_11 
REMARK    7  A    between atoms: C_8  and  O_10 
REMARK    8  A    between atoms: C_14  and  N_29 
ROOT
ATOM      1  C   LIG d   1      10.445   6.122  -0.677  0.00  0.00     0.024 C 
ATOM      2  H   LIG d   1      11.108   5.716   0.086  0.00  0.00     0.037 H 
ATOM      3  H   LIG d   1       9.483   5.612  -0.632  0.00  0.00     0.037 H 
ENDROOT
BRANCH   1   4
ATOM      4  C   LIG d   1      11.068   5.914  -2.058  0.00  0.00     0.029 C 
BRANCH   4   5
ATOM      5  C   LIG d   1      12.295   5.010  -1.934  0.00  0.00    -0.013 C 
ATOM      6  H   LIG d   1      13.115   5.425  -2.520  0.00  0.00     0.029 H 
ATOM      7  H   LIG d   1      12.594   4.945  -0.887  0.00  0.00     0.029 H 
ATOM      8  H   LIG d   1      12.052   4.014  -2.304  0.00  0.00     0.029 H 
ENDBRANCH   4   5
BRANCH   4   9
ATOM      9  C   LIG d   1      10.059   5.271  -2.973  0.00  0.00     0.093 C 
ATOM     10  O   LIG d   1       9.493   5.934  -3.810  0.00  0.00    -0.544 OA
ATOM     11  O   LIG d   1       9.789   3.961  -2.860  0.00  0.00    -0.544 OA
ENDBRANCH   4   9
BRANCH   4  12
ATOM     12  N   LIG d   1      11.471   7.223  -2.608  0.00  0.00     0.233 N 
ATOM     13  H   LIG d   1      11.394   7.937  -1.873  0.00  0.00     0.202 HD
ATOM     14  H   LIG d   1      10.850   7.468  -3.388  0.00  0.00     0.202 HD
BRANCH  12  15
ATOM     15  C   LIG d   1      12.863   7.171  -3.091  0.00  0.00    -0.044 C 
ATOM     16  H   LIG d   1      12.873   6.932  -4.155  0.00  0.00     0.078 H 
ATOM     17  H   LIG d   1      13.333   8.140  -2.931  0.00  0.00     0.078 H 
ATOM     18  H   LIG d   1      13.413   6.405  -2.542  0.00  0.00     0.078 H 
ENDBRANCH  12  15
ENDBRANCH   4  12
ENDBRANCH   1   4
BRANCH   1  19
ATOM     19  C   LIG d   1      10.243   7.596  -0.434  0.00  0.00    -0.038 A 
ATOM     20  C   LIG d   1       9.189   8.256  -1.037  0.00  0.00    -0.013 A 
ATOM     21  C   LIG d   1       9.003   9.612  -0.815  0.00  0.00     0.159 A 
ATOM     22  H   LIG d   1       8.514   7.718  -1.685  0.00  0.00     0.066 H 
ATOM     23  C   LIG d   1       9.878  10.304   0.015  0.00  0.00     0.158 A 
ATOM     24  C   LIG d   1      10.932   9.636   0.617  0.00  0.00    -0.016 A 
ATOM     25  C   LIG d   1      11.113   8.285   0.391  0.00  0.00    -0.055 A 
ATOM     26  H   LIG d   1      11.613  10.172   1.262  0.00  0.00     0.066 H 
ATOM     27  H   LIG d   1      11.935   7.765   0.860  0.00  0.00     0.062 H 
BRANCH  21  28
ATOM     28  O   LIG d   1       7.966  10.263  -1.408  0.00  0.00    -0.503 OA
ATOM     29  H   LIG d   1       7.094   9.957  -1.121  0.00  0.00     0.292 HD
ENDBRANCH  21  28
BRANCH  23  30
ATOM     30  O   LIG d   1       9.699  11.634   0.236  0.00  0.00    -0.503 OA
ATOM     31  H   LIG d   1      10.455  12.068   0.657  0.00  0.00     0.292 HD
ENDBRANCH  23  30
ENDBRANCH   1  19
TORSDOF 8
ENDMDL
