MODEL 1
REMARK VINA RESULT:      -5.0      0.000      0.000
REMARK  15 active torsions:
REMARK  status: ('A' for Active; 'I' for Inactive)
REMARK    1  A    between atoms: C_1  and  C_2 
REMARK    2  A    between atoms: C_2  and  C_3 
REMARK    3  A    between atoms: C_2  and  C_4 
REMARK    4  A    between atoms: C_4  and  C_6 
REMARK    5  A    between atoms: C_4  and  C_19 
REMARK    6  A    between atoms: C_6  and  C_7 
REMARK    7  A    between atoms: C_7  and  N_62 
REMARK    8  A    between atoms: C_8  and  C_9 
REMARK    9  A    between atoms: C_8  and  N_62 
REMARK   10  A    between atoms: C_12  and  O_17 
REMARK   11  A    between atoms: C_13  and  O_15 
REMARK   12  A    between atoms: O_15  and  C_16 
REMARK   13  A    between atoms: O_17  and  C_18 
REMARK   14  A    between atoms: C_24  and  C_26 
REMARK   15  A    between atoms: C_24  and  C_27 
ROOT
ATOM      1  C   LIG d   1       6.164  -3.319  -5.192  0.00  0.00    -0.031 C 
ATOM      2  H   LIG d   1       6.251  -2.956  -6.217  0.00  0.00     0.031 H 
ENDROOT
BRANCH   1   3
ATOM      3  C   LIG d   1       7.492  -3.946  -4.759  0.00  0.00    -0.043 C 
ATOM      4  H   LIG d   1       7.331  -4.993  -4.502  0.00  0.00     0.030 H 
BRANCH   3   5
ATOM      5  C   LIG d   1       8.499  -3.851  -5.906  0.00  0.00    -0.062 C 
ATOM      6  H   LIG d   1       7.969  -3.897  -6.858  0.00  0.00     0.023 H 
ATOM      7  H   LIG d   1       9.040  -2.907  -5.838  0.00  0.00     0.023 H 
ATOM      8  H   LIG d   1       9.203  -4.680  -5.842  0.00  0.00     0.023 H 
ENDBRANCH   3   5
BRANCH   3   9
ATOM      9  C   LIG d   1       8.035  -3.199  -3.540  0.00  0.00    -0.062 C 
ATOM     10  H   LIG d   1       7.415  -2.323  -3.344  0.00  0.00     0.023 H 
ATOM     11  H   LIG d   1       8.017  -3.858  -2.671  0.00  0.00     0.023 H 
ATOM     12  H   LIG d   1       9.060  -2.881  -3.735  0.00  0.00     0.023 H 
ENDBRANCH   3   9
ENDBRANCH   1   3
BRANCH   1  13
ATOM     13  C   LIG d   1       5.055  -4.371  -5.116  0.00  0.00    -0.009 C 
ATOM     14  H   LIG d   1       4.155  -3.920  -4.698  0.00  0.00     0.032 H 
ATOM     15  H   LIG d   1       5.379  -5.195  -4.479  0.00  0.00     0.032 H 
BRANCH  13  16
ATOM     16  C   LIG d   1       4.757  -4.900  -6.520  0.00  0.00    -0.033 C 
ATOM     17  H   LIG d   1       4.529  -5.965  -6.468  0.00  0.00     0.081 H 
ATOM     18  H   LIG d   1       5.627  -4.746  -7.159  0.00  0.00     0.081 H 
BRANCH  16  19
ATOM     19  N   LIG d   1       3.600  -4.172  -7.075  0.00  0.00     0.230 N 
ATOM     20  H   LIG d   1       3.362  -3.390  -6.455  0.00  0.00     0.202 HD
ATOM     21  H   LIG d   1       2.799  -4.812  -7.143  0.00  0.00     0.202 HD
BRANCH  19  22
ATOM     22  C   LIG d   1       3.920  -3.651  -8.417  0.00  0.00    -0.008 C 
ATOM     23  H   LIG d   1       3.011  -3.594  -9.015  0.00  0.00     0.087 H 
ATOM     24  H   LIG d   1       4.636  -4.312  -8.906  0.00  0.00     0.087 H 
BRANCH  22  25
ATOM     25  C   LIG d   1       4.519  -2.275  -8.282  0.00  0.00     0.001 A 
ATOM     26  C   LIG d   1       3.729  -1.213  -7.879  0.00  0.00    -0.008 A 
ATOM     27  C   LIG d   1       4.278   0.052  -7.755  0.00  0.00     0.162 A 
ATOM     28  H   LIG d   1       2.682  -1.373  -7.661  0.00  0.00     0.066 H 
ATOM     29  C   LIG d   1       5.626   0.253  -8.036  0.00  0.00     0.162 A 
ATOM     30  C   LIG d   1       6.413  -0.814  -8.439  0.00  0.00    -0.016 A 
ATOM     31  C   LIG d   1       5.857  -2.073  -8.567  0.00  0.00    -0.050 A 
ATOM     32  H   LIG d   1       7.460  -0.661  -8.658  0.00  0.00     0.066 H 
ATOM     33  H   LIG d   1       6.470  -2.903  -8.886  0.00  0.00     0.062 H 
BRANCH  27  34
ATOM     34  O   LIG d   1       3.501   1.095  -7.358  0.00  0.00    -0.491 OA
BRANCH  34  35
ATOM     35  C   LIG d   1       2.836   1.836  -8.383  0.00  0.00     0.079 C 
ATOM     36  H   LIG d   1       3.576   2.324  -9.017  0.00  0.00     0.066 H 
ATOM     37  H   LIG d   1       2.230   1.160  -8.986  0.00  0.00     0.066 H 
ATOM     38  H   LIG d   1       2.194   2.590  -7.927  0.00  0.00     0.066 H 
ENDBRANCH  34  35
ENDBRANCH  27  34
BRANCH  29  39
ATOM     39  O   LIG d   1       6.170   1.494  -7.916  0.00  0.00    -0.491 OA
BRANCH  39  40
ATOM     40  C   LIG d   1       7.091   1.899  -8.930  0.00  0.00     0.079 C 
ATOM     41  H   LIG d   1       7.949   1.227  -8.933  0.00  0.00     0.066 H 
ATOM     42  H   LIG d   1       6.599   1.866  -9.903  0.00  0.00     0.066 H 
ATOM     43  H   LIG d   1       7.428   2.917  -8.728  0.00  0.00     0.066 H 
ENDBRANCH  39  40
ENDBRANCH  29  39
ENDBRANCH  22  25
ENDBRANCH  19  22
ENDBRANCH  16  19
ENDBRANCH  13  16
ENDBRANCH   1  13
BRANCH   1  44
ATOM     44  C   LIG d   1       5.824  -2.152  -4.264  0.00  0.00    -0.033 C 
ATOM     45  H   LIG d   1       6.235  -2.342  -3.273  0.00  0.00     0.030 H 
ATOM     46  C   LIG d   1       4.303  -2.000  -4.167  0.00  0.00    -0.021 C 
ATOM     47  C   LIG d   1       3.974  -0.782  -3.302  0.00  0.00     0.064 C 
ATOM     48  H   LIG d   1       3.886  -1.861  -5.165  0.00  0.00     0.029 H 
ATOM     49  H   LIG d   1       3.876  -2.896  -3.715  0.00  0.00     0.029 H 
ATOM     50  O   LIG d   1       4.585   0.382  -3.864  0.00  0.00    -0.374 OA
ATOM     51  C   LIG d   1       6.011   0.315  -3.935  0.00  0.00     0.049 C 
ATOM     52  C   LIG d   1       6.423  -0.859  -4.827  0.00  0.00    -0.026 C 
ATOM     53  H   LIG d   1       6.417   0.171  -2.934  0.00  0.00     0.056 H 
ATOM     54  H   LIG d   1       6.398   1.244  -4.354  0.00  0.00     0.056 H 
ATOM     55  H   LIG d   1       7.509  -0.938  -4.847  0.00  0.00     0.029 H 
ATOM     56  H   LIG d   1       6.049  -0.696  -5.838  0.00  0.00     0.029 H 
BRANCH  47  57
ATOM     57  C   LIG d   1       4.507  -1.004  -1.886  0.00  0.00    -0.036 C 
ATOM     58  H   LIG d   1       5.547  -0.676  -1.833  0.00  0.00     0.026 H 
ATOM     59  H   LIG d   1       3.910  -0.430  -1.178  0.00  0.00     0.026 H 
ATOM     60  H   LIG d   1       4.448  -2.063  -1.637  0.00  0.00     0.026 H 
ENDBRANCH  47  57
BRANCH  47  61
ATOM     61  C   LIG d   1       2.457  -0.586  -3.251  0.00  0.00    -0.036 C 
ATOM     62  H   LIG d   1       2.232   0.472  -3.118  0.00  0.00     0.026 H 
ATOM     63  H   LIG d   1       2.014  -0.937  -4.184  0.00  0.00     0.026 H 
ATOM     64  H   LIG d   1       2.044  -1.154  -2.418  0.00  0.00     0.026 H 
ENDBRANCH  47  61
ENDBRANCH   1  44
TORSDOF 15
ENDMDL
MODEL 2
REMARK VINA RESULT:      -5.0      1.670      5.552
REMARK  15 active torsions:
REMARK  status: ('A' for Active; 'I' for Inactive)
REMARK    1  A    between atoms: C_1  and  C_2 
REMARK    2  A    between atoms: C_2  and  C_3 
REMARK    3  A    between atoms: C_2  and  C_4 
REMARK    4  A    between atoms: C_4  and  C_6 
REMARK    5  A    between atoms: C_4  and  C_19 
REMARK    6  A    between atoms: C_6  and  C_7 
REMARK    7  A    between atoms: C_7  and  N_62 
REMARK    8  A    between atoms: C_8  and  C_9 
REMARK    9  A    between atoms: C_8  and  N_62 
REMARK   10  A    between atoms: C_12  and  O_17 
REMARK   11  A    between atoms: C_13  and  O_15 
REMARK   12  A    between atoms: O_15  and  C_16 
REMARK   13  A    between atoms: O_17  and  C_18 
REMARK   14  A    between atoms: C_24  and  C_26 
REMARK   15  A    between atoms: C_24  and  C_27 
ROOT
ATOM      1  C   LIG d   1       3.222  -2.612  -8.735  0.00  0.00    -0.031 C 
ATOM      2  H   LIG d   1       2.699  -2.819  -7.800  0.00  0.00     0.031 H 
ENDROOT
BRANCH   1   3
ATOM      3  C   LIG d   1       2.426  -3.193  -9.905  0.00  0.00    -0.043 C 
ATOM      4  H   LIG d   1       1.882  -4.076  -9.569  0.00  0.00     0.030 H 
BRANCH   3   5
ATOM      5  C   LIG d   1       1.434  -2.148 -10.417  0.00  0.00    -0.062 C 
ATOM      6  H   LIG d   1       0.526  -2.183  -9.815  0.00  0.00     0.023 H 
ATOM      7  H   LIG d   1       1.880  -1.156 -10.342  0.00  0.00     0.023 H 
ATOM      8  H   LIG d   1       1.188  -2.359 -11.458  0.00  0.00     0.023 H 
ENDBRANCH   3   5
BRANCH   3   9
ATOM      9  C   LIG d   1       3.385  -3.582 -11.031  0.00  0.00    -0.062 C 
ATOM     10  H   LIG d   1       3.022  -3.174 -11.975  0.00  0.00     0.023 H 
ATOM     11  H   LIG d   1       4.377  -3.182 -10.819  0.00  0.00     0.023 H 
ATOM     12  H   LIG d   1       3.439  -4.669 -11.104  0.00  0.00     0.023 H 
ENDBRANCH   3   9
ENDBRANCH   1   3
BRANCH   1  13
ATOM     13  C   LIG d   1       4.611  -3.253  -8.694  0.00  0.00    -0.009 C 
ATOM     14  H   LIG d   1       5.344  -2.513  -8.372  0.00  0.00     0.032 H 
ATOM     15  H   LIG d   1       4.873  -3.615  -9.689  0.00  0.00     0.032 H 
BRANCH  13  16
ATOM     16  C   LIG d   1       4.603  -4.425  -7.712  0.00  0.00    -0.033 C 
ATOM     17  H   LIG d   1       5.628  -4.693  -7.455  0.00  0.00     0.081 H 
ATOM     18  H   LIG d   1       4.108  -5.281  -8.171  0.00  0.00     0.081 H 
BRANCH  16  19
ATOM     19  N   LIG d   1       3.874  -4.028  -6.492  0.00  0.00     0.230 N 
ATOM     20  H   LIG d   1       3.045  -4.623  -6.384  0.00  0.00     0.202 HD
ATOM     21  H   LIG d   1       3.582  -3.047  -6.577  0.00  0.00     0.202 HD
BRANCH  19  22
ATOM     22  C   LIG d   1       4.739  -4.177  -5.307  0.00  0.00    -0.008 C 
ATOM     23  H   LIG d   1       5.738  -4.482  -5.618  0.00  0.00     0.087 H 
ATOM     24  H   LIG d   1       4.321  -4.932  -4.641  0.00  0.00     0.087 H 
BRANCH  22  25
ATOM     25  C   LIG d   1       4.818  -2.858  -4.584  0.00  0.00     0.001 A 
ATOM     26  C   LIG d   1       5.394  -1.764  -5.203  0.00  0.00    -0.008 A 
ATOM     27  C   LIG d   1       5.467  -0.551  -4.539  0.00  0.00     0.162 A 
ATOM     28  H   LIG d   1       5.787  -1.856  -6.205  0.00  0.00     0.066 H 
ATOM     29  C   LIG d   1       4.960  -0.435  -3.248  0.00  0.00     0.162 A 
ATOM     30  C   LIG d   1       4.383  -1.534  -2.634  0.00  0.00    -0.016 A 
ATOM     31  C   LIG d   1       4.319  -2.744  -3.299  0.00  0.00    -0.050 A 
ATOM     32  H   LIG d   1       3.988  -1.447  -1.631  0.00  0.00     0.066 H 
ATOM     33  H   LIG d   1       3.874  -3.602  -2.816  0.00  0.00     0.062 H 
BRANCH  27  34
ATOM     34  O   LIG d   1       6.034   0.526  -5.148  0.00  0.00    -0.491 OA
BRANCH  34  35
ATOM     35  C   LIG d   1       7.186   0.283  -5.957  0.00  0.00     0.079 C 
ATOM     36  H   LIG d   1       7.167  -0.747  -6.315  0.00  0.00     0.066 H 
ATOM     37  H   LIG d   1       7.183   0.963  -6.809  0.00  0.00     0.066 H 
ATOM     38  H   LIG d   1       8.086   0.445  -5.365  0.00  0.00     0.066 H 
ENDBRANCH  34  35
ENDBRANCH  27  34
BRANCH  29  39
ATOM     39  O   LIG d   1       5.030   0.754  -2.592  0.00  0.00    -0.491 OA
BRANCH  39  40
ATOM     40  C   LIG d   1       3.792   1.387  -2.262  0.00  0.00     0.079 C 
ATOM     41  H   LIG d   1       3.142   1.394  -3.136  0.00  0.00     0.066 H 
ATOM     42  H   LIG d   1       3.308   0.838  -1.453  0.00  0.00     0.066 H 
ATOM     43  H   LIG d   1       3.983   2.412  -1.942  0.00  0.00     0.066 H 
ENDBRANCH  39  40
ENDBRANCH  29  39
ENDBRANCH  22  25
ENDBRANCH  19  22
ENDBRANCH  16  19
ENDBRANCH  13  16
ENDBRANCH   1  13
BRANCH   1  44
ATOM     44  C   LIG d   1       3.364  -1.099  -8.916  0.00  0.00    -0.033 C 
ATOM     45  H   LIG d   1       2.751  -0.774  -9.756  0.00  0.00     0.030 H 
ATOM     46  C   LIG d   1       4.831  -0.751  -9.186  0.00  0.00    -0.021 C 
ATOM     47  C   LIG d   1       4.976   0.769  -9.286  0.00  0.00     0.064 C 
ATOM     48  H   LIG d   1       5.450  -1.122  -8.370  0.00  0.00     0.029 H 
ATOM     49  H   LIG d   1       5.147  -1.210 -10.123  0.00  0.00     0.029 H 
ATOM     50  O   LIG d   1       4.504   1.373  -8.079  0.00  0.00    -0.374 OA
ATOM     51  C   LIG d   1       3.125   1.121  -7.801  0.00  0.00     0.049 C 
ATOM     52  C   LIG d   1       2.906  -0.385  -7.640  0.00  0.00    -0.026 C 
ATOM     53  H   LIG d   1       2.515   1.491  -8.625  0.00  0.00     0.056 H 
ATOM     54  H   LIG d   1       2.841   1.631  -6.880  0.00  0.00     0.056 H 
ATOM     55  H   LIG d   1       1.848  -0.584  -7.471  0.00  0.00     0.029 H 
ATOM     56  H   LIG d   1       3.486  -0.749  -6.791  0.00  0.00     0.029 H 
BRANCH  47  57
ATOM     57  C   LIG d   1       4.153   1.283 -10.468  0.00  0.00    -0.036 C 
ATOM     58  H   LIG d   1       4.646   1.008 -11.402  0.00  0.00     0.026 H 
ATOM     59  H   LIG d   1       3.158   0.839 -10.440  0.00  0.00     0.026 H 
ATOM     60  H   LIG d   1       4.068   2.368 -10.408  0.00  0.00     0.026 H 
ENDBRANCH  47  57
BRANCH  47  61
ATOM     61  C   LIG d   1       6.448   1.130  -9.494  0.00  0.00    -0.036 C 
ATOM     62  H   LIG d   1       7.046   0.688  -8.697  0.00  0.00     0.026 H 
ATOM     63  H   LIG d   1       6.784   0.744 -10.457  0.00  0.00     0.026 H 
ATOM     64  H   LIG d   1       6.563   2.214  -9.478  0.00  0.00     0.026 H 
ENDBRANCH  47  61
ENDBRANCH   1  44
TORSDOF 15
ENDMDL
MODEL 3
REMARK VINA RESULT:      -5.0      1.970      5.820
REMARK  15 active torsions:
REMARK  status: ('A' for Active; 'I' for Inactive)
REMARK    1  A    between atoms: C_1  and  C_2 
REMARK    2  A    between atoms: C_2  and  C_3 
REMARK    3  A    between atoms: C_2  and  C_4 
REMARK    4  A    between atoms: C_4  and  C_6 
REMARK    5  A    between atoms: C_4  and  C_19 
REMARK    6  A    between atoms: C_6  and  C_7 
REMARK    7  A    between atoms: C_7  and  N_62 
REMARK    8  A    between atoms: C_8  and  C_9 
REMARK    9  A    between atoms: C_8  and  N_62 
REMARK   10  A    between atoms: C_12  and  O_17 
REMARK   11  A    between atoms: C_13  and  O_15 
REMARK   12  A    between atoms: O_15  and  C_16 
REMARK   13  A    between atoms: O_17  and  C_18 
REMARK   14  A    between atoms: C_24  and  C_26 
REMARK   15  A    between atoms: C_24  and  C_27 
ROOT
ATOM      1  C   LIG d   1       3.582   0.741  -7.339  0.00  0.00    -0.031 C 
ATOM      2  H   LIG d   1       4.093   1.460  -6.697  0.00  0.00     0.031 H 
ENDROOT
BRANCH   1   3
ATOM      3  C   LIG d   1       2.910   1.480  -8.498  0.00  0.00    -0.043 C 
ATOM      4  H   LIG d   1       2.052   2.039  -8.122  0.00  0.00     0.030 H 
BRANCH   3   5
ATOM      5  C   LIG d   1       3.909   2.447  -9.134  0.00  0.00    -0.062 C 
ATOM      6  H   LIG d   1       3.676   2.566 -10.193  0.00  0.00     0.023 H 
ATOM      7  H   LIG d   1       3.845   3.416  -8.638  0.00  0.00     0.023 H 
ATOM      8  H   LIG d   1       4.919   2.050  -9.027  0.00  0.00     0.023 H 
ENDBRANCH   3   5
BRANCH   3   9
ATOM      9  C   LIG d   1       2.441   0.469  -9.545  0.00  0.00    -0.062 C 
ATOM     10  H   LIG d   1       3.233   0.309 -10.276  0.00  0.00     0.023 H 
ATOM     11  H   LIG d   1       2.202  -0.477  -9.056  0.00  0.00     0.023 H 
ATOM     12  H   LIG d   1       1.553   0.852 -10.049  0.00  0.00     0.023 H 
ENDBRANCH   3   9
ENDBRANCH   1   3
BRANCH   1  13
ATOM     13  C   LIG d   1       2.521  -0.004  -6.526  0.00  0.00    -0.009 C 
ATOM     14  H   LIG d   1       2.786  -1.060  -6.465  0.00  0.00     0.032 H 
ATOM     15  H   LIG d   1       1.552   0.101  -7.012  0.00  0.00     0.032 H 
BRANCH  13  16
ATOM     16  C   LIG d   1       2.451   0.586  -5.116  0.00  0.00    -0.033 C 
ATOM     17  H   LIG d   1       1.700   1.375  -5.089  0.00  0.00     0.081 H 
ATOM     18  H   LIG d   1       3.423   1.001  -4.847  0.00  0.00     0.081 H 
BRANCH  16  19
ATOM     19  N   LIG d   1       2.086  -0.479  -4.163  0.00  0.00     0.230 N 
ATOM     20  H   LIG d   1       2.182  -1.392  -4.622  0.00  0.00     0.202 HD
ATOM     21  H   LIG d   1       1.112  -0.347  -3.865  0.00  0.00     0.202 HD
BRANCH  19  22
ATOM     22  C   LIG d   1       2.966  -0.432  -2.981  0.00  0.00    -0.008 C 
ATOM     23  H   LIG d   1       2.545  -1.045  -2.185  0.00  0.00     0.087 H 
ATOM     24  H   LIG d   1       3.061   0.597  -2.636  0.00  0.00     0.087 H 
BRANCH  22  25
ATOM     25  C   LIG d   1       4.326  -0.962  -3.357  0.00  0.00     0.001 A 
ATOM     26  C   LIG d   1       5.428  -0.127  -3.322  0.00  0.00    -0.008 A 
ATOM     27  C   LIG d   1       6.677  -0.614  -3.668  0.00  0.00     0.162 A 
ATOM     28  H   LIG d   1       5.312   0.905  -3.024  0.00  0.00     0.066 H 
ATOM     29  C   LIG d   1       6.822  -1.944  -4.051  0.00  0.00     0.162 A 
ATOM     30  C   LIG d   1       5.715  -2.776  -4.083  0.00  0.00    -0.016 A 
ATOM     31  C   LIG d   1       4.469  -2.282  -3.743  0.00  0.00    -0.050 A 
ATOM     32  H   LIG d   1       5.824  -3.809  -4.381  0.00  0.00     0.066 H 
ATOM     33  H   LIG d   1       3.606  -2.931  -3.775  0.00  0.00     0.062 H 
BRANCH  27  34
ATOM     34  O   LIG d   1       7.761   0.208  -3.633  0.00  0.00    -0.491 OA
BRANCH  34  35
ATOM     35  C   LIG d   1       7.533   1.596  -3.884  0.00  0.00     0.079 C 
ATOM     36  H   LIG d   1       6.520   1.734  -4.263  0.00  0.00     0.066 H 
ATOM     37  H   LIG d   1       7.654   2.158  -2.958  0.00  0.00     0.066 H 
ATOM     38  H   LIG d   1       8.249   1.953  -4.623  0.00  0.00     0.066 H 
ENDBRANCH  34  35
ENDBRANCH  27  34
BRANCH  29  39
ATOM     39  O   LIG d   1       8.047  -2.426  -4.392  0.00  0.00    -0.491 OA
BRANCH  39  40
ATOM     40  C   LIG d   1       8.162  -3.838  -4.572  0.00  0.00     0.079 C 
ATOM     41  H   LIG d   1       9.017  -4.209  -4.007  0.00  0.00     0.066 H 
ATOM     42  H   LIG d   1       7.252  -4.325  -4.217  0.00  0.00     0.066 H 
ATOM     43  H   LIG d   1       8.303  -4.058  -5.631  0.00  0.00     0.066 H 
ENDBRANCH  39  40
ENDBRANCH  29  39
ENDBRANCH  22  25
ENDBRANCH  19  22
ENDBRANCH  16  19
ENDBRANCH  13  16
ENDBRANCH   1  13
BRANCH   1  44
ATOM     44  C   LIG d   1       4.597  -0.260  -7.893  0.00  0.00    -0.033 C 
ATOM     45  H   LIG d   1       4.624  -0.189  -8.979  0.00  0.00     0.030 H 
ATOM     46  C   LIG d   1       4.193  -1.680  -7.481  0.00  0.00    -0.021 C 
ATOM     47  C   LIG d   1       5.256  -2.666  -7.971  0.00  0.00     0.064 C 
ATOM     48  H   LIG d   1       4.117  -1.737  -6.396  0.00  0.00     0.029 H 
ATOM     49  H   LIG d   1       3.231  -1.928  -7.930  0.00  0.00     0.029 H 
ATOM     50  O   LIG d   1       6.529  -2.302  -7.431  0.00  0.00    -0.374 OA
ATOM     51  C   LIG d   1       6.979  -1.003  -7.821  0.00  0.00     0.049 C 
ATOM     52  C   LIG d   1       5.986   0.050  -7.324  0.00  0.00    -0.026 C 
ATOM     53  H   LIG d   1       7.048  -0.954  -8.908  0.00  0.00     0.056 H 
ATOM     54  H   LIG d   1       7.960  -0.813  -7.386  0.00  0.00     0.056 H 
ATOM     55  H   LIG d   1       6.304   1.038  -7.658  0.00  0.00     0.029 H 
ATOM     56  H   LIG d   1       5.946   0.028  -6.235  0.00  0.00     0.029 H 
BRANCH  47  57
ATOM     57  C   LIG d   1       5.322  -2.627  -9.499  0.00  0.00    -0.036 C 
ATOM     58  H   LIG d   1       4.310  -2.599  -9.906  0.00  0.00     0.026 H 
ATOM     59  H   LIG d   1       5.866  -1.739  -9.817  0.00  0.00     0.026 H 
ATOM     60  H   LIG d   1       5.834  -3.518  -9.863  0.00  0.00     0.026 H 
ENDBRANCH  47  57
BRANCH  47  61
ATOM     61  C   LIG d   1       4.893  -4.079  -7.511  0.00  0.00    -0.036 C 
ATOM     62  H   LIG d   1       5.779  -4.570  -7.110  0.00  0.00     0.026 H 
ATOM     63  H   LIG d   1       4.126  -4.023  -6.737  0.00  0.00     0.026 H 
ATOM     64  H   LIG d   1       4.512  -4.651  -8.357  0.00  0.00     0.026 H 
ENDBRANCH  47  61
ENDBRANCH   1  44
TORSDOF 15
ENDMDL
MODEL 4
REMARK VINA RESULT:      -4.9      2.866      5.028
REMARK  15 active torsions:
REMARK  status: ('A' for Active; 'I' for Inactive)
REMARK    1  A    between atoms: C_1  and  C_2 
REMARK    2  A    between atoms: C_2  and  C_3 
REMARK    3  A    between atoms: C_2  and  C_4 
REMARK    4  A    between atoms: C_4  and  C_6 
REMARK    5  A    between atoms: C_4  and  C_19 
REMARK    6  A    between atoms: C_6  and  C_7 
REMARK    7  A    between atoms: C_7  and  N_62 
REMARK    8  A    between atoms: C_8  and  C_9 
REMARK    9  A    between atoms: C_8  and  N_62 
REMARK   10  A    between atoms: C_12  and  O_17 
REMARK   11  A    between atoms: C_13  and  O_15 
REMARK   12  A    between atoms: O_15  and  C_16 
REMARK   13  A    between atoms: O_17  and  C_18 
REMARK   14  A    between atoms: C_24  and  C_26 
REMARK   15  A    between atoms: C_24  and  C_27 
ROOT
ATOM      1  C   LIG d   1       3.589  -1.095  -4.211  0.00  0.00    -0.031 C 
ATOM      2  H   LIG d   1       2.753  -1.644  -4.646  0.00  0.00     0.031 H 
ENDROOT
BRANCH   1   3
ATOM      3  C   LIG d   1       3.318  -0.851  -2.724  0.00  0.00    -0.043 C 
ATOM      4  H   LIG d   1       2.280  -1.095  -2.501  0.00  0.00     0.030 H 
BRANCH   3   5
ATOM      5  C   LIG d   1       4.243  -1.734  -1.885  0.00  0.00    -0.062 C 
ATOM      6  H   LIG d   1       3.649  -2.301  -1.167  0.00  0.00     0.023 H 
ATOM      7  H   LIG d   1       4.778  -2.424  -2.538  0.00  0.00     0.023 H 
ATOM      8  H   LIG d   1       4.958  -1.108  -1.352  0.00  0.00     0.023 H 
ENDBRANCH   3   5
BRANCH   3   9
ATOM      9  C   LIG d   1       3.578   0.620  -2.393  0.00  0.00    -0.062 C 
ATOM     10  H   LIG d   1       3.009   0.899  -1.507  0.00  0.00     0.023 H 
ATOM     11  H   LIG d   1       4.642   0.767  -2.204  0.00  0.00     0.023 H 
ATOM     12  H   LIG d   1       3.269   1.242  -3.234  0.00  0.00     0.023 H 
ENDBRANCH   3   9
ENDBRANCH   1   3
BRANCH   1  13
ATOM     13  C   LIG d   1       3.747   0.248  -4.928  0.00  0.00    -0.009 C 
ATOM     14  H   LIG d   1       4.731   0.297  -5.394  0.00  0.00     0.032 H 
ATOM     15  H   LIG d   1       3.644   1.058  -4.206  0.00  0.00     0.032 H 
BRANCH  13  16
ATOM     16  C   LIG d   1       2.666   0.382  -6.002  0.00  0.00    -0.033 C 
ATOM     17  H   LIG d   1       1.821   0.943  -5.601  0.00  0.00     0.081 H 
ATOM     18  H   LIG d   1       2.331  -0.610  -6.307  0.00  0.00     0.081 H 
BRANCH  16  19
ATOM     19  N   LIG d   1       3.227   1.094  -7.166  0.00  0.00     0.230 N 
ATOM     20  H   LIG d   1       3.796   1.883  -6.839  0.00  0.00     0.202 HD
ATOM     21  H   LIG d   1       2.458   1.445  -7.750  0.00  0.00     0.202 HD
BRANCH  19  22
ATOM     22  C   LIG d   1       4.068   0.184  -7.965  0.00  0.00    -0.008 C 
ATOM     23  H   LIG d   1       4.676  -0.431  -7.303  0.00  0.00     0.087 H 
ATOM     24  H   LIG d   1       4.719   0.766  -8.618  0.00  0.00     0.087 H 
BRANCH  22  25
ATOM     25  C   LIG d   1       3.181  -0.701  -8.802  0.00  0.00     0.001 A 
ATOM     26  C   LIG d   1       3.355  -2.073  -8.780  0.00  0.00    -0.008 A 
ATOM     27  C   LIG d   1       2.541  -2.887  -9.549  0.00  0.00     0.162 A 
ATOM     28  H   LIG d   1       4.127  -2.508  -8.161  0.00  0.00     0.066 H 
ATOM     29  C   LIG d   1       1.548  -2.323 -10.343  0.00  0.00     0.162 A 
ATOM     30  C   LIG d   1       1.377  -0.948 -10.361  0.00  0.00    -0.016 A 
ATOM     31  C   LIG d   1       2.198  -0.140  -9.596  0.00  0.00    -0.050 A 
ATOM     32  H   LIG d   1       0.607  -0.507 -10.977  0.00  0.00     0.066 H 
ATOM     33  H   LIG d   1       2.068   0.932  -9.615  0.00  0.00     0.062 H 
BRANCH  27  34
ATOM     34  O   LIG d   1       2.712  -4.237  -9.526  0.00  0.00    -0.491 OA
BRANCH  34  35
ATOM     35  C   LIG d   1       3.585  -4.764  -8.526  0.00  0.00     0.079 C 
ATOM     36  H   LIG d   1       3.298  -4.372  -7.550  0.00  0.00     0.066 H 
ATOM     37  H   LIG d   1       3.512  -5.852  -8.516  0.00  0.00     0.066 H 
ATOM     38  H   LIG d   1       4.611  -4.472  -8.749  0.00  0.00     0.066 H 
ENDBRANCH  34  35
ENDBRANCH  27  34
BRANCH  29  39
ATOM     39  O   LIG d   1       0.746  -3.119 -11.100  0.00  0.00    -0.491 OA
BRANCH  39  40
ATOM     40  C   LIG d   1       0.405  -2.645 -12.404  0.00  0.00     0.079 C 
ATOM     41  H   LIG d   1       0.365  -1.556 -12.397  0.00  0.00     0.066 H 
ATOM     42  H   LIG d   1       1.159  -2.976 -13.119  0.00  0.00     0.066 H 
ATOM     43  H   LIG d   1      -0.568  -3.042 -12.692  0.00  0.00     0.066 H 
ENDBRANCH  39  40
ENDBRANCH  29  39
ENDBRANCH  22  25
ENDBRANCH  19  22
ENDBRANCH  16  19
ENDBRANCH  13  16
ENDBRANCH   1  13
BRANCH   1  44
ATOM     44  C   LIG d   1       4.873  -1.911  -4.368  0.00  0.00    -0.033 C 
ATOM     45  H   LIG d   1       5.181  -2.297  -3.396  0.00  0.00     0.030 H 
ATOM     46  C   LIG d   1       5.980  -1.019  -4.939  0.00  0.00    -0.021 C 
ATOM     47  C   LIG d   1       7.237  -1.863  -5.167  0.00  0.00     0.064 C 
ATOM     48  H   LIG d   1       5.652  -0.592  -5.886  0.00  0.00     0.029 H 
ATOM     49  H   LIG d   1       6.202  -0.217  -4.233  0.00  0.00     0.029 H 
ATOM     50  O   LIG d   1       6.929  -2.948  -6.045  0.00  0.00    -0.374 OA
ATOM     51  C   LIG d   1       5.934  -3.842  -5.541  0.00  0.00     0.049 C 
ATOM     52  C   LIG d   1       4.624  -3.078  -5.328  0.00  0.00    -0.026 C 
ATOM     53  H   LIG d   1       6.269  -4.260  -4.592  0.00  0.00     0.056 H 
ATOM     54  H   LIG d   1       5.773  -4.648  -6.257  0.00  0.00     0.056 H 
ATOM     55  H   LIG d   1       3.877  -3.748  -4.903  0.00  0.00     0.029 H 
ATOM     56  H   LIG d   1       4.268  -2.693  -6.284  0.00  0.00     0.029 H 
BRANCH  47  57
ATOM     57  C   LIG d   1       7.731  -2.414  -3.829  0.00  0.00    -0.036 C 
ATOM     58  H   LIG d   1       6.923  -2.369  -3.097  0.00  0.00     0.026 H 
ATOM     59  H   LIG d   1       8.049  -3.448  -3.956  0.00  0.00     0.026 H 
ATOM     60  H   LIG d   1       8.571  -1.815  -3.478  0.00  0.00     0.026 H 
ENDBRANCH  47  57
BRANCH  47  61
ATOM     61  C   LIG d   1       8.328  -0.994  -5.796  0.00  0.00    -0.036 C 
ATOM     62  H   LIG d   1       8.874  -0.472  -5.010  0.00  0.00     0.026 H 
ATOM     63  H   LIG d   1       9.016  -1.625  -6.359  0.00  0.00     0.026 H 
ATOM     64  H   LIG d   1       7.872  -0.266  -6.467  0.00  0.00     0.026 H 
ENDBRANCH  47  61
ENDBRANCH   1  44
TORSDOF 15
ENDMDL
MODEL 5
REMARK VINA RESULT:      -4.8      2.365      3.879
REMARK  15 active torsions:
REMARK  status: ('A' for Active; 'I' for Inactive)
REMARK    1  A    between atoms: C_1  and  C_2 
REMARK    2  A    between atoms: C_2  and  C_3 
REMARK    3  A    between atoms: C_2  and  C_4 
REMARK    4  A    between atoms: C_4  and  C_6 
REMARK    5  A    between atoms: C_4  and  C_19 
REMARK    6  A    between atoms: C_6  and  C_7 
REMARK    7  A    between atoms: C_7  and  N_62 
REMARK    8  A    between atoms: C_8  and  C_9 
REMARK    9  A    between atoms: C_8  and  N_62 
REMARK   10  A    between atoms: C_12  and  O_17 
REMARK   11  A    between atoms: C_13  and  O_15 
REMARK   12  A    between atoms: O_15  and  C_16 
REMARK   13  A    between atoms: O_17  and  C_18 
REMARK   14  A    between atoms: C_24  and  C_26 
REMARK   15  A    between atoms: C_24  and  C_27 
ROOT
ATOM      1  C   LIG d   1       6.338  -1.283  -5.600  0.00  0.00    -0.031 C 
ATOM      2  H   LIG d   1       6.928  -2.183  -5.419  0.00  0.00     0.031 H 
ENDROOT
BRANCH   1   3
ATOM      3  C   LIG d   1       5.780  -1.318  -7.024  0.00  0.00    -0.043 C 
ATOM      4  H   LIG d   1       6.367  -0.655  -7.659  0.00  0.00     0.030 H 
BRANCH   3   5
ATOM      5  C   LIG d   1       5.859  -2.746  -7.568  0.00  0.00    -0.062 C 
ATOM      6  H   LIG d   1       5.367  -2.791  -8.540  0.00  0.00     0.023 H 
ATOM      7  H   LIG d   1       6.903  -3.037  -7.676  0.00  0.00     0.023 H 
ATOM      8  H   LIG d   1       5.360  -3.426  -6.877  0.00  0.00     0.023 H 
ENDBRANCH   3   5
BRANCH   3   9
ATOM      9  C   LIG d   1       4.322  -0.856  -7.013  0.00  0.00    -0.062 C 
ATOM     10  H   LIG d   1       4.158  -0.192  -6.163  0.00  0.00     0.023 H 
ATOM     11  H   LIG d   1       4.102  -0.323  -7.938  0.00  0.00     0.023 H 
ATOM     12  H   LIG d   1       3.666  -1.723  -6.928  0.00  0.00     0.023 H 
ENDBRANCH   3   9
ENDBRANCH   1   3
BRANCH   1  13
ATOM     13  C   LIG d   1       7.225  -0.048  -5.429  0.00  0.00    -0.009 C 
ATOM     14  H   LIG d   1       7.858  -0.173  -4.550  0.00  0.00     0.032 H 
ATOM     15  H   LIG d   1       6.597   0.835  -5.304  0.00  0.00     0.032 H 
BRANCH  13  16
ATOM     16  C   LIG d   1       8.103   0.124  -6.670  0.00  0.00    -0.033 C 
ATOM     17  H   LIG d   1       7.768  -0.558  -7.451  0.00  0.00     0.081 H 
ATOM     18  H   LIG d   1       9.140  -0.096  -6.415  0.00  0.00     0.081 H 
BRANCH  16  19
ATOM     19  N   LIG d   1       7.996   1.516  -7.149  0.00  0.00     0.230 N 
ATOM     20  H   LIG d   1       8.695   2.094  -6.668  0.00  0.00     0.202 HD
ATOM     21  H   LIG d   1       7.056   1.873  -6.942  0.00  0.00     0.202 HD
BRANCH  19  22
ATOM     22  C   LIG d   1       8.230   1.576  -8.604  0.00  0.00    -0.008 C 
ATOM     23  H   LIG d   1       8.997   0.856  -8.882  0.00  0.00     0.087 H 
ATOM     24  H   LIG d   1       8.555   2.579  -8.881  0.00  0.00     0.087 H 
BRANCH  22  25
ATOM     25  C   LIG d   1       6.947   1.248  -9.323  0.00  0.00     0.001 A 
ATOM     26  C   LIG d   1       5.817   2.015  -9.106  0.00  0.00    -0.008 A 
ATOM     27  C   LIG d   1       4.638   1.714  -9.767  0.00  0.00     0.162 A 
ATOM     28  H   LIG d   1       5.855   2.850  -8.421  0.00  0.00     0.066 H 
ATOM     29  C   LIG d   1       4.592   0.638 -10.648  0.00  0.00     0.162 A 
ATOM     30  C   LIG d   1       5.727  -0.126 -10.862  0.00  0.00    -0.016 A 
ATOM     31  C   LIG d   1       6.900   0.176 -10.195  0.00  0.00    -0.050 A 
ATOM     32  H   LIG d   1       5.695  -0.962 -11.546  0.00  0.00     0.066 H 
ATOM     33  H   LIG d   1       7.783  -0.425 -10.359  0.00  0.00     0.062 H 
BRANCH  27  34
ATOM     34  O   LIG d   1       3.526   2.469  -9.553  0.00  0.00    -0.491 OA
BRANCH  34  35
ATOM     35  C   LIG d   1       2.764   2.185  -8.379  0.00  0.00     0.079 C 
ATOM     36  H   LIG d   1       1.712   2.402  -8.568  0.00  0.00     0.066 H 
ATOM     37  H   LIG d   1       2.877   1.134  -8.116  0.00  0.00     0.066 H 
ATOM     38  H   LIG d   1       3.120   2.805  -7.557  0.00  0.00     0.066 H 
ENDBRANCH  34  35
ENDBRANCH  27  34
BRANCH  29  39
ATOM     39  O   LIG d   1       3.436   0.338 -11.299  0.00  0.00    -0.491 OA
BRANCH  39  40
ATOM     40  C   LIG d   1       2.662  -0.745 -10.781  0.00  0.00     0.079 C 
ATOM     41  H   LIG d   1       2.918  -0.908  -9.734  0.00  0.00     0.066 H 
ATOM     42  H   LIG d   1       1.601  -0.506 -10.863  0.00  0.00     0.066 H 
ATOM     43  H   LIG d   1       2.876  -1.649 -11.352  0.00  0.00     0.066 H 
ENDBRANCH  39  40
ENDBRANCH  29  39
ENDBRANCH  22  25
ENDBRANCH  19  22
ENDBRANCH  16  19
ENDBRANCH  13  16
ENDBRANCH   1  13
BRANCH   1  44
ATOM     44  C   LIG d   1       5.181  -1.223  -4.600  0.00  0.00    -0.033 C 
ATOM     45  H   LIG d   1       4.244  -1.075  -5.136  0.00  0.00     0.030 H 
ATOM     46  C   LIG d   1       5.405  -0.060  -3.628  0.00  0.00    -0.021 C 
ATOM     47  C   LIG d   1       4.286  -0.056  -2.584  0.00  0.00     0.064 C 
ATOM     48  H   LIG d   1       6.367  -0.181  -3.130  0.00  0.00     0.029 H 
ATOM     49  H   LIG d   1       5.394   0.882  -4.178  0.00  0.00     0.029 H 
ATOM     50  O   LIG d   1       4.263  -1.313  -1.905  0.00  0.00    -0.374 OA
ATOM     51  C   LIG d   1       4.010  -2.432  -2.758  0.00  0.00     0.049 C 
ATOM     52  C   LIG d   1       5.119  -2.533  -3.809  0.00  0.00    -0.026 C 
ATOM     53  H   LIG d   1       3.049  -2.299  -3.255  0.00  0.00     0.056 H 
ATOM     54  H   LIG d   1       3.989  -3.345  -2.163  0.00  0.00     0.056 H 
ATOM     55  H   LIG d   1       4.905  -3.359  -4.487  0.00  0.00     0.029 H 
ATOM     56  H   LIG d   1       6.075  -2.705  -3.314  0.00  0.00     0.029 H 
BRANCH  47  57
ATOM     57  C   LIG d   1       2.943   0.173  -3.278  0.00  0.00    -0.036 C 
ATOM     58  H   LIG d   1       2.212  -0.545  -2.903  0.00  0.00     0.026 H 
ATOM     59  H   LIG d   1       2.595   1.185  -3.073  0.00  0.00     0.026 H 
ATOM     60  H   LIG d   1       3.062   0.041  -4.354  0.00  0.00     0.026 H 
ENDBRANCH  47  57
BRANCH  47  61
ATOM     61  C   LIG d   1       4.535   1.064  -1.572  0.00  0.00    -0.036 C 
ATOM     62  H   LIG d   1       4.039   1.974  -1.908  0.00  0.00     0.026 H 
ATOM     63  H   LIG d   1       4.137   0.771  -0.600  0.00  0.00     0.026 H 
ATOM     64  H   LIG d   1       5.607   1.245  -1.485  0.00  0.00     0.026 H 
ENDBRANCH  47  61
ENDBRANCH   1  44
TORSDOF 15
ENDMDL
MODEL 6
REMARK VINA RESULT:      -4.8      4.750      7.024
REMARK  15 active torsions:
REMARK  status: ('A' for Active; 'I' for Inactive)
REMARK    1  A    between atoms: C_1  and  C_2 
REMARK    2  A    between atoms: C_2  and  C_3 
REMARK    3  A    between atoms: C_2  and  C_4 
REMARK    4  A    between atoms: C_4  and  C_6 
REMARK    5  A    between atoms: C_4  and  C_19 
REMARK    6  A    between atoms: C_6  and  C_7 
REMARK    7  A    between atoms: C_7  and  N_62 
REMARK    8  A    between atoms: C_8  and  C_9 
REMARK    9  A    between atoms: C_8  and  N_62 
REMARK   10  A    between atoms: C_12  and  O_17 
REMARK   11  A    between atoms: C_13  and  O_15 
REMARK   12  A    between atoms: O_15  and  C_16 
REMARK   13  A    between atoms: O_17  and  C_18 
REMARK   14  A    between atoms: C_24  and  C_26 
REMARK   15  A    between atoms: C_24  and  C_27 
ROOT
ATOM      1  C   LIG d   1       5.512  -0.229  -3.653  0.00  0.00    -0.031 C 
ATOM      2  H   LIG d   1       5.131   0.672  -4.136  0.00  0.00     0.031 H 
ENDROOT
BRANCH   1   3
ATOM      3  C   LIG d   1       4.767  -0.455  -2.336  0.00  0.00    -0.043 C 
ATOM      4  H   LIG d   1       5.410  -1.000  -1.645  0.00  0.00     0.030 H 
BRANCH   3   5
ATOM      5  C   LIG d   1       4.389   0.895  -1.725  0.00  0.00    -0.062 C 
ATOM      6  H   LIG d   1       5.168   1.209  -1.029  0.00  0.00     0.023 H 
ATOM      7  H   LIG d   1       4.290   1.638  -2.517  0.00  0.00     0.023 H 
ATOM      8  H   LIG d   1       3.443   0.801  -1.193  0.00  0.00     0.023 H 
ENDBRANCH   3   5
BRANCH   3   9
ATOM      9  C   LIG d   1       3.498  -1.268  -2.601  0.00  0.00    -0.062 C 
ATOM     10  H   LIG d   1       3.249  -1.852  -1.714  0.00  0.00     0.023 H 
ATOM     11  H   LIG d   1       2.675  -0.592  -2.834  0.00  0.00     0.023 H 
ATOM     12  H   LIG d   1       3.666  -1.941  -3.443  0.00  0.00     0.023 H 
ENDBRANCH   3   9
ENDBRANCH   1   3
BRANCH   1  13
ATOM     13  C   LIG d   1       7.008  -0.064  -3.371  0.00  0.00    -0.009 C 
ATOM     14  H   LIG d   1       7.563  -0.847  -3.888  0.00  0.00     0.032 H 
ATOM     15  H   LIG d   1       7.185  -0.139  -2.298  0.00  0.00     0.032 H 
BRANCH  13  16
ATOM     16  C   LIG d   1       7.472   1.306  -3.869  0.00  0.00    -0.033 C 
ATOM     17  H   LIG d   1       7.009   2.089  -3.267  0.00  0.00     0.081 H 
ATOM     18  H   LIG d   1       7.182   1.431  -4.913  0.00  0.00     0.081 H 
BRANCH  16  19
ATOM     19  N   LIG d   1       8.940   1.392  -3.750  0.00  0.00     0.230 N 
ATOM     20  H   LIG d   1       9.346   0.458  -3.879  0.00  0.00     0.202 HD
ATOM     21  H   LIG d   1       9.183   1.744  -2.816  0.00  0.00     0.202 HD
BRANCH  19  22
ATOM     22  C   LIG d   1       9.484   2.306  -4.771  0.00  0.00    -0.008 C 
ATOM     23  H   LIG d   1       8.830   2.314  -5.642  0.00  0.00     0.087 H 
ATOM     24  H   LIG d   1      10.479   1.973  -5.068  0.00  0.00     0.087 H 
BRANCH  22  25
ATOM     25  C   LIG d   1       9.571   3.695  -4.194  0.00  0.00     0.001 A 
ATOM     26  C   LIG d   1       9.247   4.789  -4.975  0.00  0.00    -0.008 A 
ATOM     27  C   LIG d   1       9.327   6.066  -4.446  0.00  0.00     0.162 A 
ATOM     28  H   LIG d   1       8.930   4.646  -5.998  0.00  0.00     0.066 H 
ATOM     29  C   LIG d   1       9.734   6.246  -3.127  0.00  0.00     0.162 A 
ATOM     30  C   LIG d   1      10.057   5.146  -2.350  0.00  0.00    -0.016 A 
ATOM     31  C   LIG d   1       9.981   3.874  -2.886  0.00  0.00    -0.050 A 
ATOM     32  H   LIG d   1      10.373   5.283  -1.326  0.00  0.00     0.066 H 
ATOM     33  H   LIG d   1      10.238   3.018  -2.280  0.00  0.00     0.062 H 
BRANCH  27  34
ATOM     34  O   LIG d   1       9.008   7.143  -5.214  0.00  0.00    -0.491 OA
BRANCH  34  35
ATOM     35  C   LIG d   1       9.842   7.406  -6.343  0.00  0.00     0.079 C 
ATOM     36  H   LIG d   1       9.222   7.533  -7.231  0.00  0.00     0.066 H 
ATOM     37  H   LIG d   1      10.416   8.315  -6.167  0.00  0.00     0.066 H 
ATOM     38  H   LIG d   1      10.525   6.569  -6.493  0.00  0.00     0.066 H 
ENDBRANCH  34  35
ENDBRANCH  27  34
BRANCH  29  39
ATOM     39  O   LIG d   1       9.814   7.499  -2.603  0.00  0.00    -0.491 OA
BRANCH  39  40
ATOM     40  C   LIG d   1       9.483   7.647  -1.222  0.00  0.00     0.079 C 
ATOM     41  H   LIG d   1       9.723   6.727  -0.689  0.00  0.00     0.066 H 
ATOM     42  H   LIG d   1      10.056   8.472  -0.798  0.00  0.00     0.066 H 
ATOM     43  H   LIG d   1       8.417   7.856  -1.124  0.00  0.00     0.066 H 
ENDBRANCH  39  40
ENDBRANCH  29  39
ENDBRANCH  22  25
ENDBRANCH  19  22
ENDBRANCH  16  19
ENDBRANCH  13  16
ENDBRANCH   1  13
BRANCH   1  44
ATOM     44  C   LIG d   1       5.297  -1.431  -4.574  0.00  0.00    -0.033 C 
ATOM     45  H   LIG d   1       4.339  -1.898  -4.346  0.00  0.00     0.030 H 
ATOM     46  C   LIG d   1       6.426  -2.446  -4.365  0.00  0.00    -0.021 C 
ATOM     47  C   LIG d   1       6.246  -3.606  -5.346  0.00  0.00     0.064 C 
ATOM     48  H   LIG d   1       7.387  -1.964  -4.544  0.00  0.00     0.029 H 
ATOM     49  H   LIG d   1       6.390  -2.823  -3.342  0.00  0.00     0.029 H 
ATOM     50  O   LIG d   1       6.232  -3.102  -6.684  0.00  0.00    -0.374 OA
ATOM     51  C   LIG d   1       5.168  -2.185  -6.950  0.00  0.00     0.049 C 
ATOM     52  C   LIG d   1       5.305  -0.966  -6.034  0.00  0.00    -0.026 C 
ATOM     53  H   LIG d   1       4.212  -2.674  -6.764  0.00  0.00     0.056 H 
ATOM     54  H   LIG d   1       5.216  -1.865  -7.991  0.00  0.00     0.056 H 
ATOM     55  H   LIG d   1       4.471  -0.286  -6.205  0.00  0.00     0.029 H 
ATOM     56  H   LIG d   1       6.244  -0.454  -6.247  0.00  0.00     0.029 H 
BRANCH  47  57
ATOM     57  C   LIG d   1       4.924  -4.318  -5.056  0.00  0.00    -0.036 C 
ATOM     58  H   LIG d   1       4.714  -5.034  -5.852  0.00  0.00     0.026 H 
ATOM     59  H   LIG d   1       4.995  -4.844  -4.105  0.00  0.00     0.026 H 
ATOM     60  H   LIG d   1       4.119  -3.584  -5.007  0.00  0.00     0.026 H 
ENDBRANCH  47  57
BRANCH  47  61
ATOM     61  C   LIG d   1       7.403  -4.594  -5.187  0.00  0.00    -0.036 C 
ATOM     62  H   LIG d   1       7.006  -5.594  -5.015  0.00  0.00     0.026 H 
ATOM     63  H   LIG d   1       8.009  -4.594  -6.094  0.00  0.00     0.026 H 
ATOM     64  H   LIG d   1       8.021  -4.297  -4.340  0.00  0.00     0.026 H 
ENDBRANCH  47  61
ENDBRANCH   1  44
TORSDOF 15
ENDMDL
MODEL 7
REMARK VINA RESULT:      -4.8      1.955      5.295
REMARK  15 active torsions:
REMARK  status: ('A' for Active; 'I' for Inactive)
REMARK    1  A    between atoms: C_1  and  C_2 
REMARK    2  A    between atoms: C_2  and  C_3 
REMARK    3  A    between atoms: C_2  and  C_4 
REMARK    4  A    between atoms: C_4  and  C_6 
REMARK    5  A    between atoms: C_4  and  C_19 
REMARK    6  A    between atoms: C_6  and  C_7 
REMARK    7  A    between atoms: C_7  and  N_62 
REMARK    8  A    between atoms: C_8  and  C_9 
REMARK    9  A    between atoms: C_8  and  N_62 
REMARK   10  A    between atoms: C_12  and  O_17 
REMARK   11  A    between atoms: C_13  and  O_15 
REMARK   12  A    between atoms: O_15  and  C_16 
REMARK   13  A    between atoms: O_17  and  C_18 
REMARK   14  A    between atoms: C_24  and  C_26 
REMARK   15  A    between atoms: C_24  and  C_27 
ROOT
ATOM      1  C   LIG d   1       2.648  -2.296  -9.513  0.00  0.00    -0.031 C 
ATOM      2  H   LIG d   1       2.047  -2.619  -8.662  0.00  0.00     0.031 H 
ENDROOT
BRANCH   1   3
ATOM      3  C   LIG d   1       1.874  -2.547 -10.809  0.00  0.00    -0.043 C 
ATOM      4  H   LIG d   1       2.550  -2.952 -11.562  0.00  0.00     0.030 H 
BRANCH   3   5
ATOM      5  C   LIG d   1       0.748  -3.548 -10.544  0.00  0.00    -0.062 C 
ATOM      6  H   LIG d   1       0.615  -4.185 -11.419  0.00  0.00     0.023 H 
ATOM      7  H   LIG d   1       1.004  -4.164  -9.682  0.00  0.00     0.023 H 
ATOM      8  H   LIG d   1      -0.178  -3.008 -10.344  0.00  0.00     0.023 H 
ENDBRANCH   3   5
BRANCH   3   9
ATOM      9  C   LIG d   1       1.279  -1.231 -11.312  0.00  0.00    -0.062 C 
ATOM     10  H   LIG d   1       0.803  -0.707 -10.483  0.00  0.00     0.023 H 
ATOM     11  H   LIG d   1       2.072  -0.608 -11.727  0.00  0.00     0.023 H 
ATOM     12  H   LIG d   1       0.538  -1.438 -12.084  0.00  0.00     0.023 H 
ENDBRANCH   3   9
ENDBRANCH   1   3
BRANCH   1  13
ATOM     13  C   LIG d   1       3.959  -3.085  -9.541  0.00  0.00    -0.009 C 
ATOM     14  H   LIG d   1       4.763  -2.469  -9.137  0.00  0.00     0.032 H 
ATOM     15  H   LIG d   1       4.194  -3.362 -10.569  0.00  0.00     0.032 H 
BRANCH  13  16
ATOM     16  C   LIG d   1       3.811  -4.350  -8.694  0.00  0.00    -0.033 C 
ATOM     17  H   LIG d   1       4.729  -4.934  -8.747  0.00  0.00     0.081 H 
ATOM     18  H   LIG d   1       2.979  -4.945  -9.072  0.00  0.00     0.081 H 
BRANCH  16  19
ATOM     19  N   LIG d   1       3.548  -3.966  -7.294  0.00  0.00     0.230 N 
ATOM     20  H   LIG d   1       2.822  -4.579  -6.905  0.00  0.00     0.202 HD
ATOM     21  H   LIG d   1       3.223  -2.992  -7.266  0.00  0.00     0.202 HD
BRANCH  19  22
ATOM     22  C   LIG d   1       4.777  -4.092  -6.489  0.00  0.00    -0.008 C 
ATOM     23  H   LIG d   1       5.504  -4.701  -7.023  0.00  0.00     0.087 H 
ATOM     24  H   LIG d   1       4.542  -4.560  -5.533  0.00  0.00     0.087 H 
BRANCH  22  25
ATOM     25  C   LIG d   1       5.351  -2.720  -6.247  0.00  0.00     0.001 A 
ATOM     26  C   LIG d   1       4.652  -1.802  -5.484  0.00  0.00    -0.008 A 
ATOM     27  C   LIG d   1       5.179  -0.541  -5.262  0.00  0.00     0.162 A 
ATOM     28  H   LIG d   1       3.696  -2.072  -5.059  0.00  0.00     0.066 H 
ATOM     29  C   LIG d   1       6.412  -0.199  -5.809  0.00  0.00     0.162 A 
ATOM     30  C   LIG d   1       7.107  -1.121  -6.573  0.00  0.00    -0.016 A 
ATOM     31  C   LIG d   1       6.573  -2.377  -6.796  0.00  0.00    -0.050 A 
ATOM     32  H   LIG d   1       8.064  -0.858  -6.999  0.00  0.00     0.066 H 
ATOM     33  H   LIG d   1       7.114  -3.094  -7.397  0.00  0.00     0.062 H 
BRANCH  27  34
ATOM     34  O   LIG d   1       4.492   0.361  -4.510  0.00  0.00    -0.491 OA
BRANCH  34  35
ATOM     35  C   LIG d   1       3.114   0.080  -4.256  0.00  0.00     0.079 C 
ATOM     36  H   LIG d   1       3.029  -0.877  -3.740  0.00  0.00     0.066 H 
ATOM     37  H   LIG d   1       2.691   0.868  -3.634  0.00  0.00     0.066 H 
ATOM     38  H   LIG d   1       2.573   0.033  -5.201  0.00  0.00     0.066 H 
ENDBRANCH  34  35
ENDBRANCH  27  34
BRANCH  29  39
ATOM     39  O   LIG d   1       6.933   1.039  -5.594  0.00  0.00    -0.491 OA
BRANCH  39  40
ATOM     40  C   LIG d   1       7.878   1.170  -4.531  0.00  0.00     0.079 C 
ATOM     41  H   LIG d   1       7.610   2.023  -3.908  0.00  0.00     0.066 H 
ATOM     42  H   LIG d   1       7.873   0.262  -3.926  0.00  0.00     0.066 H 
ATOM     43  H   LIG d   1       8.874   1.323  -4.948  0.00  0.00     0.066 H 
ENDBRANCH  39  40
ENDBRANCH  29  39
ENDBRANCH  22  25
ENDBRANCH  19  22
ENDBRANCH  16  19
ENDBRANCH  13  16
ENDBRANCH   1  13
BRANCH   1  44
ATOM     44  C   LIG d   1       2.954  -0.802  -9.384  0.00  0.00    -0.033 C 
ATOM     45  H   LIG d   1       2.423  -0.253 -10.160  0.00  0.00     0.030 H 
ATOM     46  C   LIG d   1       4.462  -0.574  -9.534  0.00  0.00    -0.021 C 
ATOM     47  C   LIG d   1       4.768   0.911  -9.324  0.00  0.00     0.064 C 
ATOM     48  H   LIG d   1       4.996  -1.164  -8.790  0.00  0.00     0.029 H 
ATOM     49  H   LIG d   1       4.777  -0.873 -10.534  0.00  0.00     0.029 H 
ATOM     50  O   LIG d   1       4.299   1.316  -8.035  0.00  0.00    -0.374 OA
ATOM     51  C   LIG d   1       2.889   1.169  -7.855  0.00  0.00     0.049 C 
ATOM     52  C   LIG d   1       2.507  -0.306  -8.005  0.00  0.00    -0.026 C 
ATOM     53  H   LIG d   1       2.364   1.759  -8.606  0.00  0.00     0.056 H 
ATOM     54  H   LIG d   1       2.612   1.517  -6.860  0.00  0.00     0.056 H 
ATOM     55  H   LIG d   1       1.427  -0.414  -7.911  0.00  0.00     0.029 H 
ATOM     56  H   LIG d   1       3.002  -0.891  -7.230  0.00  0.00     0.029 H 
BRANCH  47  57
ATOM     57  C   LIG d   1       4.065   1.734 -10.404  0.00  0.00    -0.036 C 
ATOM     58  H   LIG d   1       3.936   2.759 -10.054  0.00  0.00     0.026 H 
ATOM     59  H   LIG d   1       4.667   1.733 -11.312  0.00  0.00     0.026 H 
ATOM     60  H   LIG d   1       3.088   1.298 -10.615  0.00  0.00     0.026 H 
ENDBRANCH  47  57
BRANCH  47  61
ATOM     61  C   LIG d   1       6.278   1.138  -9.411  0.00  0.00    -0.036 C 
ATOM     62  H   LIG d   1       6.780   0.187  -9.583  0.00  0.00     0.026 H 
ATOM     63  H   LIG d   1       6.496   1.819 -10.235  0.00  0.00     0.026 H 
ATOM     64  H   LIG d   1       6.635   1.575  -8.477  0.00  0.00     0.026 H 
ENDBRANCH  47  61
ENDBRANCH   1  44
TORSDOF 15
ENDMDL
MODEL 8
REMARK VINA RESULT:      -4.8      6.025      8.269
REMARK  15 active torsions:
REMARK  status: ('A' for Active; 'I' for Inactive)
REMARK    1  A    between atoms: C_1  and  C_2 
REMARK    2  A    between atoms: C_2  and  C_3 
REMARK    3  A    between atoms: C_2  and  C_4 
REMARK    4  A    between atoms: C_4  and  C_6 
REMARK    5  A    between atoms: C_4  and  C_19 
REMARK    6  A    between atoms: C_6  and  C_7 
REMARK    7  A    between atoms: C_7  and  N_62 
REMARK    8  A    between atoms: C_8  and  C_9 
REMARK    9  A    between atoms: C_8  and  N_62 
REMARK   10  A    between atoms: C_12  and  O_17 
REMARK   11  A    between atoms: C_13  and  O_15 
REMARK   12  A    between atoms: O_15  and  C_16 
REMARK   13  A    between atoms: O_17  and  C_18 
REMARK   14  A    between atoms: C_24  and  C_26 
REMARK   15  A    between atoms: C_24  and  C_27 
ROOT
ATOM      1  C   LIG d   1       8.289   0.723  -4.757  0.00  0.00    -0.031 C 
ATOM      2  H   LIG d   1       9.116   0.143  -4.343  0.00  0.00     0.031 H 
ENDROOT
BRANCH   1   3
ATOM      3  C   LIG d   1       8.419   0.779  -6.281  0.00  0.00    -0.043 C 
ATOM      4  H   LIG d   1       8.835   1.742  -6.573  0.00  0.00     0.030 H 
BRANCH   3   5
ATOM      5  C   LIG d   1       9.344  -0.342  -6.755  0.00  0.00    -0.062 C 
ATOM      6  H   LIG d   1       9.017  -0.694  -7.734  0.00  0.00     0.023 H 
ATOM      7  H   LIG d   1      10.365   0.034  -6.828  0.00  0.00     0.023 H 
ATOM      8  H   LIG d   1       9.311  -1.168  -6.044  0.00  0.00     0.023 H 
ENDBRANCH   3   5
BRANCH   3   9
ATOM      9  C   LIG d   1       7.038   0.605  -6.916  0.00  0.00    -0.062 C 
ATOM     10  H   LIG d   1       6.917   1.325  -7.726  0.00  0.00     0.023 H 
ATOM     11  H   LIG d   1       6.946  -0.407  -7.314  0.00  0.00     0.023 H 
ATOM     12  H   LIG d   1       6.267   0.771  -6.164  0.00  0.00     0.023 H 
ENDBRANCH   3   9
ENDBRANCH   1   3
BRANCH   1  13
ATOM     13  C   LIG d   1       8.329   2.144  -4.189  0.00  0.00    -0.009 C 
ATOM     14  H   LIG d   1       8.507   2.100  -3.114  0.00  0.00     0.032 H 
ATOM     15  H   LIG d   1       7.377   2.638  -4.382  0.00  0.00     0.032 H 
BRANCH  13  16
ATOM     16  C   LIG d   1       9.456   2.930  -4.862  0.00  0.00    -0.033 C 
ATOM     17  H   LIG d   1       9.530   2.637  -5.909  0.00  0.00     0.081 H 
ATOM     18  H   LIG d   1      10.400   2.716  -4.358  0.00  0.00     0.081 H 
BRANCH  16  19
ATOM     19  N   LIG d   1       9.161   4.372  -4.769  0.00  0.00     0.230 N 
ATOM     20  H   LIG d   1       8.505   4.536  -3.997  0.00  0.00     0.202 HD
ATOM     21  H   LIG d   1       8.738   4.688  -5.651  0.00  0.00     0.202 HD
BRANCH  19  22
ATOM     22  C   LIG d   1      10.401   5.133  -4.525  0.00  0.00    -0.008 C 
ATOM     23  H   LIG d   1      10.412   6.026  -5.149  0.00  0.00     0.087 H 
ATOM     24  H   LIG d   1      11.265   4.513  -4.764  0.00  0.00     0.087 H 
BRANCH  22  25
ATOM     25  C   LIG d   1      10.456   5.533  -3.074  0.00  0.00     0.001 A 
ATOM     26  C   LIG d   1       9.686   6.587  -2.617  0.00  0.00    -0.008 A 
ATOM     27  C   LIG d   1       9.737   6.956  -1.283  0.00  0.00     0.162 A 
ATOM     28  H   LIG d   1       9.044   7.122  -3.302  0.00  0.00     0.066 H 
ATOM     29  C   LIG d   1      10.565   6.264  -0.404  0.00  0.00     0.162 A 
ATOM     30  C   LIG d   1      11.334   5.209  -0.867  0.00  0.00    -0.016 A 
ATOM     31  C   LIG d   1      11.283   4.850  -2.201  0.00  0.00    -0.050 A 
ATOM     32  H   LIG d   1      11.977   4.670  -0.186  0.00  0.00     0.066 H 
ATOM     33  H   LIG d   1      11.888   4.030  -2.561  0.00  0.00     0.062 H 
BRANCH  27  34
ATOM     34  O   LIG d   1       8.979   7.992  -0.834  0.00  0.00    -0.491 OA
BRANCH  34  35
ATOM     35  C   LIG d   1       9.350   9.303  -1.263  0.00  0.00     0.079 C 
ATOM     36  H   LIG d   1       8.798   9.559  -2.168  0.00  0.00     0.066 H 
ATOM     37  H   LIG d   1       9.117  10.023  -0.479  0.00  0.00     0.066 H 
ATOM     38  H   LIG d   1      10.420   9.327  -1.471  0.00  0.00     0.066 H 
ENDBRANCH  34  35
ENDBRANCH  27  34
BRANCH  29  39
ATOM     39  O   LIG d   1      10.618   6.623   0.907  0.00  0.00    -0.491 OA
BRANCH  39  40
ATOM     40  C   LIG d   1      10.979   5.607   1.844  0.00  0.00     0.079 C 
ATOM     41  H   LIG d   1      11.266   6.067   2.789  0.00  0.00     0.066 H 
ATOM     42  H   LIG d   1      10.127   4.944   2.007  0.00  0.00     0.066 H 
ATOM     43  H   LIG d   1      11.817   5.031   1.451  0.00  0.00     0.066 H 
ENDBRANCH  39  40
ENDBRANCH  29  39
ENDBRANCH  22  25
ENDBRANCH  19  22
ENDBRANCH  16  19
ENDBRANCH  13  16
ENDBRANCH   1  13
BRANCH   1  44
ATOM     44  C   LIG d   1       6.962   0.061  -4.381  0.00  0.00    -0.033 C 
ATOM     45  H   LIG d   1       6.323   0.002  -5.261  0.00  0.00     0.030 H 
ATOM     46  C   LIG d   1       6.267   0.888  -3.295  0.00  0.00    -0.021 C 
ATOM     47  C   LIG d   1       4.981   0.176  -2.869  0.00  0.00     0.064 C 
ATOM     48  H   LIG d   1       6.928   0.989  -2.435  0.00  0.00     0.029 H 
ATOM     49  H   LIG d   1       6.024   1.875  -3.689  0.00  0.00     0.029 H 
ATOM     50  O   LIG d   1       5.294  -1.141  -2.410  0.00  0.00    -0.374 OA
ATOM     51  C   LIG d   1       5.903  -1.974  -3.399  0.00  0.00     0.049 C 
ATOM     52  C   LIG d   1       7.227  -1.350  -3.845  0.00  0.00    -0.026 C 
ATOM     53  H   LIG d   1       5.237  -2.066  -4.256  0.00  0.00     0.056 H 
ATOM     54  H   LIG d   1       6.090  -2.962  -2.976  0.00  0.00     0.056 H 
ATOM     55  H   LIG d   1       7.672  -1.961  -4.630  0.00  0.00     0.029 H 
ATOM     56  H   LIG d   1       7.908  -1.294  -2.996  0.00  0.00     0.029 H 
BRANCH  47  57
ATOM     57  C   LIG d   1       4.029   0.086  -4.063  0.00  0.00    -0.036 C 
ATOM     58  H   LIG d   1       3.212  -0.598  -3.827  0.00  0.00     0.026 H 
ATOM     59  H   LIG d   1       3.624   1.074  -4.281  0.00  0.00     0.026 H 
ATOM     60  H   LIG d   1       4.572  -0.284  -4.933  0.00  0.00     0.026 H 
ENDBRANCH  47  57
BRANCH  47  61
ATOM     61  C   LIG d   1       4.311   0.963  -1.741  0.00  0.00    -0.036 C 
ATOM     62  H   LIG d   1       3.774   0.276  -1.088  0.00  0.00     0.026 H 
ATOM     63  H   LIG d   1       5.072   1.492  -1.166  0.00  0.00     0.026 H 
ATOM     64  H   LIG d   1       3.612   1.684  -2.165  0.00  0.00     0.026 H 
ENDBRANCH  47  61
ENDBRANCH   1  44
TORSDOF 15
ENDMDL
MODEL 9
REMARK VINA RESULT:      -4.7      2.069      2.989
REMARK  15 active torsions:
REMARK  status: ('A' for Active; 'I' for Inactive)
REMARK    1  A    between atoms: C_1  and  C_2 
REMARK    2  A    between atoms: C_2  and  C_3 
REMARK    3  A    between atoms: C_2  and  C_4 
REMARK    4  A    between atoms: C_4  and  C_6 
REMARK    5  A    between atoms: C_4  and  C_19 
REMARK    6  A    between atoms: C_6  and  C_7 
REMARK    7  A    between atoms: C_7  and  N_62 
REMARK    8  A    between atoms: C_8  and  C_9 
REMARK    9  A    between atoms: C_8  and  N_62 
REMARK   10  A    between atoms: C_12  and  O_17 
REMARK   11  A    between atoms: C_13  and  O_15 
REMARK   12  A    between atoms: O_15  and  C_16 
REMARK   13  A    between atoms: O_17  and  C_18 
REMARK   14  A    between atoms: C_24  and  C_26 
REMARK   15  A    between atoms: C_24  and  C_27 
ROOT
ATOM      1  C   LIG d   1       5.276  -1.706  -5.963  0.00  0.00    -0.031 C 
ATOM      2  H   LIG d   1       4.624  -1.540  -6.821  0.00  0.00     0.031 H 
ENDROOT
BRANCH   1   3
ATOM      3  C   LIG d   1       6.438  -0.711  -6.005  0.00  0.00    -0.043 C 
ATOM      4  H   LIG d   1       6.351  -0.017  -5.169  0.00  0.00     0.030 H 
BRANCH   3   5
ATOM      5  C   LIG d   1       7.763  -1.468  -5.904  0.00  0.00    -0.062 C 
ATOM      6  H   LIG d   1       8.462  -0.897  -5.293  0.00  0.00     0.023 H 
ATOM      7  H   LIG d   1       7.592  -2.442  -5.445  0.00  0.00     0.023 H 
ATOM      8  H   LIG d   1       8.180  -1.605  -6.902  0.00  0.00     0.023 H 
ENDBRANCH   3   5
BRANCH   3   9
ATOM      9  C   LIG d   1       6.394   0.068  -7.321  0.00  0.00    -0.062 C 
ATOM     10  H   LIG d   1       5.693   0.898  -7.230  0.00  0.00     0.023 H 
ATOM     11  H   LIG d   1       7.388   0.455  -7.548  0.00  0.00     0.023 H 
ATOM     12  H   LIG d   1       6.070  -0.594  -8.125  0.00  0.00     0.023 H 
ENDBRANCH   3   9
ENDBRANCH   1   3
BRANCH   1  13
ATOM     13  C   LIG d   1       5.826  -3.134  -6.009  0.00  0.00    -0.009 C 
ATOM     14  H   LIG d   1       5.486  -3.683  -5.131  0.00  0.00     0.032 H 
ATOM     15  H   LIG d   1       6.916  -3.103  -6.019  0.00  0.00     0.032 H 
BRANCH  13  16
ATOM     16  C   LIG d   1       5.325  -3.833  -7.274  0.00  0.00    -0.033 C 
ATOM     17  H   LIG d   1       5.578  -4.892  -7.230  0.00  0.00     0.081 H 
ATOM     18  H   LIG d   1       5.796  -3.383  -8.149  0.00  0.00     0.081 H 
BRANCH  16  19
ATOM     19  N   LIG d   1       3.861  -3.675  -7.365  0.00  0.00     0.230 N 
ATOM     20  H   LIG d   1       3.578  -2.831  -6.855  0.00  0.00     0.202 HD
ATOM     21  H   LIG d   1       3.406  -4.496  -6.946  0.00  0.00     0.202 HD
BRANCH  19  22
ATOM     22  C   LIG d   1       3.446  -3.556  -8.775  0.00  0.00    -0.008 C 
ATOM     23  H   LIG d   1       2.420  -3.907  -8.886  0.00  0.00     0.087 H 
ATOM     24  H   LIG d   1       4.105  -4.156  -9.403  0.00  0.00     0.087 H 
BRANCH  22  25
ATOM     25  C   LIG d   1       3.531  -2.112  -9.194  0.00  0.00     0.001 A 
ATOM     26  C   LIG d   1       4.254  -1.760 -10.320  0.00  0.00    -0.008 A 
ATOM     27  C   LIG d   1       4.333  -0.432 -10.705  0.00  0.00     0.162 A 
ATOM     28  H   LIG d   1       4.756  -2.522 -10.898  0.00  0.00     0.066 H 
ATOM     29  C   LIG d   1       3.685   0.547  -9.958  0.00  0.00     0.162 A 
ATOM     30  C   LIG d   1       2.962   0.189  -8.833  0.00  0.00    -0.016 A 
ATOM     31  C   LIG d   1       2.892  -1.138  -8.449  0.00  0.00    -0.050 A 
ATOM     32  H   LIG d   1       2.457   0.946  -8.250  0.00  0.00     0.066 H 
ATOM     33  H   LIG d   1       2.332  -1.415  -7.567  0.00  0.00     0.062 H 
BRANCH  27  34
ATOM     34  O   LIG d   1       5.044  -0.086 -11.813  0.00  0.00    -0.491 OA
BRANCH  34  35
ATOM     35  C   LIG d   1       4.594  -0.611 -13.063  0.00  0.00     0.079 C 
ATOM     36  H   LIG d   1       3.770  -0.003 -13.436  0.00  0.00     0.066 H 
ATOM     37  H   LIG d   1       5.414  -0.593 -13.781  0.00  0.00     0.066 H 
ATOM     38  H   LIG d   1       4.255  -1.638 -12.925  0.00  0.00     0.066 H 
ENDBRANCH  34  35
ENDBRANCH  27  34
BRANCH  29  39
ATOM     39  O   LIG d   1       3.760   1.852 -10.333  0.00  0.00    -0.491 OA
BRANCH  39  40
ATOM     40  C   LIG d   1       4.070   2.803  -9.314  0.00  0.00     0.079 C 
ATOM     41  H   LIG d   1       3.147   3.216  -8.907  0.00  0.00     0.066 H 
ATOM     42  H   LIG d   1       4.630   2.312  -8.517  0.00  0.00     0.066 H 
ATOM     43  H   LIG d   1       4.672   3.607  -9.738  0.00  0.00     0.066 H 
ENDBRANCH  39  40
ENDBRANCH  29  39
ENDBRANCH  22  25
ENDBRANCH  19  22
ENDBRANCH  16  19
ENDBRANCH  13  16
ENDBRANCH   1  13
BRANCH   1  44
ATOM     44  C   LIG d   1       4.481  -1.508  -4.671  0.00  0.00    -0.033 C 
ATOM     45  H   LIG d   1       3.425  -1.388  -4.908  0.00  0.00     0.030 H 
ATOM     46  C   LIG d   1       4.989  -0.258  -3.945  0.00  0.00    -0.021 C 
ATOM     47  C   LIG d   1       4.243  -0.112  -2.616  0.00  0.00     0.064 C 
ATOM     48  H   LIG d   1       6.057  -0.356  -3.753  0.00  0.00     0.029 H 
ATOM     49  H   LIG d   1       4.807   0.622  -4.563  0.00  0.00     0.029 H 
ATOM     50  O   LIG d   1       4.433  -1.292  -1.831  0.00  0.00    -0.374 OA
ATOM     51  C   LIG d   1       3.934  -2.485  -2.441  0.00  0.00     0.049 C 
ATOM     52  C   LIG d   1       4.668  -2.727  -3.762  0.00  0.00    -0.026 C 
ATOM     53  H   LIG d   1       2.867  -2.375  -2.632  0.00  0.00     0.056 H 
ATOM     54  H   LIG d   1       4.098  -3.330  -1.772  0.00  0.00     0.056 H 
ATOM     55  H   LIG d   1       4.259  -3.611  -4.249  0.00  0.00     0.029 H 
ATOM     56  H   LIG d   1       5.730  -2.875  -3.566  0.00  0.00     0.029 H 
BRANCH  47  57
ATOM     57  C   LIG d   1       2.751   0.084  -2.888  0.00  0.00    -0.036 C 
ATOM     58  H   LIG d   1       2.476   1.119  -2.677  0.00  0.00     0.026 H 
ATOM     59  H   LIG d   1       2.539  -0.142  -3.933  0.00  0.00     0.026 H 
ATOM     60  H   LIG d   1       2.174  -0.582  -2.247  0.00  0.00     0.026 H 
ENDBRANCH  47  57
BRANCH  47  61
ATOM     61  C   LIG d   1       4.787   1.098  -1.855  0.00  0.00    -0.036 C 
ATOM     62  H   LIG d   1       5.476   0.761  -1.081  0.00  0.00     0.026 H 
ATOM     63  H   LIG d   1       5.312   1.757  -2.548  0.00  0.00     0.026 H 
ATOM     64  H   LIG d   1       3.961   1.641  -1.395  0.00  0.00     0.026 H 
ENDBRANCH  47  61
ENDBRANCH   1  44
TORSDOF 15
ENDMDL
