MODEL 1
REMARK VINA RESULT:      -4.8      0.000      0.000
REMARK  0 active torsions:
REMARK  status: ('A' for Active; 'I' for Inactive)
ROOT
ATOM      1  C   LIG d   1       4.398  -1.373  -2.768  0.00  0.00     0.040 A 
ATOM      2  C   LIG d   1       4.172  -2.135  -3.912  0.00  0.00     0.252 A 
ATOM      3  N   LIG d   1       3.865  -1.520  -5.048  0.00  0.00    -0.319 N 
ATOM      4  C   LIG d   1       3.774  -0.201  -5.098  0.00  0.00     0.063 A 
ATOM      5  N   LIG d   1       3.983   0.551  -4.029  0.00  0.00    -0.233 NA
ATOM      6  C   LIG d   1       4.293   0.004  -2.862  0.00  0.00     0.135 A 
ATOM      7 CL   LIG d   1       4.563   1.003  -1.469  0.00  0.00    -0.062 Cl
ATOM      8  O   LIG d   1       3.459   0.395  -6.273  0.00  0.00    -0.848 OA
ATOM      9  O   LIG d   1       4.263  -3.487  -3.866  0.00  0.00    -0.268 OA
ATOM     10  H   LIG d   1       4.631  -1.798  -1.894  0.00  0.00     0.070 H 
ATOM     11  H   LIG d   1       3.685  -2.118  -5.952  0.00  0.00     0.169 HD
ENDROOT
TORSDOF 0
ENDMDL
MODEL 2
REMARK VINA RESULT:      -4.4      1.583      1.586
REMARK  0 active torsions:
REMARK  status: ('A' for Active; 'I' for Inactive)
ROOT
ATOM      1  C   LIG d   1       4.988  -0.932  -2.785  0.00  0.00     0.040 A 
ATOM      2  C   LIG d   1       3.785  -1.622  -2.907  0.00  0.00     0.252 A 
ATOM      3  N   LIG d   1       2.814  -1.103  -3.650  0.00  0.00    -0.319 N 
ATOM      4  C   LIG d   1       2.983   0.054  -4.269  0.00  0.00     0.063 A 
ATOM      5  N   LIG d   1       4.114   0.735  -4.173  0.00  0.00    -0.233 NA
ATOM      6  C   LIG d   1       5.125   0.276  -3.448  0.00  0.00     0.135 A 
ATOM      7 CL   LIG d   1       6.602   1.180  -3.331  0.00  0.00    -0.062 Cl
ATOM      8  O   LIG d   1       1.973   0.555  -5.019  0.00  0.00    -0.848 OA
ATOM      9  O   LIG d   1       3.606  -2.808  -2.275  0.00  0.00    -0.268 OA
ATOM     10  H   LIG d   1       5.743  -1.288  -2.235  0.00  0.00     0.070 H 
ATOM     11  H   LIG d   1       1.863  -1.646  -3.748  0.00  0.00     0.169 HD
ENDROOT
TORSDOF 0
ENDMDL
MODEL 3
REMARK VINA RESULT:      -4.3      3.048      3.260
REMARK  0 active torsions:
REMARK  status: ('A' for Active; 'I' for Inactive)
ROOT
ATOM      1  C   LIG d   1       5.586  -0.636  -2.847  0.00  0.00     0.040 A 
ATOM      2  C   LIG d   1       6.834  -0.989  -3.355  0.00  0.00     0.252 A 
ATOM      3  N   LIG d   1       7.667  -0.031  -3.746  0.00  0.00    -0.319 N 
ATOM      4  C   LIG d   1       7.321   1.242  -3.655  0.00  0.00     0.063 A 
ATOM      5  N   LIG d   1       6.143   1.611  -3.177  0.00  0.00    -0.233 NA
ATOM      6  C   LIG d   1       5.262   0.708  -2.769  0.00  0.00     0.135 A 
ATOM      7 CL   LIG d   1       3.721   1.205  -2.144  0.00  0.00    -0.062 Cl
ATOM      8  O   LIG d   1       8.194   2.194  -4.063  0.00  0.00    -0.848 OA
ATOM      9  O   LIG d   1       7.193  -2.293  -3.451  0.00  0.00    -0.268 OA
ATOM     10  H   LIG d   1       4.931  -1.327  -2.542  0.00  0.00     0.070 H 
ATOM     11  H   LIG d   1       8.652  -0.306  -4.149  0.00  0.00     0.169 HD
ENDROOT
TORSDOF 0
ENDMDL
MODEL 4
REMARK VINA RESULT:      -4.3      0.917      2.684
REMARK  0 active torsions:
REMARK  status: ('A' for Active; 'I' for Inactive)
ROOT
ATOM      1  C   LIG d   1       3.709   0.706  -3.862  0.00  0.00     0.040 A 
ATOM      2  C   LIG d   1       3.400  -0.061  -4.983  0.00  0.00     0.252 A 
ATOM      3  N   LIG d   1       3.616  -1.371  -4.948  0.00  0.00    -0.319 N 
ATOM      4  C   LIG d   1       4.116  -1.944  -3.866  0.00  0.00     0.063 A 
ATOM      5  N   LIG d   1       4.420  -1.244  -2.785  0.00  0.00    -0.233 NA
ATOM      6  C   LIG d   1       4.231   0.068  -2.749  0.00  0.00     0.135 A 
ATOM      7 CL   LIG d   1       4.633   0.974  -1.325  0.00  0.00    -0.062 Cl
ATOM      8  O   LIG d   1       4.324  -3.283  -3.864  0.00  0.00    -0.848 OA
ATOM      9  O   LIG d   1       2.888   0.521  -6.094  0.00  0.00    -0.268 OA
ATOM     10  H   LIG d   1       3.561   1.695  -3.847  0.00  0.00     0.070 H 
ATOM     11  H   LIG d   1       3.375  -1.979  -5.831  0.00  0.00     0.169 HD
ENDROOT
TORSDOF 0
ENDMDL
MODEL 5
REMARK VINA RESULT:      -4.1      2.426      2.915
REMARK  0 active torsions:
REMARK  status: ('A' for Active; 'I' for Inactive)
ROOT
ATOM      1  C   LIG d   1       4.005  -0.690  -2.856  0.00  0.00     0.040 A 
ATOM      2  C   LIG d   1       3.530   0.613  -2.994  0.00  0.00     0.252 A 
ATOM      3  N   LIG d   1       3.206   1.058  -4.202  0.00  0.00    -0.319 N 
ATOM      4  C   LIG d   1       3.329   0.279  -5.264  0.00  0.00     0.063 A 
ATOM      5  N   LIG d   1       3.777  -0.963  -5.167  0.00  0.00    -0.233 NA
ATOM      6  C   LIG d   1       4.120  -1.473  -3.992  0.00  0.00     0.135 A 
ATOM      7 CL   LIG d   1       4.705  -3.103  -3.880  0.00  0.00    -0.062 Cl
ATOM      8  O   LIG d   1       2.990   0.764  -6.482  0.00  0.00    -0.848 OA
ATOM      9  O   LIG d   1       3.402   1.415  -1.909  0.00  0.00    -0.268 OA
ATOM     10  H   LIG d   1       4.259  -1.063  -1.964  0.00  0.00     0.070 H 
ATOM     11  H   LIG d   1       2.832   2.085  -4.314  0.00  0.00     0.169 HD
ENDROOT
TORSDOF 0
ENDMDL
MODEL 6
REMARK VINA RESULT:      -4.1      2.193      2.384
REMARK  0 active torsions:
REMARK  status: ('A' for Active; 'I' for Inactive)
ROOT
ATOM      1  C   LIG d   1       4.365  -1.392  -2.765  0.00  0.00     0.040 A 
ATOM      2  C   LIG d   1       4.893  -2.376  -3.599  0.00  0.00     0.252 A 
ATOM      3  N   LIG d   1       6.089  -2.188  -4.144  0.00  0.00    -0.319 N 
ATOM      4  C   LIG d   1       6.775  -1.083  -3.901  0.00  0.00     0.063 A 
ATOM      5  N   LIG d   1       6.302  -0.130  -3.114  0.00  0.00    -0.233 NA
ATOM      6  C   LIG d   1       5.114  -0.251  -2.536  0.00  0.00     0.135 A 
ATOM      7 CL   LIG d   1       4.507   1.008  -1.507  0.00  0.00    -0.062 Cl
ATOM      8  O   LIG d   1       7.993  -0.922  -4.473  0.00  0.00    -0.848 OA
ATOM      9  O   LIG d   1       4.194  -3.509  -3.851  0.00  0.00    -0.268 OA
ATOM     10  H   LIG d   1       3.469  -1.496  -2.336  0.00  0.00     0.070 H 
ATOM     11  H   LIG d   1       6.508  -2.962  -4.802  0.00  0.00     0.169 HD
ENDROOT
TORSDOF 0
ENDMDL
MODEL 7
REMARK VINA RESULT:      -3.9      3.174      3.658
REMARK  0 active torsions:
REMARK  status: ('A' for Active; 'I' for Inactive)
ROOT
ATOM      1  C   LIG d   1       3.986  -0.518  -2.841  0.00  0.00     0.040 A 
ATOM      2  C   LIG d   1       4.225   0.829  -2.578  0.00  0.00     0.252 A 
ATOM      3  N   LIG d   1       5.407   1.348  -2.889  0.00  0.00    -0.319 N 
ATOM      4  C   LIG d   1       6.348   0.600  -3.441  0.00  0.00     0.063 A 
ATOM      5  N   LIG d   1       6.153  -0.682  -3.703  0.00  0.00    -0.233 NA
ATOM      6  C   LIG d   1       4.997  -1.267  -3.419  0.00  0.00     0.135 A 
ATOM      7 CL   LIG d   1       4.755  -2.949  -3.768  0.00  0.00    -0.062 Cl
ATOM      8  O   LIG d   1       7.543   1.161  -3.745  0.00  0.00    -0.848 OA
ATOM      9  O   LIG d   1       3.263   1.599  -2.013  0.00  0.00    -0.268 OA
ATOM     10  H   LIG d   1       3.109  -0.947  -2.623  0.00  0.00     0.070 H 
ATOM     11  H   LIG d   1       5.599   2.410  -2.682  0.00  0.00     0.169 HD
ENDROOT
TORSDOF 0
ENDMDL
MODEL 8
REMARK VINA RESULT:      -3.9      2.634      2.962
REMARK  0 active torsions:
REMARK  status: ('A' for Active; 'I' for Inactive)
ROOT
ATOM      1  C   LIG d   1       3.811  -1.558  -4.248  0.00  0.00     0.040 A 
ATOM      2  C   LIG d   1       3.974  -1.645  -2.867  0.00  0.00     0.252 A 
ATOM      3  N   LIG d   1       4.528  -0.628  -2.216  0.00  0.00    -0.319 N 
ATOM      4  C   LIG d   1       4.921   0.455  -2.867  0.00  0.00     0.063 A 
ATOM      5  N   LIG d   1       4.779   0.569  -4.177  0.00  0.00    -0.233 NA
ATOM      6  C   LIG d   1       4.235  -0.408  -4.891  0.00  0.00     0.135 A 
ATOM      7 CL   LIG d   1       4.057  -0.245  -6.609  0.00  0.00    -0.062 Cl
ATOM      8  O   LIG d   1       5.482   1.474  -2.173  0.00  0.00    -0.848 OA
ATOM      9  O   LIG d   1       3.574  -2.753  -2.196  0.00  0.00    -0.268 OA
ATOM     10  H   LIG d   1       3.398  -2.302  -4.774  0.00  0.00     0.070 H 
ATOM     11  H   LIG d   1       4.659  -0.694  -1.127  0.00  0.00     0.169 HD
ENDROOT
TORSDOF 0
ENDMDL
MODEL 9
REMARK VINA RESULT:      -3.8      9.589     10.386
REMARK  0 active torsions:
REMARK  status: ('A' for Active; 'I' for Inactive)
ROOT
ATOM      1  C   LIG d   1       9.491   6.910  -1.945  0.00  0.00     0.040 A 
ATOM      2  C   LIG d   1      10.046   5.638  -1.819  0.00  0.00     0.252 A 
ATOM      3  N   LIG d   1      10.714   5.332  -0.713  0.00  0.00    -0.319 N 
ATOM      4  C   LIG d   1      10.853   6.219   0.259  0.00  0.00     0.063 A 
ATOM      5  N   LIG d   1      10.338   7.434   0.170  0.00  0.00    -0.233 NA
ATOM      6  C   LIG d   1       9.659   7.809  -0.906  0.00  0.00     0.135 A 
ATOM      7 CL   LIG d   1       8.990   9.407  -1.009  0.00  0.00    -0.062 Cl
ATOM      8  O   LIG d   1      11.540   5.873   1.374  0.00  0.00    -0.848 OA
ATOM      9  O   LIG d   1       9.907   4.726  -2.812  0.00  0.00    -0.268 OA
ATOM     10  H   LIG d   1       8.981   7.179  -2.762  0.00  0.00     0.070 H 
ATOM     11  H   LIG d   1      11.153   4.329  -0.610  0.00  0.00     0.169 HD
ENDROOT
TORSDOF 0
ENDMDL
