MODEL 1
REMARK VINA RESULT:      -5.7      0.000      0.000
REMARK  10 active torsions:
REMARK  status: ('A' for Active; 'I' for Inactive)
REMARK    1  A    between atoms: C_1  and  C_2 
REMARK    2  A    between atoms: C_8  and  C_28 
REMARK    3  A    between atoms: C_9  and  C_11 
REMARK    4  A    between atoms: C_11  and  C_12 
REMARK    5  A    between atoms: C_12  and  C_13 
REMARK    6  A    between atoms: C_13  and  C_18 
REMARK    7  A    between atoms: C_14  and  C_15 
REMARK    8  A    between atoms: C_21  and  O_27 
REMARK    9  A    between atoms: C_23  and  C_24 
REMARK   10  A    between atoms: C_23  and  C_25 
ROOT
ATOM      1  C   LIG d   1       4.083   1.356  -8.586  0.00  0.00    -0.041 C 
ATOM      2  H   LIG d   1       4.773   1.750  -7.808  0.00  0.00     0.030 H 
ATOM      3  C   LIG d   1       4.715   1.662  -9.936  0.00  0.00    -0.050 C 
ATOM      4  C   LIG d   1       3.970   0.932 -11.053  0.00  0.00    -0.049 C 
ATOM      5  C   LIG d   1       4.057  -0.586 -10.841  0.00  0.00    -0.021 C 
ATOM      6  H   LIG d   1       5.119  -0.854 -10.756  0.00  0.00     0.032 H 
ATOM      7  C   LIG d   1       3.366  -0.935  -9.525  0.00  0.00    -0.025 C 
ATOM      8  C   LIG d   1       3.946  -0.133  -8.362  0.00  0.00    -0.033 C 
ATOM      9  H   LIG d   1       4.968  -0.537  -8.182  0.00  0.00     0.031 H 
ATOM     10  C   LIG d   1       1.859  -0.743  -9.650  0.00  0.00    -0.045 C 
ATOM     11  C   LIG d   1       1.310  -1.598 -10.797  0.00  0.00    -0.025 C 
ATOM     12  C   LIG d   1       1.951  -1.161 -12.109  0.00  0.00     0.067 C 
ATOM     13  H   LIG d   1       1.691  -0.118 -12.309  0.00  0.00     0.060 H 
ATOM     14  C   LIG d   1       3.472  -1.296 -12.054  0.00  0.00     0.052 C 
ATOM     15  H   LIG d   1       4.681   2.737 -10.124  0.00  0.00     0.027 H 
ATOM     16  H   LIG d   1       5.760   1.340  -9.934  0.00  0.00     0.027 H 
ATOM     17  H   LIG d   1       2.926   1.237 -11.067  0.00  0.00     0.027 H 
ATOM     18  H   LIG d   1       4.443   1.237 -11.987  0.00  0.00     0.027 H 
ATOM     19  H   LIG d   1       1.348  -1.045  -8.735  0.00  0.00     0.027 H 
ATOM     20  H   LIG d   1       1.625   0.299  -9.868  0.00  0.00     0.027 H 
ATOM     21  H   LIG d   1       1.479  -2.652 -10.612  0.00  0.00     0.029 H 
ATOM     22  H   LIG d   1       0.227  -1.432 -10.862  0.00  0.00     0.029 H 
ENDROOT
BRANCH   8  23
ATOM     23  C   LIG d   1       3.150  -0.398  -7.079  0.00  0.00    -0.046 C 
ATOM     24  H   LIG d   1       2.542   0.474  -6.842  0.00  0.00     0.027 H 
ATOM     25  H   LIG d   1       2.503  -1.263  -7.225  0.00  0.00     0.027 H 
BRANCH  23  26
ATOM     26  C   LIG d   1       4.118  -0.674  -5.927  0.00  0.00    -0.031 C 
ATOM     27  H   LIG d   1       4.365  -1.735  -5.905  0.00  0.00     0.031 H 
ATOM     28  H   LIG d   1       5.029  -0.093  -6.070  0.00  0.00     0.031 H 
BRANCH  26  29
ATOM     29  C   LIG d   1       3.471  -0.282  -4.623  0.00  0.00    -0.071 C 
ATOM     30  C   LIG d   1       3.804  -0.914  -3.498  0.00  0.00    -0.040 C 
ATOM     31  H   LIG d   1       3.451  -0.544  -2.547  0.00  0.00     0.064 H 
BRANCH  30  32
ATOM     32  C   LIG d   1       4.646  -2.114  -3.552  0.00  0.00     0.065 C 
ATOM     33  O   LIG d   1       4.140  -3.208  -3.760  0.00  0.00    -0.545 OA
ATOM     34  O   LIG d   1       5.856  -2.020  -3.392  0.00  0.00    -0.545 OA
ENDBRANCH  30  32
BRANCH  29  35
ATOM     35  C   LIG d   1       2.449   0.825  -4.592  0.00  0.00    -0.043 C 
ATOM     36  H   LIG d   1       1.448   0.396  -4.621  0.00  0.00     0.027 H 
ATOM     37  H   LIG d   1       2.569   1.405  -3.677  0.00  0.00     0.027 H 
ATOM     38  H   LIG d   1       2.591   1.475  -5.456  0.00  0.00     0.027 H 
ENDBRANCH  29  35
ENDBRANCH  26  29
ENDBRANCH  23  26
ENDBRANCH   8  23
BRANCH   1  39
ATOM     39  C   LIG d   1       2.760   2.093  -8.414  0.00  0.00    -0.062 C 
ATOM     40  H   LIG d   1       2.949   3.162  -8.315  0.00  0.00     0.023 H 
ATOM     41  H   LIG d   1       2.129   1.916  -9.286  0.00  0.00     0.023 H 
ATOM     42  H   LIG d   1       2.254   1.729  -7.520  0.00  0.00     0.023 H 
ENDBRANCH   1  39
BRANCH   7  43
ATOM     43  C   LIG d   1       3.636  -2.407  -9.144  0.00  0.00    -0.059 C 
ATOM     44  H   LIG d   1       3.286  -2.589  -8.128  0.00  0.00     0.024 H 
ATOM     45  H   LIG d   1       3.106  -3.064  -9.834  0.00  0.00     0.024 H 
ATOM     46  H   LIG d   1       4.706  -2.608  -9.200  0.00  0.00     0.024 H 
ENDBRANCH   7  43
BRANCH  14  47
ATOM     47  C   LIG d   1       3.869  -2.774 -12.119  0.00  0.00    -0.050 C 
ATOM     48  H   LIG d   1       3.793  -3.127 -13.148  0.00  0.00     0.024 H 
ATOM     49  H   LIG d   1       4.895  -2.891 -11.771  0.00  0.00     0.024 H 
ATOM     50  H   LIG d   1       3.201  -3.358 -11.486  0.00  0.00     0.024 H 
ENDBRANCH  14  47
BRANCH  14  51
ATOM     51  C   LIG d   1       4.023  -0.678 -13.332  0.00  0.00     0.129 C 
ATOM     52  O   LIG d   1       3.775  -1.182 -14.401  0.00  0.00    -0.300 OA
ATOM     53  H   LIG d   1       4.635   0.210 -13.283  0.00  0.00     0.103 H 
ENDBRANCH  14  51
BRANCH  12  54
ATOM     54  O   LIG d   1       1.445  -1.970 -13.177  0.00  0.00    -0.391 OA
ATOM     55  H   LIG d   1       0.484  -1.935 -13.276  0.00  0.00     0.210 HD
ENDBRANCH  12  54
TORSDOF 10
ENDMDL
MODEL 2
REMARK VINA RESULT:      -5.6      3.955      7.137
REMARK  10 active torsions:
REMARK  status: ('A' for Active; 'I' for Inactive)
REMARK    1  A    between atoms: C_1  and  C_2 
REMARK    2  A    between atoms: C_8  and  C_28 
REMARK    3  A    between atoms: C_9  and  C_11 
REMARK    4  A    between atoms: C_11  and  C_12 
REMARK    5  A    between atoms: C_12  and  C_13 
REMARK    6  A    between atoms: C_13  and  C_18 
REMARK    7  A    between atoms: C_14  and  C_15 
REMARK    8  A    between atoms: C_21  and  O_27 
REMARK    9  A    between atoms: C_23  and  C_24 
REMARK   10  A    between atoms: C_23  and  C_25 
ROOT
ATOM      1  C   LIG d   1       5.155  -1.802  -7.615  0.00  0.00    -0.041 C 
ATOM      2  H   LIG d   1       4.891  -2.514  -8.428  0.00  0.00     0.030 H 
ATOM      3  C   LIG d   1       3.927  -0.939  -7.363  0.00  0.00    -0.050 C 
ATOM      4  C   LIG d   1       4.108  -0.109  -6.093  0.00  0.00    -0.049 C 
ATOM      5  C   LIG d   1       4.275  -1.033  -4.878  0.00  0.00    -0.021 C 
ATOM      6  H   LIG d   1       3.414  -1.716  -4.854  0.00  0.00     0.032 H 
ATOM      7  C   LIG d   1       5.542  -1.864  -5.068  0.00  0.00    -0.025 C 
ATOM      8  C   LIG d   1       5.520  -2.618  -6.396  0.00  0.00    -0.033 C 
ATOM      9  H   LIG d   1       4.753  -3.418  -6.289  0.00  0.00     0.031 H 
ATOM     10  C   LIG d   1       6.779  -0.982  -4.936  0.00  0.00    -0.045 C 
ATOM     11  C   LIG d   1       6.786  -0.281  -3.574  0.00  0.00    -0.025 C 
ATOM     12  C   LIG d   1       5.555   0.612  -3.455  0.00  0.00     0.067 C 
ATOM     13  H   LIG d   1       5.590   1.380  -4.233  0.00  0.00     0.060 H 
ATOM     14  C   LIG d   1       4.268  -0.197  -3.607  0.00  0.00     0.052 C 
ATOM     15  H   LIG d   1       3.767  -0.269  -8.211  0.00  0.00     0.027 H 
ATOM     16  H   LIG d   1       3.047  -1.579  -7.250  0.00  0.00     0.027 H 
ATOM     17  H   LIG d   1       4.984   0.530  -6.185  0.00  0.00     0.027 H 
ATOM     18  H   LIG d   1       3.219   0.515  -6.006  0.00  0.00     0.027 H 
ATOM     19  H   LIG d   1       7.692  -1.573  -5.011  0.00  0.00     0.027 H 
ATOM     20  H   LIG d   1       6.781  -0.213  -5.708  0.00  0.00     0.027 H 
ATOM     21  H   LIG d   1       6.825  -1.000  -2.765  0.00  0.00     0.029 H 
ATOM     22  H   LIG d   1       7.683   0.348  -3.516  0.00  0.00     0.029 H 
ENDROOT
BRANCH   8  23
ATOM     23  C   LIG d   1       6.856  -3.335  -6.626  0.00  0.00    -0.046 C 
ATOM     24  H   LIG d   1       7.451  -2.772  -7.344  0.00  0.00     0.027 H 
ATOM     25  H   LIG d   1       7.397  -3.406  -5.683  0.00  0.00     0.027 H 
BRANCH  23  26
ATOM     26  C   LIG d   1       6.592  -4.740  -7.171  0.00  0.00    -0.031 C 
ATOM     27  H   LIG d   1       5.614  -4.766  -7.652  0.00  0.00     0.031 H 
ATOM     28  H   LIG d   1       7.361  -4.998  -7.899  0.00  0.00     0.031 H 
BRANCH  26  29
ATOM     29  C   LIG d   1       6.621  -5.732  -6.037  0.00  0.00    -0.071 C 
ATOM     30  C   LIG d   1       5.549  -6.478  -5.777  0.00  0.00    -0.040 C 
ATOM     31  H   LIG d   1       5.613  -7.285  -5.062  0.00  0.00     0.064 H 
BRANCH  30  32
ATOM     32  C   LIG d   1       4.280  -6.203  -6.461  0.00  0.00     0.065 C 
ATOM     33  O   LIG d   1       4.002  -6.794  -7.496  0.00  0.00    -0.545 OA
ATOM     34  O   LIG d   1       3.500  -5.383  -5.996  0.00  0.00    -0.545 OA
ENDBRANCH  30  32
BRANCH  29  35
ATOM     35  C   LIG d   1       7.864  -5.880  -5.197  0.00  0.00    -0.043 C 
ATOM     36  H   LIG d   1       7.690  -6.625  -4.421  0.00  0.00     0.027 H 
ATOM     37  H   LIG d   1       8.693  -6.199  -5.827  0.00  0.00     0.027 H 
ATOM     38  H   LIG d   1       8.106  -4.923  -4.734  0.00  0.00     0.027 H 
ENDBRANCH  29  35
ENDBRANCH  26  29
ENDBRANCH  23  26
ENDBRANCH   8  23
BRANCH   1  39
ATOM     39  C   LIG d   1       6.324  -0.966  -8.126  0.00  0.00    -0.062 C 
ATOM     40  H   LIG d   1       6.381  -0.037  -7.561  0.00  0.00     0.023 H 
ATOM     41  H   LIG d   1       7.252  -1.525  -8.000  0.00  0.00     0.023 H 
ATOM     42  H   LIG d   1       6.175  -0.742  -9.182  0.00  0.00     0.023 H 
ENDBRANCH   1  39
BRANCH   7  43
ATOM     43  C   LIG d   1       5.627  -2.977  -4.000  0.00  0.00    -0.059 C 
ATOM     44  H   LIG d   1       5.609  -3.951  -4.489  0.00  0.00     0.024 H 
ATOM     45  H   LIG d   1       6.554  -2.870  -3.436  0.00  0.00     0.024 H 
ATOM     46  H   LIG d   1       4.778  -2.896  -3.322  0.00  0.00     0.024 H 
ENDBRANCH   7  43
BRANCH  14  47
ATOM     47  C   LIG d   1       4.028  -1.038  -2.349  0.00  0.00    -0.050 C 
ATOM     48  H   LIG d   1       3.535  -0.428  -1.592  0.00  0.00     0.024 H 
ATOM     49  H   LIG d   1       3.395  -1.890  -2.597  0.00  0.00     0.024 H 
ATOM     50  H   LIG d   1       4.983  -1.394  -1.963  0.00  0.00     0.024 H 
ENDBRANCH  14  47
BRANCH  14  51
ATOM     51  C   LIG d   1       3.116   0.799  -3.647  0.00  0.00     0.129 C 
ATOM     52  O   LIG d   1       3.338   1.982  -3.553  0.00  0.00    -0.300 OA
ATOM     53  H   LIG d   1       2.102   0.447  -3.760  0.00  0.00     0.103 H 
ENDBRANCH  14  51
BRANCH  12  54
ATOM     54  O   LIG d   1       5.559   1.258  -2.177  0.00  0.00    -0.391 OA
ATOM     55  H   LIG d   1       5.460   0.653  -1.430  0.00  0.00     0.210 HD
ENDBRANCH  12  54
TORSDOF 10
ENDMDL
MODEL 3
REMARK VINA RESULT:      -5.6      3.064      7.525
REMARK  10 active torsions:
REMARK  status: ('A' for Active; 'I' for Inactive)
REMARK    1  A    between atoms: C_1  and  C_2 
REMARK    2  A    between atoms: C_8  and  C_28 
REMARK    3  A    between atoms: C_9  and  C_11 
REMARK    4  A    between atoms: C_11  and  C_12 
REMARK    5  A    between atoms: C_12  and  C_13 
REMARK    6  A    between atoms: C_13  and  C_18 
REMARK    7  A    between atoms: C_14  and  C_15 
REMARK    8  A    between atoms: C_21  and  O_27 
REMARK    9  A    between atoms: C_23  and  C_24 
REMARK   10  A    between atoms: C_23  and  C_25 
ROOT
ATOM      1  C   LIG d   1       7.811   0.332  -5.671  0.00  0.00    -0.041 C 
ATOM      2  H   LIG d   1       8.337   1.054  -6.335  0.00  0.00     0.030 H 
ATOM      3  C   LIG d   1       7.545   1.051  -4.356  0.00  0.00    -0.050 C 
ATOM      4  C   LIG d   1       6.600   0.229  -3.480  0.00  0.00    -0.049 C 
ATOM      5  C   LIG d   1       5.248   0.051  -4.185  0.00  0.00    -0.021 C 
ATOM      6  H   LIG d   1       4.869   1.050  -4.446  0.00  0.00     0.032 H 
ATOM      7  C   LIG d   1       5.471  -0.732  -5.477  0.00  0.00    -0.025 C 
ATOM      8  C   LIG d   1       6.523  -0.062  -6.359  0.00  0.00    -0.033 C 
ATOM      9  H   LIG d   1       6.056   0.870  -6.750  0.00  0.00     0.031 H 
ATOM     10  C   LIG d   1       5.831  -2.180  -5.164  0.00  0.00    -0.045 C 
ATOM     11  C   LIG d   1       4.731  -2.828  -4.318  0.00  0.00    -0.025 C 
ATOM     12  C   LIG d   1       4.598  -2.079  -2.997  0.00  0.00     0.067 C 
ATOM     13  H   LIG d   1       5.538  -2.152  -2.444  0.00  0.00     0.060 H 
ATOM     14  C   LIG d   1       4.265  -0.606  -3.226  0.00  0.00     0.052 C 
ATOM     15  H   LIG d   1       8.486   1.206  -3.824  0.00  0.00     0.027 H 
ATOM     16  H   LIG d   1       7.091   2.025  -4.556  0.00  0.00     0.027 H 
ATOM     17  H   LIG d   1       7.034  -0.747  -3.275  0.00  0.00     0.027 H 
ATOM     18  H   LIG d   1       6.497   0.778  -2.543  0.00  0.00     0.027 H 
ATOM     19  H   LIG d   1       5.936  -2.764  -6.079  0.00  0.00     0.027 H 
ATOM     20  H   LIG d   1       6.761  -2.226  -4.597  0.00  0.00     0.027 H 
ATOM     21  H   LIG d   1       3.789  -2.846  -4.852  0.00  0.00     0.029 H 
ATOM     22  H   LIG d   1       5.024  -3.864  -4.107  0.00  0.00     0.029 H 
ENDROOT
BRANCH   8  23
ATOM     23  C   LIG d   1       6.829  -0.933  -7.583  0.00  0.00    -0.046 C 
ATOM     24  H   LIG d   1       7.740  -1.503  -7.404  0.00  0.00     0.027 H 
ATOM     25  H   LIG d   1       5.999  -1.619  -7.757  0.00  0.00     0.027 H 
BRANCH  23  26
ATOM     26  C   LIG d   1       7.017  -0.039  -8.809  0.00  0.00    -0.031 C 
ATOM     27  H   LIG d   1       7.004   1.007  -8.503  0.00  0.00     0.031 H 
ATOM     28  H   LIG d   1       7.973  -0.266  -9.282  0.00  0.00     0.031 H 
BRANCH  26  29
ATOM     29  C   LIG d   1       5.900  -0.289  -9.790  0.00  0.00    -0.071 C 
ATOM     30  C   LIG d   1       5.006   0.666 -10.040  0.00  0.00    -0.040 C 
ATOM     31  H   LIG d   1       4.293   0.542 -10.841  0.00  0.00     0.064 H 
BRANCH  30  32
ATOM     32  C   LIG d   1       4.989   1.886  -9.224  0.00  0.00     0.065 C 
ATOM     33  O   LIG d   1       5.868   2.726  -9.360  0.00  0.00    -0.545 OA
ATOM     34  O   LIG d   1       4.094   2.063  -8.408  0.00  0.00    -0.545 OA
ENDBRANCH  30  32
BRANCH  29  35
ATOM     35  C   LIG d   1       5.795  -1.621 -10.489  0.00  0.00    -0.043 C 
ATOM     36  H   LIG d   1       5.119  -1.532 -11.339  0.00  0.00     0.027 H 
ATOM     37  H   LIG d   1       6.781  -1.927 -10.838  0.00  0.00     0.027 H 
ATOM     38  H   LIG d   1       5.407  -2.366  -9.794  0.00  0.00     0.027 H 
ENDBRANCH  29  35
ENDBRANCH  26  29
ENDBRANCH  23  26
ENDBRANCH   8  23
BRANCH   1  39
ATOM     39  C   LIG d   1       8.751  -0.851  -5.475  0.00  0.00    -0.062 C 
ATOM     40  H   LIG d   1       9.685  -0.505  -5.033  0.00  0.00     0.023 H 
ATOM     41  H   LIG d   1       8.284  -1.580  -4.811  0.00  0.00     0.023 H 
ATOM     42  H   LIG d   1       8.955  -1.317  -6.439  0.00  0.00     0.023 H 
ENDBRANCH   1  39
BRANCH   7  43
ATOM     43  C   LIG d   1       4.192  -0.728  -6.342  0.00  0.00    -0.059 C 
ATOM     44  H   LIG d   1       4.031   0.270  -6.749  0.00  0.00     0.024 H 
ATOM     45  H   LIG d   1       4.304  -1.440  -7.160  0.00  0.00     0.024 H 
ATOM     46  H   LIG d   1       3.337  -1.012  -5.729  0.00  0.00     0.024 H 
ENDBRANCH   7  43
BRANCH  14  47
ATOM     47  C   LIG d   1       2.810  -0.463  -3.684  0.00  0.00    -0.050 C 
ATOM     48  H   LIG d   1       2.487   0.570  -3.556  0.00  0.00     0.024 H 
ATOM     49  H   LIG d   1       2.732  -0.739  -4.736  0.00  0.00     0.024 H 
ATOM     50  H   LIG d   1       2.176  -1.118  -3.088  0.00  0.00     0.024 H 
ENDBRANCH  14  47
BRANCH  14  51
ATOM     51  C   LIG d   1       4.325   0.083  -1.869  0.00  0.00     0.129 C 
ATOM     52  O   LIG d   1       3.831   1.175  -1.725  0.00  0.00    -0.300 OA
ATOM     53  H   LIG d   1       4.811  -0.404  -1.037  0.00  0.00     0.103 H 
ENDBRANCH  14  51
BRANCH  12  54
ATOM     54  O   LIG d   1       3.561  -2.680  -2.213  0.00  0.00    -0.391 OA
ATOM     55  H   LIG d   1       3.085  -2.059  -1.647  0.00  0.00     0.210 HD
ENDBRANCH  12  54
TORSDOF 10
ENDMDL
MODEL 4
REMARK VINA RESULT:      -5.4      4.796      7.341
REMARK  10 active torsions:
REMARK  status: ('A' for Active; 'I' for Inactive)
REMARK    1  A    between atoms: C_1  and  C_2 
REMARK    2  A    between atoms: C_8  and  C_28 
REMARK    3  A    between atoms: C_9  and  C_11 
REMARK    4  A    between atoms: C_11  and  C_12 
REMARK    5  A    between atoms: C_12  and  C_13 
REMARK    6  A    between atoms: C_13  and  C_18 
REMARK    7  A    between atoms: C_14  and  C_15 
REMARK    8  A    between atoms: C_21  and  O_27 
REMARK    9  A    between atoms: C_23  and  C_24 
REMARK   10  A    between atoms: C_23  and  C_25 
ROOT
ATOM      1  C   LIG d   1       6.752  -1.805  -6.223  0.00  0.00    -0.041 C 
ATOM      2  H   LIG d   1       7.133  -2.600  -6.901  0.00  0.00     0.030 H 
ATOM      3  C   LIG d   1       5.607  -1.112  -6.949  0.00  0.00    -0.050 C 
ATOM      4  C   LIG d   1       4.856  -0.182  -5.998  0.00  0.00    -0.049 C 
ATOM      5  C   LIG d   1       4.243  -0.989  -4.845  0.00  0.00    -0.021 C 
ATOM      6  H   LIG d   1       3.624  -1.785  -5.282  0.00  0.00     0.032 H 
ATOM      7  C   LIG d   1       5.374  -1.640  -4.051  0.00  0.00    -0.025 C 
ATOM      8  C   LIG d   1       6.278  -2.477  -4.954  0.00  0.00    -0.033 C 
ATOM      9  H   LIG d   1       5.684  -3.370  -5.252  0.00  0.00     0.031 H 
ATOM     10  C   LIG d   1       6.160  -0.583  -3.283  0.00  0.00    -0.045 C 
ATOM     11  C   LIG d   1       5.226   0.201  -2.356  0.00  0.00    -0.025 C 
ATOM     12  C   LIG d   1       4.165   0.914  -3.188  0.00  0.00     0.067 C 
ATOM     13  H   LIG d   1       4.652   1.625  -3.861  0.00  0.00     0.060 H 
ATOM     14  C   LIG d   1       3.349  -0.079  -4.014  0.00  0.00     0.052 C 
ATOM     15  H   LIG d   1       6.000  -0.530  -7.786  0.00  0.00     0.027 H 
ATOM     16  H   LIG d   1       4.913  -1.862  -7.339  0.00  0.00     0.027 H 
ATOM     17  H   LIG d   1       5.533   0.569  -5.596  0.00  0.00     0.027 H 
ATOM     18  H   LIG d   1       4.090   0.313  -6.595  0.00  0.00     0.027 H 
ATOM     19  H   LIG d   1       6.934  -1.041  -2.666  0.00  0.00     0.027 H 
ATOM     20  H   LIG d   1       6.619   0.125  -3.972  0.00  0.00     0.027 H 
ATOM     21  H   LIG d   1       4.771  -0.450  -1.620  0.00  0.00     0.029 H 
ATOM     22  H   LIG d   1       5.821   0.955  -1.825  0.00  0.00     0.029 H 
ENDROOT
BRANCH   8  23
ATOM     23  C   LIG d   1       7.479  -3.008  -4.164  0.00  0.00    -0.046 C 
ATOM     24  H   LIG d   1       8.346  -2.374  -4.349  0.00  0.00     0.027 H 
ATOM     25  H   LIG d   1       7.245  -3.002  -3.099  0.00  0.00     0.027 H 
BRANCH  23  26
ATOM     26  C   LIG d   1       7.789  -4.439  -4.609  0.00  0.00    -0.031 C 
ATOM     27  H   LIG d   1       7.571  -5.129  -3.795  0.00  0.00     0.031 H 
ATOM     28  H   LIG d   1       7.175  -4.691  -5.474  0.00  0.00     0.031 H 
BRANCH  26  29
ATOM     29  C   LIG d   1       9.247  -4.544  -4.981  0.00  0.00    -0.071 C 
ATOM     30  C   LIG d   1      10.120  -5.053  -4.113  0.00  0.00    -0.040 C 
ATOM     31  H   LIG d   1      11.133  -5.260  -4.425  0.00  0.00     0.064 H 
BRANCH  30  32
ATOM     32  C   LIG d   1       9.706  -5.327  -2.732  0.00  0.00     0.065 C 
ATOM     33  O   LIG d   1       9.340  -6.451  -2.415  0.00  0.00    -0.545 OA
ATOM     34  O   LIG d   1       9.729  -4.433  -1.897  0.00  0.00    -0.545 OA
ENDBRANCH  30  32
BRANCH  29  35
ATOM     35  C   LIG d   1       9.715  -4.076  -6.335  0.00  0.00    -0.043 C 
ATOM     36  H   LIG d   1      10.622  -3.483  -6.219  0.00  0.00     0.027 H 
ATOM     37  H   LIG d   1       9.923  -4.939  -6.966  0.00  0.00     0.027 H 
ATOM     38  H   LIG d   1       8.939  -3.465  -6.797  0.00  0.00     0.027 H 
ENDBRANCH  29  35
ENDBRANCH  26  29
ENDBRANCH  23  26
ENDBRANCH   8  23
BRANCH   1  39
ATOM     39  C   LIG d   1       7.911  -0.846  -5.975  0.00  0.00    -0.062 C 
ATOM     40  H   LIG d   1       8.817  -1.246  -6.431  0.00  0.00     0.023 H 
ATOM     41  H   LIG d   1       7.681   0.124  -6.417  0.00  0.00     0.023 H 
ATOM     42  H   LIG d   1       8.064  -0.730  -4.903  0.00  0.00     0.023 H 
ENDBRANCH   1  39
BRANCH   7  43
ATOM     43  C   LIG d   1       4.809  -2.656  -3.034  0.00  0.00    -0.059 C 
ATOM     44  H   LIG d   1       3.872  -3.064  -3.411  0.00  0.00     0.024 H 
ATOM     45  H   LIG d   1       5.527  -3.464  -2.890  0.00  0.00     0.024 H 
ATOM     46  H   LIG d   1       4.630  -2.156  -2.081  0.00  0.00     0.024 H 
ENDBRANCH   7  43
BRANCH  14  47
ATOM     47  C   LIG d   1       2.398  -0.860  -3.103  0.00  0.00    -0.050 C 
ATOM     48  H   LIG d   1       2.350  -1.899  -3.431  0.00  0.00     0.024 H 
ATOM     49  H   LIG d   1       2.763  -0.821  -2.076  0.00  0.00     0.024 H 
ATOM     50  H   LIG d   1       1.403  -0.418  -3.152  0.00  0.00     0.024 H 
ENDBRANCH  14  47
BRANCH  14  51
ATOM     51  C   LIG d   1       2.446   0.736  -4.930  0.00  0.00     0.129 C 
ATOM     52  O   LIG d   1       2.522   1.941  -4.934  0.00  0.00    -0.300 OA
ATOM     53  H   LIG d   1       1.739   0.237  -5.575  0.00  0.00     0.103 H 
ENDBRANCH  14  51
BRANCH  12  54
ATOM     54  O   LIG d   1       3.287   1.638  -2.318  0.00  0.00    -0.391 OA
ATOM     55  H   LIG d   1       3.540   2.560  -2.182  0.00  0.00     0.210 HD
ENDBRANCH  12  54
TORSDOF 10
ENDMDL
MODEL 5
REMARK VINA RESULT:      -5.0      1.575      2.048
REMARK  10 active torsions:
REMARK  status: ('A' for Active; 'I' for Inactive)
REMARK    1  A    between atoms: C_1  and  C_2 
REMARK    2  A    between atoms: C_8  and  C_28 
REMARK    3  A    between atoms: C_9  and  C_11 
REMARK    4  A    between atoms: C_11  and  C_12 
REMARK    5  A    between atoms: C_12  and  C_13 
REMARK    6  A    between atoms: C_13  and  C_18 
REMARK    7  A    between atoms: C_14  and  C_15 
REMARK    8  A    between atoms: C_21  and  O_27 
REMARK    9  A    between atoms: C_23  and  C_24 
REMARK   10  A    between atoms: C_23  and  C_25 
ROOT
ATOM      1  C   LIG d   1       4.067   1.362  -8.542  0.00  0.00    -0.041 C 
ATOM      2  H   LIG d   1       4.755   1.755  -7.761  0.00  0.00     0.030 H 
ATOM      3  C   LIG d   1       4.695   1.684  -9.891  0.00  0.00    -0.050 C 
ATOM      4  C   LIG d   1       3.954   0.958 -11.013  0.00  0.00    -0.049 C 
ATOM      5  C   LIG d   1       4.054  -0.561 -10.814  0.00  0.00    -0.021 C 
ATOM      6  H   LIG d   1       5.119  -0.821 -10.733  0.00  0.00     0.032 H 
ATOM      7  C   LIG d   1       3.368  -0.927  -9.500  0.00  0.00    -0.025 C 
ATOM      8  C   LIG d   1       3.943  -0.131  -8.331  0.00  0.00    -0.033 C 
ATOM      9  H   LIG d   1       4.968  -0.528  -8.155  0.00  0.00     0.031 H 
ATOM     10  C   LIG d   1       1.859  -0.746  -9.622  0.00  0.00    -0.045 C 
ATOM     11  C   LIG d   1       1.316  -1.596 -10.775  0.00  0.00    -0.025 C 
ATOM     12  C   LIG d   1       1.952  -1.142 -12.084  0.00  0.00     0.067 C 
ATOM     13  H   LIG d   1       1.683  -0.100 -12.275  0.00  0.00     0.060 H 
ATOM     14  C   LIG d   1       3.474  -1.265 -12.032  0.00  0.00     0.052 C 
ATOM     15  H   LIG d   1       4.652   2.761 -10.069  0.00  0.00     0.027 H 
ATOM     16  H   LIG d   1       5.743   1.371  -9.892  0.00  0.00     0.027 H 
ATOM     17  H   LIG d   1       2.908   1.255 -11.023  0.00  0.00     0.027 H 
ATOM     18  H   LIG d   1       4.424   1.275 -11.944  0.00  0.00     0.027 H 
ATOM     19  H   LIG d   1       1.351  -1.060  -8.709  0.00  0.00     0.027 H 
ATOM     20  H   LIG d   1       1.616   0.296  -9.830  0.00  0.00     0.027 H 
ATOM     21  H   LIG d   1       1.494  -2.650 -10.600  0.00  0.00     0.029 H 
ATOM     22  H   LIG d   1       0.231  -1.438 -10.838  0.00  0.00     0.029 H 
ENDROOT
BRANCH   8  23
ATOM     23  C   LIG d   1       3.151  -0.413  -7.049  0.00  0.00    -0.046 C 
ATOM     24  H   LIG d   1       2.286   0.248  -7.004  0.00  0.00     0.027 H 
ATOM     25  H   LIG d   1       2.815  -1.450  -7.051  0.00  0.00     0.027 H 
BRANCH  23  26
ATOM     26  C   LIG d   1       4.045  -0.169  -5.833  0.00  0.00    -0.031 C 
ATOM     27  H   LIG d   1       4.551   0.791  -5.940  0.00  0.00     0.031 H 
ATOM     28  H   LIG d   1       3.436  -0.159  -4.929  0.00  0.00     0.031 H 
BRANCH  26  29
ATOM     29  C   LIG d   1       5.072  -1.269  -5.735  0.00  0.00    -0.071 C 
ATOM     30  C   LIG d   1       6.363  -0.966  -5.613  0.00  0.00    -0.040 C 
ATOM     31  H   LIG d   1       7.082  -1.744  -5.401  0.00  0.00     0.064 H 
BRANCH  30  32
ATOM     32  C   LIG d   1       6.809   0.423  -5.769  0.00  0.00     0.065 C 
ATOM     33  O   LIG d   1       6.972   1.128  -4.782  0.00  0.00    -0.545 OA
ATOM     34  O   LIG d   1       7.019   0.876  -6.885  0.00  0.00    -0.545 OA
ENDBRANCH  30  32
BRANCH  29  35
ATOM     35  C   LIG d   1       4.636  -2.711  -5.775  0.00  0.00    -0.043 C 
ATOM     36  H   LIG d   1       5.476  -3.351  -5.505  0.00  0.00     0.027 H 
ATOM     37  H   LIG d   1       3.820  -2.864  -5.069  0.00  0.00     0.027 H 
ATOM     38  H   LIG d   1       4.298  -2.961  -6.781  0.00  0.00     0.027 H 
ENDBRANCH  29  35
ENDBRANCH  26  29
ENDBRANCH  23  26
ENDBRANCH   8  23
BRANCH   1  39
ATOM     39  C   LIG d   1       2.738   2.087  -8.362  0.00  0.00    -0.062 C 
ATOM     40  H   LIG d   1       2.364   2.406  -9.334  0.00  0.00     0.023 H 
ATOM     41  H   LIG d   1       2.016   1.412  -7.900  0.00  0.00     0.023 H 
ATOM     42  H   LIG d   1       2.883   2.958  -7.724  0.00  0.00     0.023 H 
ENDBRANCH   1  39
BRANCH   7  43
ATOM     43  C   LIG d   1       3.650  -2.400  -9.132  0.00  0.00    -0.059 C 
ATOM     44  H   LIG d   1       3.529  -2.535  -8.057  0.00  0.00     0.024 H 
ATOM     45  H   LIG d   1       2.950  -3.048  -9.661  0.00  0.00     0.024 H 
ATOM     46  H   LIG d   1       4.670  -2.658  -9.418  0.00  0.00     0.024 H 
ENDBRANCH   7  43
BRANCH  14  47
ATOM     47  C   LIG d   1       3.882  -2.739 -12.111  0.00  0.00    -0.050 C 
ATOM     48  H   LIG d   1       3.438  -3.194 -12.997  0.00  0.00     0.024 H 
ATOM     49  H   LIG d   1       4.968  -2.814 -12.171  0.00  0.00     0.024 H 
ATOM     50  H   LIG d   1       3.530  -3.261 -11.221  0.00  0.00     0.024 H 
ENDBRANCH  14  47
BRANCH  14  51
ATOM     51  C   LIG d   1       4.018  -0.632 -13.306  0.00  0.00     0.129 C 
ATOM     52  O   LIG d   1       3.882  -1.195 -14.365  0.00  0.00    -0.300 OA
ATOM     53  H   LIG d   1       4.525   0.321 -13.262  0.00  0.00     0.103 H 
ENDBRANCH  14  51
BRANCH  12  54
ATOM     54  O   LIG d   1       1.450  -1.946 -13.159  0.00  0.00    -0.391 OA
ATOM     55  H   LIG d   1       0.581  -1.674 -13.481  0.00  0.00     0.210 HD
ENDBRANCH  12  54
TORSDOF 10
ENDMDL
MODEL 6
REMARK VINA RESULT:      -5.0      4.755      6.926
REMARK  10 active torsions:
REMARK  status: ('A' for Active; 'I' for Inactive)
REMARK    1  A    between atoms: C_1  and  C_2 
REMARK    2  A    between atoms: C_8  and  C_28 
REMARK    3  A    between atoms: C_9  and  C_11 
REMARK    4  A    between atoms: C_11  and  C_12 
REMARK    5  A    between atoms: C_12  and  C_13 
REMARK    6  A    between atoms: C_13  and  C_18 
REMARK    7  A    between atoms: C_14  and  C_15 
REMARK    8  A    between atoms: C_21  and  O_27 
REMARK    9  A    between atoms: C_23  and  C_24 
REMARK   10  A    between atoms: C_23  and  C_25 
ROOT
ATOM      1  C   LIG d   1       5.836  -0.629  -6.002  0.00  0.00    -0.041 C 
ATOM      2  H   LIG d   1       4.741  -0.717  -5.824  0.00  0.00     0.030 H 
ATOM      3  C   LIG d   1       6.013   0.065  -7.346  0.00  0.00    -0.050 C 
ATOM      4  C   LIG d   1       7.474   0.461  -7.554  0.00  0.00    -0.049 C 
ATOM      5  C   LIG d   1       7.912   1.453  -6.467  0.00  0.00    -0.021 C 
ATOM      6  H   LIG d   1       7.208   2.297  -6.477  0.00  0.00     0.032 H 
ATOM      7  C   LIG d   1       7.814   0.761  -5.108  0.00  0.00    -0.025 C 
ATOM      8  C   LIG d   1       6.416   0.192  -4.873  0.00  0.00    -0.033 C 
ATOM      9  H   LIG d   1       5.744   1.066  -4.718  0.00  0.00     0.031 H 
ATOM     10  C   LIG d   1       8.892  -0.310  -4.979  0.00  0.00    -0.045 C 
ATOM     11  C   LIG d   1      10.279   0.310  -5.176  0.00  0.00    -0.025 C 
ATOM     12  C   LIG d   1      10.375   0.909  -6.575  0.00  0.00     0.067 C 
ATOM     13  H   LIG d   1      10.248   0.116  -7.317  0.00  0.00     0.060 H 
ATOM     14  C   LIG d   1       9.303   1.976  -6.795  0.00  0.00     0.052 C 
ATOM     15  H   LIG d   1       5.704  -0.606  -8.150  0.00  0.00     0.027 H 
ATOM     16  H   LIG d   1       5.390   0.963  -7.379  0.00  0.00     0.027 H 
ATOM     17  H   LIG d   1       8.110  -0.421  -7.518  0.00  0.00     0.027 H 
ATOM     18  H   LIG d   1       7.532   0.902  -8.549  0.00  0.00     0.027 H 
ATOM     19  H   LIG d   1       8.870  -0.770  -3.992  0.00  0.00     0.027 H 
ATOM     20  H   LIG d   1       8.757  -1.078  -5.740  0.00  0.00     0.027 H 
ATOM     21  H   LIG d   1      10.484   1.056  -4.418  0.00  0.00     0.029 H 
ATOM     22  H   LIG d   1      11.028  -0.487  -5.083  0.00  0.00     0.029 H 
ENDROOT
BRANCH   8  23
ATOM     23  C   LIG d   1       6.379  -0.612  -3.568  0.00  0.00    -0.046 C 
ATOM     24  H   LIG d   1       6.157  -1.655  -3.791  0.00  0.00     0.027 H 
ATOM     25  H   LIG d   1       7.347  -0.544  -3.072  0.00  0.00     0.027 H 
BRANCH  23  26
ATOM     26  C   LIG d   1       5.294  -0.044  -2.651  0.00  0.00    -0.031 C 
ATOM     27  H   LIG d   1       5.623  -0.110  -1.615  0.00  0.00     0.031 H 
ATOM     28  H   LIG d   1       5.110   1.000  -2.908  0.00  0.00     0.031 H 
BRANCH  26  29
ATOM     29  C   LIG d   1       4.023  -0.835  -2.826  0.00  0.00    -0.071 C 
ATOM     30  C   LIG d   1       3.016  -0.330  -3.537  0.00  0.00    -0.040 C 
ATOM     31  H   LIG d   1       2.165  -0.947  -3.783  0.00  0.00     0.064 H 
BRANCH  30  32
ATOM     32  C   LIG d   1       3.062   1.067  -3.984  0.00  0.00     0.065 C 
ATOM     33  O   LIG d   1       2.755   1.352  -5.134  0.00  0.00    -0.545 OA
ATOM     34  O   LIG d   1       3.406   1.947  -3.206  0.00  0.00    -0.545 OA
ENDBRANCH  30  32
BRANCH  29  35
ATOM     35  C   LIG d   1       3.892  -2.199  -2.198  0.00  0.00    -0.043 C 
ATOM     36  H   LIG d   1       2.840  -2.479  -2.156  0.00  0.00     0.027 H 
ATOM     37  H   LIG d   1       4.439  -2.928  -2.795  0.00  0.00     0.027 H 
ATOM     38  H   LIG d   1       4.301  -2.175  -1.188  0.00  0.00     0.027 H 
ENDBRANCH  29  35
ENDBRANCH  26  29
ENDBRANCH  23  26
ENDBRANCH   8  23
BRANCH   1  39
ATOM     39  C   LIG d   1       6.392  -2.048  -6.034  0.00  0.00    -0.062 C 
ATOM     40  H   LIG d   1       6.887  -2.266  -5.089  0.00  0.00     0.023 H 
ATOM     41  H   LIG d   1       5.575  -2.755  -6.186  0.00  0.00     0.023 H 
ATOM     42  H   LIG d   1       7.108  -2.140  -6.850  0.00  0.00     0.023 H 
ENDBRANCH   1  39
BRANCH   7  43
ATOM     43  C   LIG d   1       8.007   1.781  -3.964  0.00  0.00    -0.059 C 
ATOM     44  H   LIG d   1       7.469   1.440  -3.080  0.00  0.00     0.024 H 
ATOM     45  H   LIG d   1       9.068   1.871  -3.733  0.00  0.00     0.024 H 
ATOM     46  H   LIG d   1       7.619   2.752  -4.273  0.00  0.00     0.024 H 
ENDBRANCH   7  43
BRANCH  14  47
ATOM     47  C   LIG d   1       9.657   3.242  -6.010  0.00  0.00    -0.050 C 
ATOM     48  H   LIG d   1      10.474   3.765  -6.510  0.00  0.00     0.024 H 
ATOM     49  H   LIG d   1       8.786   3.895  -5.960  0.00  0.00     0.024 H 
ATOM     50  H   LIG d   1       9.966   2.969  -5.001  0.00  0.00     0.024 H 
ENDBRANCH  14  47
BRANCH  14  51
ATOM     51  C   LIG d   1       9.371   2.382  -8.261  0.00  0.00     0.129 C 
ATOM     52  O   LIG d   1      10.163   3.221  -8.618  0.00  0.00    -0.300 OA
ATOM     53  H   LIG d   1       8.711   1.922  -8.981  0.00  0.00     0.103 H 
ENDBRANCH  14  51
BRANCH  12  54
ATOM     54  O   LIG d   1      11.669   1.497  -6.752  0.00  0.00    -0.391 OA
ATOM     55  H   LIG d   1      12.401   0.880  -6.629  0.00  0.00     0.210 HD
ENDBRANCH  12  54
TORSDOF 10
ENDMDL
MODEL 7
REMARK VINA RESULT:      -4.8      9.712     11.431
REMARK  10 active torsions:
REMARK  status: ('A' for Active; 'I' for Inactive)
REMARK    1  A    between atoms: C_1  and  C_2 
REMARK    2  A    between atoms: C_8  and  C_28 
REMARK    3  A    between atoms: C_9  and  C_11 
REMARK    4  A    between atoms: C_11  and  C_12 
REMARK    5  A    between atoms: C_12  and  C_13 
REMARK    6  A    between atoms: C_13  and  C_18 
REMARK    7  A    between atoms: C_14  and  C_15 
REMARK    8  A    between atoms: C_21  and  O_27 
REMARK    9  A    between atoms: C_23  and  C_24 
REMARK   10  A    between atoms: C_23  and  C_25 
ROOT
ATOM      1  C   LIG d   1      10.073   4.971  -4.018  0.00  0.00    -0.041 C 
ATOM      2  H   LIG d   1       9.539   4.541  -3.142  0.00  0.00     0.030 H 
ATOM      3  C   LIG d   1       9.528   4.274  -5.257  0.00  0.00    -0.050 C 
ATOM      4  C   LIG d   1      10.013   4.978  -6.523  0.00  0.00    -0.049 C 
ATOM      5  C   LIG d   1       9.501   6.426  -6.551  0.00  0.00    -0.021 C 
ATOM      6  H   LIG d   1       8.408   6.399  -6.438  0.00  0.00     0.032 H 
ATOM      7  C   LIG d   1      10.090   7.174  -5.357  0.00  0.00    -0.025 C 
ATOM      8  C   LIG d   1       9.785   6.455  -4.044  0.00  0.00    -0.033 C 
ATOM      9  H   LIG d   1       8.694   6.585  -3.862  0.00  0.00     0.031 H 
ATOM     10  C   LIG d   1      11.587   7.389  -5.551  0.00  0.00    -0.045 C 
ATOM     11  C   LIG d   1      11.846   8.152  -6.854  0.00  0.00    -0.025 C 
ATOM     12  C   LIG d   1      11.330   7.335  -8.033  0.00  0.00     0.067 C 
ATOM     13  H   LIG d   1      11.873   6.387  -8.081  0.00  0.00     0.060 H 
ATOM     14  C   LIG d   1       9.836   7.051  -7.898  0.00  0.00     0.052 C 
ATOM     15  H   LIG d   1       9.863   3.235  -5.272  0.00  0.00     0.027 H 
ATOM     16  H   LIG d   1       8.435   4.290  -5.235  0.00  0.00     0.027 H 
ATOM     17  H   LIG d   1      11.100   4.977  -6.559  0.00  0.00     0.027 H 
ATOM     18  H   LIG d   1       9.627   4.398  -7.362  0.00  0.00     0.027 H 
ATOM     19  H   LIG d   1      12.008   7.973  -4.733  0.00  0.00     0.027 H 
ATOM     20  H   LIG d   1      12.103   6.431  -5.615  0.00  0.00     0.027 H 
ATOM     21  H   LIG d   1      11.388   9.133  -6.829  0.00  0.00     0.029 H 
ATOM     22  H   LIG d   1      12.931   8.284  -6.965  0.00  0.00     0.029 H 
ENDROOT
BRANCH   8  23
ATOM     23  C   LIG d   1      10.497   7.147  -2.877  0.00  0.00    -0.046 C 
ATOM     24  H   LIG d   1      11.500   6.736  -2.768  0.00  0.00     0.027 H 
ATOM     25  H   LIG d   1      10.563   8.217  -3.074  0.00  0.00     0.027 H 
BRANCH  23  26
ATOM     26  C   LIG d   1       9.707   6.914  -1.588  0.00  0.00    -0.031 C 
ATOM     27  H   LIG d   1       8.648   6.817  -1.823  0.00  0.00     0.031 H 
ATOM     28  H   LIG d   1      10.057   6.000  -1.107  0.00  0.00     0.031 H 
BRANCH  26  29
ATOM     29  C   LIG d   1       9.911   8.081  -0.656  0.00  0.00    -0.071 C 
ATOM     30  C   LIG d   1      10.749   7.973   0.374  0.00  0.00    -0.040 C 
ATOM     31  H   LIG d   1      11.004   8.846   0.957  0.00  0.00     0.064 H 
BRANCH  30  32
ATOM     32  C   LIG d   1      11.323   6.667   0.719  0.00  0.00     0.065 C 
ATOM     33  O   LIG d   1      10.660   5.855   1.350  0.00  0.00    -0.545 OA
ATOM     34  O   LIG d   1      12.464   6.390   0.374  0.00  0.00    -0.545 OA
ENDBRANCH  30  32
BRANCH  29  35
ATOM     35  C   LIG d   1       9.167   9.371  -0.890  0.00  0.00    -0.043 C 
ATOM     36  H   LIG d   1       9.882  10.175  -1.066  0.00  0.00     0.027 H 
ATOM     37  H   LIG d   1       8.519   9.265  -1.759  0.00  0.00     0.027 H 
ATOM     38  H   LIG d   1       8.564   9.608  -0.013  0.00  0.00     0.027 H 
ENDBRANCH  29  35
ENDBRANCH  26  29
ENDBRANCH  23  26
ENDBRANCH   8  23
BRANCH   1  39
ATOM     39  C   LIG d   1      11.554   4.671  -3.821  0.00  0.00    -0.062 C 
ATOM     40  H   LIG d   1      11.757   3.638  -4.104  0.00  0.00     0.023 H 
ATOM     41  H   LIG d   1      12.148   5.341  -4.444  0.00  0.00     0.023 H 
ATOM     42  H   LIG d   1      11.819   4.819  -2.774  0.00  0.00     0.023 H 
ENDBRANCH   1  39
BRANCH   7  43
ATOM     43  C   LIG d   1       9.420   8.556  -5.198  0.00  0.00    -0.059 C 
ATOM     44  H   LIG d   1       8.766   8.545  -4.326  0.00  0.00     0.024 H 
ATOM     45  H   LIG d   1      10.188   9.320  -5.067  0.00  0.00     0.024 H 
ATOM     46  H   LIG d   1       8.833   8.781  -6.088  0.00  0.00     0.024 H 
ENDBRANCH   7  43
BRANCH  14  47
ATOM     47  C   LIG d   1       9.033   8.327  -8.171  0.00  0.00    -0.050 C 
ATOM     48  H   LIG d   1       8.165   8.359  -7.511  0.00  0.00     0.024 H 
ATOM     49  H   LIG d   1       9.661   9.198  -7.986  0.00  0.00     0.024 H 
ATOM     50  H   LIG d   1       8.700   8.331  -9.209  0.00  0.00     0.024 H 
ENDBRANCH  14  47
BRANCH  14  51
ATOM     51  C   LIG d   1       9.459   6.094  -9.021  0.00  0.00     0.129 C 
ATOM     52  O   LIG d   1       9.189   6.525 -10.116  0.00  0.00    -0.300 OA
ATOM     53  H   LIG d   1       9.432   5.030  -8.838  0.00  0.00     0.103 H 
ENDBRANCH  14  51
BRANCH  12  54
ATOM     54  O   LIG d   1      11.565   8.056  -9.249  0.00  0.00    -0.391 OA
ATOM     55  H   LIG d   1      12.459   7.954  -9.600  0.00  0.00     0.210 HD
ENDBRANCH  12  54
TORSDOF 10
ENDMDL
MODEL 8
REMARK VINA RESULT:      -4.7     12.153     15.225
REMARK  10 active torsions:
REMARK  status: ('A' for Active; 'I' for Inactive)
REMARK    1  A    between atoms: C_1  and  C_2 
REMARK    2  A    between atoms: C_8  and  C_28 
REMARK    3  A    between atoms: C_9  and  C_11 
REMARK    4  A    between atoms: C_11  and  C_12 
REMARK    5  A    between atoms: C_12  and  C_13 
REMARK    6  A    between atoms: C_13  and  C_18 
REMARK    7  A    between atoms: C_14  and  C_15 
REMARK    8  A    between atoms: C_21  and  O_27 
REMARK    9  A    between atoms: C_23  and  C_24 
REMARK   10  A    between atoms: C_23  and  C_25 
ROOT
ATOM      1  C   LIG d   1       9.347  10.437  -2.019  0.00  0.00    -0.041 C 
ATOM      2  H   LIG d   1       8.442  10.896  -2.475  0.00  0.00     0.030 H 
ATOM      3  C   LIG d   1       8.883   9.661  -0.795  0.00  0.00    -0.050 C 
ATOM      4  C   LIG d   1      10.015   8.787  -0.255  0.00  0.00    -0.049 C 
ATOM      5  C   LIG d   1      10.438   7.759  -1.314  0.00  0.00    -0.021 C 
ATOM      6  H   LIG d   1       9.542   7.201  -1.619  0.00  0.00     0.032 H 
ATOM      7  C   LIG d   1      10.978   8.507  -2.531  0.00  0.00    -0.025 C 
ATOM      8  C   LIG d   1       9.965   9.523  -3.054  0.00  0.00    -0.033 C 
ATOM      9  H   LIG d   1       9.138   8.934  -3.513  0.00  0.00     0.031 H 
ATOM     10  C   LIG d   1      12.317   9.158  -2.203  0.00  0.00    -0.045 C 
ATOM     11  C   LIG d   1      13.317   8.100  -1.727  0.00  0.00    -0.025 C 
ATOM     12  C   LIG d   1      12.791   7.437  -0.458  0.00  0.00     0.067 C 
ATOM     13  H   LIG d   1      12.693   8.191   0.329  0.00  0.00     0.060 H 
ATOM     14  C   LIG d   1      11.431   6.784  -0.697  0.00  0.00     0.052 C 
ATOM     15  H   LIG d   1       8.564  10.357  -0.016  0.00  0.00     0.027 H 
ATOM     16  H   LIG d   1       8.036   9.023  -1.064  0.00  0.00     0.027 H 
ATOM     17  H   LIG d   1      10.869   9.405   0.014  0.00  0.00     0.027 H 
ATOM     18  H   LIG d   1       9.627   8.305   0.643  0.00  0.00     0.027 H 
ATOM     19  H   LIG d   1      12.741   9.646  -3.080  0.00  0.00     0.027 H 
ATOM     20  H   LIG d   1      12.198   9.890  -1.404  0.00  0.00     0.027 H 
ATOM     21  H   LIG d   1      13.505   7.365  -2.500  0.00  0.00     0.029 H 
ATOM     22  H   LIG d   1      14.265   8.602  -1.494  0.00  0.00     0.029 H 
ENDROOT
BRANCH   8  23
ATOM     23  C   LIG d   1      10.577  10.355  -4.187  0.00  0.00    -0.046 C 
ATOM     24  H   LIG d   1      11.058  11.239  -3.770  0.00  0.00     0.027 H 
ATOM     25  H   LIG d   1      11.316   9.755  -4.719  0.00  0.00     0.027 H 
BRANCH  23  26
ATOM     26  C   LIG d   1       9.474  10.783  -5.157  0.00  0.00    -0.031 C 
ATOM     27  H   LIG d   1       8.507  10.452  -4.778  0.00  0.00     0.031 H 
ATOM     28  H   LIG d   1       9.475  11.869  -5.253  0.00  0.00     0.031 H 
BRANCH  26  29
ATOM     29  C   LIG d   1       9.723  10.160  -6.507  0.00  0.00    -0.071 C 
ATOM     30  C   LIG d   1      10.071  10.926  -7.540  0.00  0.00    -0.040 C 
ATOM     31  H   LIG d   1      10.387  10.471  -8.468  0.00  0.00     0.064 H 
BRANCH  30  32
ATOM     32  C   LIG d   1      10.021  12.387  -7.419  0.00  0.00     0.065 C 
ATOM     33  O   LIG d   1       9.079  13.009  -7.892  0.00  0.00    -0.545 OA
ATOM     34  O   LIG d   1      10.921  12.984  -6.844  0.00  0.00    -0.545 OA
ENDBRANCH  30  32
BRANCH  29  35
ATOM     35  C   LIG d   1       9.581   8.670  -6.688  0.00  0.00    -0.043 C 
ATOM     36  H   LIG d   1      10.423   8.293  -7.269  0.00  0.00     0.027 H 
ATOM     37  H   LIG d   1       9.567   8.185  -5.712  0.00  0.00     0.027 H 
ATOM     38  H   LIG d   1       8.651   8.455  -7.215  0.00  0.00     0.027 H 
ENDBRANCH  29  35
ENDBRANCH  26  29
ENDBRANCH  23  26
ENDBRANCH   8  23
BRANCH   1  39
ATOM     39  C   LIG d   1      10.273  11.583  -1.629  0.00  0.00    -0.062 C 
ATOM     40  H   LIG d   1      10.247  12.350  -2.403  0.00  0.00     0.023 H 
ATOM     41  H   LIG d   1       9.942  12.012  -0.683  0.00  0.00     0.023 H 
ATOM     42  H   LIG d   1      11.291  11.208  -1.523  0.00  0.00     0.023 H 
ENDBRANCH   1  39
BRANCH   7  43
ATOM     43  C   LIG d   1      11.189   7.538  -3.715  0.00  0.00    -0.059 C 
ATOM     44  H   LIG d   1      11.744   8.044  -4.504  0.00  0.00     0.024 H 
ATOM     45  H   LIG d   1      11.751   6.667  -3.376  0.00  0.00     0.024 H 
ATOM     46  H   LIG d   1      10.221   7.217  -4.100  0.00  0.00     0.024 H 
ENDBRANCH   7  43
BRANCH  14  47
ATOM     47  C   LIG d   1      11.603   5.511  -1.532  0.00  0.00    -0.050 C 
ATOM     48  H   LIG d   1      12.474   4.958  -1.179  0.00  0.00     0.024 H 
ATOM     49  H   LIG d   1      10.714   4.888  -1.432  0.00  0.00     0.024 H 
ATOM     50  H   LIG d   1      11.743   5.780  -2.579  0.00  0.00     0.024 H 
ENDBRANCH  14  47
BRANCH  14  51
ATOM     51  C   LIG d   1      10.919   6.308   0.656  0.00  0.00     0.129 C 
ATOM     52  O   LIG d   1      11.592   6.468   1.645  0.00  0.00    -0.300 OA
ATOM     53  H   LIG d   1       9.954   5.829   0.730  0.00  0.00     0.103 H 
ENDBRANCH  14  51
BRANCH  12  54
ATOM     54  O   LIG d   1      13.723   6.441  -0.021  0.00  0.00    -0.391 OA
ATOM     55  H   LIG d   1      13.580   5.570  -0.414  0.00  0.00     0.210 HD
ENDBRANCH  12  54
TORSDOF 10
ENDMDL
MODEL 9
REMARK VINA RESULT:      -4.6     12.595     14.555
REMARK  10 active torsions:
REMARK  status: ('A' for Active; 'I' for Inactive)
REMARK    1  A    between atoms: C_1  and  C_2 
REMARK    2  A    between atoms: C_8  and  C_28 
REMARK    3  A    between atoms: C_9  and  C_11 
REMARK    4  A    between atoms: C_11  and  C_12 
REMARK    5  A    between atoms: C_12  and  C_13 
REMARK    6  A    between atoms: C_13  and  C_18 
REMARK    7  A    between atoms: C_14  and  C_15 
REMARK    8  A    between atoms: C_21  and  O_27 
REMARK    9  A    between atoms: C_23  and  C_24 
REMARK   10  A    between atoms: C_23  and  C_25 
ROOT
ATOM      1  C   LIG d   1      10.097   8.475  -4.587  0.00  0.00    -0.041 C 
ATOM      2  H   LIG d   1       9.531   7.648  -4.101  0.00  0.00     0.030 H 
ATOM      3  C   LIG d   1       9.329   8.859  -5.843  0.00  0.00    -0.050 C 
ATOM      4  C   LIG d   1       9.886  10.154  -6.435  0.00  0.00    -0.049 C 
ATOM      5  C   LIG d   1       9.725  11.304  -5.431  0.00  0.00    -0.021 C 
ATOM      6  H   LIG d   1       8.665  11.357  -5.146  0.00  0.00     0.032 H 
ATOM      7  C   LIG d   1      10.544  10.981  -4.183  0.00  0.00    -0.025 C 
ATOM      8  C   LIG d   1      10.161   9.621  -3.603  0.00  0.00    -0.033 C 
ATOM      9  H   LIG d   1       9.144   9.742  -3.166  0.00  0.00     0.031 H 
ATOM     10  C   LIG d   1      12.035  11.067  -4.491  0.00  0.00    -0.045 C 
ATOM     11  C   LIG d   1      12.385  12.459  -5.026  0.00  0.00    -0.025 C 
ATOM     12  C   LIG d   1      11.622  12.712  -6.321  0.00  0.00     0.067 C 
ATOM     13  H   LIG d   1      11.925  11.974  -7.070  0.00  0.00     0.060 H 
ATOM     14  C   LIG d   1      10.113  12.614  -6.103  0.00  0.00     0.052 C 
ATOM     15  H   LIG d   1       9.411   8.061  -6.584  0.00  0.00     0.027 H 
ATOM     16  H   LIG d   1       8.273   9.003  -5.599  0.00  0.00     0.027 H 
ATOM     17  H   LIG d   1      10.939  10.030  -6.680  0.00  0.00     0.027 H 
ATOM     18  H   LIG d   1       9.326  10.337  -7.352  0.00  0.00     0.027 H 
ATOM     19  H   LIG d   1      12.631  10.895  -3.594  0.00  0.00     0.027 H 
ATOM     20  H   LIG d   1      12.309  10.336  -5.252  0.00  0.00     0.027 H 
ATOM     21  H   LIG d   1      12.171  13.224  -4.291  0.00  0.00     0.029 H 
ATOM     22  H   LIG d   1      13.462  12.483  -5.242  0.00  0.00     0.029 H 
ENDROOT
BRANCH   8  23
ATOM     23  C   LIG d   1      11.086   9.258  -2.435  0.00  0.00    -0.046 C 
ATOM     24  H   LIG d   1      11.910   8.647  -2.802  0.00  0.00     0.027 H 
ATOM     25  H   LIG d   1      11.481  10.170  -1.988  0.00  0.00     0.027 H 
BRANCH  23  26
ATOM     26  C   LIG d   1      10.296   8.474  -1.385  0.00  0.00    -0.031 C 
ATOM     27  H   LIG d   1       9.230   8.550  -1.600  0.00  0.00     0.031 H 
ATOM     28  H   LIG d   1      10.597   7.427  -1.411  0.00  0.00     0.031 H 
BRANCH  26  29
ATOM     29  C   LIG d   1      10.575   9.044  -0.018  0.00  0.00    -0.071 C 
ATOM     30  C   LIG d   1      11.191   8.301   0.900  0.00  0.00    -0.040 C 
ATOM     31  H   LIG d   1      11.518   8.750   1.827  0.00  0.00     0.064 H 
BRANCH  30  32
ATOM     32  C   LIG d   1      11.422   6.874   0.654  0.00  0.00     0.065 C 
ATOM     33  O   LIG d   1      12.536   6.480   0.334  0.00  0.00    -0.545 OA
ATOM     34  O   LIG d   1      10.502   6.076   0.770  0.00  0.00    -0.545 OA
ENDBRANCH  30  32
BRANCH  29  35
ATOM     35  C   LIG d   1      10.159  10.455   0.309  0.00  0.00    -0.043 C 
ATOM     36  H   LIG d   1      10.835  10.868   1.058  0.00  0.00     0.027 H 
ATOM     37  H   LIG d   1      10.199  11.065  -0.593  0.00  0.00     0.027 H 
ATOM     38  H   LIG d   1       9.141  10.452   0.702  0.00  0.00     0.027 H 
ENDBRANCH  29  35
ENDBRANCH  26  29
ENDBRANCH  23  26
ENDBRANCH   8  23
BRANCH   1  39
ATOM     39  C   LIG d   1      11.476   7.923  -4.927  0.00  0.00    -0.062 C 
ATOM     40  H   LIG d   1      11.940   8.548  -5.690  0.00  0.00     0.023 H 
ATOM     41  H   LIG d   1      12.099   7.923  -4.031  0.00  0.00     0.023 H 
ATOM     42  H   LIG d   1      11.378   6.905  -5.302  0.00  0.00     0.023 H 
ENDBRANCH   1  39
BRANCH   7  43
ATOM     43  C   LIG d   1      10.226  11.981  -3.050  0.00  0.00    -0.059 C 
ATOM     44  H   LIG d   1      11.134  12.516  -2.773  0.00  0.00     0.024 H 
ATOM     45  H   LIG d   1       9.475  12.693  -3.394  0.00  0.00     0.024 H 
ATOM     46  H   LIG d   1       9.844  11.440  -2.184  0.00  0.00     0.024 H 
ENDBRANCH   7  43
BRANCH  14  47
ATOM     47  C   LIG d   1       9.615  13.841  -5.333  0.00  0.00    -0.050 C 
ATOM     48  H   LIG d   1      10.087  13.870  -4.350  0.00  0.00     0.024 H 
ATOM     49  H   LIG d   1       9.872  14.746  -5.884  0.00  0.00     0.024 H 
ATOM     50  H   LIG d   1       8.534  13.781  -5.214  0.00  0.00     0.024 H 
ENDBRANCH  14  47
BRANCH  14  51
ATOM     51  C   LIG d   1       9.455  12.708  -7.473  0.00  0.00     0.129 C 
ATOM     52  O   LIG d   1       9.170  13.788  -7.932  0.00  0.00    -0.300 OA
ATOM     53  H   LIG d   1       9.243  11.810  -8.034  0.00  0.00     0.103 H 
ENDBRANCH  14  51
BRANCH  12  54
ATOM     54  O   LIG d   1      11.943  14.018  -6.814  0.00  0.00    -0.391 OA
ATOM     55  H   LIG d   1      12.263  14.027  -7.725  0.00  0.00     0.210 HD
ENDBRANCH  12  54
TORSDOF 10
ENDMDL
