MODEL 1
REMARK VINA RESULT:      -6.7      0.000      0.000
REMARK  2 active torsions:
REMARK  status: ('A' for Active; 'I' for Inactive)
REMARK    1  A    between atoms: C_1  and  C_2 
REMARK    2  A    between atoms: C_10  and  O_23 
ROOT
ATOM      1  C   LIG d   1       3.981   0.111  -3.293  0.00  0.00     0.030 C 
ATOM      2  C   LIG d   1       3.204   1.080  -4.153  0.00  0.00    -0.040 C 
ATOM      3  C   LIG d   1       2.716   0.422  -5.446  0.00  0.00    -0.045 C 
ATOM      4  C   LIG d   1       3.939  -0.101  -6.203  0.00  0.00    -0.009 C 
ATOM      5  H   LIG d   1       4.640   0.717  -6.371  0.00  0.00     0.035 H 
ATOM      6  C   LIG d   1       3.526  -0.687  -7.527  0.00  0.00    -0.036 A 
ATOM      7  C   LIG d   1       2.373  -0.275  -8.159  0.00  0.00    -0.054 A 
ATOM      8  C   LIG d   1       2.012  -0.837  -9.370  0.00  0.00    -0.020 A 
ATOM      9  C   LIG d   1       2.804  -1.816  -9.954  0.00  0.00     0.117 A 
ATOM     10  C   LIG d   1       3.967  -2.234  -9.327  0.00  0.00    -0.013 A 
ATOM     11  C   LIG d   1       4.334  -1.665  -8.111  0.00  0.00    -0.018 A 
ATOM     12  C   LIG d   1       5.582  -2.070  -7.428  0.00  0.00    -0.058 C 
ATOM     13  C   LIG d   1       5.710  -1.846  -6.124  0.00  0.00    -0.080 C 
ATOM     14  C   LIG d   1       4.602  -1.183  -5.357  0.00  0.00    -0.012 C 
ATOM     15  H   LIG d   1       3.855  -1.936  -5.106  0.00  0.00     0.035 H 
ATOM     16  C   LIG d   1       5.129  -0.593  -4.050  0.00  0.00    -0.022 C 
ATOM     17  H   LIG d   1       5.996   0.052  -4.195  0.00  0.00     0.032 H 
ATOM     18  C   LIG d   1       5.424  -1.791  -3.101  0.00  0.00    -0.042 C 
ATOM     19  C   LIG d   1       4.023  -2.220  -2.612  0.00  0.00     0.007 C 
ATOM     20  C   LIG d   1       3.122  -1.006  -2.752  0.00  0.00     0.140 C 
ATOM     21  O   LIG d   1       1.946  -0.947  -2.482  0.00  0.00    -0.297 OA
ATOM     22  H   LIG d   1       2.342   1.444  -3.592  0.00  0.00     0.028 H 
ATOM     23  H   LIG d   1       3.846   1.924  -4.406  0.00  0.00     0.028 H 
ATOM     24  H   LIG d   1       2.049  -0.406  -5.207  0.00  0.00     0.027 H 
ATOM     25  H   LIG d   1       2.190   1.156  -6.056  0.00  0.00     0.027 H 
ATOM     26  H   LIG d   1       1.752   0.486  -7.710  0.00  0.00     0.062 H 
ATOM     27  H   LIG d   1       1.108  -0.512  -9.865  0.00  0.00     0.065 H 
ATOM     28  H   LIG d   1       4.584  -2.995  -9.780  0.00  0.00     0.066 H 
ATOM     29  H   LIG d   1       6.379  -2.544  -7.981  0.00  0.00     0.062 H 
ATOM     30  H   LIG d   1       6.617  -2.140  -5.615  0.00  0.00     0.058 H 
ATOM     31  H   LIG d   1       6.043  -1.474  -2.262  0.00  0.00     0.027 H 
ATOM     32  H   LIG d   1       5.905  -2.604  -3.645  0.00  0.00     0.027 H 
ATOM     33  H   LIG d   1       3.693  -2.980  -3.171  0.00  0.00     0.034 H 
ATOM     34  H   LIG d   1       4.071  -2.530  -1.568  0.00  0.00     0.034 H 
ENDROOT
BRANCH   1  35
ATOM     35  C   LIG d   1       4.586   0.876  -2.114  0.00  0.00    -0.053 C 
ATOM     36  H   LIG d   1       5.335   1.578  -2.482  0.00  0.00     0.024 H 
ATOM     37  H   LIG d   1       3.799   1.424  -1.595  0.00  0.00     0.024 H 
ATOM     38  H   LIG d   1       5.054   0.172  -1.425  0.00  0.00     0.024 H 
ENDBRANCH   1  35
BRANCH   9  39
ATOM     39  O   LIG d   1       2.439  -2.366 -11.142  0.00  0.00    -0.507 OA
ATOM     40  H   LIG d   1       1.553  -2.110 -11.438  0.00  0.00     0.292 HD
ENDBRANCH   9  39
TORSDOF 2
ENDMDL
MODEL 2
REMARK VINA RESULT:      -6.6      2.889      4.010
REMARK  2 active torsions:
REMARK  status: ('A' for Active; 'I' for Inactive)
REMARK    1  A    between atoms: C_1  and  C_2 
REMARK    2  A    between atoms: C_10  and  O_23 
ROOT
ATOM      1  C   LIG d   1       4.740  -0.993  -2.897  0.00  0.00     0.030 C 
ATOM      2  C   LIG d   1       6.230  -1.178  -3.064  0.00  0.00    -0.040 C 
ATOM      3  C   LIG d   1       6.797  -0.255  -4.146  0.00  0.00    -0.045 C 
ATOM      4  C   LIG d   1       6.071  -0.561  -5.459  0.00  0.00    -0.009 C 
ATOM      5  H   LIG d   1       6.176  -1.621  -5.694  0.00  0.00     0.035 H 
ATOM      6  C   LIG d   1       6.646   0.261  -6.580  0.00  0.00    -0.036 A 
ATOM      7  C   LIG d   1       7.943   0.724  -6.532  0.00  0.00    -0.054 A 
ATOM      8  C   LIG d   1       8.443   1.486  -7.572  0.00  0.00    -0.020 A 
ATOM      9  C   LIG d   1       7.645   1.790  -8.666  0.00  0.00     0.117 A 
ATOM     10  C   LIG d   1       6.341   1.325  -8.726  0.00  0.00    -0.013 A 
ATOM     11  C   LIG d   1       5.839   0.553  -7.682  0.00  0.00    -0.018 A 
ATOM     12  C   LIG d   1       4.459   0.021  -7.725  0.00  0.00    -0.058 C 
ATOM     13  C   LIG d   1       3.868  -0.342  -6.591  0.00  0.00    -0.080 C 
ATOM     14  C   LIG d   1       4.595  -0.216  -5.284  0.00  0.00    -0.012 C 
ATOM     15  H   LIG d   1       4.517   0.815  -4.940  0.00  0.00     0.035 H 
ATOM     16  C   LIG d   1       3.958  -1.112  -4.224  0.00  0.00    -0.022 C 
ATOM     17  H   LIG d   1       3.844  -2.145  -4.554  0.00  0.00     0.032 H 
ATOM     18  C   LIG d   1       2.602  -0.454  -3.833  0.00  0.00    -0.042 C 
ATOM     19  C   LIG d   1       3.020   0.720  -2.920  0.00  0.00     0.007 C 
ATOM     20  C   LIG d   1       4.379   0.366  -2.347  0.00  0.00     0.140 C 
ATOM     21  O   LIG d   1       5.043   1.040  -1.596  0.00  0.00    -0.297 OA
ATOM     22  H   LIG d   1       6.725  -0.961  -2.117  0.00  0.00     0.028 H 
ATOM     23  H   LIG d   1       6.431  -2.213  -3.341  0.00  0.00     0.028 H 
ATOM     24  H   LIG d   1       6.629   0.785  -3.866  0.00  0.00     0.027 H 
ATOM     25  H   LIG d   1       7.865  -0.438  -4.262  0.00  0.00     0.027 H 
ATOM     26  H   LIG d   1       8.568   0.493  -5.682  0.00  0.00     0.062 H 
ATOM     27  H   LIG d   1       9.460   1.847  -7.533  0.00  0.00     0.065 H 
ATOM     28  H   LIG d   1       5.719   1.560  -9.577  0.00  0.00     0.066 H 
ATOM     29  H   LIG d   1       3.938  -0.071  -8.666  0.00  0.00     0.062 H 
ATOM     30  H   LIG d   1       2.859  -0.730  -6.612  0.00  0.00     0.058 H 
ATOM     31  H   LIG d   1       1.975  -1.160  -3.288  0.00  0.00     0.027 H 
ATOM     32  H   LIG d   1       2.084  -0.086  -4.718  0.00  0.00     0.027 H 
ATOM     33  H   LIG d   1       3.064   1.561  -3.459  0.00  0.00     0.034 H 
ATOM     34  H   LIG d   1       2.295   0.842  -2.115  0.00  0.00     0.034 H 
ENDROOT
BRANCH   1  35
ATOM     35  C   LIG d   1       4.217  -2.064  -1.937  0.00  0.00    -0.053 C 
ATOM     36  H   LIG d   1       3.549  -2.738  -2.473  0.00  0.00     0.024 H 
ATOM     37  H   LIG d   1       5.056  -2.630  -1.532  0.00  0.00     0.024 H 
ATOM     38  H   LIG d   1       3.673  -1.586  -1.121  0.00  0.00     0.024 H 
ENDBRANCH   1  35
BRANCH   9  39
ATOM     39  O   LIG d   1       8.144   2.543  -9.682  0.00  0.00    -0.507 OA
ATOM     40  H   LIG d   1       7.500   3.150 -10.074  0.00  0.00     0.292 HD
ENDBRANCH   9  39
TORSDOF 2
ENDMDL
MODEL 3
REMARK VINA RESULT:      -6.6      1.918      3.124
REMARK  2 active torsions:
REMARK  status: ('A' for Active; 'I' for Inactive)
REMARK    1  A    between atoms: C_1  and  C_2 
REMARK    2  A    between atoms: C_10  and  O_23 
ROOT
ATOM      1  C   LIG d   1       4.392  -1.632  -3.311  0.00  0.00     0.030 C 
ATOM      2  C   LIG d   1       4.800  -2.673  -4.327  0.00  0.00    -0.040 C 
ATOM      3  C   LIG d   1       5.161  -2.040  -5.672  0.00  0.00    -0.045 C 
ATOM      4  C   LIG d   1       3.943  -1.258  -6.171  0.00  0.00    -0.009 C 
ATOM      5  H   LIG d   1       3.080  -1.923  -6.222  0.00  0.00     0.035 H 
ATOM      6  C   LIG d   1       4.212  -0.680  -7.534  0.00  0.00    -0.036 A 
ATOM      7  C   LIG d   1       5.131  -1.256  -8.384  0.00  0.00    -0.054 A 
ATOM      8  C   LIG d   1       5.366  -0.698  -9.627  0.00  0.00    -0.020 A 
ATOM      9  C   LIG d   1       4.682   0.442 -10.026  0.00  0.00     0.117 A 
ATOM     10  C   LIG d   1       3.753   1.026  -9.180  0.00  0.00    -0.013 A 
ATOM     11  C   LIG d   1       3.512   0.462  -7.931  0.00  0.00    -0.018 A 
ATOM     12  C   LIG d   1       2.510   1.047  -7.013  0.00  0.00    -0.058 C 
ATOM     13  C   LIG d   1       2.580   0.772  -5.714  0.00  0.00    -0.080 C 
ATOM     14  C   LIG d   1       3.663  -0.125  -5.188  0.00  0.00    -0.012 C 
ATOM     15  H   LIG d   1       4.573   0.462  -5.066  0.00  0.00     0.035 H 
ATOM     16  C   LIG d   1       3.280  -0.687  -3.820  0.00  0.00    -0.022 C 
ATOM     17  H   LIG d   1       2.295  -1.154  -3.813  0.00  0.00     0.032 H 
ATOM     18  C   LIG d   1       3.396   0.486  -2.803  0.00  0.00    -0.042 C 
ATOM     19  C   LIG d   1       4.918   0.622  -2.578  0.00  0.00     0.007 C 
ATOM     20  C   LIG d   1       5.531  -0.724  -2.916  0.00  0.00     0.140 C 
ATOM     21  O   LIG d   1       6.703  -1.013  -2.876  0.00  0.00    -0.297 OA
ATOM     22  H   LIG d   1       5.665  -3.220  -3.949  0.00  0.00     0.028 H 
ATOM     23  H   LIG d   1       3.975  -3.370  -4.474  0.00  0.00     0.028 H 
ATOM     24  H   LIG d   1       6.006  -1.362  -5.545  0.00  0.00     0.027 H 
ATOM     25  H   LIG d   1       5.419  -2.819  -6.389  0.00  0.00     0.027 H 
ATOM     26  H   LIG d   1       5.668  -2.142  -8.079  0.00  0.00     0.062 H 
ATOM     27  H   LIG d   1       6.086  -1.152 -10.293  0.00  0.00     0.065 H 
ATOM     28  H   LIG d   1       3.220   1.913  -9.488  0.00  0.00     0.066 H 
ATOM     29  H   LIG d   1       1.730   1.690  -7.393  0.00  0.00     0.062 H 
ATOM     30  H   LIG d   1       1.854   1.195  -5.035  0.00  0.00     0.058 H 
ATOM     31  H   LIG d   1       2.891   0.237  -1.870  0.00  0.00     0.027 H 
ATOM     32  H   LIG d   1       2.987   1.404  -3.226  0.00  0.00     0.027 H 
ATOM     33  H   LIG d   1       5.279   1.342  -3.171  0.00  0.00     0.034 H 
ATOM     34  H   LIG d   1       5.120   0.874  -1.537  0.00  0.00     0.034 H 
ENDROOT
BRANCH   1  35
ATOM     35  C   LIG d   1       3.876  -2.343  -2.058  0.00  0.00    -0.053 C 
ATOM     36  H   LIG d   1       4.176  -1.782  -1.173  0.00  0.00     0.024 H 
ATOM     37  H   LIG d   1       2.789  -2.405  -2.098  0.00  0.00     0.024 H 
ATOM     38  H   LIG d   1       4.297  -3.348  -2.012  0.00  0.00     0.024 H 
ENDBRANCH   1  35
BRANCH   9  39
ATOM     39  O   LIG d   1       4.923   0.986 -11.248  0.00  0.00    -0.507 OA
ATOM     40  H   LIG d   1       5.504   0.452 -11.808  0.00  0.00     0.292 HD
ENDBRANCH   9  39
TORSDOF 2
ENDMDL
MODEL 4
REMARK VINA RESULT:      -6.5      3.068      3.430
REMARK  2 active torsions:
REMARK  status: ('A' for Active; 'I' for Inactive)
REMARK    1  A    between atoms: C_1  and  C_2 
REMARK    2  A    between atoms: C_10  and  O_23 
ROOT
ATOM      1  C   LIG d   1       4.792   0.192  -2.825  0.00  0.00     0.030 C 
ATOM      2  C   LIG d   1       6.024   0.811  -3.442  0.00  0.00    -0.040 C 
ATOM      3  C   LIG d   1       6.301   0.248  -4.838  0.00  0.00    -0.045 C 
ATOM      4  C   LIG d   1       6.472  -1.268  -4.713  0.00  0.00    -0.009 C 
ATOM      5  H   LIG d   1       7.260  -1.487  -3.992  0.00  0.00     0.035 H 
ATOM      6  C   LIG d   1       6.830  -1.868  -6.046  0.00  0.00    -0.036 A 
ATOM      7  C   LIG d   1       7.460  -1.121  -7.017  0.00  0.00    -0.054 A 
ATOM      8  C   LIG d   1       7.769  -1.695  -8.237  0.00  0.00    -0.020 A 
ATOM      9  C   LIG d   1       7.446  -3.020  -8.491  0.00  0.00     0.117 A 
ATOM     10  C   LIG d   1       6.815  -3.781  -7.519  0.00  0.00    -0.013 A 
ATOM     11  C   LIG d   1       6.510  -3.206  -6.289  0.00  0.00    -0.018 A 
ATOM     12  C   LIG d   1       5.858  -3.996  -5.221  0.00  0.00    -0.058 C 
ATOM     13  C   LIG d   1       5.214  -3.363  -4.246  0.00  0.00    -0.080 C 
ATOM     14  C   LIG d   1       5.152  -1.862  -4.229  0.00  0.00    -0.012 C 
ATOM     15  H   LIG d   1       4.358  -1.539  -4.901  0.00  0.00     0.035 H 
ATOM     16  C   LIG d   1       4.818  -1.353  -2.829  0.00  0.00    -0.022 C 
ATOM     17  H   LIG d   1       5.472  -1.764  -2.059  0.00  0.00     0.032 H 
ATOM     18  C   LIG d   1       3.316  -1.678  -2.578  0.00  0.00    -0.042 C 
ATOM     19  C   LIG d   1       2.570  -0.603  -3.398  0.00  0.00     0.007 C 
ATOM     20  C   LIG d   1       3.524   0.567  -3.554  0.00  0.00     0.140 C 
ATOM     21  O   LIG d   1       3.309   1.597  -4.146  0.00  0.00    -0.297 OA
ATOM     22  H   LIG d   1       5.883   1.890  -3.516  0.00  0.00     0.028 H 
ATOM     23  H   LIG d   1       6.883   0.608  -2.802  0.00  0.00     0.028 H 
ATOM     24  H   LIG d   1       5.462   0.471  -5.497  0.00  0.00     0.027 H 
ATOM     25  H   LIG d   1       7.213   0.691  -5.238  0.00  0.00     0.027 H 
ATOM     26  H   LIG d   1       7.714  -0.089  -6.826  0.00  0.00     0.062 H 
ATOM     27  H   LIG d   1       8.265  -1.108  -8.997  0.00  0.00     0.065 H 
ATOM     28  H   LIG d   1       6.564  -4.813  -7.715  0.00  0.00     0.066 H 
ATOM     29  H   LIG d   1       5.906  -5.074  -5.234  0.00  0.00     0.062 H 
ATOM     30  H   LIG d   1       4.733  -3.931  -3.463  0.00  0.00     0.058 H 
ATOM     31  H   LIG d   1       3.075  -1.589  -1.518  0.00  0.00     0.027 H 
ATOM     32  H   LIG d   1       3.073  -2.676  -2.942  0.00  0.00     0.027 H 
ATOM     33  H   LIG d   1       2.315  -0.981  -4.288  0.00  0.00     0.034 H 
ATOM     34  H   LIG d   1       1.673  -0.285  -2.867  0.00  0.00     0.034 H 
ENDROOT
BRANCH   1  35
ATOM     35  C   LIG d   1       4.679   0.664  -1.374  0.00  0.00    -0.053 C 
ATOM     36  H   LIG d   1       5.661   0.631  -0.903  0.00  0.00     0.024 H 
ATOM     37  H   LIG d   1       4.300   1.686  -1.354  0.00  0.00     0.024 H 
ATOM     38  H   LIG d   1       3.993   0.011  -0.832  0.00  0.00     0.024 H 
ENDBRANCH   1  35
BRANCH   9  39
ATOM     39  O   LIG d   1       7.750  -3.575  -9.695  0.00  0.00    -0.507 OA
ATOM     40  H   LIG d   1       6.983  -3.711 -10.269  0.00  0.00     0.292 HD
ENDBRANCH   9  39
TORSDOF 2
ENDMDL
MODEL 5
REMARK VINA RESULT:      -6.5      2.077      5.980
REMARK  2 active torsions:
REMARK  status: ('A' for Active; 'I' for Inactive)
REMARK    1  A    between atoms: C_1  and  C_2 
REMARK    2  A    between atoms: C_10  and  O_23 
ROOT
ATOM      1  C   LIG d   1       3.615  -0.089  -9.213  0.00  0.00     0.030 C 
ATOM      2  C   LIG d   1       2.402  -0.240  -8.326  0.00  0.00    -0.040 C 
ATOM      3  C   LIG d   1       2.665   0.283  -6.912  0.00  0.00    -0.045 C 
ATOM      4  C   LIG d   1       3.850  -0.495  -6.332  0.00  0.00    -0.009 C 
ATOM      5  H   LIG d   1       3.635  -1.563  -6.367  0.00  0.00     0.035 H 
ATOM      6  C   LIG d   1       4.103  -0.079  -4.908  0.00  0.00    -0.036 A 
ATOM      7  C   LIG d   1       3.094   0.440  -4.127  0.00  0.00    -0.054 A 
ATOM      8  C   LIG d   1       3.356   0.823  -2.824  0.00  0.00    -0.020 A 
ATOM      9  C   LIG d   1       4.633   0.688  -2.297  0.00  0.00     0.117 A 
ATOM     10  C   LIG d   1       5.654   0.163  -3.073  0.00  0.00    -0.013 A 
ATOM     11  C   LIG d   1       5.389  -0.228  -4.382  0.00  0.00    -0.018 A 
ATOM     12  C   LIG d   1       6.450  -0.815  -5.231  0.00  0.00    -0.058 C 
ATOM     13  C   LIG d   1       6.309  -0.797  -6.552  0.00  0.00    -0.080 C 
ATOM     14  C   LIG d   1       5.084  -0.190  -7.175  0.00  0.00    -0.012 C 
ATOM     15  H   LIG d   1       5.217   0.891  -7.220  0.00  0.00     0.035 H 
ATOM     16  C   LIG d   1       4.897  -0.699  -8.603  0.00  0.00    -0.022 C 
ATOM     17  H   LIG d   1       4.919  -1.787  -8.672  0.00  0.00     0.032 H 
ATOM     18  C   LIG d   1       5.996  -0.019  -9.471  0.00  0.00    -0.042 C 
ATOM     19  C   LIG d   1       5.465   1.418  -9.668  0.00  0.00     0.007 C 
ATOM     20  C   LIG d   1       3.959   1.355  -9.489  0.00  0.00     0.140 C 
ATOM     21  O   LIG d   1       3.187   2.281  -9.556  0.00  0.00    -0.297 OA
ATOM     22  H   LIG d   1       1.570   0.316  -8.761  0.00  0.00     0.028 H 
ATOM     23  H   LIG d   1       2.133  -1.295  -8.269  0.00  0.00     0.028 H 
ATOM     24  H   LIG d   1       2.907   1.345  -6.953  0.00  0.00     0.027 H 
ATOM     25  H   LIG d   1       1.782   0.128  -6.293  0.00  0.00     0.027 H 
ATOM     26  H   LIG d   1       2.098   0.549  -4.532  0.00  0.00     0.062 H 
ATOM     27  H   LIG d   1       2.563   1.229  -2.213  0.00  0.00     0.065 H 
ATOM     28  H   LIG d   1       6.648   0.056  -2.664  0.00  0.00     0.066 H 
ATOM     29  H   LIG d   1       7.328  -1.254  -4.781  0.00  0.00     0.062 H 
ATOM     30  H   LIG d   1       7.079  -1.221  -7.180  0.00  0.00     0.058 H 
ATOM     31  H   LIG d   1       6.096  -0.527 -10.431  0.00  0.00     0.027 H 
ATOM     32  H   LIG d   1       6.950  -0.007  -8.945  0.00  0.00     0.027 H 
ATOM     33  H   LIG d   1       5.884   2.023  -8.991  0.00  0.00     0.034 H 
ATOM     34  H   LIG d   1       5.708   1.770 -10.670  0.00  0.00     0.034 H 
ENDROOT
BRANCH   1  35
ATOM     35  C   LIG d   1       3.342  -0.789 -10.545  0.00  0.00    -0.053 C 
ATOM     36  H   LIG d   1       2.296  -1.095 -10.588  0.00  0.00     0.024 H 
ATOM     37  H   LIG d   1       3.553  -0.103 -11.366  0.00  0.00     0.024 H 
ATOM     38  H   LIG d   1       3.981  -1.668 -10.632  0.00  0.00     0.024 H 
ENDBRANCH   1  35
BRANCH   9  39
ATOM     39  O   LIG d   1       4.883   1.071  -1.017  0.00  0.00    -0.507 OA
ATOM     40  H   LIG d   1       5.387   1.893  -0.944  0.00  0.00     0.292 HD
ENDBRANCH   9  39
TORSDOF 2
ENDMDL
MODEL 6
REMARK VINA RESULT:      -6.0      3.083      6.126
REMARK  2 active torsions:
REMARK  status: ('A' for Active; 'I' for Inactive)
REMARK    1  A    between atoms: C_1  and  C_2 
REMARK    2  A    between atoms: C_10  and  O_23 
ROOT
ATOM      1  C   LIG d   1       6.398  -4.934  -6.233  0.00  0.00     0.030 C 
ATOM      2  C   LIG d   1       5.146  -5.200  -5.430  0.00  0.00    -0.040 C 
ATOM      3  C   LIG d   1       4.505  -3.901  -4.936  0.00  0.00    -0.045 C 
ATOM      4  C   LIG d   1       5.537  -3.158  -4.083  0.00  0.00    -0.009 C 
ATOM      5  H   LIG d   1       5.879  -3.807  -3.277  0.00  0.00     0.035 H 
ATOM      6  C   LIG d   1       4.933  -1.908  -3.500  0.00  0.00    -0.036 A 
ATOM      7  C   LIG d   1       3.575  -1.803  -3.293  0.00  0.00    -0.054 A 
ATOM      8  C   LIG d   1       3.046  -0.640  -2.764  0.00  0.00    -0.020 A 
ATOM      9  C   LIG d   1       3.875   0.426  -2.441  0.00  0.00     0.117 A 
ATOM     10  C   LIG d   1       5.243   0.327  -2.642  0.00  0.00    -0.013 A 
ATOM     11  C   LIG d   1       5.777  -0.845  -3.168  0.00  0.00    -0.018 A 
ATOM     12  C   LIG d   1       7.235  -0.992  -3.373  0.00  0.00    -0.058 C 
ATOM     13  C   LIG d   1       7.682  -1.906  -4.229  0.00  0.00    -0.080 C 
ATOM     14  C   LIG d   1       6.716  -2.780  -4.976  0.00  0.00    -0.012 C 
ATOM     15  H   LIG d   1       6.338  -2.226  -5.835  0.00  0.00     0.035 H 
ATOM     16  C   LIG d   1       7.416  -4.034  -5.496  0.00  0.00    -0.022 C 
ATOM     17  H   LIG d   1       7.965  -4.567  -4.720  0.00  0.00     0.032 H 
ATOM     18  C   LIG d   1       8.326  -3.584  -6.676  0.00  0.00    -0.042 C 
ATOM     19  C   LIG d   1       7.334  -3.374  -7.841  0.00  0.00     0.007 C 
ATOM     20  C   LIG d   1       6.116  -4.227  -7.536  0.00  0.00     0.140 C 
ATOM     21  O   LIG d   1       5.116  -4.322  -8.207  0.00  0.00    -0.297 OA
ATOM     22  H   LIG d   1       4.429  -5.735  -6.054  0.00  0.00     0.028 H 
ATOM     23  H   LIG d   1       5.400  -5.819  -4.569  0.00  0.00     0.028 H 
ATOM     24  H   LIG d   1       4.219  -3.285  -5.788  0.00  0.00     0.027 H 
ATOM     25  H   LIG d   1       3.626  -4.131  -4.335  0.00  0.00     0.027 H 
ATOM     26  H   LIG d   1       2.925  -2.627  -3.544  0.00  0.00     0.062 H 
ATOM     27  H   LIG d   1       1.981  -0.559  -2.602  0.00  0.00     0.065 H 
ATOM     28  H   LIG d   1       5.890   1.155  -2.391  0.00  0.00     0.066 H 
ATOM     29  H   LIG d   1       7.928  -0.365  -2.833  0.00  0.00     0.062 H 
ATOM     30  H   LIG d   1       8.744  -2.020  -4.387  0.00  0.00     0.058 H 
ATOM     31  H   LIG d   1       9.048  -4.363  -6.923  0.00  0.00     0.027 H 
ATOM     32  H   LIG d   1       8.837  -2.653  -6.435  0.00  0.00     0.027 H 
ATOM     33  H   LIG d   1       7.091  -2.406  -7.900  0.00  0.00     0.034 H 
ATOM     34  H   LIG d   1       7.788  -3.693  -8.779  0.00  0.00     0.034 H 
ENDROOT
BRANCH   1  35
ATOM     35  C   LIG d   1       7.078  -6.271  -6.539  0.00  0.00    -0.053 C 
ATOM     36  H   LIG d   1       7.233  -6.362  -7.614  0.00  0.00     0.024 H 
ATOM     37  H   LIG d   1       8.041  -6.313  -6.029  0.00  0.00     0.024 H 
ATOM     38  H   LIG d   1       6.446  -7.088  -6.191  0.00  0.00     0.024 H 
ENDBRANCH   1  35
BRANCH   9  39
ATOM     39  O   LIG d   1       3.346   1.567  -1.926  0.00  0.00    -0.507 OA
ATOM     40  H   LIG d   1       3.987   2.122  -1.461  0.00  0.00     0.292 HD
ENDBRANCH   9  39
TORSDOF 2
ENDMDL
MODEL 7
REMARK VINA RESULT:      -6.0      8.096      9.607
REMARK  2 active torsions:
REMARK  status: ('A' for Active; 'I' for Inactive)
REMARK    1  A    between atoms: C_1  and  C_2 
REMARK    2  A    between atoms: C_10  and  O_23 
ROOT
ATOM      1  C   LIG d   1      10.085  -6.690  -3.808  0.00  0.00     0.030 C 
ATOM      2  C   LIG d   1       9.365  -7.040  -5.089  0.00  0.00    -0.040 C 
ATOM      3  C   LIG d   1       7.937  -7.520  -4.822  0.00  0.00    -0.045 C 
ATOM      4  C   LIG d   1       8.012  -8.742  -3.901  0.00  0.00    -0.009 C 
ATOM      5  H   LIG d   1       8.647  -9.502  -4.356  0.00  0.00     0.035 H 
ATOM      6  C   LIG d   1       6.637  -9.309  -3.670  0.00  0.00    -0.036 A 
ATOM      7  C   LIG d   1       5.626  -9.124  -4.587  0.00  0.00    -0.054 A 
ATOM      8  C   LIG d   1       4.369  -9.648  -4.345  0.00  0.00    -0.020 A 
ATOM      9  C   LIG d   1       4.119 -10.361  -3.180  0.00  0.00     0.117 A 
ATOM     10  C   LIG d   1       5.130 -10.556  -2.254  0.00  0.00    -0.013 A 
ATOM     11  C   LIG d   1       6.397 -10.034  -2.500  0.00  0.00    -0.018 A 
ATOM     12  C   LIG d   1       7.505 -10.244  -1.543  0.00  0.00    -0.058 C 
ATOM     13  C   LIG d   1       8.552  -9.425  -1.572  0.00  0.00    -0.080 C 
ATOM     14  C   LIG d   1       8.608  -8.303  -2.567  0.00  0.00    -0.012 C 
ATOM     15  H   LIG d   1       8.024  -7.467  -2.183  0.00  0.00     0.035 H 
ATOM     16  C   LIG d   1      10.046  -7.822  -2.756  0.00  0.00    -0.022 C 
ATOM     17  H   LIG d   1      10.739  -8.632  -2.984  0.00  0.00     0.032 H 
ATOM     18  C   LIG d   1      10.434  -7.044  -1.465  0.00  0.00    -0.042 C 
ATOM     19  C   LIG d   1       9.714  -5.688  -1.627  0.00  0.00     0.007 C 
ATOM     20  C   LIG d   1       9.492  -5.487  -3.115  0.00  0.00     0.140 C 
ATOM     21  O   LIG d   1       8.947  -4.547  -3.642  0.00  0.00    -0.297 OA
ATOM     22  H   LIG d   1       9.329  -6.159  -5.730  0.00  0.00     0.028 H 
ATOM     23  H   LIG d   1       9.915  -7.830  -5.601  0.00  0.00     0.028 H 
ATOM     24  H   LIG d   1       7.368  -6.728  -4.336  0.00  0.00     0.027 H 
ATOM     25  H   LIG d   1       7.459  -7.795  -5.762  0.00  0.00     0.027 H 
ATOM     26  H   LIG d   1       5.814  -8.569  -5.495  0.00  0.00     0.062 H 
ATOM     27  H   LIG d   1       3.578  -9.503  -5.066  0.00  0.00     0.065 H 
ATOM     28  H   LIG d   1       4.937 -11.110  -1.347  0.00  0.00     0.066 H 
ATOM     29  H   LIG d   1       7.465 -11.053  -0.829  0.00  0.00     0.062 H 
ATOM     30  H   LIG d   1       9.366  -9.570  -0.876  0.00  0.00     0.058 H 
ATOM     31  H   LIG d   1      11.514  -6.902  -1.412  0.00  0.00     0.027 H 
ATOM     32  H   LIG d   1      10.074  -7.566  -0.579  0.00  0.00     0.027 H 
ATOM     33  H   LIG d   1       8.845  -5.711  -1.133  0.00  0.00     0.034 H 
ATOM     34  H   LIG d   1      10.337  -4.885  -1.231  0.00  0.00     0.034 H 
ENDROOT
BRANCH   1  35
ATOM     35  C   LIG d   1      11.551  -6.393  -4.133  0.00  0.00    -0.053 C 
ATOM     36  H   LIG d   1      12.036  -7.302  -4.488  0.00  0.00     0.024 H 
ATOM     37  H   LIG d   1      11.602  -5.628  -4.908  0.00  0.00     0.024 H 
ATOM     38  H   LIG d   1      12.057  -6.036  -3.236  0.00  0.00     0.024 H 
ENDBRANCH   1  35
BRANCH   9  39
ATOM     39  O   LIG d   1       2.879 -10.869  -2.948  0.00  0.00    -0.507 OA
ATOM     40  H   LIG d   1       2.318 -10.911  -3.736  0.00  0.00     0.292 HD
ENDBRANCH   9  39
TORSDOF 2
ENDMDL
MODEL 8
REMARK VINA RESULT:      -5.9      2.038      2.646
REMARK  2 active torsions:
REMARK  status: ('A' for Active; 'I' for Inactive)
REMARK    1  A    between atoms: C_1  and  C_2 
REMARK    2  A    between atoms: C_10  and  O_23 
ROOT
ATOM      1  C   LIG d   1       5.211  -0.318  -4.067  0.00  0.00     0.030 C 
ATOM      2  C   LIG d   1       5.643   0.024  -5.473  0.00  0.00    -0.040 C 
ATOM      3  C   LIG d   1       4.910  -0.826  -6.513  0.00  0.00    -0.045 C 
ATOM      4  C   LIG d   1       5.200  -2.299  -6.210  0.00  0.00    -0.009 C 
ATOM      5  H   LIG d   1       6.278  -2.462  -6.198  0.00  0.00     0.035 H 
ATOM      6  C   LIG d   1       4.571  -3.183  -7.253  0.00  0.00    -0.036 A 
ATOM      7  C   LIG d   1       4.316  -2.716  -8.524  0.00  0.00    -0.054 A 
ATOM      8  C   LIG d   1       3.728  -3.547  -9.460  0.00  0.00    -0.020 A 
ATOM      9  C   LIG d   1       3.390  -4.851  -9.127  0.00  0.00     0.117 A 
ATOM     10  C   LIG d   1       3.645  -5.331  -7.852  0.00  0.00    -0.013 A 
ATOM     11  C   LIG d   1       4.243  -4.498  -6.912  0.00  0.00    -0.018 A 
ATOM     12  C   LIG d   1       4.551  -4.986  -5.549  0.00  0.00    -0.058 C 
ATOM     13  C   LIG d   1       4.725  -4.106  -4.568  0.00  0.00    -0.080 C 
ATOM     14  C   LIG d   1       4.612  -2.634  -4.842  0.00  0.00    -0.012 C 
ATOM     15  H   LIG d   1       3.558  -2.359  -4.840  0.00  0.00     0.035 H 
ATOM     16  C   LIG d   1       5.310  -1.827  -3.749  0.00  0.00    -0.022 C 
ATOM     17  H   LIG d   1       6.335  -2.153  -3.568  0.00  0.00     0.032 H 
ATOM     18  C   LIG d   1       4.416  -1.925  -2.478  0.00  0.00    -0.042 C 
ATOM     19  C   LIG d   1       3.254  -0.952  -2.776  0.00  0.00     0.007 C 
ATOM     20  C   LIG d   1       3.773   0.050  -3.792  0.00  0.00     0.140 C 
ATOM     21  O   LIG d   1       3.155   0.963  -4.284  0.00  0.00    -0.297 OA
ATOM     22  H   LIG d   1       5.432   1.077  -5.664  0.00  0.00     0.028 H 
ATOM     23  H   LIG d   1       6.715  -0.147  -5.568  0.00  0.00     0.028 H 
ATOM     24  H   LIG d   1       3.838  -0.642  -6.449  0.00  0.00     0.027 H 
ATOM     25  H   LIG d   1       5.268  -0.577  -7.511  0.00  0.00     0.027 H 
ATOM     26  H   LIG d   1       4.576  -1.702  -8.789  0.00  0.00     0.062 H 
ATOM     27  H   LIG d   1       3.531  -3.179 -10.457  0.00  0.00     0.065 H 
ATOM     28  H   LIG d   1       3.383  -6.346  -7.592  0.00  0.00     0.066 H 
ATOM     29  H   LIG d   1       4.634  -6.044  -5.355  0.00  0.00     0.062 H 
ATOM     30  H   LIG d   1       4.949  -4.452  -3.569  0.00  0.00     0.058 H 
ATOM     31  H   LIG d   1       4.968  -1.604  -1.594  0.00  0.00     0.027 H 
ATOM     32  H   LIG d   1       4.042  -2.940  -2.347  0.00  0.00     0.027 H 
ATOM     33  H   LIG d   1       2.476  -1.464  -3.140  0.00  0.00     0.034 H 
ATOM     34  H   LIG d   1       2.955  -0.437  -1.863  0.00  0.00     0.034 H 
ENDROOT
BRANCH   1  35
ATOM     35  C   LIG d   1       6.106   0.436  -3.080  0.00  0.00    -0.053 C 
ATOM     36  H   LIG d   1       6.458  -0.250  -2.311  0.00  0.00     0.024 H 
ATOM     37  H   LIG d   1       6.960   0.854  -3.613  0.00  0.00     0.024 H 
ATOM     38  H   LIG d   1       5.536   1.242  -2.616  0.00  0.00     0.024 H 
ENDBRANCH   1  35
BRANCH   9  39
ATOM     39  O   LIG d   1       2.808  -5.659 -10.053  0.00  0.00    -0.507 OA
ATOM     40  H   LIG d   1       2.862  -6.602  -9.840  0.00  0.00     0.292 HD
ENDBRANCH   9  39
TORSDOF 2
ENDMDL
MODEL 9
REMARK VINA RESULT:      -5.7      9.731     12.853
REMARK  2 active torsions:
REMARK  status: ('A' for Active; 'I' for Inactive)
REMARK    1  A    between atoms: C_1  and  C_2 
REMARK    2  A    between atoms: C_10  and  O_23 
ROOT
ATOM      1  C   LIG d   1      10.116   5.393  -3.741  0.00  0.00     0.030 C 
ATOM      2  C   LIG d   1       9.302   6.666  -3.769  0.00  0.00    -0.040 C 
ATOM      3  C   LIG d   1       9.891   7.735  -2.847  0.00  0.00    -0.045 C 
ATOM      4  C   LIG d   1       9.938   7.164  -1.427  0.00  0.00    -0.009 C 
ATOM      5  H   LIG d   1       8.939   6.840  -1.133  0.00  0.00     0.035 H 
ATOM      6  C   LIG d   1      10.433   8.205  -0.459  0.00  0.00    -0.036 A 
ATOM      7  C   LIG d   1      10.286   9.549  -0.721  0.00  0.00    -0.054 A 
ATOM      8  C   LIG d   1      10.759  10.485   0.181  0.00  0.00    -0.020 A 
ATOM      9  C   LIG d   1      11.385  10.077   1.351  0.00  0.00     0.117 A 
ATOM     10  C   LIG d   1      11.534   8.727   1.625  0.00  0.00    -0.013 A 
ATOM     11  C   LIG d   1      11.053   7.785   0.720  0.00  0.00    -0.018 A 
ATOM     12  C   LIG d   1      11.174   6.336   0.993  0.00  0.00    -0.058 C 
ATOM     13  C   LIG d   1      11.100   5.476  -0.018  0.00  0.00    -0.080 C 
ATOM     14  C   LIG d   1      10.890   5.972  -1.420  0.00  0.00    -0.012 C 
ATOM     15  H   LIG d   1      11.851   6.292  -1.823  0.00  0.00     0.035 H 
ATOM     16  C   LIG d   1      10.355   4.854  -2.312  0.00  0.00    -0.022 C 
ATOM     17  H   LIG d   1       9.476   4.361  -1.896  0.00  0.00     0.032 H 
ATOM     18  C   LIG d   1      11.536   3.870  -2.558  0.00  0.00    -0.042 C 
ATOM     19  C   LIG d   1      12.408   4.602  -3.602  0.00  0.00     0.007 C 
ATOM     20  C   LIG d   1      11.494   5.569  -4.332  0.00  0.00     0.140 C 
ATOM     21  O   LIG d   1      11.808   6.331  -5.214  0.00  0.00    -0.297 OA
ATOM     22  H   LIG d   1       9.277   7.050  -4.790  0.00  0.00     0.028 H 
ATOM     23  H   LIG d   1       8.284   6.444  -3.449  0.00  0.00     0.028 H 
ATOM     24  H   LIG d   1      10.899   7.988  -3.175  0.00  0.00     0.027 H 
ATOM     25  H   LIG d   1       9.263   8.625  -2.867  0.00  0.00     0.027 H 
ATOM     26  H   LIG d   1       9.801   9.873  -1.631  0.00  0.00     0.062 H 
ATOM     27  H   LIG d   1      10.641  11.538  -0.026  0.00  0.00     0.065 H 
ATOM     28  H   LIG d   1      12.020   8.408   2.535  0.00  0.00     0.066 H 
ATOM     29  H   LIG d   1      11.322   5.981   2.002  0.00  0.00     0.062 H 
ATOM     30  H   LIG d   1      11.189   4.416   0.171  0.00  0.00     0.058 H 
ATOM     31  H   LIG d   1      11.171   2.924  -2.957  0.00  0.00     0.027 H 
ATOM     32  H   LIG d   1      12.097   3.705  -1.638  0.00  0.00     0.027 H 
ATOM     33  H   LIG d   1      13.148   5.086  -3.137  0.00  0.00     0.034 H 
ATOM     34  H   LIG d   1      12.829   3.883  -4.305  0.00  0.00     0.034 H 
ENDROOT
BRANCH   1  35
ATOM     35  C   LIG d   1       9.376   4.318  -4.538  0.00  0.00    -0.053 C 
ATOM     36  H   LIG d   1       9.767   3.335  -4.274  0.00  0.00     0.024 H 
ATOM     37  H   LIG d   1       8.312   4.360  -4.303  0.00  0.00     0.024 H 
ATOM     38  H   LIG d   1       9.520   4.492  -5.605  0.00  0.00     0.024 H 
ENDBRANCH   1  35
BRANCH   9  39
ATOM     39  O   LIG d   1      11.851  11.003   2.230  0.00  0.00    -0.507 OA
ATOM     40  H   LIG d   1      12.812  10.998   2.334  0.00  0.00     0.292 HD
ENDBRANCH   9  39
TORSDOF 2
ENDMDL
