MODEL 1
REMARK VINA RESULT:      -6.5      0.000      0.000
REMARK  8 active torsions:
REMARK  status: ('A' for Active; 'I' for Inactive)
REMARK    1  A    between atoms: C_1  and  C_2 
REMARK    2  A    between atoms: C_2  and  C_3 
REMARK    3  A    between atoms: C_3  and  C_4 
REMARK    4  A    between atoms: C_15  and  O_24 
REMARK    5  A    between atoms: C_17  and  C_23 
REMARK    6  A    between atoms: C_19  and  C_22 
REMARK    7  A    between atoms: C_27  and  C_29 
REMARK    8  A    between atoms: C_27  and  C_30 
ROOT
ATOM      1  C   LIG d   1       7.080  -4.101  -5.429  0.00  0.00    -0.026 A 
ATOM      2  C   LIG d   1       6.173  -5.112  -5.450  0.00  0.00     0.027 A 
ATOM      3  C   LIG d   1       4.845  -4.871  -5.042  0.00  0.00     0.338 A 
ATOM      4  O   LIG d   1       4.036  -5.782  -5.067  0.00  0.00    -0.245 OA
ATOM      5  O   LIG d   1       4.458  -3.654  -4.625  0.00  0.00    -0.421 OA
ATOM      6  C   LIG d   1       5.331  -2.622  -4.585  0.00  0.00     0.152 A 
ATOM      7  C   LIG d   1       6.667  -2.821  -4.982  0.00  0.00     0.064 A 
ATOM      8  C   LIG d   1       7.569  -1.750  -4.935  0.00  0.00     0.143 A 
ATOM      9  C   LIG d   1       7.126  -0.500  -4.503  0.00  0.00     0.059 A 
ATOM     10  C   LIG d   1       5.790  -0.310  -4.115  0.00  0.00     0.141 A 
ATOM     11  C   LIG d   1       4.903  -1.370  -4.152  0.00  0.00     0.067 A 
ATOM     12  C   LIG d   1       3.469  -1.211  -3.732  0.00  0.00     0.093 C 
ATOM     13  H   LIG d   1       2.831  -1.704  -4.463  0.00  0.00     0.065 H 
ATOM     14  C   LIG d   1       3.064   0.248  -3.628  0.00  0.00     0.023 C 
ATOM     15  H   LIG d   1       2.183   0.327  -2.992  0.00  0.00     0.036 H 
ATOM     16  C   LIG d   1       4.171   1.108  -3.047  0.00  0.00     0.103 C 
ATOM     17  H   LIG d   1       3.881   2.156  -3.122  0.00  0.00     0.073 H 
ATOM     18  O   LIG d   1       5.401   0.922  -3.717  0.00  0.00    -0.487 OA
ATOM     19  C   LIG d   1       8.096   0.616  -4.462  0.00  0.00    -0.048 C 
ATOM     20  C   LIG d   1       9.236   0.479  -5.139  0.00  0.00    -0.041 C 
ATOM     21  C   LIG d   1       9.499  -0.779  -5.924  0.00  0.00     0.123 C 
ATOM     22  O   LIG d   1       8.866  -1.898  -5.302  0.00  0.00    -0.481 OA
ATOM     23  H   LIG d   1       6.466  -6.097  -5.783  0.00  0.00     0.069 H 
ATOM     24  H   LIG d   1       7.887   1.514  -3.901  0.00  0.00     0.062 H 
ATOM     25  H   LIG d   1       9.970   1.270  -5.124  0.00  0.00     0.061 H 
ENDROOT
BRANCH   1  26
ATOM     26  C   LIG d   1       8.502  -4.339  -5.868  0.00  0.00    -0.027 C 
ATOM     27  H   LIG d   1       8.516  -4.620  -6.921  0.00  0.00     0.031 H 
ATOM     28  H   LIG d   1       9.083  -3.428  -5.727  0.00  0.00     0.031 H 
BRANCH  26  29
ATOM     29  C   LIG d   1       9.112  -5.467  -5.032  0.00  0.00    -0.052 C 
ATOM     30  H   LIG d   1       8.397  -6.285  -4.948  0.00  0.00     0.027 H 
ATOM     31  H   LIG d   1      10.020  -5.826  -5.517  0.00  0.00     0.027 H 
BRANCH  29  32
ATOM     32  C   LIG d   1       9.453  -4.941  -3.637  0.00  0.00    -0.065 C 
ATOM     33  H   LIG d   1      10.511  -4.682  -3.594  0.00  0.00     0.023 H 
ATOM     34  H   LIG d   1       8.854  -4.055  -3.426  0.00  0.00     0.023 H 
ATOM     35  H   LIG d   1       9.237  -5.711  -2.896  0.00  0.00     0.023 H 
ENDBRANCH  29  32
ENDBRANCH  26  29
ENDBRANCH   1  26
BRANCH  12  36
ATOM     36  O   LIG d   1       3.287  -1.834  -2.460  0.00  0.00    -0.387 OA
ATOM     37  H   LIG d   1       4.057  -1.774  -1.878  0.00  0.00     0.210 HD
ENDBRANCH  12  36
BRANCH  21  38
ATOM     38  C   LIG d   1      11.007  -1.026  -5.992  0.00  0.00    -0.021 C 
ATOM     39  H   LIG d   1      11.526  -0.075  -6.110  0.00  0.00     0.027 H 
ATOM     40  H   LIG d   1      11.338  -1.508  -5.072  0.00  0.00     0.027 H 
ATOM     41  H   LIG d   1      11.232  -1.671  -6.841  0.00  0.00     0.027 H 
ENDBRANCH  21  38
BRANCH  21  42
ATOM     42  C   LIG d   1       8.950  -0.613  -7.342  0.00  0.00    -0.021 C 
ATOM     43  H   LIG d   1       7.861  -0.656  -7.318  0.00  0.00     0.027 H 
ATOM     44  H   LIG d   1       9.268   0.349  -7.744  0.00  0.00     0.027 H 
ATOM     45  H   LIG d   1       9.330  -1.415  -7.975  0.00  0.00     0.027 H 
ENDBRANCH  21  42
BRANCH  14  46
ATOM     46  C   LIG d   1       2.716   0.765  -5.026  0.00  0.00    -0.056 C 
ATOM     47  H   LIG d   1       3.123   1.767  -5.155  0.00  0.00     0.023 H 
ATOM     48  H   LIG d   1       3.142   0.099  -5.776  0.00  0.00     0.023 H 
ATOM     49  H   LIG d   1       1.632   0.795  -5.142  0.00  0.00     0.023 H 
ENDBRANCH  14  46
BRANCH  16  50
ATOM     50  C   LIG d   1       4.351   0.748  -1.570  0.00  0.00    -0.028 C 
ATOM     51  H   LIG d   1       3.853  -0.199  -1.363  0.00  0.00     0.026 H 
ATOM     52  H   LIG d   1       5.413   0.658  -1.345  0.00  0.00     0.026 H 
ATOM     53  H   LIG d   1       3.913   1.530  -0.949  0.00  0.00     0.026 H 
ENDBRANCH  16  50
TORSDOF 8
ENDMDL
MODEL 2
REMARK VINA RESULT:      -6.4      2.767      4.963
REMARK  8 active torsions:
REMARK  status: ('A' for Active; 'I' for Inactive)
REMARK    1  A    between atoms: C_1  and  C_2 
REMARK    2  A    between atoms: C_2  and  C_3 
REMARK    3  A    between atoms: C_3  and  C_4 
REMARK    4  A    between atoms: C_15  and  O_24 
REMARK    5  A    between atoms: C_17  and  C_23 
REMARK    6  A    between atoms: C_19  and  C_22 
REMARK    7  A    between atoms: C_27  and  C_29 
REMARK    8  A    between atoms: C_27  and  C_30 
ROOT
ATOM      1  C   LIG d   1       7.398  -0.738  -7.641  0.00  0.00    -0.026 A 
ATOM      2  C   LIG d   1       8.619  -0.933  -7.077  0.00  0.00     0.027 A 
ATOM      3  C   LIG d   1       8.745  -0.970  -5.674  0.00  0.00     0.338 A 
ATOM      4  O   LIG d   1       9.842  -1.149  -5.175  0.00  0.00    -0.245 OA
ATOM      5  O   LIG d   1       7.675  -0.809  -4.877  0.00  0.00    -0.421 OA
ATOM      6  C   LIG d   1       6.443  -0.608  -5.398  0.00  0.00     0.152 A 
ATOM      7  C   LIG d   1       6.274  -0.561  -6.795  0.00  0.00     0.064 A 
ATOM      8  C   LIG d   1       4.997  -0.349  -7.331  0.00  0.00     0.143 A 
ATOM      9  C   LIG d   1       3.911  -0.193  -6.470  0.00  0.00     0.059 A 
ATOM     10  C   LIG d   1       4.088  -0.247  -5.077  0.00  0.00     0.141 A 
ATOM     11  C   LIG d   1       5.351  -0.448  -4.550  0.00  0.00     0.067 A 
ATOM     12  C   LIG d   1       5.584  -0.497  -3.067  0.00  0.00     0.093 C 
ATOM     13  H   LIG d   1       6.242  -1.335  -2.841  0.00  0.00     0.065 H 
ATOM     14  C   LIG d   1       4.291  -0.662  -2.291  0.00  0.00     0.023 C 
ATOM     15  H   LIG d   1       4.448  -0.333  -1.264  0.00  0.00     0.036 H 
ATOM     16  C   LIG d   1       3.155   0.140  -2.898  0.00  0.00     0.103 C 
ATOM     17  H   LIG d   1       2.227  -0.121  -2.389  0.00  0.00     0.073 H 
ATOM     18  O   LIG d   1       3.005  -0.107  -4.281  0.00  0.00    -0.487 OA
ATOM     19  C   LIG d   1       2.572   0.029  -7.057  0.00  0.00    -0.048 C 
ATOM     20  C   LIG d   1       2.401  -0.255  -8.348  0.00  0.00    -0.041 C 
ATOM     21  C   LIG d   1       3.547  -0.798  -9.158  0.00  0.00     0.123 C 
ATOM     22  O   LIG d   1       4.790  -0.291  -8.669  0.00  0.00    -0.481 OA
ATOM     23  H   LIG d   1       9.490  -1.065  -7.702  0.00  0.00     0.069 H 
ATOM     24  H   LIG d   1       1.759   0.411  -6.459  0.00  0.00     0.062 H 
ATOM     25  H   LIG d   1       1.439  -0.096  -8.812  0.00  0.00     0.061 H 
ENDROOT
BRANCH   1  26
ATOM     26  C   LIG d   1       7.244  -0.701  -9.139  0.00  0.00    -0.027 C 
ATOM     27  H   LIG d   1       6.213  -0.453  -9.393  0.00  0.00     0.031 H 
ATOM     28  H   LIG d   1       7.912   0.053  -9.555  0.00  0.00     0.031 H 
BRANCH  26  29
ATOM     29  C   LIG d   1       7.597  -2.071  -9.723  0.00  0.00    -0.052 C 
ATOM     30  H   LIG d   1       8.657  -2.096  -9.976  0.00  0.00     0.027 H 
ATOM     31  H   LIG d   1       7.382  -2.846  -8.986  0.00  0.00     0.027 H 
BRANCH  29  32
ATOM     32  C   LIG d   1       6.765  -2.320 -10.982  0.00  0.00    -0.065 C 
ATOM     33  H   LIG d   1       7.204  -1.780 -11.821  0.00  0.00     0.023 H 
ATOM     34  H   LIG d   1       6.752  -3.387 -11.204  0.00  0.00     0.023 H 
ATOM     35  H   LIG d   1       5.746  -1.970 -10.818  0.00  0.00     0.023 H 
ENDBRANCH  29  32
ENDBRANCH  26  29
ENDBRANCH   1  26
BRANCH  12  36
ATOM     36  O   LIG d   1       6.219   0.715  -2.656  0.00  0.00    -0.387 OA
ATOM     37  H   LIG d   1       5.942   1.029  -1.784  0.00  0.00     0.210 HD
ENDBRANCH  12  36
BRANCH  21  38
ATOM     38  C   LIG d   1       3.374  -0.384 -10.620  0.00  0.00    -0.021 C 
ATOM     39  H   LIG d   1       2.647  -1.039 -11.100  0.00  0.00     0.027 H 
ATOM     40  H   LIG d   1       3.020   0.646 -10.666  0.00  0.00     0.027 H 
ATOM     41  H   LIG d   1       4.331  -0.463 -11.137  0.00  0.00     0.027 H 
ENDBRANCH  21  38
BRANCH  21  42
ATOM     42  C   LIG d   1       3.554  -2.325  -9.063  0.00  0.00    -0.021 C 
ATOM     43  H   LIG d   1       4.357  -2.645  -8.399  0.00  0.00     0.027 H 
ATOM     44  H   LIG d   1       2.598  -2.669  -8.669  0.00  0.00     0.027 H 
ATOM     45  H   LIG d   1       3.711  -2.750 -10.055  0.00  0.00     0.027 H 
ENDBRANCH  21  42
BRANCH  14  46
ATOM     46  C   LIG d   1       3.904  -2.143  -2.283  0.00  0.00    -0.056 C 
ATOM     47  H   LIG d   1       4.402  -2.653  -3.108  0.00  0.00     0.023 H 
ATOM     48  H   LIG d   1       4.210  -2.594  -1.340  0.00  0.00     0.023 H 
ATOM     49  H   LIG d   1       2.824  -2.237  -2.397  0.00  0.00     0.023 H 
ENDBRANCH  14  46
BRANCH  16  50
ATOM     50  C   LIG d   1       3.435   1.630  -2.686  0.00  0.00    -0.028 C 
ATOM     51  H   LIG d   1       3.206   2.176  -3.602  0.00  0.00     0.026 H 
ATOM     52  H   LIG d   1       2.812   2.005  -1.875  0.00  0.00     0.026 H 
ATOM     53  H   LIG d   1       4.486   1.770  -2.433  0.00  0.00     0.026 H 
ENDBRANCH  16  50
TORSDOF 8
ENDMDL
MODEL 3
REMARK VINA RESULT:      -6.4      3.079      5.279
REMARK  8 active torsions:
REMARK  status: ('A' for Active; 'I' for Inactive)
REMARK    1  A    between atoms: C_1  and  C_2 
REMARK    2  A    between atoms: C_2  and  C_3 
REMARK    3  A    between atoms: C_3  and  C_4 
REMARK    4  A    between atoms: C_15  and  O_24 
REMARK    5  A    between atoms: C_17  and  C_23 
REMARK    6  A    between atoms: C_19  and  C_22 
REMARK    7  A    between atoms: C_27  and  C_29 
REMARK    8  A    between atoms: C_27  and  C_30 
ROOT
ATOM      1  C   LIG d   1       7.403  -1.525  -5.720  0.00  0.00    -0.026 A 
ATOM      2  C   LIG d   1       8.441  -1.677  -6.583  0.00  0.00     0.027 A 
ATOM      3  C   LIG d   1       8.302  -1.271  -7.926  0.00  0.00     0.338 A 
ATOM      4  O   LIG d   1       9.238  -1.406  -8.693  0.00  0.00    -0.245 OA
ATOM      5  O   LIG d   1       7.152  -0.738  -8.373  0.00  0.00    -0.421 OA
ATOM      6  C   LIG d   1       6.094  -0.573  -7.547  0.00  0.00     0.152 A 
ATOM      7  C   LIG d   1       6.190  -0.968  -6.200  0.00  0.00     0.064 A 
ATOM      8  C   LIG d   1       5.090  -0.799  -5.349  0.00  0.00     0.143 A 
ATOM      9  C   LIG d   1       3.917  -0.236  -5.850  0.00  0.00     0.059 A 
ATOM     10  C   LIG d   1       3.832   0.161  -7.195  0.00  0.00     0.141 A 
ATOM     11  C   LIG d   1       4.916  -0.015  -8.035  0.00  0.00     0.067 A 
ATOM     12  C   LIG d   1       4.860   0.383  -9.483  0.00  0.00     0.093 C 
ATOM     13  H   LIG d   1       5.777   0.911  -9.740  0.00  0.00     0.065 H 
ATOM     14  C   LIG d   1       3.674   1.282  -9.782  0.00  0.00     0.023 C 
ATOM     15  H   LIG d   1       3.462   1.244 -10.851  0.00  0.00     0.036 H 
ATOM     16  C   LIG d   1       2.433   0.863  -9.018  0.00  0.00     0.103 C 
ATOM     17  H   LIG d   1       1.658   1.615  -9.161  0.00  0.00     0.073 H 
ATOM     18  O   LIG d   1       2.681   0.717  -7.634  0.00  0.00    -0.487 OA
ATOM     19  C   LIG d   1       2.769  -0.067  -4.934  0.00  0.00    -0.048 C 
ATOM     20  C   LIG d   1       2.998  -0.143  -3.623  0.00  0.00    -0.041 C 
ATOM     21  C   LIG d   1       4.396  -0.381  -3.116  0.00  0.00     0.123 C 
ATOM     22  O   LIG d   1       5.138  -1.171  -4.046  0.00  0.00    -0.481 OA
ATOM     23  H   LIG d   1       9.373  -2.103  -6.241  0.00  0.00     0.069 H 
ATOM     24  H   LIG d   1       1.775   0.112  -5.314  0.00  0.00     0.062 H 
ATOM     25  H   LIG d   1       2.181  -0.033  -2.926  0.00  0.00     0.061 H 
ENDROOT
BRANCH   1  26
ATOM     26  C   LIG d   1       7.537  -1.948  -4.280  0.00  0.00    -0.027 C 
ATOM     27  H   LIG d   1       8.404  -1.459  -3.836  0.00  0.00     0.031 H 
ATOM     28  H   LIG d   1       6.638  -1.661  -3.732  0.00  0.00     0.031 H 
BRANCH  26  29
ATOM     29  C   LIG d   1       7.714  -3.466  -4.208  0.00  0.00    -0.052 C 
ATOM     30  H   LIG d   1       6.862  -3.907  -3.691  0.00  0.00     0.027 H 
ATOM     31  H   LIG d   1       7.777  -3.873  -5.217  0.00  0.00     0.027 H 
BRANCH  29  32
ATOM     32  C   LIG d   1       8.999  -3.794  -3.445  0.00  0.00    -0.065 C 
ATOM     33  H   LIG d   1       9.849  -3.748  -4.127  0.00  0.00     0.023 H 
ATOM     34  H   LIG d   1       9.139  -3.071  -2.641  0.00  0.00     0.023 H 
ATOM     35  H   LIG d   1       8.925  -4.796  -3.023  0.00  0.00     0.023 H 
ENDBRANCH  29  32
ENDBRANCH  26  29
ENDBRANCH   1  26
BRANCH  12  36
ATOM     36  O   LIG d   1       4.762  -0.795 -10.285  0.00  0.00    -0.387 OA
ATOM     37  H   LIG d   1       3.863  -1.143 -10.365  0.00  0.00     0.210 HD
ENDBRANCH  12  36
BRANCH  21  38
ATOM     38  C   LIG d   1       4.329  -1.112  -1.774  0.00  0.00    -0.021 C 
ATOM     39  H   LIG d   1       3.289  -1.331  -1.531  0.00  0.00     0.027 H 
ATOM     40  H   LIG d   1       4.890  -2.044  -1.840  0.00  0.00     0.027 H 
ATOM     41  H   LIG d   1       4.759  -0.483  -0.995  0.00  0.00     0.027 H 
ENDBRANCH  21  38
BRANCH  21  42
ATOM     42  C   LIG d   1       5.099   0.964  -2.924  0.00  0.00    -0.021 C 
ATOM     43  H   LIG d   1       5.778   0.902  -2.073  0.00  0.00     0.027 H 
ATOM     44  H   LIG d   1       5.664   1.210  -3.823  0.00  0.00     0.027 H 
ATOM     45  H   LIG d   1       4.356   1.740  -2.740  0.00  0.00     0.027 H 
ENDBRANCH  21  42
BRANCH  14  46
ATOM     46  C   LIG d   1       4.034   2.719  -9.398  0.00  0.00    -0.056 C 
ATOM     47  H   LIG d   1       4.724   3.130 -10.133  0.00  0.00     0.023 H 
ATOM     48  H   LIG d   1       3.129   3.325  -9.369  0.00  0.00     0.023 H 
ATOM     49  H   LIG d   1       4.505   2.724  -8.414  0.00  0.00     0.023 H 
ENDBRANCH  14  46
BRANCH  16  50
ATOM     50  C   LIG d   1       1.936  -0.473  -9.576  0.00  0.00    -0.028 C 
ATOM     51  H   LIG d   1       2.627  -0.826 -10.342  0.00  0.00     0.026 H 
ATOM     52  H   LIG d   1       1.880  -1.205  -8.771  0.00  0.00     0.026 H 
ATOM     53  H   LIG d   1       0.947  -0.338 -10.015  0.00  0.00     0.026 H 
ENDBRANCH  16  50
TORSDOF 8
ENDMDL
MODEL 4
REMARK VINA RESULT:      -6.3      2.457      4.114
REMARK  8 active torsions:
REMARK  status: ('A' for Active; 'I' for Inactive)
REMARK    1  A    between atoms: C_1  and  C_2 
REMARK    2  A    between atoms: C_2  and  C_3 
REMARK    3  A    between atoms: C_3  and  C_4 
REMARK    4  A    between atoms: C_15  and  O_24 
REMARK    5  A    between atoms: C_17  and  C_23 
REMARK    6  A    between atoms: C_19  and  C_22 
REMARK    7  A    between atoms: C_27  and  C_29 
REMARK    8  A    between atoms: C_27  and  C_30 
ROOT
ATOM      1  C   LIG d   1       5.579  -0.280  -8.259  0.00  0.00    -0.026 A 
ATOM      2  C   LIG d   1       4.509   0.362  -8.795  0.00  0.00     0.027 A 
ATOM      3  C   LIG d   1       3.440   0.756  -7.965  0.00  0.00     0.338 A 
ATOM      4  O   LIG d   1       2.485   1.336  -8.452  0.00  0.00    -0.245 OA
ATOM      5  O   LIG d   1       3.457   0.503  -6.645  0.00  0.00    -0.421 OA
ATOM      6  C   LIG d   1       4.501  -0.138  -6.073  0.00  0.00     0.152 A 
ATOM      7  C   LIG d   1       5.588  -0.551  -6.867  0.00  0.00     0.064 A 
ATOM      8  C   LIG d   1       6.666  -1.218  -6.271  0.00  0.00     0.143 A 
ATOM      9  C   LIG d   1       6.648  -1.456  -4.897  0.00  0.00     0.059 A 
ATOM     10  C   LIG d   1       5.562  -1.035  -4.112  0.00  0.00     0.141 A 
ATOM     11  C   LIG d   1       4.495  -0.385  -4.703  0.00  0.00     0.067 A 
ATOM     12  C   LIG d   1       3.309   0.068  -3.900  0.00  0.00     0.093 C 
ATOM     13  H   LIG d   1       3.046   1.081  -4.202  0.00  0.00     0.065 H 
ATOM     14  C   LIG d   1       3.590   0.054  -2.409  0.00  0.00     0.023 C 
ATOM     15  H   LIG d   1       2.643   0.027  -1.870  0.00  0.00     0.036 H 
ATOM     16  C   LIG d   1       4.427  -1.142  -1.997  0.00  0.00     0.103 C 
ATOM     17  H   LIG d   1       4.712  -1.031  -0.952  0.00  0.00     0.073 H 
ATOM     18  O   LIG d   1       5.595  -1.273  -2.782  0.00  0.00    -0.487 OA
ATOM     19  C   LIG d   1       7.798  -2.162  -4.289  0.00  0.00    -0.048 C 
ATOM     20  C   LIG d   1       8.926  -2.241  -4.994  0.00  0.00    -0.041 C 
ATOM     21  C   LIG d   1       9.007  -1.613  -6.359  0.00  0.00     0.123 C 
ATOM     22  O   LIG d   1       7.730  -1.639  -6.998  0.00  0.00    -0.481 OA
ATOM     23  H   LIG d   1       4.479   0.575  -9.853  0.00  0.00     0.069 H 
ATOM     24  H   LIG d   1       7.725  -2.599  -3.305  0.00  0.00     0.062 H 
ATOM     25  H   LIG d   1       9.782  -2.757  -4.584  0.00  0.00     0.061 H 
ENDROOT
BRANCH   1  26
ATOM     26  C   LIG d   1       6.733  -0.703  -9.130  0.00  0.00    -0.027 C 
ATOM     27  H   LIG d   1       7.554  -1.052  -8.503  0.00  0.00     0.031 H 
ATOM     28  H   LIG d   1       6.413  -1.510  -9.790  0.00  0.00     0.031 H 
BRANCH  26  29
ATOM     29  C   LIG d   1       7.203   0.486  -9.970  0.00  0.00    -0.052 C 
ATOM     30  H   LIG d   1       7.889   0.138 -10.742  0.00  0.00     0.027 H 
ATOM     31  H   LIG d   1       6.341   0.962 -10.439  0.00  0.00     0.027 H 
BRANCH  29  32
ATOM     32  C   LIG d   1       7.916   1.497  -9.071  0.00  0.00    -0.065 C 
ATOM     33  H   LIG d   1       7.530   2.497  -9.270  0.00  0.00     0.023 H 
ATOM     34  H   LIG d   1       7.740   1.241  -8.026  0.00  0.00     0.023 H 
ATOM     35  H   LIG d   1       8.987   1.473  -9.276  0.00  0.00     0.023 H 
ENDBRANCH  29  32
ENDBRANCH  26  29
ENDBRANCH   1  26
BRANCH  12  36
ATOM     36  O   LIG d   1       2.206  -0.798  -4.172  0.00  0.00    -0.387 OA
ATOM     37  H   LIG d   1       2.457  -1.720  -4.321  0.00  0.00     0.210 HD
ENDBRANCH  12  36
BRANCH  21  38
ATOM     38  C   LIG d   1      10.013  -2.386  -7.213  0.00  0.00    -0.021 C 
ATOM     39  H   LIG d   1      10.311  -3.295  -6.690  0.00  0.00     0.027 H 
ATOM     40  H   LIG d   1       9.555  -2.650  -8.166  0.00  0.00     0.027 H 
ATOM     41  H   LIG d   1      10.892  -1.766  -7.392  0.00  0.00     0.027 H 
ENDBRANCH  21  38
BRANCH  21  42
ATOM     42  C   LIG d   1       9.472  -0.162  -6.221  0.00  0.00    -0.021 C 
ATOM     43  H   LIG d   1       9.860   0.189  -7.177  0.00  0.00     0.027 H 
ATOM     44  H   LIG d   1       8.630   0.462  -5.919  0.00  0.00     0.027 H 
ATOM     45  H   LIG d   1      10.256  -0.102  -5.466  0.00  0.00     0.027 H 
ENDBRANCH  21  42
BRANCH  14  46
ATOM     46  C   LIG d   1       4.338   1.336  -2.035  0.00  0.00    -0.056 C 
ATOM     47  H   LIG d   1       3.645   2.041  -1.576  0.00  0.00     0.023 H 
ATOM     48  H   LIG d   1       5.135   1.100  -1.332  0.00  0.00     0.023 H 
ATOM     49  H   LIG d   1       4.767   1.782  -2.934  0.00  0.00     0.023 H 
ENDBRANCH  14  46
BRANCH  16  50
ATOM     50  C   LIG d   1       3.583  -2.410  -2.148  0.00  0.00    -0.028 C 
ATOM     51  H   LIG d   1       3.681  -3.021  -1.251  0.00  0.00     0.026 H 
ATOM     52  H   LIG d   1       2.537  -2.137  -2.288  0.00  0.00     0.026 H 
ATOM     53  H   LIG d   1       3.929  -2.977  -3.013  0.00  0.00     0.026 H 
ENDBRANCH  16  50
TORSDOF 8
ENDMDL
MODEL 5
REMARK VINA RESULT:      -6.3      3.555      6.063
REMARK  8 active torsions:
REMARK  status: ('A' for Active; 'I' for Inactive)
REMARK    1  A    between atoms: C_1  and  C_2 
REMARK    2  A    between atoms: C_2  and  C_3 
REMARK    3  A    between atoms: C_3  and  C_4 
REMARK    4  A    between atoms: C_15  and  O_24 
REMARK    5  A    between atoms: C_17  and  C_23 
REMARK    6  A    between atoms: C_19  and  C_22 
REMARK    7  A    between atoms: C_27  and  C_29 
REMARK    8  A    between atoms: C_27  and  C_30 
ROOT
ATOM      1  C   LIG d   1       3.175  -0.833  -8.996  0.00  0.00    -0.026 A 
ATOM      2  C   LIG d   1       2.854   0.484  -9.075  0.00  0.00     0.027 A 
ATOM      3  C   LIG d   1       3.060   1.323  -7.960  0.00  0.00     0.338 A 
ATOM      4  O   LIG d   1       2.774   2.505  -8.040  0.00  0.00    -0.245 OA
ATOM      5  O   LIG d   1       3.565   0.840  -6.813  0.00  0.00    -0.421 OA
ATOM      6  C   LIG d   1       3.892  -0.466  -6.692  0.00  0.00     0.152 A 
ATOM      7  C   LIG d   1       3.701  -1.338  -7.780  0.00  0.00     0.064 A 
ATOM      8  C   LIG d   1       4.038  -2.692  -7.649  0.00  0.00     0.143 A 
ATOM      9  C   LIG d   1       4.565  -3.152  -6.443  0.00  0.00     0.059 A 
ATOM     10  C   LIG d   1       4.759  -2.273  -5.365  0.00  0.00     0.141 A 
ATOM     11  C   LIG d   1       4.417  -0.940  -5.493  0.00  0.00     0.067 A 
ATOM     12  C   LIG d   1       4.595   0.030  -4.358  0.00  0.00     0.093 C 
ATOM     13  H   LIG d   1       5.042   0.945  -4.743  0.00  0.00     0.065 H 
ATOM     14  C   LIG d   1       5.484  -0.531  -3.264  0.00  0.00     0.023 C 
ATOM     15  H   LIG d   1       5.296   0.015  -2.339  0.00  0.00     0.036 H 
ATOM     16  C   LIG d   1       5.234  -2.008  -3.024  0.00  0.00     0.103 C 
ATOM     17  H   LIG d   1       5.986  -2.387  -2.333  0.00  0.00     0.073 H 
ATOM     18  O   LIG d   1       5.288  -2.760  -4.220  0.00  0.00    -0.487 OA
ATOM     19  C   LIG d   1       4.915  -4.585  -6.328  0.00  0.00    -0.048 C 
ATOM     20  C   LIG d   1       5.028  -5.293  -7.451  0.00  0.00    -0.041 C 
ATOM     21  C   LIG d   1       4.813  -4.629  -8.785  0.00  0.00     0.123 C 
ATOM     22  O   LIG d   1       3.864  -3.568  -8.669  0.00  0.00    -0.481 OA
ATOM     23  H   LIG d   1       2.448   0.890  -9.990  0.00  0.00     0.069 H 
ATOM     24  H   LIG d   1       5.073  -5.043  -5.363  0.00  0.00     0.062 H 
ATOM     25  H   LIG d   1       5.272  -6.344  -7.403  0.00  0.00     0.061 H 
ENDROOT
BRANCH   1  26
ATOM     26  C   LIG d   1       2.968  -1.743 -10.179  0.00  0.00    -0.027 C 
ATOM     27  H   LIG d   1       3.898  -2.265 -10.405  0.00  0.00     0.031 H 
ATOM     28  H   LIG d   1       2.191  -2.472  -9.945  0.00  0.00     0.031 H 
BRANCH  26  29
ATOM     29  C   LIG d   1       2.540  -0.915 -11.392  0.00  0.00    -0.052 C 
ATOM     30  H   LIG d   1       2.554   0.144 -11.133  0.00  0.00     0.027 H 
ATOM     31  H   LIG d   1       3.231  -1.096 -12.217  0.00  0.00     0.027 H 
BRANCH  29  32
ATOM     32  C   LIG d   1       1.127  -1.319 -11.815  0.00  0.00    -0.065 C 
ATOM     33  H   LIG d   1       0.433  -0.509 -11.587  0.00  0.00     0.023 H 
ATOM     34  H   LIG d   1       1.111  -1.520 -12.886  0.00  0.00     0.023 H 
ATOM     35  H   LIG d   1       0.828  -2.217 -11.272  0.00  0.00     0.023 H 
ENDBRANCH  29  32
ENDBRANCH  26  29
ENDBRANCH   1  26
BRANCH  12  36
ATOM     36  O   LIG d   1       3.315   0.335  -3.803  0.00  0.00    -0.387 OA
ATOM     37  H   LIG d   1       2.673   0.662  -4.450  0.00  0.00     0.210 HD
ENDBRANCH  12  36
BRANCH  21  38
ATOM     38  C   LIG d   1       4.295  -5.662  -9.787  0.00  0.00    -0.021 C 
ATOM     39  H   LIG d   1       3.424  -5.261 -10.305  0.00  0.00     0.027 H 
ATOM     40  H   LIG d   1       5.077  -5.888 -10.512  0.00  0.00     0.027 H 
ATOM     41  H   LIG d   1       4.016  -6.574  -9.258  0.00  0.00     0.027 H 
ENDBRANCH  21  38
BRANCH  21  42
ATOM     42  C   LIG d   1       6.143  -4.062  -9.286  0.00  0.00    -0.021 C 
ATOM     43  H   LIG d   1       6.269  -4.307 -10.341  0.00  0.00     0.027 H 
ATOM     44  H   LIG d   1       6.147  -2.979  -9.161  0.00  0.00     0.027 H 
ATOM     45  H   LIG d   1       6.962  -4.496  -8.712  0.00  0.00     0.027 H 
ENDBRANCH  21  42
BRANCH  14  46
ATOM     46  C   LIG d   1       6.948  -0.334  -3.667  0.00  0.00    -0.056 C 
ATOM     47  H   LIG d   1       7.233  -1.101  -4.385  0.00  0.00     0.023 H 
ATOM     48  H   LIG d   1       7.071   0.651  -4.117  0.00  0.00     0.023 H 
ATOM     49  H   LIG d   1       7.581  -0.410  -2.782  0.00  0.00     0.023 H 
ENDBRANCH  14  46
BRANCH  16  50
ATOM     50  C   LIG d   1       3.850  -2.178  -2.393  0.00  0.00    -0.028 C 
ATOM     51  H   LIG d   1       3.798  -1.599  -1.471  0.00  0.00     0.026 H 
ATOM     52  H   LIG d   1       3.088  -1.825  -3.087  0.00  0.00     0.026 H 
ATOM     53  H   LIG d   1       3.679  -3.231  -2.170  0.00  0.00     0.026 H 
ENDBRANCH  16  50
TORSDOF 8
ENDMDL
MODEL 6
REMARK VINA RESULT:      -6.2      3.395      4.929
REMARK  8 active torsions:
REMARK  status: ('A' for Active; 'I' for Inactive)
REMARK    1  A    between atoms: C_1  and  C_2 
REMARK    2  A    between atoms: C_2  and  C_3 
REMARK    3  A    between atoms: C_3  and  C_4 
REMARK    4  A    between atoms: C_15  and  O_24 
REMARK    5  A    between atoms: C_17  and  C_23 
REMARK    6  A    between atoms: C_19  and  C_22 
REMARK    7  A    between atoms: C_27  and  C_29 
REMARK    8  A    between atoms: C_27  and  C_30 
ROOT
ATOM      1  C   LIG d   1       4.041  -4.307  -8.156  0.00  0.00    -0.026 A 
ATOM      2  C   LIG d   1       4.124  -5.511  -7.532  0.00  0.00     0.027 A 
ATOM      3  C   LIG d   1       4.331  -5.565  -6.139  0.00  0.00     0.338 A 
ATOM      4  O   LIG d   1       4.400  -6.648  -5.585  0.00  0.00    -0.245 OA
ATOM      5  O   LIG d   1       4.453  -4.442  -5.412  0.00  0.00    -0.421 OA
ATOM      6  C   LIG d   1       4.380  -3.224  -5.995  0.00  0.00     0.152 A 
ATOM      7  C   LIG d   1       4.178  -3.125  -7.385  0.00  0.00     0.064 A 
ATOM      8  C   LIG d   1       4.107  -1.862  -7.986  0.00  0.00     0.143 A 
ATOM      9  C   LIG d   1       4.232  -0.720  -7.195  0.00  0.00     0.059 A 
ATOM     10  C   LIG d   1       4.428  -0.828  -5.808  0.00  0.00     0.141 A 
ATOM     11  C   LIG d   1       4.507  -2.076  -5.218  0.00  0.00     0.067 A 
ATOM     12  C   LIG d   1       4.730  -2.233  -3.741  0.00  0.00     0.093 C 
ATOM     13  H   LIG d   1       4.048  -2.992  -3.360  0.00  0.00     0.065 H 
ATOM     14  C   LIG d   1       4.498  -0.937  -2.987  0.00  0.00     0.023 C 
ATOM     15  H   LIG d   1       5.006  -0.990  -2.025  0.00  0.00     0.036 H 
ATOM     16  C   LIG d   1       5.012   0.268  -3.752  0.00  0.00     0.103 C 
ATOM     17  H   LIG d   1       4.699   1.175  -3.235  0.00  0.00     0.073 H 
ATOM     18  O   LIG d   1       4.529   0.305  -5.079  0.00  0.00    -0.487 OA
ATOM     19  C   LIG d   1       4.154   0.603  -7.851  0.00  0.00    -0.048 C 
ATOM     20  C   LIG d   1       3.645   0.662  -9.081  0.00  0.00    -0.041 C 
ATOM     21  C   LIG d   1       3.159  -0.593  -9.756  0.00  0.00     0.123 C 
ATOM     22  O   LIG d   1       3.919  -1.721  -9.321  0.00  0.00    -0.481 OA
ATOM     23  H   LIG d   1       4.028  -6.424  -8.100  0.00  0.00     0.069 H 
ATOM     24  H   LIG d   1       4.499   1.494  -7.349  0.00  0.00     0.062 H 
ATOM     25  H   LIG d   1       3.582   1.611  -9.594  0.00  0.00     0.061 H 
ENDROOT
BRANCH   1  26
ATOM     26  C   LIG d   1       3.815  -4.231  -9.644  0.00  0.00    -0.027 C 
ATOM     27  H   LIG d   1       3.596  -3.201  -9.926  0.00  0.00     0.031 H 
ATOM     28  H   LIG d   1       4.711  -4.567 -10.166  0.00  0.00     0.031 H 
BRANCH  26  29
ATOM     29  C   LIG d   1       2.635  -5.126 -10.028  0.00  0.00    -0.052 C 
ATOM     30  H   LIG d   1       2.937  -5.800 -10.830  0.00  0.00     0.027 H 
ATOM     31  H   LIG d   1       2.324  -5.709  -9.161  0.00  0.00     0.027 H 
BRANCH  29  32
ATOM     32  C   LIG d   1       1.468  -4.258 -10.503  0.00  0.00    -0.065 C 
ATOM     33  H   LIG d   1       1.085  -4.647 -11.446  0.00  0.00     0.023 H 
ATOM     34  H   LIG d   1       0.675  -4.274  -9.755  0.00  0.00     0.023 H 
ATOM     35  H   LIG d   1       1.813  -3.233 -10.646  0.00  0.00     0.023 H 
ENDBRANCH  29  32
ENDBRANCH  26  29
ENDBRANCH   1  26
BRANCH  12  36
ATOM     36  O   LIG d   1       6.074  -2.664  -3.518  0.00  0.00    -0.387 OA
ATOM     37  H   LIG d   1       6.521  -2.988  -4.312  0.00  0.00     0.210 HD
ENDBRANCH  12  36
BRANCH  21  38
ATOM     38  C   LIG d   1       3.305  -0.441 -11.271  0.00  0.00    -0.021 C 
ATOM     39  H   LIG d   1       4.353  -0.279 -11.521  0.00  0.00     0.027 H 
ATOM     40  H   LIG d   1       2.950  -1.347 -11.762  0.00  0.00     0.027 H 
ATOM     41  H   LIG d   1       2.714   0.411 -11.610  0.00  0.00     0.027 H 
ENDBRANCH  21  38
BRANCH  21  42
ATOM     42  C   LIG d   1       1.686  -0.814  -9.410  0.00  0.00    -0.021 C 
ATOM     43  H   LIG d   1       1.551  -1.824  -9.020  0.00  0.00     0.027 H 
ATOM     44  H   LIG d   1       1.377  -0.089  -8.656  0.00  0.00     0.027 H 
ATOM     45  H   LIG d   1       1.079  -0.687 -10.306  0.00  0.00     0.027 H 
ENDBRANCH  21  42
BRANCH  14  46
ATOM     46  C   LIG d   1       2.995  -0.769  -2.746  0.00  0.00    -0.056 C 
ATOM     47  H   LIG d   1       2.449  -1.514  -3.323  0.00  0.00     0.023 H 
ATOM     48  H   LIG d   1       2.781  -0.899  -1.686  0.00  0.00     0.023 H 
ATOM     49  H   LIG d   1       2.688   0.230  -3.058  0.00  0.00     0.023 H 
ENDBRANCH  14  46
BRANCH  16  50
ATOM     50  C   LIG d   1       6.542   0.217  -3.782  0.00  0.00    -0.028 C 
ATOM     51  H   LIG d   1       6.924   1.097  -4.299  0.00  0.00     0.026 H 
ATOM     52  H   LIG d   1       6.925   0.200  -2.762  0.00  0.00     0.026 H 
ATOM     53  H   LIG d   1       6.865  -0.682  -4.306  0.00  0.00     0.026 H 
ENDBRANCH  16  50
TORSDOF 8
ENDMDL
MODEL 7
REMARK VINA RESULT:      -5.7      7.326     10.814
REMARK  8 active torsions:
REMARK  status: ('A' for Active; 'I' for Inactive)
REMARK    1  A    between atoms: C_1  and  C_2 
REMARK    2  A    between atoms: C_2  and  C_3 
REMARK    3  A    between atoms: C_3  and  C_4 
REMARK    4  A    between atoms: C_15  and  O_24 
REMARK    5  A    between atoms: C_17  and  C_23 
REMARK    6  A    between atoms: C_19  and  C_22 
REMARK    7  A    between atoms: C_27  and  C_29 
REMARK    8  A    between atoms: C_27  and  C_30 
ROOT
ATOM      1  C   LIG d   1       9.964   8.737  -5.008  0.00  0.00    -0.026 A 
ATOM      2  C   LIG d   1       9.714   8.770  -6.343  0.00  0.00     0.027 A 
ATOM      3  C   LIG d   1       9.524   7.566  -7.050  0.00  0.00     0.338 A 
ATOM      4  O   LIG d   1       9.296   7.604  -8.247  0.00  0.00    -0.245 OA
ATOM      5  O   LIG d   1       9.591   6.378  -6.427  0.00  0.00    -0.421 OA
ATOM      6  C   LIG d   1       9.842   6.301  -5.101  0.00  0.00     0.152 A 
ATOM      7  C   LIG d   1      10.040   7.479  -4.357  0.00  0.00     0.064 A 
ATOM      8  C   LIG d   1      10.304   7.394  -2.984  0.00  0.00     0.143 A 
ATOM      9  C   LIG d   1      10.359   6.142  -2.374  0.00  0.00     0.059 A 
ATOM     10  C   LIG d   1      10.153   4.971  -3.123  0.00  0.00     0.141 A 
ATOM     11  C   LIG d   1       9.903   5.056  -4.479  0.00  0.00     0.067 A 
ATOM     12  C   LIG d   1       9.692   3.827  -5.318  0.00  0.00     0.093 C 
ATOM     13  H   LIG d   1       8.837   3.990  -5.973  0.00  0.00     0.065 H 
ATOM     14  C   LIG d   1       9.436   2.595  -4.470  0.00  0.00     0.023 C 
ATOM     15  H   LIG d   1       9.652   1.706  -5.063  0.00  0.00     0.036 H 
ATOM     16  C   LIG d   1      10.295   2.575  -3.219  0.00  0.00     0.103 C 
ATOM     17  H   LIG d   1       9.975   1.748  -2.585  0.00  0.00     0.073 H 
ATOM     18  O   LIG d   1      10.200   3.780  -2.486  0.00  0.00    -0.487 OA
ATOM     19  C   LIG d   1      10.638   6.077  -0.922  0.00  0.00    -0.048 C 
ATOM     20  C   LIG d   1      10.496   7.192  -0.208  0.00  0.00    -0.041 C 
ATOM     21  C   LIG d   1      10.051   8.464  -0.878  0.00  0.00     0.123 C 
ATOM     22  O   LIG d   1      10.507   8.503  -2.231  0.00  0.00    -0.481 OA
ATOM     23  H   LIG d   1       9.656   9.717  -6.859  0.00  0.00     0.069 H 
ATOM     24  H   LIG d   1      10.948   5.153  -0.456  0.00  0.00     0.062 H 
ATOM     25  H   LIG d   1      10.700   7.182   0.853  0.00  0.00     0.061 H 
ENDROOT
BRANCH   1  26
ATOM     26  C   LIG d   1      10.164  10.014  -4.234  0.00  0.00    -0.027 C 
ATOM     27  H   LIG d   1      10.139   9.800  -3.165  0.00  0.00     0.031 H 
ATOM     28  H   LIG d   1      11.128  10.450  -4.495  0.00  0.00     0.031 H 
BRANCH  26  29
ATOM     29  C   LIG d   1       9.047  11.002  -4.581  0.00  0.00    -0.052 C 
ATOM     30  H   LIG d   1       9.443  11.783  -5.231  0.00  0.00     0.027 H 
ATOM     31  H   LIG d   1       8.243  10.474  -5.095  0.00  0.00     0.027 H 
BRANCH  29  32
ATOM     32  C   LIG d   1       8.505  11.632  -3.297  0.00  0.00    -0.065 C 
ATOM     33  H   LIG d   1       8.368  12.703  -3.447  0.00  0.00     0.023 H 
ATOM     34  H   LIG d   1       7.548  11.175  -3.044  0.00  0.00     0.023 H 
ATOM     35  H   LIG d   1       9.213  11.466  -2.484  0.00  0.00     0.023 H 
ENDBRANCH  29  32
ENDBRANCH  26  29
ENDBRANCH   1  26
BRANCH  12  36
ATOM     36  O   LIG d   1      10.855   3.606  -6.118  0.00  0.00    -0.387 OA
ATOM     37  H   LIG d   1      11.397   4.396  -6.251  0.00  0.00     0.210 HD
ENDBRANCH  12  36
BRANCH  21  38
ATOM     38  C   LIG d   1      10.622   9.662  -0.118  0.00  0.00    -0.021 C 
ATOM     39  H   LIG d   1      11.432  10.107  -0.697  0.00  0.00     0.027 H 
ATOM     40  H   LIG d   1       9.837  10.403   0.035  0.00  0.00     0.027 H 
ATOM     41  H   LIG d   1      11.004   9.333   0.848  0.00  0.00     0.027 H 
ENDBRANCH  21  38
BRANCH  21  42
ATOM     42  C   LIG d   1       8.523   8.537  -0.860  0.00  0.00    -0.021 C 
ATOM     43  H   LIG d   1       8.209   9.572  -0.726  0.00  0.00     0.027 H 
ATOM     44  H   LIG d   1       8.130   8.157  -1.803  0.00  0.00     0.027 H 
ATOM     45  H   LIG d   1       8.140   7.931  -0.038  0.00  0.00     0.027 H 
ENDBRANCH  21  42
BRANCH  14  46
ATOM     46  C   LIG d   1       7.961   2.574  -4.062  0.00  0.00    -0.056 C 
ATOM     47  H   LIG d   1       7.637   1.542  -3.925  0.00  0.00     0.023 H 
ATOM     48  H   LIG d   1       7.835   3.122  -3.129  0.00  0.00     0.023 H 
ATOM     49  H   LIG d   1       7.362   3.043  -4.842  0.00  0.00     0.023 H 
ENDBRANCH  14  46
BRANCH  16  50
ATOM     50  C   LIG d   1      11.754   2.353  -3.625  0.00  0.00    -0.028 C 
ATOM     51  H   LIG d   1      11.815   1.514  -4.318  0.00  0.00     0.026 H 
ATOM     52  H   LIG d   1      12.137   3.252  -4.108  0.00  0.00     0.026 H 
ATOM     53  H   LIG d   1      12.349   2.135  -2.738  0.00  0.00     0.026 H 
ENDBRANCH  16  50
TORSDOF 8
ENDMDL
MODEL 8
REMARK VINA RESULT:      -5.7      2.500      6.019
REMARK  8 active torsions:
REMARK  status: ('A' for Active; 'I' for Inactive)
REMARK    1  A    between atoms: C_1  and  C_2 
REMARK    2  A    between atoms: C_2  and  C_3 
REMARK    3  A    between atoms: C_3  and  C_4 
REMARK    4  A    between atoms: C_15  and  O_24 
REMARK    5  A    between atoms: C_17  and  C_23 
REMARK    6  A    between atoms: C_19  and  C_22 
REMARK    7  A    between atoms: C_27  and  C_29 
REMARK    8  A    between atoms: C_27  and  C_30 
ROOT
ATOM      1  C   LIG d   1       4.214  -0.976  -7.455  0.00  0.00    -0.026 A 
ATOM      2  C   LIG d   1       4.164  -1.530  -8.694  0.00  0.00     0.027 A 
ATOM      3  C   LIG d   1       5.108  -2.511  -9.061  0.00  0.00     0.338 A 
ATOM      4  O   LIG d   1       5.055  -3.007 -10.173  0.00  0.00    -0.245 OA
ATOM      5  O   LIG d   1       6.065  -2.907  -8.206  0.00  0.00    -0.421 OA
ATOM      6  C   LIG d   1       6.151  -2.378  -6.965  0.00  0.00     0.152 A 
ATOM      7  C   LIG d   1       5.230  -1.393  -6.559  0.00  0.00     0.064 A 
ATOM      8  C   LIG d   1       5.326  -0.844  -5.273  0.00  0.00     0.143 A 
ATOM      9  C   LIG d   1       6.330  -1.287  -4.413  0.00  0.00     0.059 A 
ATOM     10  C   LIG d   1       7.241  -2.275  -4.824  0.00  0.00     0.141 A 
ATOM     11  C   LIG d   1       7.150  -2.808  -6.096  0.00  0.00     0.067 A 
ATOM     12  C   LIG d   1       8.115  -3.855  -6.579  0.00  0.00     0.093 C 
ATOM     13  H   LIG d   1       7.557  -4.640  -7.088  0.00  0.00     0.065 H 
ATOM     14  C   LIG d   1       8.905  -4.472  -5.440  0.00  0.00     0.023 C 
ATOM     15  H   LIG d   1       9.809  -4.928  -5.842  0.00  0.00     0.036 H 
ATOM     16  C   LIG d   1       9.295  -3.444  -4.394  0.00  0.00     0.103 C 
ATOM     17  H   LIG d   1       9.735  -3.958  -3.540  0.00  0.00     0.073 H 
ATOM     18  O   LIG d   1       8.187  -2.685  -3.952  0.00  0.00    -0.487 OA
ATOM     19  C   LIG d   1       6.411  -0.694  -3.060  0.00  0.00    -0.048 C 
ATOM     20  C   LIG d   1       5.352  -0.025  -2.606  0.00  0.00    -0.041 C 
ATOM     21  C   LIG d   1       4.117   0.097  -3.458  0.00  0.00     0.123 C 
ATOM     22  O   LIG d   1       4.464   0.110  -4.844  0.00  0.00    -0.481 OA
ATOM     23  H   LIG d   1       3.401  -1.224  -9.395  0.00  0.00     0.069 H 
ATOM     24  H   LIG d   1       7.302  -0.799  -2.459  0.00  0.00     0.062 H 
ATOM     25  H   LIG d   1       5.380   0.429  -1.627  0.00  0.00     0.061 H 
ENDROOT
BRANCH   1  26
ATOM     26  C   LIG d   1       3.210   0.069  -7.043  0.00  0.00    -0.027 C 
ATOM     27  H   LIG d   1       2.440  -0.390  -6.422  0.00  0.00     0.031 H 
ATOM     28  H   LIG d   1       3.713   0.854  -6.478  0.00  0.00     0.031 H 
BRANCH  26  29
ATOM     29  C   LIG d   1       2.563   0.676  -8.290  0.00  0.00    -0.052 C 
ATOM     30  H   LIG d   1       2.884   0.121  -9.172  0.00  0.00     0.027 H 
ATOM     31  H   LIG d   1       1.477   0.618  -8.201  0.00  0.00     0.027 H 
BRANCH  29  32
ATOM     32  C   LIG d   1       2.986   2.139  -8.425  0.00  0.00    -0.065 C 
ATOM     33  H   LIG d   1       2.814   2.656  -7.481  0.00  0.00     0.023 H 
ATOM     34  H   LIG d   1       4.045   2.189  -8.679  0.00  0.00     0.023 H 
ATOM     35  H   LIG d   1       2.400   2.616  -9.212  0.00  0.00     0.023 H 
ENDBRANCH  29  32
ENDBRANCH  26  29
ENDBRANCH   1  26
BRANCH  12  36
ATOM     36  O   LIG d   1       9.024  -3.257  -7.503  0.00  0.00    -0.387 OA
ATOM     37  H   LIG d   1       8.919  -2.300  -7.597  0.00  0.00     0.210 HD
ENDBRANCH  12  36
BRANCH  21  38
ATOM     38  C   LIG d   1       3.389   1.396  -3.109  0.00  0.00    -0.021 C 
ATOM     39  H   LIG d   1       4.098   2.224  -3.117  0.00  0.00     0.027 H 
ATOM     40  H   LIG d   1       2.606   1.583  -3.845  0.00  0.00     0.027 H 
ATOM     41  H   LIG d   1       2.943   1.309  -2.118  0.00  0.00     0.027 H 
ENDBRANCH  21  38
BRANCH  21  42
ATOM     42  C   LIG d   1       3.192  -1.090  -3.181  0.00  0.00    -0.021 C 
ATOM     43  H   LIG d   1       3.791  -1.970  -2.944  0.00  0.00     0.027 H 
ATOM     44  H   LIG d   1       2.542  -0.854  -2.338  0.00  0.00     0.027 H 
ATOM     45  H   LIG d   1       2.584  -1.290  -4.063  0.00  0.00     0.027 H 
ENDBRANCH  21  42
BRANCH  14  46
ATOM     46  C   LIG d   1       8.052  -5.557  -4.777  0.00  0.00    -0.056 C 
ATOM     47  H   LIG d   1       7.220  -5.815  -5.431  0.00  0.00     0.023 H 
ATOM     48  H   LIG d   1       8.664  -6.441  -4.600  0.00  0.00     0.023 H 
ATOM     49  H   LIG d   1       7.667  -5.186  -3.827  0.00  0.00     0.023 H 
ENDBRANCH  14  46
BRANCH  16  50
ATOM     50  C   LIG d   1      10.337  -2.498  -4.995  0.00  0.00    -0.028 C 
ATOM     51  H   LIG d   1      10.177  -2.418  -6.070  0.00  0.00     0.026 H 
ATOM     52  H   LIG d   1      10.241  -1.514  -4.539  0.00  0.00     0.026 H 
ATOM     53  H   LIG d   1      11.336  -2.891  -4.805  0.00  0.00     0.026 H 
ENDBRANCH  16  50
TORSDOF 8
ENDMDL
MODEL 9
REMARK VINA RESULT:      -5.7      3.640      6.591
REMARK  8 active torsions:
REMARK  status: ('A' for Active; 'I' for Inactive)
REMARK    1  A    between atoms: C_1  and  C_2 
REMARK    2  A    between atoms: C_2  and  C_3 
REMARK    3  A    between atoms: C_3  and  C_4 
REMARK    4  A    between atoms: C_15  and  O_24 
REMARK    5  A    between atoms: C_17  and  C_23 
REMARK    6  A    between atoms: C_19  and  C_22 
REMARK    7  A    between atoms: C_27  and  C_29 
REMARK    8  A    between atoms: C_27  and  C_30 
ROOT
ATOM      1  C   LIG d   1       2.977   0.141  -7.522  0.00  0.00    -0.026 A 
ATOM      2  C   LIG d   1       2.734   0.808  -6.363  0.00  0.00     0.027 A 
ATOM      3  C   LIG d   1       3.226   0.298  -5.145  0.00  0.00     0.338 A 
ATOM      4  O   LIG d   1       3.009   0.904  -4.110  0.00  0.00    -0.245 OA
ATOM      5  O   LIG d   1       3.931  -0.846  -5.106  0.00  0.00    -0.421 OA
ATOM      6  C   LIG d   1       4.190  -1.542  -6.235  0.00  0.00     0.152 A 
ATOM      7  C   LIG d   1       3.714  -1.069  -7.473  0.00  0.00     0.064 A 
ATOM      8  C   LIG d   1       3.982  -1.796  -8.641  0.00  0.00     0.143 A 
ATOM      9  C   LIG d   1       4.722  -2.975  -8.558  0.00  0.00     0.059 A 
ATOM     10  C   LIG d   1       5.198  -3.436  -7.319  0.00  0.00     0.141 A 
ATOM     11  C   LIG d   1       4.925  -2.723  -6.167  0.00  0.00     0.067 A 
ATOM     12  C   LIG d   1       5.403  -3.190  -4.822  0.00  0.00     0.093 C 
ATOM     13  H   LIG d   1       5.817  -2.341  -4.280  0.00  0.00     0.065 H 
ATOM     14  C   LIG d   1       6.466  -4.267  -4.937  0.00  0.00     0.023 C 
ATOM     15  H   LIG d   1       6.514  -4.820  -3.999  0.00  0.00     0.036 H 
ATOM     16  C   LIG d   1       6.175  -5.238  -6.066  0.00  0.00     0.103 C 
ATOM     17  H   LIG d   1       7.030  -5.901  -6.191  0.00  0.00     0.073 H 
ATOM     18  O   LIG d   1       5.924  -4.576  -7.289  0.00  0.00    -0.487 OA
ATOM     19  C   LIG d   1       4.992  -3.726  -9.804  0.00  0.00    -0.048 C 
ATOM     20  C   LIG d   1       4.817  -3.095 -10.965  0.00  0.00    -0.041 C 
ATOM     21  C   LIG d   1       4.369  -1.658 -10.980  0.00  0.00     0.123 C 
ATOM     22  O   LIG d   1       3.538  -1.380  -9.852  0.00  0.00    -0.481 OA
ATOM     23  H   LIG d   1       2.171   1.729  -6.376  0.00  0.00     0.069 H 
ATOM     24  H   LIG d   1       5.321  -4.753  -9.774  0.00  0.00     0.062 H 
ATOM     25  H   LIG d   1       4.996  -3.616 -11.893  0.00  0.00     0.061 H 
ENDROOT
BRANCH   1  26
ATOM     26  C   LIG d   1       2.464   0.674  -8.834  0.00  0.00    -0.027 C 
ATOM     27  H   LIG d   1       2.937   0.137  -9.656  0.00  0.00     0.031 H 
ATOM     28  H   LIG d   1       1.383   0.537  -8.885  0.00  0.00     0.031 H 
BRANCH  26  29
ATOM     29  C   LIG d   1       2.793   2.165  -8.944  0.00  0.00    -0.052 C 
ATOM     30  H   LIG d   1       2.108   2.637  -9.648  0.00  0.00     0.027 H 
ATOM     31  H   LIG d   1       2.687   2.633  -7.965  0.00  0.00     0.027 H 
BRANCH  29  32
ATOM     32  C   LIG d   1       4.231   2.335  -9.437  0.00  0.00    -0.065 C 
ATOM     33  H   LIG d   1       4.666   1.356  -9.635  0.00  0.00     0.023 H 
ATOM     34  H   LIG d   1       4.232   2.926 -10.354  0.00  0.00     0.023 H 
ATOM     35  H   LIG d   1       4.818   2.846  -8.674  0.00  0.00     0.023 H 
ENDBRANCH  29  32
ENDBRANCH  26  29
ENDBRANCH   1  26
BRANCH  12  36
ATOM     36  O   LIG d   1       4.293  -3.711  -4.090  0.00  0.00    -0.387 OA
ATOM     37  H   LIG d   1       4.182  -4.669  -4.171  0.00  0.00     0.210 HD
ENDBRANCH  12  36
BRANCH  21  38
ATOM     38  C   LIG d   1       3.583  -1.387 -12.264  0.00  0.00    -0.021 C 
ATOM     39  H   LIG d   1       2.985  -2.263 -12.516  0.00  0.00     0.027 H 
ATOM     40  H   LIG d   1       2.925  -0.531 -12.114  0.00  0.00     0.027 H 
ATOM     41  H   LIG d   1       4.276  -1.174 -13.078  0.00  0.00     0.027 H 
ENDBRANCH  21  38
BRANCH  21  42
ATOM     42  C   LIG d   1       5.596  -0.746 -10.938  0.00  0.00    -0.021 C 
ATOM     43  H   LIG d   1       5.346   0.222 -11.374  0.00  0.00     0.027 H 
ATOM     44  H   LIG d   1       5.911  -0.608  -9.903  0.00  0.00     0.027 H 
ATOM     45  H   LIG d   1       6.407  -1.201 -11.506  0.00  0.00     0.027 H 
ENDBRANCH  21  42
BRANCH  14  46
ATOM     46  C   LIG d   1       7.820  -3.601  -5.191  0.00  0.00    -0.056 C 
ATOM     47  H   LIG d   1       7.949  -2.766  -4.502  0.00  0.00     0.023 H 
ATOM     48  H   LIG d   1       8.617  -4.327  -5.036  0.00  0.00     0.023 H 
ATOM     49  H   LIG d   1       7.857  -3.234  -6.218  0.00  0.00     0.023 H 
ENDBRANCH  14  46
BRANCH  16  50
ATOM     50  C   LIG d   1       4.948  -6.075  -5.694  0.00  0.00    -0.028 C 
ATOM     51  H   LIG d   1       4.385  -6.316  -6.596  0.00  0.00     0.026 H 
ATOM     52  H   LIG d   1       5.270  -6.997  -5.210  0.00  0.00     0.026 H 
ATOM     53  H   LIG d   1       4.315  -5.508  -5.011  0.00  0.00     0.026 H 
ENDBRANCH  16  50
TORSDOF 8
ENDMDL
MODEL 10
REMARK VINA RESULT:      -5.5      8.011     11.107
REMARK  8 active torsions:
REMARK  status: ('A' for Active; 'I' for Inactive)
REMARK    1  A    between atoms: C_1  and  C_2 
REMARK    2  A    between atoms: C_2  and  C_3 
REMARK    3  A    between atoms: C_3  and  C_4 
REMARK    4  A    between atoms: C_15  and  O_24 
REMARK    5  A    between atoms: C_17  and  C_23 
REMARK    6  A    between atoms: C_19  and  C_22 
REMARK    7  A    between atoms: C_27  and  C_29 
REMARK    8  A    between atoms: C_27  and  C_30 
ROOT
ATOM      1  C   LIG d   1       9.695   7.384  -7.032  0.00  0.00    -0.026 A 
ATOM      2  C   LIG d   1       9.702   8.512  -7.789  0.00  0.00     0.027 A 
ATOM      3  C   LIG d   1       9.833   9.771  -7.169  0.00  0.00     0.338 A 
ATOM      4  O   LIG d   1       9.843  10.778  -7.854  0.00  0.00    -0.245 OA
ATOM      5  O   LIG d   1       9.946   9.878  -5.835  0.00  0.00    -0.421 OA
ATOM      6  C   LIG d   1       9.939   8.780  -5.045  0.00  0.00     0.152 A 
ATOM      7  C   LIG d   1       9.808   7.504  -5.624  0.00  0.00     0.064 A 
ATOM      8  C   LIG d   1       9.797   6.369  -4.802  0.00  0.00     0.143 A 
ATOM      9  C   LIG d   1       9.924   6.523  -3.422  0.00  0.00     0.059 A 
ATOM     10  C   LIG d   1      10.061   7.801  -2.853  0.00  0.00     0.141 A 
ATOM     11  C   LIG d   1      10.062   8.920  -3.665  0.00  0.00     0.067 A 
ATOM     12  C   LIG d   1      10.192  10.304  -3.095  0.00  0.00     0.093 C 
ATOM     13  H   LIG d   1      10.906  10.866  -3.695  0.00  0.00     0.065 H 
ATOM     14  C   LIG d   1      10.665  10.285  -1.653  0.00  0.00     0.023 C 
ATOM     15  H   LIG d   1      10.399  11.230  -1.181  0.00  0.00     0.036 H 
ATOM     16  C   LIG d   1      10.044   9.148  -0.864  0.00  0.00     0.103 C 
ATOM     17  H   LIG d   1      10.518   9.098   0.116  0.00  0.00     0.073 H 
ATOM     18  O   LIG d   1      10.196   7.901  -1.513  0.00  0.00    -0.487 OA
ATOM     19  C   LIG d   1       9.910   5.311  -2.574  0.00  0.00    -0.048 C 
ATOM     20  C   LIG d   1      10.112   4.133  -3.163  0.00  0.00    -0.041 C 
ATOM     21  C   LIG d   1      10.357   4.066  -4.647  0.00  0.00     0.123 C 
ATOM     22  O   LIG d   1       9.666   5.122  -5.316  0.00  0.00    -0.481 OA
ATOM     23  H   LIG d   1       9.613   8.444  -8.863  0.00  0.00     0.069 H 
ATOM     24  H   LIG d   1       9.742   5.379  -1.509  0.00  0.00     0.062 H 
ATOM     25  H   LIG d   1      10.099   3.228  -2.575  0.00  0.00     0.061 H 
ENDROOT
BRANCH   1  26
ATOM     26  C   LIG d   1       9.561   6.029  -7.678  0.00  0.00    -0.027 C 
ATOM     27  H   LIG d   1      10.346   5.370  -7.306  0.00  0.00     0.031 H 
ATOM     28  H   LIG d   1       8.586   5.606  -7.437  0.00  0.00     0.031 H 
BRANCH  26  29
ATOM     29  C   LIG d   1       9.693   6.172  -9.196  0.00  0.00    -0.052 C 
ATOM     30  H   LIG d   1       9.943   7.203  -9.444  0.00  0.00     0.027 H 
ATOM     31  H   LIG d   1      10.482   5.510  -9.556  0.00  0.00     0.027 H 
BRANCH  29  32
ATOM     32  C   LIG d   1       8.368   5.794  -9.861  0.00  0.00    -0.065 C 
ATOM     33  H   LIG d   1       8.397   6.073 -10.915  0.00  0.00     0.023 H 
ATOM     34  H   LIG d   1       8.212   4.719  -9.775  0.00  0.00     0.023 H 
ATOM     35  H   LIG d   1       7.551   6.321  -9.368  0.00  0.00     0.023 H 
ENDBRANCH  29  32
ENDBRANCH  26  29
ENDBRANCH   1  26
BRANCH  12  36
ATOM     36  O   LIG d   1       8.921  10.952  -3.157  0.00  0.00    -0.387 OA
ATOM     37  H   LIG d   1       8.689  11.281  -4.037  0.00  0.00     0.210 HD
ENDBRANCH  12  36
BRANCH  21  38
ATOM     38  C   LIG d   1       9.860   2.722  -5.180  0.00  0.00    -0.021 C 
ATOM     39  H   LIG d   1      10.713   2.109  -5.472  0.00  0.00     0.027 H 
ATOM     40  H   LIG d   1       9.295   2.208  -4.402  0.00  0.00     0.027 H 
ATOM     41  H   LIG d   1       9.218   2.887  -6.046  0.00  0.00     0.027 H 
ENDBRANCH  21  38
BRANCH  21  42
ATOM     42  C   LIG d   1      11.857   4.194  -4.917  0.00  0.00    -0.021 C 
ATOM     43  H   LIG d   1      12.153   5.240  -4.838  0.00  0.00     0.027 H 
ATOM     44  H   LIG d   1      12.409   3.603  -4.187  0.00  0.00     0.027 H 
ATOM     45  H   LIG d   1      12.078   3.830  -5.921  0.00  0.00     0.027 H 
ENDBRANCH  21  42
BRANCH  14  46
ATOM     46  C   LIG d   1      12.187  10.130  -1.635  0.00  0.00    -0.056 C 
ATOM     47  H   LIG d   1      12.543  10.159  -0.605  0.00  0.00     0.023 H 
ATOM     48  H   LIG d   1      12.461   9.178  -2.088  0.00  0.00     0.023 H 
ATOM     49  H   LIG d   1      12.642  10.945  -2.199  0.00  0.00     0.023 H 
ENDBRANCH  14  46
BRANCH  16  50
ATOM     50  C   LIG d   1       8.552   9.432  -0.679  0.00  0.00    -0.028 C 
ATOM     51  H   LIG d   1       8.134   9.804  -1.614  0.00  0.00     0.026 H 
ATOM     52  H   LIG d   1       8.040   8.514  -0.392  0.00  0.00     0.026 H 
ATOM     53  H   LIG d   1       8.418  10.181   0.102  0.00  0.00     0.026 H 
ENDBRANCH  16  50
TORSDOF 8
ENDMDL
