MODEL 1
REMARK VINA RESULT:      -7.3      0.000      0.000
REMARK  5 active torsions:
REMARK  status: ('A' for Active; 'I' for Inactive)
REMARK    1  A    between atoms: C_4  and  C_7 
REMARK    2  A    between atoms: C_7  and  N_8 
REMARK    3  A    between atoms: C_13  and  N_17 
REMARK    4  A    between atoms: N_17  and  C_18 
REMARK    5  A    between atoms: C_22  and  C_24 
ROOT
ATOM      1  N   LIG d   1       5.469  -7.403  -6.035  0.00  0.00    -0.242 N 
ATOM      2  C   LIG d   1       6.327  -6.414  -5.657  0.00  0.00     0.164 A 
ATOM      3  C   LIG d   1       5.611  -5.203  -5.753  0.00  0.00     0.079 A 
ATOM      4  C   LIG d   1       4.312  -5.526  -6.197  0.00  0.00     0.062 A 
ATOM      5  N   LIG d   1       4.238  -6.816  -6.359  0.00  0.00    -0.177 NA
ATOM      6  C   LIG d   1       6.275  -4.008  -5.414  0.00  0.00     0.137 A 
ATOM      7  N   LIG d   1       7.542  -4.079  -5.022  0.00  0.00    -0.220 NA
ATOM      8  C   LIG d   1       8.172  -5.238  -4.948  0.00  0.00     0.120 A 
ATOM      9  N   LIG d   1       7.595  -6.379  -5.253  0.00  0.00    -0.216 NA
ATOM     10  H   LIG d   1       3.512  -4.822  -6.373  0.00  0.00     0.086 H 
ATOM     11  H   LIG d   1       9.201  -5.248  -4.620  0.00  0.00     0.105 H 
ENDROOT
BRANCH   6  12
ATOM     12  N   LIG d   1       5.623  -2.792  -5.489  0.00  0.00    -0.299 N 
ATOM     13  H   LIG d   1       5.503  -2.357  -6.348  0.00  0.00     0.154 HD
BRANCH  12  14
ATOM     14  C   LIG d   1       5.136  -2.188  -4.325  0.00  0.00     0.033 A 
ATOM     15  C   LIG d   1       5.519  -0.896  -4.002  0.00  0.00    -0.032 A 
ATOM     16  C   LIG d   1       5.025  -0.297  -2.842  0.00  0.00    -0.001 A 
ATOM     17  H   LIG d   1       6.192  -0.352  -4.649  0.00  0.00     0.064 H 
ATOM     18  C   LIG d   1       4.160  -1.008  -2.009  0.00  0.00    -0.053 A 
ATOM     19  C   LIG d   1       3.791  -2.297  -2.337  0.00  0.00    -0.059 A 
ATOM     20  H   LIG d   1       3.780  -0.549  -1.108  0.00  0.00     0.062 H 
ATOM     21  C   LIG d   1       4.275  -2.888  -3.488  0.00  0.00    -0.041 A 
ATOM     22  H   LIG d   1       3.120  -2.845  -1.690  0.00  0.00     0.062 H 
ATOM     23  H   LIG d   1       3.981  -3.896  -3.739  0.00  0.00     0.064 H 
BRANCH  16  24
ATOM     24  C   LIG d   1       5.423   1.083  -2.494  0.00  0.00     0.072 C 
ATOM     25  O   LIG d   1       4.954   1.621  -1.512  0.00  0.00    -0.545 OA
ATOM     26  O   LIG d   1       6.307   1.744  -3.267  0.00  0.00    -0.545 OA
ENDBRANCH  16  24
ENDBRANCH  12  14
ENDBRANCH   6  12
BRANCH   1  27
ATOM     27  C   LIG d   1       5.779  -8.834  -6.091  0.00  0.00     0.069 C 
ATOM     28  H   LIG d   1       5.094  -9.326  -6.781  0.00  0.00     0.056 H 
ATOM     29  H   LIG d   1       6.804  -8.970  -6.436  0.00  0.00     0.056 H 
BRANCH  27  30
ATOM     30  C   LIG d   1       5.626  -9.435  -4.718  0.00  0.00    -0.026 A 
ATOM     31  C   LIG d   1       6.738  -9.637  -3.923  0.00  0.00    -0.057 A 
ATOM     32  C   LIG d   1       6.598 -10.188  -2.664  0.00  0.00    -0.061 A 
ATOM     33  H   LIG d   1       7.718  -9.363  -4.286  0.00  0.00     0.062 H 
ATOM     34  C   LIG d   1       5.344 -10.539  -2.199  0.00  0.00    -0.062 A 
ATOM     35  H   LIG d   1       7.467 -10.346  -2.043  0.00  0.00     0.062 H 
ATOM     36  C   LIG d   1       4.230 -10.338  -2.994  0.00  0.00    -0.061 A 
ATOM     37  H   LIG d   1       5.234 -10.970  -1.214  0.00  0.00     0.062 H 
ATOM     38  C   LIG d   1       4.371  -9.781  -4.251  0.00  0.00    -0.057 A 
ATOM     39  H   LIG d   1       3.251 -10.611  -2.630  0.00  0.00     0.062 H 
ATOM     40  H   LIG d   1       3.501  -9.619  -4.870  0.00  0.00     0.062 H 
ENDBRANCH  27  30
ENDBRANCH   1  27
TORSDOF 5
ENDMDL
MODEL 2
REMARK VINA RESULT:      -7.1      3.673      7.550
REMARK  5 active torsions:
REMARK  status: ('A' for Active; 'I' for Inactive)
REMARK    1  A    between atoms: C_4  and  C_7 
REMARK    2  A    between atoms: C_7  and  N_8 
REMARK    3  A    between atoms: C_13  and  N_17 
REMARK    4  A    between atoms: N_17  and  C_18 
REMARK    5  A    between atoms: C_22  and  C_24 
ROOT
ATOM      1  N   LIG d   1       5.968  -3.671  -5.531  0.00  0.00    -0.242 N 
ATOM      2  C   LIG d   1       7.009  -4.493  -5.216  0.00  0.00     0.164 A 
ATOM      3  C   LIG d   1       6.573  -5.808  -5.471  0.00  0.00     0.079 A 
ATOM      4  C   LIG d   1       5.246  -5.719  -5.944  0.00  0.00     0.062 A 
ATOM      5  N   LIG d   1       4.902  -4.464  -5.976  0.00  0.00    -0.177 NA
ATOM      6  C   LIG d   1       7.469  -6.867  -5.225  0.00  0.00     0.137 A 
ATOM      7  N   LIG d   1       8.681  -6.574  -4.766  0.00  0.00    -0.220 NA
ATOM      8  C   LIG d   1       9.045  -5.324  -4.542  0.00  0.00     0.120 A 
ATOM      9  N   LIG d   1       8.244  -4.304  -4.756  0.00  0.00    -0.216 NA
ATOM     10  H   LIG d   1       4.622  -6.552  -6.231  0.00  0.00     0.086 H 
ATOM     11  H   LIG d   1      10.042  -5.133  -4.172  0.00  0.00     0.105 H 
ENDROOT
BRANCH   6  12
ATOM     12  N   LIG d   1       7.096  -8.177  -5.456  0.00  0.00    -0.299 N 
ATOM     13  H   LIG d   1       7.242  -8.577  -6.328  0.00  0.00     0.154 HD
BRANCH  12  14
ATOM     14  C   LIG d   1       6.507  -8.927  -4.433  0.00  0.00     0.033 A 
ATOM     15  C   LIG d   1       5.160  -9.244  -4.493  0.00  0.00    -0.032 A 
ATOM     16  C   LIG d   1       4.579  -9.998  -3.471  0.00  0.00    -0.001 A 
ATOM     17  H   LIG d   1       4.562  -8.915  -5.330  0.00  0.00     0.064 H 
ATOM     18  C   LIG d   1       5.357 -10.415  -2.390  0.00  0.00    -0.053 A 
ATOM     19  C   LIG d   1       6.697 -10.088  -2.337  0.00  0.00    -0.059 A 
ATOM     20  H   LIG d   1       4.911 -10.994  -1.595  0.00  0.00     0.062 H 
ATOM     21  C   LIG d   1       7.273  -9.347  -3.352  0.00  0.00    -0.041 A 
ATOM     22  H   LIG d   1       7.297 -10.413  -1.499  0.00  0.00     0.062 H 
ATOM     23  H   LIG d   1       8.322  -9.095  -3.304  0.00  0.00     0.064 H 
BRANCH  16  24
ATOM     24  C   LIG d   1       3.144 -10.346  -3.531  0.00  0.00     0.072 C 
ATOM     25  O   LIG d   1       2.332  -9.680  -2.922  0.00  0.00    -0.545 OA
ATOM     26  O   LIG d   1       2.738 -11.402  -4.262  0.00  0.00    -0.545 OA
ENDBRANCH  16  24
ENDBRANCH  12  14
ENDBRANCH   6  12
BRANCH   1  27
ATOM     27  C   LIG d   1       5.966  -2.210  -5.426  0.00  0.00     0.069 C 
ATOM     28  H   LIG d   1       6.926  -1.873  -5.034  0.00  0.00     0.056 H 
ATOM     29  H   LIG d   1       5.803  -1.774  -6.412  0.00  0.00     0.056 H 
BRANCH  27  30
ATOM     30  C   LIG d   1       4.864  -1.774  -4.496  0.00  0.00    -0.026 A 
ATOM     31  C   LIG d   1       4.714  -2.386  -3.266  0.00  0.00    -0.057 A 
ATOM     32  C   LIG d   1       3.703  -1.986  -2.412  0.00  0.00    -0.061 A 
ATOM     33  H   LIG d   1       5.388  -3.177  -2.970  0.00  0.00     0.062 H 
ATOM     34  C   LIG d   1       2.841  -0.974  -2.790  0.00  0.00    -0.062 A 
ATOM     35  H   LIG d   1       3.586  -2.465  -1.451  0.00  0.00     0.062 H 
ATOM     36  C   LIG d   1       2.989  -0.361  -4.021  0.00  0.00    -0.061 A 
ATOM     37  H   LIG d   1       2.050  -0.661  -2.123  0.00  0.00     0.062 H 
ATOM     38  C   LIG d   1       4.004  -0.758  -4.871  0.00  0.00    -0.057 A 
ATOM     39  H   LIG d   1       2.315   0.430  -4.315  0.00  0.00     0.062 H 
ATOM     40  H   LIG d   1       4.124  -0.276  -5.830  0.00  0.00     0.062 H 
ENDBRANCH  27  30
ENDBRANCH   1  27
TORSDOF 5
ENDMDL
MODEL 3
REMARK VINA RESULT:      -7.0      3.669      7.724
REMARK  5 active torsions:
REMARK  status: ('A' for Active; 'I' for Inactive)
REMARK    1  A    between atoms: C_4  and  C_7 
REMARK    2  A    between atoms: C_7  and  N_8 
REMARK    3  A    between atoms: C_13  and  N_17 
REMARK    4  A    between atoms: N_17  and  C_18 
REMARK    5  A    between atoms: C_22  and  C_24 
ROOT
ATOM      1  N   LIG d   1       6.373  -3.079  -5.446  0.00  0.00    -0.242 N 
ATOM      2  C   LIG d   1       5.599  -4.066  -5.980  0.00  0.00     0.164 A 
ATOM      3  C   LIG d   1       6.312  -5.270  -5.815  0.00  0.00     0.079 A 
ATOM      4  C   LIG d   1       7.524  -4.946  -5.167  0.00  0.00     0.062 A 
ATOM      5  N   LIG d   1       7.549  -3.662  -4.956  0.00  0.00    -0.177 NA
ATOM      6  C   LIG d   1       5.728  -6.461  -6.287  0.00  0.00     0.137 A 
ATOM      7  N   LIG d   1       4.534  -6.393  -6.864  0.00  0.00    -0.220 NA
ATOM      8  C   LIG d   1       3.902  -5.241  -6.997  0.00  0.00     0.120 A 
ATOM      9  N   LIG d   1       4.407  -4.103  -6.573  0.00  0.00    -0.216 NA
ATOM     10  H   LIG d   1       8.299  -5.646  -4.893  0.00  0.00     0.086 H 
ATOM     11  H   LIG d   1       2.931  -5.233  -7.469  0.00  0.00     0.105 H 
ENDROOT
BRANCH   6  12
ATOM     12  N   LIG d   1       6.382  -7.671  -6.151  0.00  0.00    -0.299 N 
ATOM     13  H   LIG d   1       7.045  -7.941  -6.807  0.00  0.00     0.154 HD
BRANCH  12  14
ATOM     14  C   LIG d   1       6.087  -8.508  -5.070  0.00  0.00     0.033 A 
ATOM     15  C   LIG d   1       4.792  -8.963  -4.878  0.00  0.00    -0.032 A 
ATOM     16  C   LIG d   1       4.505  -9.801  -3.800  0.00  0.00    -0.001 A 
ATOM     17  H   LIG d   1       4.009  -8.674  -5.564  0.00  0.00     0.064 H 
ATOM     18  C   LIG d   1       5.522 -10.166  -2.916  0.00  0.00    -0.053 A 
ATOM     19  C   LIG d   1       6.806  -9.702  -3.112  0.00  0.00    -0.059 A 
ATOM     20  H   LIG d   1       5.302 -10.811  -2.078  0.00  0.00     0.062 H 
ATOM     21  C   LIG d   1       7.092  -8.876  -4.183  0.00  0.00    -0.041 A 
ATOM     22  H   LIG d   1       7.592  -9.986  -2.426  0.00  0.00     0.062 H 
ATOM     23  H   LIG d   1       8.099  -8.517  -4.331  0.00  0.00     0.064 H 
BRANCH  16  24
ATOM     24  C   LIG d   1       3.128 -10.296  -3.593  0.00  0.00     0.072 C 
ATOM     25  O   LIG d   1       2.360  -9.677  -2.885  0.00  0.00    -0.545 OA
ATOM     26  O   LIG d   1       2.725 -11.434  -4.191  0.00  0.00    -0.545 OA
ENDBRANCH  16  24
ENDBRANCH  12  14
ENDBRANCH   6  12
BRANCH   1  27
ATOM     27  C   LIG d   1       6.032  -1.656  -5.392  0.00  0.00     0.069 C 
ATOM     28  H   LIG d   1       6.901  -1.088  -5.057  0.00  0.00     0.056 H 
ATOM     29  H   LIG d   1       5.737  -1.315  -6.385  0.00  0.00     0.056 H 
BRANCH  27  30
ATOM     30  C   LIG d   1       4.893  -1.446  -4.429  0.00  0.00    -0.026 A 
ATOM     31  C   LIG d   1       3.877  -0.565  -4.741  0.00  0.00    -0.057 A 
ATOM     32  C   LIG d   1       2.831  -0.373  -3.857  0.00  0.00    -0.061 A 
ATOM     33  H   LIG d   1       3.898  -0.024  -5.676  0.00  0.00     0.062 H 
ATOM     34  C   LIG d   1       2.803  -1.064  -2.660  0.00  0.00    -0.062 A 
ATOM     35  H   LIG d   1       2.037   0.316  -4.101  0.00  0.00     0.062 H 
ATOM     36  C   LIG d   1       3.821  -1.947  -2.347  0.00  0.00    -0.061 A 
ATOM     37  H   LIG d   1       1.986  -0.915  -1.969  0.00  0.00     0.062 H 
ATOM     38  C   LIG d   1       4.863  -2.142  -3.234  0.00  0.00    -0.057 A 
ATOM     39  H   LIG d   1       3.799  -2.487  -1.412  0.00  0.00     0.062 H 
ATOM     40  H   LIG d   1       5.655  -2.835  -2.992  0.00  0.00     0.062 H 
ENDBRANCH  27  30
ENDBRANCH   1  27
TORSDOF 5
ENDMDL
MODEL 4
REMARK VINA RESULT:      -7.0      6.486      9.380
REMARK  5 active torsions:
REMARK  status: ('A' for Active; 'I' for Inactive)
REMARK    1  A    between atoms: C_4  and  C_7 
REMARK    2  A    between atoms: C_7  and  N_8 
REMARK    3  A    between atoms: C_13  and  N_17 
REMARK    4  A    between atoms: N_17  and  C_18 
REMARK    5  A    between atoms: C_22  and  C_24 
ROOT
ATOM      1  N   LIG d   1       3.047   0.146  -6.195  0.00  0.00    -0.242 N 
ATOM      2  C   LIG d   1       3.185   0.871  -7.341  0.00  0.00     0.164 A 
ATOM      3  C   LIG d   1       3.890   0.056  -8.249  0.00  0.00     0.079 A 
ATOM      4  C   LIG d   1       4.153  -1.164  -7.591  0.00  0.00     0.062 A 
ATOM      5  N   LIG d   1       3.656  -1.102  -6.390  0.00  0.00    -0.177 NA
ATOM      6  C   LIG d   1       4.170   0.572  -9.529  0.00  0.00     0.137 A 
ATOM      7  N   LIG d   1       3.757   1.802  -9.818  0.00  0.00    -0.220 NA
ATOM      8  C   LIG d   1       3.100   2.529  -8.933  0.00  0.00     0.120 A 
ATOM      9  N   LIG d   1       2.815   2.091  -7.727  0.00  0.00    -0.216 NA
ATOM     10  H   LIG d   1       4.679  -2.008  -8.013  0.00  0.00     0.086 H 
ATOM     11  H   LIG d   1       2.780   3.522  -9.213  0.00  0.00     0.105 H 
ENDROOT
BRANCH   6  12
ATOM     12  N   LIG d   1       4.858  -0.182 -10.461  0.00  0.00    -0.299 N 
ATOM     13  H   LIG d   1       5.798  -0.378 -10.329  0.00  0.00     0.154 HD
BRANCH  12  14
ATOM     14  C   LIG d   1       4.196  -0.662 -11.596  0.00  0.00     0.033 A 
ATOM     15  C   LIG d   1       2.941  -1.237 -11.476  0.00  0.00    -0.032 A 
ATOM     16  C   LIG d   1       2.284  -1.710 -12.613  0.00  0.00    -0.001 A 
ATOM     17  H   LIG d   1       2.472  -1.315 -10.506  0.00  0.00     0.064 H 
ATOM     18  C   LIG d   1       2.900  -1.610 -13.862  0.00  0.00    -0.053 A 
ATOM     19  C   LIG d   1       4.153  -1.040 -13.969  0.00  0.00    -0.059 A 
ATOM     20  H   LIG d   1       2.396  -1.978 -14.743  0.00  0.00     0.062 H 
ATOM     21  C   LIG d   1       4.801  -0.568 -12.844  0.00  0.00    -0.041 A 
ATOM     22  H   LIG d   1       4.627  -0.964 -14.937  0.00  0.00     0.062 H 
ATOM     23  H   LIG d   1       5.781  -0.123 -12.936  0.00  0.00     0.064 H 
BRANCH  16  24
ATOM     24  C   LIG d   1       0.943  -2.318 -12.493  0.00  0.00     0.072 C 
ATOM     25  O   LIG d   1       0.038  -1.940 -13.210  0.00  0.00    -0.545 OA
ATOM     26  O   LIG d   1       0.724  -3.294 -11.590  0.00  0.00    -0.545 OA
ENDBRANCH  16  24
ENDBRANCH  12  14
ENDBRANCH   6  12
BRANCH   1  27
ATOM     27  C   LIG d   1       2.376   0.592  -4.972  0.00  0.00     0.069 C 
ATOM     28  H   LIG d   1       2.323   1.681  -4.965  0.00  0.00     0.056 H 
ATOM     29  H   LIG d   1       1.367   0.179  -4.940  0.00  0.00     0.056 H 
BRANCH  27  30
ATOM     30  C   LIG d   1       3.152   0.120  -3.771  0.00  0.00    -0.026 A 
ATOM     31  C   LIG d   1       3.890   1.020  -3.027  0.00  0.00    -0.057 A 
ATOM     32  C   LIG d   1       4.602   0.586  -1.924  0.00  0.00    -0.061 A 
ATOM     33  H   LIG d   1       3.911   2.063  -3.306  0.00  0.00     0.062 H 
ATOM     34  C   LIG d   1       4.576  -0.749  -1.566  0.00  0.00    -0.062 A 
ATOM     35  H   LIG d   1       5.179   1.290  -1.342  0.00  0.00     0.062 H 
ATOM     36  C   LIG d   1       3.837  -1.650  -2.311  0.00  0.00    -0.061 A 
ATOM     37  H   LIG d   1       5.132  -1.088  -0.704  0.00  0.00     0.062 H 
ATOM     38  C   LIG d   1       3.121  -1.215  -3.409  0.00  0.00    -0.057 A 
ATOM     39  H   LIG d   1       3.817  -2.693  -2.030  0.00  0.00     0.062 H 
ATOM     40  H   LIG d   1       2.541  -1.917  -3.989  0.00  0.00     0.062 H 
ENDBRANCH  27  30
ENDBRANCH   1  27
TORSDOF 5
ENDMDL
MODEL 5
REMARK VINA RESULT:      -7.0      6.196      8.876
REMARK  5 active torsions:
REMARK  status: ('A' for Active; 'I' for Inactive)
REMARK    1  A    between atoms: C_4  and  C_7 
REMARK    2  A    between atoms: C_7  and  N_8 
REMARK    3  A    between atoms: C_13  and  N_17 
REMARK    4  A    between atoms: N_17  and  C_18 
REMARK    5  A    between atoms: C_22  and  C_24 
ROOT
ATOM      1  N   LIG d   1       5.393  -0.689  -6.355  0.00  0.00    -0.242 N 
ATOM      2  C   LIG d   1       5.709   0.229  -7.313  0.00  0.00     0.164 A 
ATOM      3  C   LIG d   1       4.601   0.300  -8.181  0.00  0.00     0.079 A 
ATOM      4  C   LIG d   1       3.635  -0.606  -7.693  0.00  0.00     0.062 A 
ATOM      5  N   LIG d   1       4.108  -1.179  -6.624  0.00  0.00    -0.177 NA
ATOM      6  C   LIG d   1       4.667   1.186  -9.274  0.00  0.00     0.137 A 
ATOM      7  N   LIG d   1       5.769   1.911  -9.434  0.00  0.00    -0.220 NA
ATOM      8  C   LIG d   1       6.783   1.810  -8.593  0.00  0.00     0.120 A 
ATOM      9  N   LIG d   1       6.768   0.997  -7.559  0.00  0.00    -0.216 NA
ATOM     10  H   LIG d   1       2.666  -0.791  -8.132  0.00  0.00     0.086 H 
ATOM     11  H   LIG d   1       7.657   2.422  -8.760  0.00  0.00     0.105 H 
ENDROOT
BRANCH   6  12
ATOM     12  N   LIG d   1       3.610   1.298 -10.158  0.00  0.00    -0.299 N 
ATOM     13  H   LIG d   1       3.014   2.061 -10.107  0.00  0.00     0.154 HD
BRANCH  12  14
ATOM     14  C   LIG d   1       3.402   0.310 -11.125  0.00  0.00     0.033 A 
ATOM     15  C   LIG d   1       2.238  -0.443 -11.108  0.00  0.00    -0.032 A 
ATOM     16  C   LIG d   1       2.033  -1.424 -12.080  0.00  0.00    -0.001 A 
ATOM     17  H   LIG d   1       1.490  -0.268 -10.349  0.00  0.00     0.064 H 
ATOM     18  C   LIG d   1       3.007  -1.648 -13.055  0.00  0.00    -0.053 A 
ATOM     19  C   LIG d   1       4.165  -0.897 -13.059  0.00  0.00    -0.059 A 
ATOM     20  H   LIG d   1       2.854  -2.409 -13.805  0.00  0.00     0.062 H 
ATOM     21  C   LIG d   1       4.365   0.078 -12.100  0.00  0.00    -0.041 A 
ATOM     22  H   LIG d   1       4.917  -1.072 -13.815  0.00  0.00     0.062 H 
ATOM     23  H   LIG d   1       5.273   0.663 -12.110  0.00  0.00     0.064 H 
BRANCH  16  24
ATOM     24  C   LIG d   1       0.793  -2.226 -12.072  0.00  0.00     0.072 C 
ATOM     25  O   LIG d   1       0.700  -3.194 -11.344  0.00  0.00    -0.545 OA
ATOM     26  O   LIG d   1      -0.236  -1.884 -12.872  0.00  0.00    -0.545 OA
ENDBRANCH  16  24
ENDBRANCH  12  14
ENDBRANCH   6  12
BRANCH   1  27
ATOM     27  C   LIG d   1       6.249  -1.091  -5.237  0.00  0.00     0.069 C 
ATOM     28  H   LIG d   1       6.369  -2.175  -5.243  0.00  0.00     0.056 H 
ATOM     29  H   LIG d   1       7.226  -0.618  -5.339  0.00  0.00     0.056 H 
BRANCH  27  30
ATOM     30  C   LIG d   1       5.616  -0.663  -3.939  0.00  0.00    -0.026 A 
ATOM     31  C   LIG d   1       5.678   0.659  -3.541  0.00  0.00    -0.057 A 
ATOM     32  C   LIG d   1       5.095   1.051  -2.351  0.00  0.00    -0.061 A 
ATOM     33  H   LIG d   1       6.180   1.386  -4.161  0.00  0.00     0.062 H 
ATOM     34  C   LIG d   1       4.452   0.120  -1.557  0.00  0.00    -0.062 A 
ATOM     35  H   LIG d   1       5.144   2.084  -2.040  0.00  0.00     0.062 H 
ATOM     36  C   LIG d   1       4.390  -1.203  -1.954  0.00  0.00    -0.061 A 
ATOM     37  H   LIG d   1       3.996   0.426  -0.626  0.00  0.00     0.062 H 
ATOM     38  C   LIG d   1       4.967  -1.593  -3.147  0.00  0.00    -0.057 A 
ATOM     39  H   LIG d   1       3.886  -1.930  -1.333  0.00  0.00     0.062 H 
ATOM     40  H   LIG d   1       4.915  -2.626  -3.460  0.00  0.00     0.062 H 
ENDBRANCH  27  30
ENDBRANCH   1  27
TORSDOF 5
ENDMDL
MODEL 6
REMARK VINA RESULT:      -6.9      6.734      9.588
REMARK  5 active torsions:
REMARK  status: ('A' for Active; 'I' for Inactive)
REMARK    1  A    between atoms: C_4  and  C_7 
REMARK    2  A    between atoms: C_7  and  N_8 
REMARK    3  A    between atoms: C_13  and  N_17 
REMARK    4  A    between atoms: N_17  and  C_18 
REMARK    5  A    between atoms: C_22  and  C_24 
ROOT
ATOM      1  N   LIG d   1       3.100   0.125  -6.217  0.00  0.00    -0.242 N 
ATOM      2  C   LIG d   1       3.209   0.809  -7.391  0.00  0.00     0.164 A 
ATOM      3  C   LIG d   1       3.923  -0.023  -8.276  0.00  0.00     0.079 A 
ATOM      4  C   LIG d   1       4.222  -1.211  -7.576  0.00  0.00     0.062 A 
ATOM      5  N   LIG d   1       3.736  -1.115  -6.372  0.00  0.00    -0.177 NA
ATOM      6  C   LIG d   1       4.178   0.451  -9.578  0.00  0.00     0.137 A 
ATOM      7  N   LIG d   1       3.733   1.659  -9.908  0.00  0.00    -0.220 NA
ATOM      8  C   LIG d   1       3.068   2.404  -9.043  0.00  0.00     0.120 A 
ATOM      9  N   LIG d   1       2.806   2.005  -7.818  0.00  0.00    -0.216 NA
ATOM     10  H   LIG d   1       4.763  -2.057  -7.972  0.00  0.00     0.086 H 
ATOM     11  H   LIG d   1       2.721   3.378  -9.356  0.00  0.00     0.105 H 
ENDROOT
BRANCH   6  12
ATOM     12  N   LIG d   1       4.873  -0.321 -10.489  0.00  0.00    -0.299 N 
ATOM     13  H   LIG d   1       5.804  -0.542 -10.328  0.00  0.00     0.154 HD
BRANCH  12  14
ATOM     14  C   LIG d   1       4.233  -0.785 -11.642  0.00  0.00     0.033 A 
ATOM     15  C   LIG d   1       4.662  -0.362 -12.891  0.00  0.00    -0.032 A 
ATOM     16  C   LIG d   1       4.023  -0.832 -14.039  0.00  0.00    -0.001 A 
ATOM     17  H   LIG d   1       5.491   0.325 -12.975  0.00  0.00     0.064 H 
ATOM     18  C   LIG d   1       2.949  -1.716 -13.922  0.00  0.00    -0.053 A 
ATOM     19  C   LIG d   1       2.526  -2.127 -12.673  0.00  0.00    -0.059 A 
ATOM     20  H   LIG d   1       2.449  -2.079 -14.808  0.00  0.00     0.062 H 
ATOM     21  C   LIG d   1       3.162  -1.665 -11.537  0.00  0.00    -0.041 A 
ATOM     22  H   LIG d   1       1.694  -2.811 -12.585  0.00  0.00     0.062 H 
ATOM     23  H   LIG d   1       2.827  -1.990 -10.564  0.00  0.00     0.064 H 
BRANCH  16  24
ATOM     24  C   LIG d   1       4.479  -0.391 -15.373  0.00  0.00     0.072 C 
ATOM     25  O   LIG d   1       3.668  -0.040 -16.206  0.00  0.00    -0.545 OA
ATOM     26  O   LIG d   1       5.794  -0.379 -15.666  0.00  0.00    -0.545 OA
ENDBRANCH  16  24
ENDBRANCH  12  14
ENDBRANCH   6  12
BRANCH   1  27
ATOM     27  C   LIG d   1       2.431   0.601  -5.004  0.00  0.00     0.069 C 
ATOM     28  H   LIG d   1       2.416   1.692  -5.004  0.00  0.00     0.056 H 
ATOM     29  H   LIG d   1       1.409   0.224  -4.981  0.00  0.00     0.056 H 
BRANCH  27  30
ATOM     30  C   LIG d   1       3.178   0.110  -3.792  0.00  0.00    -0.026 A 
ATOM     31  C   LIG d   1       3.123  -1.225  -3.440  0.00  0.00    -0.057 A 
ATOM     32  C   LIG d   1       3.808  -1.676  -2.328  0.00  0.00    -0.061 A 
ATOM     33  H   LIG d   1       2.544  -1.918  -4.034  0.00  0.00     0.062 H 
ATOM     34  C   LIG d   1       4.549  -0.792  -1.567  0.00  0.00    -0.062 A 
ATOM     35  H   LIG d   1       3.765  -2.720  -2.053  0.00  0.00     0.062 H 
ATOM     36  C   LIG d   1       4.604   0.545  -1.918  0.00  0.00    -0.061 A 
ATOM     37  H   LIG d   1       5.085  -1.144  -0.697  0.00  0.00     0.062 H 
ATOM     38  C   LIG d   1       3.923   0.994  -3.034  0.00  0.00    -0.057 A 
ATOM     39  H   LIG d   1       5.183   1.236  -1.323  0.00  0.00     0.062 H 
ATOM     40  H   LIG d   1       3.970   2.037  -3.311  0.00  0.00     0.062 H 
ENDBRANCH  27  30
ENDBRANCH   1  27
TORSDOF 5
ENDMDL
MODEL 7
REMARK VINA RESULT:      -6.7      6.333      8.936
REMARK  5 active torsions:
REMARK  status: ('A' for Active; 'I' for Inactive)
REMARK    1  A    between atoms: C_4  and  C_7 
REMARK    2  A    between atoms: C_7  and  N_8 
REMARK    3  A    between atoms: C_13  and  N_17 
REMARK    4  A    between atoms: N_17  and  C_18 
REMARK    5  A    between atoms: C_22  and  C_24 
ROOT
ATOM      1  N   LIG d   1       5.427  -0.658  -6.361  0.00  0.00    -0.242 N 
ATOM      2  C   LIG d   1       5.769   0.255  -7.313  0.00  0.00     0.164 A 
ATOM      3  C   LIG d   1       4.671   0.351  -8.191  0.00  0.00     0.079 A 
ATOM      4  C   LIG d   1       3.683  -0.537  -7.714  0.00  0.00     0.062 A 
ATOM      5  N   LIG d   1       4.135  -1.122  -6.643  0.00  0.00    -0.177 NA
ATOM      6  C   LIG d   1       4.764   1.238  -9.281  0.00  0.00     0.137 A 
ATOM      7  N   LIG d   1       5.882   1.941  -9.428  0.00  0.00    -0.220 NA
ATOM      8  C   LIG d   1       6.886   1.818  -8.579  0.00  0.00     0.120 A 
ATOM      9  N   LIG d   1       6.846   1.003  -7.548  0.00  0.00    -0.216 NA
ATOM     10  H   LIG d   1       2.714  -0.702  -8.162  0.00  0.00     0.086 H 
ATOM     11  H   LIG d   1       7.774   2.412  -8.736  0.00  0.00     0.105 H 
ENDROOT
BRANCH   6  12
ATOM     12  N   LIG d   1       3.718   1.373 -10.174  0.00  0.00    -0.299 N 
ATOM     13  H   LIG d   1       3.178   2.179 -10.170  0.00  0.00     0.154 HD
BRANCH  12  14
ATOM     14  C   LIG d   1       3.438   0.347 -11.082  0.00  0.00     0.033 A 
ATOM     15  C   LIG d   1       4.369   0.005 -12.051  0.00  0.00    -0.032 A 
ATOM     16  C   LIG d   1       4.086  -1.023 -12.951  0.00  0.00    -0.001 A 
ATOM     17  H   LIG d   1       5.312   0.529 -12.105  0.00  0.00     0.064 H 
ATOM     18  C   LIG d   1       2.863  -1.692 -12.877  0.00  0.00    -0.053 A 
ATOM     19  C   LIG d   1       1.941  -1.339 -11.913  0.00  0.00    -0.059 A 
ATOM     20  H   LIG d   1       2.639  -2.485 -13.575  0.00  0.00     0.062 H 
ATOM     21  C   LIG d   1       2.223  -0.325 -11.018  0.00  0.00    -0.041 A 
ATOM     22  H   LIG d   1       0.995  -1.859 -11.858  0.00  0.00     0.062 H 
ATOM     23  H   LIG d   1       1.497  -0.054 -10.266  0.00  0.00     0.064 H 
BRANCH  16  24
ATOM     24  C   LIG d   1       5.076  -1.398 -13.982  0.00  0.00     0.072 C 
ATOM     25  O   LIG d   1       5.848  -0.566 -14.414  0.00  0.00    -0.545 OA
ATOM     26  O   LIG d   1       5.122  -2.663 -14.443  0.00  0.00    -0.545 OA
ENDBRANCH  16  24
ENDBRANCH  12  14
ENDBRANCH   6  12
BRANCH   1  27
ATOM     27  C   LIG d   1       6.264  -1.081  -5.236  0.00  0.00     0.069 C 
ATOM     28  H   LIG d   1       6.376  -2.165  -5.253  0.00  0.00     0.056 H 
ATOM     29  H   LIG d   1       7.246  -0.613  -5.319  0.00  0.00     0.056 H 
BRANCH  27  30
ATOM     30  C   LIG d   1       5.616  -0.664  -3.941  0.00  0.00    -0.026 A 
ATOM     31  C   LIG d   1       4.955  -1.598  -3.167  0.00  0.00    -0.057 A 
ATOM     32  C   LIG d   1       4.361  -1.215  -1.979  0.00  0.00    -0.061 A 
ATOM     33  H   LIG d   1       4.902  -2.627  -3.489  0.00  0.00     0.062 H 
ATOM     34  C   LIG d   1       4.427   0.103  -1.566  0.00  0.00    -0.062 A 
ATOM     35  H   LIG d   1       3.844  -1.945  -1.374  0.00  0.00     0.062 H 
ATOM     36  C   LIG d   1       5.089   1.038  -2.341  0.00  0.00    -0.061 A 
ATOM     37  H   LIG d   1       3.963   0.402  -0.637  0.00  0.00     0.062 H 
ATOM     38  C   LIG d   1       5.688   0.653  -3.526  0.00  0.00    -0.057 A 
ATOM     39  H   LIG d   1       5.141   2.067  -2.018  0.00  0.00     0.062 H 
ATOM     40  H   LIG d   1       6.208   1.382  -4.129  0.00  0.00     0.062 H 
ENDBRANCH  27  30
ENDBRANCH   1  27
TORSDOF 5
ENDMDL
MODEL 8
REMARK VINA RESULT:      -6.6      3.484      7.559
REMARK  5 active torsions:
REMARK  status: ('A' for Active; 'I' for Inactive)
REMARK    1  A    between atoms: C_4  and  C_7 
REMARK    2  A    between atoms: C_7  and  N_8 
REMARK    3  A    between atoms: C_13  and  N_17 
REMARK    4  A    between atoms: N_17  and  C_18 
REMARK    5  A    between atoms: C_22  and  C_24 
ROOT
ATOM      1  N   LIG d   1       6.400  -3.358  -5.428  0.00  0.00    -0.242 N 
ATOM      2  C   LIG d   1       5.537  -4.269  -5.958  0.00  0.00     0.164 A 
ATOM      3  C   LIG d   1       6.150  -5.531  -5.820  0.00  0.00     0.079 A 
ATOM      4  C   LIG d   1       7.395  -5.318  -5.191  0.00  0.00     0.062 A 
ATOM      5  N   LIG d   1       7.532  -4.043  -4.966  0.00  0.00    -0.177 NA
ATOM      6  C   LIG d   1       5.460  -6.663  -6.295  0.00  0.00     0.137 A 
ATOM      7  N   LIG d   1       4.266  -6.487  -6.850  0.00  0.00    -0.220 NA
ATOM      8  C   LIG d   1       3.730  -5.285  -6.958  0.00  0.00     0.120 A 
ATOM      9  N   LIG d   1       4.336  -4.199  -6.530  0.00  0.00    -0.216 NA
ATOM     10  H   LIG d   1       8.114  -6.084  -4.940  0.00  0.00     0.086 H 
ATOM     11  H   LIG d   1       2.755  -5.190  -7.412  0.00  0.00     0.105 H 
ENDROOT
BRANCH   6  12
ATOM     12  N   LIG d   1       6.012  -7.925  -6.186  0.00  0.00    -0.299 N 
ATOM     13  H   LIG d   1       6.556  -8.281  -6.906  0.00  0.00     0.154 HD
BRANCH  12  14
ATOM     14  C   LIG d   1       5.786  -8.689  -5.036  0.00  0.00     0.033 A 
ATOM     15  C   LIG d   1       6.802  -8.868  -4.111  0.00  0.00    -0.032 A 
ATOM     16  C   LIG d   1       6.569  -9.627  -2.963  0.00  0.00    -0.001 A 
ATOM     17  H   LIG d   1       7.770  -8.417  -4.275  0.00  0.00     0.064 H 
ATOM     18  C   LIG d   1       5.317 -10.211  -2.761  0.00  0.00    -0.053 A 
ATOM     19  C   LIG d   1       4.314 -10.031  -3.692  0.00  0.00    -0.059 A 
ATOM     20  H   LIG d   1       5.134 -10.802  -1.876  0.00  0.00     0.062 H 
ATOM     21  C   LIG d   1       4.543  -9.275  -4.825  0.00  0.00    -0.041 A 
ATOM     22  H   LIG d   1       3.345 -10.484  -3.533  0.00  0.00     0.062 H 
ATOM     23  H   LIG d   1       3.754  -9.138  -5.549  0.00  0.00     0.064 H 
BRANCH  16  24
ATOM     24  C   LIG d   1       7.645  -9.817  -1.969  0.00  0.00     0.072 C 
ATOM     25  O   LIG d   1       8.808  -9.708  -2.304  0.00  0.00    -0.545 OA
ATOM     26  O   LIG d   1       7.337 -10.110  -0.691  0.00  0.00    -0.545 OA
ENDBRANCH  16  24
ENDBRANCH  12  14
ENDBRANCH   6  12
BRANCH   1  27
ATOM     27  C   LIG d   1       6.181  -1.911  -5.352  0.00  0.00     0.069 C 
ATOM     28  H   LIG d   1       7.084  -1.427  -4.979  0.00  0.00     0.056 H 
ATOM     29  H   LIG d   1       5.947  -1.527  -6.345  0.00  0.00     0.056 H 
BRANCH  27  30
ATOM     30  C   LIG d   1       5.035  -1.624  -4.417  0.00  0.00    -0.026 A 
ATOM     31  C   LIG d   1       4.030  -0.758  -4.801  0.00  0.00    -0.057 A 
ATOM     32  C   LIG d   1       2.978  -0.495  -3.944  0.00  0.00    -0.061 A 
ATOM     33  H   LIG d   1       4.065  -0.285  -5.772  0.00  0.00     0.062 H 
ATOM     34  C   LIG d   1       2.932  -1.099  -2.701  0.00  0.00    -0.062 A 
ATOM     35  H   LIG d   1       2.193   0.183  -4.244  0.00  0.00     0.062 H 
ATOM     36  C   LIG d   1       3.938  -1.966  -2.316  0.00  0.00    -0.061 A 
ATOM     37  H   LIG d   1       2.110  -0.894  -2.030  0.00  0.00     0.062 H 
ATOM     38  C   LIG d   1       4.986  -2.233  -3.176  0.00  0.00    -0.057 A 
ATOM     39  H   LIG d   1       3.902  -2.438  -1.345  0.00  0.00     0.062 H 
ATOM     40  H   LIG d   1       5.770  -2.914  -2.878  0.00  0.00     0.062 H 
ENDBRANCH  27  30
ENDBRANCH   1  27
TORSDOF 5
ENDMDL
MODEL 9
REMARK VINA RESULT:      -6.6      5.563      9.241
REMARK  5 active torsions:
REMARK  status: ('A' for Active; 'I' for Inactive)
REMARK    1  A    between atoms: C_4  and  C_7 
REMARK    2  A    between atoms: C_7  and  N_8 
REMARK    3  A    between atoms: C_13  and  N_17 
REMARK    4  A    between atoms: N_17  and  C_18 
REMARK    5  A    between atoms: C_22  and  C_24 
ROOT
ATOM      1  N   LIG d   1       8.825   1.770  -4.405  0.00  0.00    -0.242 N 
ATOM      2  C   LIG d   1       8.675   0.453  -4.725  0.00  0.00     0.164 A 
ATOM      3  C   LIG d   1       7.465   0.033  -4.138  0.00  0.00     0.079 A 
ATOM      4  C   LIG d   1       6.921   1.149  -3.469  0.00  0.00     0.062 A 
ATOM      5  N   LIG d   1       7.723   2.161  -3.632  0.00  0.00    -0.177 NA
ATOM      6  C   LIG d   1       7.068  -1.306  -4.318  0.00  0.00     0.137 A 
ATOM      7  N   LIG d   1       7.852  -2.107  -5.032  0.00  0.00    -0.220 NA
ATOM      8  C   LIG d   1       8.978  -1.668  -5.563  0.00  0.00     0.120 A 
ATOM      9  N   LIG d   1       9.391  -0.427  -5.422  0.00  0.00    -0.216 NA
ATOM     10  H   LIG d   1       5.993   1.162  -2.916  0.00  0.00     0.086 H 
ATOM     11  H   LIG d   1       9.582  -2.353  -6.139  0.00  0.00     0.105 H 
ENDROOT
BRANCH   6  12
ATOM     12  N   LIG d   1       5.890  -1.775  -3.766  0.00  0.00    -0.299 N 
ATOM     13  H   LIG d   1       5.904  -2.542  -3.173  0.00  0.00     0.154 HD
BRANCH  12  14
ATOM     14  C   LIG d   1       4.679  -1.142  -4.063  0.00  0.00     0.033 A 
ATOM     15  C   LIG d   1       4.412  -0.729  -5.359  0.00  0.00    -0.032 A 
ATOM     16  C   LIG d   1       3.200  -0.103  -5.651  0.00  0.00    -0.001 A 
ATOM     17  H   LIG d   1       5.138  -0.897  -6.142  0.00  0.00     0.064 H 
ATOM     18  C   LIG d   1       2.270   0.115  -4.633  0.00  0.00    -0.053 A 
ATOM     19  C   LIG d   1       2.548  -0.294  -3.344  0.00  0.00    -0.059 A 
ATOM     20  H   LIG d   1       1.332   0.604  -4.854  0.00  0.00     0.062 H 
ATOM     21  C   LIG d   1       3.747  -0.919  -3.057  0.00  0.00    -0.041 A 
ATOM     22  H   LIG d   1       1.827  -0.124  -2.558  0.00  0.00     0.062 H 
ATOM     23  H   LIG d   1       3.958  -1.237  -2.047  0.00  0.00     0.064 H 
BRANCH  16  24
ATOM     24  C   LIG d   1       2.905   0.333  -7.031  0.00  0.00     0.072 C 
ATOM     25  O   LIG d   1       2.519  -0.473  -7.854  0.00  0.00    -0.545 OA
ATOM     26  O   LIG d   1       3.063   1.626  -7.377  0.00  0.00    -0.545 OA
ENDBRANCH  16  24
ENDBRANCH  12  14
ENDBRANCH   6  12
BRANCH   1  27
ATOM     27  C   LIG d   1       9.943   2.628  -4.803  0.00  0.00     0.069 C 
ATOM     28  H   LIG d   1      10.884   2.141  -4.544  0.00  0.00     0.056 H 
ATOM     29  H   LIG d   1       9.906   2.798  -5.879  0.00  0.00     0.056 H 
BRANCH  27  30
ATOM     30  C   LIG d   1       9.847   3.947  -4.081  0.00  0.00    -0.026 A 
ATOM     31  C   LIG d   1       9.354   5.060  -4.736  0.00  0.00    -0.057 A 
ATOM     32  C   LIG d   1       9.265   6.270  -4.074  0.00  0.00    -0.061 A 
ATOM     33  H   LIG d   1       9.039   4.985  -5.766  0.00  0.00     0.062 H 
ATOM     34  C   LIG d   1       9.670   6.367  -2.756  0.00  0.00    -0.062 A 
ATOM     35  H   LIG d   1       8.881   7.139  -4.586  0.00  0.00     0.062 H 
ATOM     36  C   LIG d   1      10.163   5.254  -2.099  0.00  0.00    -0.061 A 
ATOM     37  H   LIG d   1       9.600   7.312  -2.237  0.00  0.00     0.062 H 
ATOM     38  C   LIG d   1      10.246   4.043  -2.760  0.00  0.00    -0.057 A 
ATOM     39  H   LIG d   1      10.478   5.330  -1.069  0.00  0.00     0.062 H 
ATOM     40  H   LIG d   1      10.626   3.173  -2.247  0.00  0.00     0.062 H 
ENDBRANCH  27  30
ENDBRANCH   1  27
TORSDOF 5
ENDMDL
MODEL 10
REMARK VINA RESULT:      -6.5      5.760      8.268
REMARK  5 active torsions:
REMARK  status: ('A' for Active; 'I' for Inactive)
REMARK    1  A    between atoms: C_4  and  C_7 
REMARK    2  A    between atoms: C_7  and  N_8 
REMARK    3  A    between atoms: C_13  and  N_17 
REMARK    4  A    between atoms: N_17  and  C_18 
REMARK    5  A    between atoms: C_22  and  C_24 
ROOT
ATOM      1  N   LIG d   1       6.887   0.370  -5.096  0.00  0.00    -0.242 N 
ATOM      2  C   LIG d   1       8.115   0.611  -5.636  0.00  0.00     0.164 A 
ATOM      3  C   LIG d   1       8.758   1.527  -4.779  0.00  0.00     0.079 A 
ATOM      4  C   LIG d   1       7.861   1.807  -3.726  0.00  0.00     0.062 A 
ATOM      5  N   LIG d   1       6.770   1.125  -3.921  0.00  0.00    -0.177 NA
ATOM      6  C   LIG d   1      10.060   1.949  -5.111  0.00  0.00     0.137 A 
ATOM      7  N   LIG d   1      10.619   1.463  -6.214  0.00  0.00    -0.220 NA
ATOM      8  C   LIG d   1       9.977   0.606  -6.987  0.00  0.00     0.120 A 
ATOM      9  N   LIG d   1       8.761   0.183  -6.719  0.00  0.00    -0.216 NA
ATOM     10  H   LIG d   1       8.049   2.474  -2.898  0.00  0.00     0.086 H 
ATOM     11  H   LIG d   1      10.472   0.235  -7.873  0.00  0.00     0.105 H 
ENDROOT
BRANCH   6  12
ATOM     12  N   LIG d   1      10.739   2.845  -4.308  0.00  0.00    -0.299 N 
ATOM     13  H   LIG d   1      11.516   2.554  -3.804  0.00  0.00     0.154 HD
BRANCH  12  14
ATOM     14  C   LIG d   1      10.306   4.172  -4.221  0.00  0.00     0.033 A 
ATOM     15  C   LIG d   1      10.255   4.806  -2.990  0.00  0.00    -0.032 A 
ATOM     16  C   LIG d   1       9.827   6.132  -2.910  0.00  0.00    -0.001 A 
ATOM     17  H   LIG d   1      10.551   4.277  -2.096  0.00  0.00     0.064 H 
ATOM     18  C   LIG d   1       9.441   6.807  -4.071  0.00  0.00    -0.053 A 
ATOM     19  C   LIG d   1       9.490   6.164  -5.291  0.00  0.00    -0.059 A 
ATOM     20  H   LIG d   1       9.105   7.832  -4.013  0.00  0.00     0.062 H 
ATOM     21  C   LIG d   1       9.919   4.853  -5.370  0.00  0.00    -0.041 A 
ATOM     22  H   LIG d   1       9.191   6.688  -6.187  0.00  0.00     0.062 H 
ATOM     23  H   LIG d   1       9.955   4.356  -6.328  0.00  0.00     0.064 H 
BRANCH  16  24
ATOM     24  C   LIG d   1       9.776   6.817  -1.602  0.00  0.00     0.072 C 
ATOM     25  O   LIG d   1       8.751   7.358  -1.239  0.00  0.00    -0.545 OA
ATOM     26  O   LIG d   1      10.867   6.841  -0.812  0.00  0.00    -0.545 OA
ENDBRANCH  16  24
ENDBRANCH  12  14
ENDBRANCH   6  12
BRANCH   1  27
ATOM     27  C   LIG d   1       5.867  -0.525  -5.648  0.00  0.00     0.069 C 
ATOM     28  H   LIG d   1       5.378  -0.039  -6.493  0.00  0.00     0.056 H 
ATOM     29  H   LIG d   1       6.338  -1.449  -5.982  0.00  0.00     0.056 H 
BRANCH  27  30
ATOM     30  C   LIG d   1       4.844  -0.836  -4.587  0.00  0.00    -0.026 A 
ATOM     31  C   LIG d   1       3.619  -0.196  -4.599  0.00  0.00    -0.057 A 
ATOM     32  C   LIG d   1       2.680  -0.482  -3.626  0.00  0.00    -0.061 A 
ATOM     33  H   LIG d   1       3.395   0.528  -5.368  0.00  0.00     0.062 H 
ATOM     34  C   LIG d   1       2.966  -1.408  -2.640  0.00  0.00    -0.062 A 
ATOM     35  H   LIG d   1       1.723   0.018  -3.635  0.00  0.00     0.062 H 
ATOM     36  C   LIG d   1       4.192  -2.049  -2.628  0.00  0.00    -0.061 A 
ATOM     37  H   LIG d   1       2.232  -1.633  -1.879  0.00  0.00     0.062 H 
ATOM     38  C   LIG d   1       5.128  -1.767  -3.605  0.00  0.00    -0.057 A 
ATOM     39  H   LIG d   1       4.415  -2.773  -1.858  0.00  0.00     0.062 H 
ATOM     40  H   LIG d   1       6.083  -2.270  -3.598  0.00  0.00     0.062 H 
ENDBRANCH  27  30
ENDBRANCH   1  27
TORSDOF 5
ENDMDL
