MODEL 1
REMARK VINA RESULT:      -4.7      0.000      0.000
REMARK  14 active torsions:
REMARK  status: ('A' for Active; 'I' for Inactive)
REMARK    1  A    between atoms: C_1  and  C_2 
REMARK    2  A    between atoms: C_2  and  C_4 
REMARK    3  A    between atoms: C_2  and  N_10 
REMARK    4  A    between atoms: C_4  and  C_5 
REMARK    5  A    between atoms: C_5  and  C_6 
REMARK    6  A    between atoms: C_7  and  C_8 
REMARK    7  A    between atoms: C_7  and  C_9 
REMARK       I    between atoms: N_10  and  C_11 
REMARK    8  A    between atoms: N_10  and  C_13 
REMARK    9  A    between atoms: C_13  and  C_15 
REMARK   10  A    between atoms: C_13  and  C_16 
REMARK   11  A    between atoms: C_16  and  C_17 
REMARK   12  A    between atoms: C_17  and  C_18 
REMARK   13  A    between atoms: C_19  and  C_20 
REMARK   14  A    between atoms: C_19  and  C_21 
ROOT
ATOM      1  N   LIG d   1       4.613   0.654  -8.202  0.00  0.00    -0.298 N 
ATOM      2  C   LIG d   1       4.796   1.697  -9.037  0.00  0.00     0.203 C 
ATOM      3  O   LIG d   1       3.925   2.532  -9.163  0.00  0.00    -0.279 OA
ATOM      4  H   LIG d   1       5.716   1.789  -9.594  0.00  0.00     0.125 H 
ENDROOT
BRANCH   1   5
ATOM      5  C   LIG d   1       5.665  -0.354  -8.051  0.00  0.00     0.024 C 
ATOM      6  H   LIG d   1       5.496  -0.920  -7.135  0.00  0.00     0.050 H 
BRANCH   5   7
ATOM      7  C   LIG d   1       5.638  -1.304  -9.250  0.00  0.00    -0.046 C 
ATOM      8  H   LIG d   1       6.080  -2.260  -8.967  0.00  0.00     0.025 H 
ATOM      9  H   LIG d   1       4.606  -1.460  -9.566  0.00  0.00     0.025 H 
ATOM     10  H   LIG d   1       6.207  -0.869 -10.070  0.00  0.00     0.025 H 
ENDBRANCH   5   7
BRANCH   5  11
ATOM     11  C   LIG d   1       7.028   0.337  -7.979  0.00  0.00    -0.031 C 
ATOM     12  H   LIG d   1       7.804  -0.355  -8.306  0.00  0.00     0.029 H 
ATOM     13  H   LIG d   1       7.026   1.213  -8.627  0.00  0.00     0.029 H 
BRANCH  11  14
ATOM     14  C   LIG d   1       7.305   0.770  -6.538  0.00  0.00    -0.033 C 
ATOM     15  H   LIG d   1       8.315   1.174  -6.467  0.00  0.00     0.031 H 
ATOM     16  H   LIG d   1       6.587   1.536  -6.243  0.00  0.00     0.031 H 
BRANCH  14  17
ATOM     17  C   LIG d   1       7.175  -0.420  -5.621  0.00  0.00    -0.085 C 
ATOM     18  C   LIG d   1       7.103  -0.243  -4.325  0.00  0.00    -0.080 C 
ATOM     19  H   LIG d   1       7.141  -1.417  -6.034  0.00  0.00     0.057 H 
BRANCH  18  20
ATOM     20  C   LIG d   1       7.292   1.132  -3.740  0.00  0.00    -0.044 C 
ATOM     21  H   LIG d   1       7.867   1.746  -4.434  0.00  0.00     0.027 H 
ATOM     22  H   LIG d   1       6.319   1.591  -3.569  0.00  0.00     0.027 H 
ATOM     23  H   LIG d   1       7.830   1.054  -2.795  0.00  0.00     0.027 H 
ENDBRANCH  18  20
BRANCH  18  24
ATOM     24  C   LIG d   1       6.832  -1.418  -3.420  0.00  0.00    -0.044 C 
ATOM     25  H   LIG d   1       6.201  -2.139  -3.940  0.00  0.00     0.027 H 
ATOM     26  H   LIG d   1       7.776  -1.890  -3.147  0.00  0.00     0.027 H 
ATOM     27  H   LIG d   1       6.325  -1.073  -2.520  0.00  0.00     0.027 H 
ENDBRANCH  18  24
ENDBRANCH  14  17
ENDBRANCH  11  14
ENDBRANCH   5  11
ENDBRANCH   1   5
BRANCH   1  28
ATOM     28  C   LIG d   1       3.364   0.530  -7.448  0.00  0.00     0.024 C 
ATOM     29  H   LIG d   1       2.944   1.520  -7.274  0.00  0.00     0.050 H 
BRANCH  28  30
ATOM     30  C   LIG d   1       2.368  -0.314  -8.247  0.00  0.00    -0.046 C 
ATOM     31  H   LIG d   1       1.394   0.178  -8.248  0.00  0.00     0.025 H 
ATOM     32  H   LIG d   1       2.722  -0.419  -9.273  0.00  0.00     0.025 H 
ATOM     33  H   LIG d   1       2.277  -1.299  -7.791  0.00  0.00     0.025 H 
ENDBRANCH  28  30
BRANCH  28  34
ATOM     34  C   LIG d   1       3.644  -0.148  -6.105  0.00  0.00    -0.031 C 
ATOM     35  H   LIG d   1       3.603  -1.230  -6.228  0.00  0.00     0.029 H 
ATOM     36  H   LIG d   1       4.635   0.141  -5.752  0.00  0.00     0.029 H 
BRANCH  34  37
ATOM     37  C   LIG d   1       2.592   0.290  -5.084  0.00  0.00    -0.033 C 
ATOM     38  H   LIG d   1       1.909   1.002  -5.548  0.00  0.00     0.031 H 
ATOM     39  H   LIG d   1       2.032  -0.581  -4.744  0.00  0.00     0.031 H 
BRANCH  37  40
ATOM     40  C   LIG d   1       3.274   0.941  -3.908  0.00  0.00    -0.085 C 
ATOM     41  C   LIG d   1       3.551   0.236  -2.839  0.00  0.00    -0.080 C 
ATOM     42  H   LIG d   1       3.534   1.988  -3.947  0.00  0.00     0.057 H 
BRANCH  41  43
ATOM     43  C   LIG d   1       3.065  -1.186  -2.727  0.00  0.00    -0.044 C 
ATOM     44  H   LIG d   1       3.600  -1.691  -1.923  0.00  0.00     0.027 H 
ATOM     45  H   LIG d   1       1.997  -1.190  -2.513  0.00  0.00     0.027 H 
ATOM     46  H   LIG d   1       3.248  -1.708  -3.668  0.00  0.00     0.027 H 
ENDBRANCH  41  43
BRANCH  41  47
ATOM     47  C   LIG d   1       4.356   0.847  -1.721  0.00  0.00    -0.044 C 
ATOM     48  H   LIG d   1       4.231   1.930  -1.733  0.00  0.00     0.027 H 
ATOM     49  H   LIG d   1       4.010   0.452  -0.767  0.00  0.00     0.027 H 
ATOM     50  H   LIG d   1       5.409   0.602  -1.857  0.00  0.00     0.027 H 
ENDBRANCH  41  47
ENDBRANCH  37  40
ENDBRANCH  34  37
ENDBRANCH  28  34
ENDBRANCH   1  28
TORSDOF 14
ENDMDL
MODEL 2
REMARK VINA RESULT:      -4.6      1.600      4.190
REMARK  14 active torsions:
REMARK  status: ('A' for Active; 'I' for Inactive)
REMARK    1  A    between atoms: C_1  and  C_2 
REMARK    2  A    between atoms: C_2  and  C_4 
REMARK    3  A    between atoms: C_2  and  N_10 
REMARK    4  A    between atoms: C_4  and  C_5 
REMARK    5  A    between atoms: C_5  and  C_6 
REMARK    6  A    between atoms: C_7  and  C_8 
REMARK    7  A    between atoms: C_7  and  C_9 
REMARK       I    between atoms: N_10  and  C_11 
REMARK    8  A    between atoms: N_10  and  C_13 
REMARK    9  A    between atoms: C_13  and  C_15 
REMARK   10  A    between atoms: C_13  and  C_16 
REMARK   11  A    between atoms: C_16  and  C_17 
REMARK   12  A    between atoms: C_17  and  C_18 
REMARK   13  A    between atoms: C_19  and  C_20 
REMARK   14  A    between atoms: C_19  and  C_21 
ROOT
ATOM      1  N   LIG d   1       6.214  -0.373  -6.429  0.00  0.00    -0.298 N 
ATOM      2  C   LIG d   1       6.695   0.491  -7.346  0.00  0.00     0.203 C 
ATOM      3  O   LIG d   1       6.078   0.692  -8.371  0.00  0.00    -0.279 OA
ATOM      4  H   LIG d   1       7.628   1.004  -7.168  0.00  0.00     0.125 H 
ENDROOT
BRANCH   1   5
ATOM      5  C   LIG d   1       6.959  -0.615  -5.191  0.00  0.00     0.024 C 
ATOM      6  H   LIG d   1       6.357  -1.226  -4.519  0.00  0.00     0.050 H 
BRANCH   5   7
ATOM      7  C   LIG d   1       8.264  -1.346  -5.515  0.00  0.00    -0.046 C 
ATOM      8  H   LIG d   1       8.374  -1.431  -6.596  0.00  0.00     0.025 H 
ATOM      9  H   LIG d   1       9.105  -0.784  -5.107  0.00  0.00     0.025 H 
ATOM     10  H   LIG d   1       8.242  -2.340  -5.071  0.00  0.00     0.025 H 
ENDBRANCH   5   7
BRANCH   5  11
ATOM     11  C   LIG d   1       7.277   0.722  -4.518  0.00  0.00    -0.031 C 
ATOM     12  H   LIG d   1       8.321   0.732  -4.205  0.00  0.00     0.029 H 
ATOM     13  H   LIG d   1       7.101   1.535  -5.222  0.00  0.00     0.029 H 
BRANCH  11  14
ATOM     14  C   LIG d   1       6.377   0.903  -3.294  0.00  0.00    -0.033 C 
ATOM     15  H   LIG d   1       6.955   1.340  -2.479  0.00  0.00     0.031 H 
ATOM     16  H   LIG d   1       5.548   1.565  -3.546  0.00  0.00     0.031 H 
BRANCH  14  17
ATOM     17  C   LIG d   1       5.837  -0.437  -2.864  0.00  0.00    -0.085 C 
ATOM     18  C   LIG d   1       4.615  -0.532  -2.400  0.00  0.00    -0.080 C 
ATOM     19  H   LIG d   1       6.457  -1.318  -2.939  0.00  0.00     0.057 H 
BRANCH  18  20
ATOM     20  C   LIG d   1       3.800   0.712  -2.163  0.00  0.00    -0.044 C 
ATOM     21  H   LIG d   1       4.467   1.549  -1.956  0.00  0.00     0.027 H 
ATOM     22  H   LIG d   1       3.205   0.931  -3.049  0.00  0.00     0.027 H 
ATOM     23  H   LIG d   1       3.138   0.556  -1.310  0.00  0.00     0.027 H 
ENDBRANCH  18  20
BRANCH  18  24
ATOM     24  C   LIG d   1       4.027  -1.888  -2.103  0.00  0.00    -0.044 C 
ATOM     25  H   LIG d   1       4.732  -2.467  -1.506  0.00  0.00     0.027 H 
ATOM     26  H   LIG d   1       3.097  -1.766  -1.549  0.00  0.00     0.027 H 
ATOM     27  H   LIG d   1       3.826  -2.410  -3.038  0.00  0.00     0.027 H 
ENDBRANCH  18  24
ENDBRANCH  14  17
ENDBRANCH  11  14
ENDBRANCH   5  11
ENDBRANCH   1   5
BRANCH   1  28
ATOM     28  C   LIG d   1       4.948  -1.069  -6.671  0.00  0.00     0.024 C 
ATOM     29  H   LIG d   1       4.673  -0.969  -7.721  0.00  0.00     0.050 H 
BRANCH  28  30
ATOM     30  C   LIG d   1       5.108  -2.551  -6.325  0.00  0.00    -0.046 C 
ATOM     31  H   LIG d   1       5.057  -2.679  -5.243  0.00  0.00     0.025 H 
ATOM     32  H   LIG d   1       4.308  -3.122  -6.795  0.00  0.00     0.025 H 
ATOM     33  H   LIG d   1       6.072  -2.908  -6.688  0.00  0.00     0.025 H 
ENDBRANCH  28  30
BRANCH  28  34
ATOM     34  C   LIG d   1       3.853  -0.456  -5.797  0.00  0.00    -0.031 C 
ATOM     35  H   LIG d   1       3.230  -1.250  -5.385  0.00  0.00     0.029 H 
ATOM     36  H   LIG d   1       4.311   0.108  -4.983  0.00  0.00     0.029 H 
BRANCH  34  37
ATOM     37  C   LIG d   1       2.990   0.481  -6.644  0.00  0.00    -0.033 C 
ATOM     38  H   LIG d   1       2.081   0.733  -6.096  0.00  0.00     0.031 H 
ATOM     39  H   LIG d   1       3.547   1.394  -6.858  0.00  0.00     0.031 H 
BRANCH  37  40
ATOM     40  C   LIG d   1       2.626  -0.201  -7.937  0.00  0.00    -0.085 C 
ATOM     41  C   LIG d   1       2.597   0.483  -9.053  0.00  0.00    -0.080 C 
ATOM     42  H   LIG d   1       2.389  -1.255  -7.943  0.00  0.00     0.057 H 
BRANCH  41  43
ATOM     43  C   LIG d   1       2.790   1.977  -9.027  0.00  0.00    -0.044 C 
ATOM     44  H   LIG d   1       3.060   2.292  -8.019  0.00  0.00     0.027 H 
ATOM     45  H   LIG d   1       3.586   2.253  -9.719  0.00  0.00     0.027 H 
ATOM     46  H   LIG d   1       1.864   2.469  -9.325  0.00  0.00     0.027 H 
ENDBRANCH  41  43
BRANCH  41  47
ATOM     47  C   LIG d   1       2.372  -0.224 -10.365  0.00  0.00    -0.044 C 
ATOM     48  H   LIG d   1       1.353  -0.042 -10.705  0.00  0.00     0.027 H 
ATOM     49  H   LIG d   1       3.075   0.153 -11.107  0.00  0.00     0.027 H 
ATOM     50  H   LIG d   1       2.523  -1.295 -10.231  0.00  0.00     0.027 H 
ENDBRANCH  41  47
ENDBRANCH  37  40
ENDBRANCH  34  37
ENDBRANCH  28  34
ENDBRANCH   1  28
TORSDOF 14
ENDMDL
MODEL 3
REMARK VINA RESULT:      -4.6      2.709      5.341
REMARK  14 active torsions:
REMARK  status: ('A' for Active; 'I' for Inactive)
REMARK    1  A    between atoms: C_1  and  C_2 
REMARK    2  A    between atoms: C_2  and  C_4 
REMARK    3  A    between atoms: C_2  and  N_10 
REMARK    4  A    between atoms: C_4  and  C_5 
REMARK    5  A    between atoms: C_5  and  C_6 
REMARK    6  A    between atoms: C_7  and  C_8 
REMARK    7  A    between atoms: C_7  and  C_9 
REMARK       I    between atoms: N_10  and  C_11 
REMARK    8  A    between atoms: N_10  and  C_13 
REMARK    9  A    between atoms: C_13  and  C_15 
REMARK   10  A    between atoms: C_13  and  C_16 
REMARK   11  A    between atoms: C_16  and  C_17 
REMARK   12  A    between atoms: C_17  and  C_18 
REMARK   13  A    between atoms: C_19  and  C_20 
REMARK   14  A    between atoms: C_19  and  C_21 
ROOT
ATOM      1  N   LIG d   1       4.307  -0.753  -3.436  0.00  0.00    -0.298 N 
ATOM      2  C   LIG d   1       4.469  -1.876  -2.708  0.00  0.00     0.203 C 
ATOM      3  O   LIG d   1       3.861  -2.883  -3.004  0.00  0.00    -0.279 OA
ATOM      4  H   LIG d   1       5.140  -1.880  -1.862  0.00  0.00     0.125 H 
ENDROOT
BRANCH   1   5
ATOM      5  C   LIG d   1       5.041   0.463  -3.078  0.00  0.00     0.024 C 
ATOM      6  H   LIG d   1       4.821   1.247  -3.803  0.00  0.00     0.050 H 
BRANCH   5   7
ATOM      7  C   LIG d   1       4.616   0.924  -1.683  0.00  0.00    -0.046 C 
ATOM      8  H   LIG d   1       3.948   1.781  -1.771  0.00  0.00     0.025 H 
ATOM      9  H   LIG d   1       4.099   0.111  -1.174  0.00  0.00     0.025 H 
ATOM     10  H   LIG d   1       5.498   1.208  -1.110  0.00  0.00     0.025 H 
ENDBRANCH   5   7
BRANCH   5  11
ATOM     11  C   LIG d   1       6.543   0.171  -3.083  0.00  0.00    -0.031 C 
ATOM     12  H   LIG d   1       7.003   0.621  -2.203  0.00  0.00     0.029 H 
ATOM     13  H   LIG d   1       6.705  -0.906  -3.068  0.00  0.00     0.029 H 
BRANCH  11  14
ATOM     14  C   LIG d   1       7.173   0.763  -4.345  0.00  0.00    -0.033 C 
ATOM     15  H   LIG d   1       7.837   0.027  -4.800  0.00  0.00     0.031 H 
ATOM     16  H   LIG d   1       6.388   1.031  -5.054  0.00  0.00     0.031 H 
BRANCH  14  17
ATOM     17  C   LIG d   1       7.964   1.995  -3.983  0.00  0.00    -0.085 C 
ATOM     18  C   LIG d   1       8.588   2.670  -4.916  0.00  0.00    -0.080 C 
ATOM     19  H   LIG d   1       8.015   2.320  -2.955  0.00  0.00     0.057 H 
BRANCH  18  20
ATOM     20  C   LIG d   1       8.635   2.141  -6.326  0.00  0.00    -0.044 C 
ATOM     21  H   LIG d   1       9.609   2.362  -6.764  0.00  0.00     0.027 H 
ATOM     22  H   LIG d   1       8.477   1.064  -6.316  0.00  0.00     0.027 H 
ATOM     23  H   LIG d   1       7.855   2.619  -6.920  0.00  0.00     0.027 H 
ENDBRANCH  18  20
BRANCH  18  24
ATOM     24  C   LIG d   1       9.260   3.976  -4.578  0.00  0.00    -0.044 C 
ATOM     25  H   LIG d   1      10.339   3.871  -4.692  0.00  0.00     0.027 H 
ATOM     26  H   LIG d   1       8.898   4.755  -5.249  0.00  0.00     0.027 H 
ATOM     27  H   LIG d   1       9.028   4.248  -3.549  0.00  0.00     0.027 H 
ENDBRANCH  18  24
ENDBRANCH  14  17
ENDBRANCH  11  14
ENDBRANCH   5  11
ENDBRANCH   1   5
BRANCH   1  28
ATOM     28  C   LIG d   1       3.396  -0.749  -4.583  0.00  0.00     0.024 C 
ATOM     29  H   LIG d   1       2.699  -1.582  -4.497  0.00  0.00     0.050 H 
BRANCH  28  30
ATOM     30  C   LIG d   1       2.617   0.568  -4.610  0.00  0.00    -0.046 C 
ATOM     31  H   LIG d   1       3.284   1.379  -4.907  0.00  0.00     0.025 H 
ATOM     32  H   LIG d   1       1.799   0.491  -5.326  0.00  0.00     0.025 H 
ATOM     33  H   LIG d   1       2.215   0.773  -3.618  0.00  0.00     0.025 H 
ENDBRANCH  28  30
BRANCH  28  34
ATOM     34  C   LIG d   1       4.203  -0.891  -5.876  0.00  0.00    -0.031 C 
ATOM     35  H   LIG d   1       5.261  -0.742  -5.662  0.00  0.00     0.029 H 
ATOM     36  H   LIG d   1       4.052  -1.889  -6.290  0.00  0.00     0.029 H 
BRANCH  34  37
ATOM     37  C   LIG d   1       3.734   0.156  -6.887  0.00  0.00    -0.033 C 
ATOM     38  H   LIG d   1       3.152   0.922  -6.374  0.00  0.00     0.031 H 
ATOM     39  H   LIG d   1       4.601   0.618  -7.361  0.00  0.00     0.031 H 
BRANCH  37  40
ATOM     40  C   LIG d   1       2.880  -0.505  -7.937  0.00  0.00    -0.085 C 
ATOM     41  C   LIG d   1       2.433   0.191  -8.953  0.00  0.00    -0.080 C 
ATOM     42  H   LIG d   1       2.636  -1.554  -7.852  0.00  0.00     0.057 H 
BRANCH  41  43
ATOM     43  C   LIG d   1       2.654   1.681  -9.000  0.00  0.00    -0.044 C 
ATOM     44  H   LIG d   1       1.713   2.181  -9.227  0.00  0.00     0.027 H 
ATOM     45  H   LIG d   1       3.025   2.024  -8.035  0.00  0.00     0.027 H 
ATOM     46  H   LIG d   1       3.385   1.916  -9.774  0.00  0.00     0.027 H 
ENDBRANCH  41  43
BRANCH  41  47
ATOM     47  C   LIG d   1       1.699  -0.498 -10.074  0.00  0.00    -0.044 C 
ATOM     48  H   LIG d   1       1.633  -1.565  -9.864  0.00  0.00     0.027 H 
ATOM     49  H   LIG d   1       0.696  -0.081 -10.161  0.00  0.00     0.027 H 
ATOM     50  H   LIG d   1       2.239  -0.346 -11.009  0.00  0.00     0.027 H 
ENDBRANCH  41  47
ENDBRANCH  37  40
ENDBRANCH  34  37
ENDBRANCH  28  34
ENDBRANCH   1  28
TORSDOF 14
ENDMDL
MODEL 4
REMARK VINA RESULT:      -4.6      3.161      4.876
REMARK  14 active torsions:
REMARK  status: ('A' for Active; 'I' for Inactive)
REMARK    1  A    between atoms: C_1  and  C_2 
REMARK    2  A    between atoms: C_2  and  C_4 
REMARK    3  A    between atoms: C_2  and  N_10 
REMARK    4  A    between atoms: C_4  and  C_5 
REMARK    5  A    between atoms: C_5  and  C_6 
REMARK    6  A    between atoms: C_7  and  C_8 
REMARK    7  A    between atoms: C_7  and  C_9 
REMARK       I    between atoms: N_10  and  C_11 
REMARK    8  A    between atoms: N_10  and  C_13 
REMARK    9  A    between atoms: C_13  and  C_15 
REMARK   10  A    between atoms: C_13  and  C_16 
REMARK   11  A    between atoms: C_16  and  C_17 
REMARK   12  A    between atoms: C_17  and  C_18 
REMARK   13  A    between atoms: C_19  and  C_20 
REMARK   14  A    between atoms: C_19  and  C_21 
ROOT
ATOM      1  N   LIG d   1       4.885  -3.952  -6.412  0.00  0.00    -0.298 N 
ATOM      2  C   LIG d   1       3.878  -4.754  -6.812  0.00  0.00     0.203 C 
ATOM      3  O   LIG d   1       3.540  -5.693  -6.122  0.00  0.00    -0.279 OA
ATOM      4  H   LIG d   1       3.372  -4.562  -7.746  0.00  0.00     0.125 H 
ENDROOT
BRANCH   1   5
ATOM      5  C   LIG d   1       5.293  -2.819  -7.246  0.00  0.00     0.024 C 
ATOM      6  H   LIG d   1       6.019  -2.213  -6.705  0.00  0.00     0.050 H 
BRANCH   5   7
ATOM      7  C   LIG d   1       5.924  -3.338  -8.540  0.00  0.00    -0.046 C 
ATOM      8  H   LIG d   1       5.265  -4.079  -8.994  0.00  0.00     0.025 H 
ATOM      9  H   LIG d   1       6.068  -2.508  -9.232  0.00  0.00     0.025 H 
ATOM     10  H   LIG d   1       6.887  -3.795  -8.316  0.00  0.00     0.025 H 
ENDBRANCH   5   7
BRANCH   5  11
ATOM     11  C   LIG d   1       4.068  -1.967  -7.583  0.00  0.00    -0.031 C 
ATOM     12  H   LIG d   1       4.060  -1.746  -8.650  0.00  0.00     0.029 H 
ATOM     13  H   LIG d   1       3.161  -2.511  -7.318  0.00  0.00     0.029 H 
BRANCH  11  14
ATOM     14  C   LIG d   1       4.125  -0.658  -6.793  0.00  0.00    -0.033 C 
ATOM     15  H   LIG d   1       3.830  -0.843  -5.759  0.00  0.00     0.031 H 
ATOM     16  H   LIG d   1       5.140  -0.262  -6.815  0.00  0.00     0.031 H 
BRANCH  14  17
ATOM     17  C   LIG d   1       3.182   0.344  -7.410  0.00  0.00    -0.085 C 
ATOM     18  C   LIG d   1       3.613   1.166  -8.334  0.00  0.00    -0.080 C 
ATOM     19  H   LIG d   1       2.151   0.383  -7.090  0.00  0.00     0.057 H 
BRANCH  18  20
ATOM     20  C   LIG d   1       5.079   1.210  -8.680  0.00  0.00    -0.044 C 
ATOM     21  H   LIG d   1       5.504   2.155  -8.340  0.00  0.00     0.027 H 
ATOM     22  H   LIG d   1       5.593   0.383  -8.190  0.00  0.00     0.027 H 
ATOM     23  H   LIG d   1       5.200   1.125  -9.760  0.00  0.00     0.027 H 
ENDBRANCH  18  20
BRANCH  18  24
ATOM     24  C   LIG d   1       2.642   2.070  -9.050  0.00  0.00    -0.044 C 
ATOM     25  H   LIG d   1       1.950   2.505  -8.328  0.00  0.00     0.027 H 
ATOM     26  H   LIG d   1       3.191   2.866  -9.552  0.00  0.00     0.027 H 
ATOM     27  H   LIG d   1       2.085   1.493  -9.787  0.00  0.00     0.027 H 
ENDBRANCH  18  24
ENDBRANCH  14  17
ENDBRANCH  11  14
ENDBRANCH   5  11
ENDBRANCH   1   5
BRANCH   1  28
ATOM     28  C   LIG d   1       5.571  -4.214  -5.145  0.00  0.00     0.024 C 
ATOM     29  H   LIG d   1       4.935  -4.829  -4.507  0.00  0.00     0.050 H 
BRANCH  28  30
ATOM     30  C   LIG d   1       6.884  -4.953  -5.420  0.00  0.00    -0.046 C 
ATOM     31  H   LIG d   1       7.041  -5.711  -4.651  0.00  0.00     0.025 H 
ATOM     32  H   LIG d   1       6.833  -5.433  -6.397  0.00  0.00     0.025 H 
ATOM     33  H   LIG d   1       7.710  -4.243  -5.405  0.00  0.00     0.025 H 
ENDBRANCH  28  30
BRANCH  28  34
ATOM     34  C   LIG d   1       5.869  -2.889  -4.442  0.00  0.00    -0.031 C 
ATOM     35  H   LIG d   1       6.805  -2.973  -3.889  0.00  0.00     0.029 H 
ATOM     36  H   LIG d   1       5.956  -2.095  -5.185  0.00  0.00     0.029 H 
BRANCH  34  37
ATOM     37  C   LIG d   1       4.732  -2.558  -3.474  0.00  0.00    -0.033 C 
ATOM     38  H   LIG d   1       3.806  -2.423  -4.033  0.00  0.00     0.031 H 
ATOM     39  H   LIG d   1       4.610  -3.376  -2.763  0.00  0.00     0.031 H 
BRANCH  37  40
ATOM     40  C   LIG d   1       5.059  -1.290  -2.729  0.00  0.00    -0.085 C 
ATOM     41  C   LIG d   1       4.128  -0.392  -2.524  0.00  0.00    -0.080 C 
ATOM     42  H   LIG d   1       6.061  -1.121  -2.364  0.00  0.00     0.057 H 
BRANCH  41  43
ATOM     43  C   LIG d   1       2.767  -0.560  -3.151  0.00  0.00    -0.044 C 
ATOM     44  H   LIG d   1       2.284  -1.446  -2.740  0.00  0.00     0.027 H 
ATOM     45  H   LIG d   1       2.158   0.318  -2.938  0.00  0.00     0.027 H 
ATOM     46  H   LIG d   1       2.876  -0.673  -4.230  0.00  0.00     0.027 H 
ENDBRANCH  41  43
BRANCH  41  47
ATOM     47  C   LIG d   1       4.415   0.809  -1.660  0.00  0.00    -0.044 C 
ATOM     48  H   LIG d   1       5.407   0.710  -1.219  0.00  0.00     0.027 H 
ATOM     49  H   LIG d   1       4.376   1.712  -2.268  0.00  0.00     0.027 H 
ATOM     50  H   LIG d   1       3.671   0.872  -0.866  0.00  0.00     0.027 H 
ENDBRANCH  41  47
ENDBRANCH  37  40
ENDBRANCH  34  37
ENDBRANCH  28  34
ENDBRANCH   1  28
TORSDOF 14
ENDMDL
MODEL 5
REMARK VINA RESULT:      -4.6      2.500      4.993
REMARK  14 active torsions:
REMARK  status: ('A' for Active; 'I' for Inactive)
REMARK    1  A    between atoms: C_1  and  C_2 
REMARK    2  A    between atoms: C_2  and  C_4 
REMARK    3  A    between atoms: C_2  and  N_10 
REMARK    4  A    between atoms: C_4  and  C_5 
REMARK    5  A    between atoms: C_5  and  C_6 
REMARK    6  A    between atoms: C_7  and  C_8 
REMARK    7  A    between atoms: C_7  and  C_9 
REMARK       I    between atoms: N_10  and  C_11 
REMARK    8  A    between atoms: N_10  and  C_13 
REMARK    9  A    between atoms: C_13  and  C_15 
REMARK   10  A    between atoms: C_13  and  C_16 
REMARK   11  A    between atoms: C_16  and  C_17 
REMARK   12  A    between atoms: C_17  and  C_18 
REMARK   13  A    between atoms: C_19  and  C_20 
REMARK   14  A    between atoms: C_19  and  C_21 
ROOT
ATOM      1  N   LIG d   1       5.481  -2.327  -5.529  0.00  0.00    -0.298 N 
ATOM      2  C   LIG d   1       5.379  -3.152  -6.589  0.00  0.00     0.203 C 
ATOM      3  O   LIG d   1       5.445  -4.353  -6.432  0.00  0.00    -0.279 OA
ATOM      4  H   LIG d   1       5.238  -2.745  -7.579  0.00  0.00     0.125 H 
ENDROOT
BRANCH   1   5
ATOM      5  C   LIG d   1       5.400  -0.876  -5.719  0.00  0.00     0.024 C 
ATOM      6  H   LIG d   1       5.715  -0.372  -4.806  0.00  0.00     0.050 H 
BRANCH   5   7
ATOM      7  C   LIG d   1       6.316  -0.462  -6.873  0.00  0.00    -0.046 C 
ATOM      8  H   LIG d   1       6.613  -1.346  -7.437  0.00  0.00     0.025 H 
ATOM      9  H   LIG d   1       5.783   0.226  -7.530  0.00  0.00     0.025 H 
ATOM     10  H   LIG d   1       7.202   0.030  -6.474  0.00  0.00     0.025 H 
ENDBRANCH   5   7
BRANCH   5  11
ATOM     11  C   LIG d   1       3.958  -0.485  -6.047  0.00  0.00    -0.031 C 
ATOM     12  H   LIG d   1       3.327  -1.373  -6.028  0.00  0.00     0.029 H 
ATOM     13  H   LIG d   1       3.599   0.232  -5.308  0.00  0.00     0.029 H 
BRANCH  11  14
ATOM     14  C   LIG d   1       3.906   0.148  -7.438  0.00  0.00    -0.033 C 
ATOM     15  H   LIG d   1       3.735   1.221  -7.344  0.00  0.00     0.031 H 
ATOM     16  H   LIG d   1       4.851  -0.025  -7.954  0.00  0.00     0.031 H 
BRANCH  14  17
ATOM     17  C   LIG d   1       2.781  -0.470  -8.230  0.00  0.00    -0.085 C 
ATOM     18  C   LIG d   1       2.424   0.052  -9.377  0.00  0.00    -0.080 C 
ATOM     19  H   LIG d   1       2.271  -1.343  -7.851  0.00  0.00     0.057 H 
BRANCH  18  20
ATOM     20  C   LIG d   1       3.036   1.348  -9.839  0.00  0.00    -0.044 C 
ATOM     21  H   LIG d   1       2.364   2.173  -9.601  0.00  0.00     0.027 H 
ATOM     22  H   LIG d   1       3.990   1.500  -9.335  0.00  0.00     0.027 H 
ATOM     23  H   LIG d   1       3.196   1.311 -10.917  0.00  0.00     0.027 H 
ENDBRANCH  18  20
BRANCH  18  24
ATOM     24  C   LIG d   1       1.398  -0.645 -10.234  0.00  0.00    -0.044 C 
ATOM     25  H   LIG d   1       1.796  -1.602 -10.572  0.00  0.00     0.027 H 
ATOM     26  H   LIG d   1       0.493  -0.814  -9.650  0.00  0.00     0.027 H 
ATOM     27  H   LIG d   1       1.162  -0.024 -11.097  0.00  0.00     0.027 H 
ENDBRANCH  18  24
ENDBRANCH  14  17
ENDBRANCH  11  14
ENDBRANCH   5  11
ENDBRANCH   1   5
BRANCH   1  28
ATOM     28  C   LIG d   1       5.672  -2.880  -4.186  0.00  0.00     0.024 C 
ATOM     29  H   LIG d   1       5.855  -3.952  -4.257  0.00  0.00     0.050 H 
BRANCH  28  30
ATOM     30  C   LIG d   1       6.873  -2.201  -3.521  0.00  0.00    -0.046 C 
ATOM     31  H   LIG d   1       6.702  -2.132  -2.446  0.00  0.00     0.025 H 
ATOM     32  H   LIG d   1       7.771  -2.788  -3.709  0.00  0.00     0.025 H 
ATOM     33  H   LIG d   1       6.999  -1.201  -3.934  0.00  0.00     0.025 H 
ENDBRANCH  28  30
BRANCH  28  34
ATOM     34  C   LIG d   1       4.417  -2.631  -3.347  0.00  0.00    -0.031 C 
ATOM     35  H   LIG d   1       3.623  -2.245  -3.987  0.00  0.00     0.029 H 
ATOM     36  H   LIG d   1       4.094  -3.568  -2.891  0.00  0.00     0.029 H 
BRANCH  34  37
ATOM     37  C   LIG d   1       4.730  -1.612  -2.251  0.00  0.00    -0.033 C 
ATOM     38  H   LIG d   1       4.621  -2.083  -1.274  0.00  0.00     0.031 H 
ATOM     39  H   LIG d   1       5.753  -1.254  -2.368  0.00  0.00     0.031 H 
BRANCH  37  40
ATOM     40  C   LIG d   1       3.776  -0.450  -2.357  0.00  0.00    -0.085 C 
ATOM     41  C   LIG d   1       4.231   0.749  -2.622  0.00  0.00    -0.080 C 
ATOM     42  H   LIG d   1       2.717  -0.607  -2.215  0.00  0.00     0.057 H 
BRANCH  41  43
ATOM     43  C   LIG d   1       5.716   0.996  -2.682  0.00  0.00    -0.044 C 
ATOM     44  H   LIG d   1       6.248   0.065  -2.487  0.00  0.00     0.027 H 
ATOM     45  H   LIG d   1       5.983   1.367  -3.671  0.00  0.00     0.027 H 
ATOM     46  H   LIG d   1       5.993   1.736  -1.931  0.00  0.00     0.027 H 
ENDBRANCH  41  43
BRANCH  41  47
ATOM     47  C   LIG d   1       3.269   1.883  -2.868  0.00  0.00    -0.044 C 
ATOM     48  H   LIG d   1       2.430   1.525  -3.465  0.00  0.00     0.027 H 
ATOM     49  H   LIG d   1       2.901   2.261  -1.915  0.00  0.00     0.027 H 
ATOM     50  H   LIG d   1       3.780   2.683  -3.404  0.00  0.00     0.027 H 
ENDBRANCH  41  47
ENDBRANCH  37  40
ENDBRANCH  34  37
ENDBRANCH  28  34
ENDBRANCH   1  28
TORSDOF 14
ENDMDL
MODEL 6
REMARK VINA RESULT:      -4.6      2.211      6.074
REMARK  14 active torsions:
REMARK  status: ('A' for Active; 'I' for Inactive)
REMARK    1  A    between atoms: C_1  and  C_2 
REMARK    2  A    between atoms: C_2  and  C_4 
REMARK    3  A    between atoms: C_2  and  N_10 
REMARK    4  A    between atoms: C_4  and  C_5 
REMARK    5  A    between atoms: C_5  and  C_6 
REMARK    6  A    between atoms: C_7  and  C_8 
REMARK    7  A    between atoms: C_7  and  C_9 
REMARK       I    between atoms: N_10  and  C_11 
REMARK    8  A    between atoms: N_10  and  C_13 
REMARK    9  A    between atoms: C_13  and  C_15 
REMARK   10  A    between atoms: C_13  and  C_16 
REMARK   11  A    between atoms: C_16  and  C_17 
REMARK   12  A    between atoms: C_17  and  C_18 
REMARK   13  A    between atoms: C_19  and  C_20 
REMARK   14  A    between atoms: C_19  and  C_21 
ROOT
ATOM      1  N   LIG d   1       4.792   0.026  -3.805  0.00  0.00    -0.298 N 
ATOM      2  C   LIG d   1       4.799   1.111  -3.006  0.00  0.00     0.203 C 
ATOM      3  O   LIG d   1       5.852   1.570  -2.617  0.00  0.00    -0.279 OA
ATOM      4  H   LIG d   1       3.868   1.571  -2.712  0.00  0.00     0.125 H 
ENDROOT
BRANCH   1   5
ATOM      5  C   LIG d   1       3.520  -0.529  -4.275  0.00  0.00     0.024 C 
ATOM      6  H   LIG d   1       3.714  -1.383  -4.924  0.00  0.00     0.050 H 
BRANCH   5   7
ATOM      7  C   LIG d   1       2.685  -0.980  -3.074  0.00  0.00    -0.046 C 
ATOM      8  H   LIG d   1       2.194  -0.115  -2.628  0.00  0.00     0.025 H 
ATOM      9  H   LIG d   1       1.932  -1.696  -3.404  0.00  0.00     0.025 H 
ATOM     10  H   LIG d   1       3.335  -1.450  -2.337  0.00  0.00     0.025 H 
ENDBRANCH   5   7
BRANCH   5  11
ATOM     11  C   LIG d   1       2.754   0.541  -5.055  0.00  0.00    -0.031 C 
ATOM     12  H   LIG d   1       1.759   0.662  -4.625  0.00  0.00     0.029 H 
ATOM     13  H   LIG d   1       3.291   1.488  -4.998  0.00  0.00     0.029 H 
BRANCH  11  14
ATOM     14  C   LIG d   1       2.629   0.114  -6.518  0.00  0.00    -0.033 C 
ATOM     15  H   LIG d   1       3.235  -0.776  -6.691  0.00  0.00     0.031 H 
ATOM     16  H   LIG d   1       1.586  -0.108  -6.745  0.00  0.00     0.031 H 
BRANCH  14  17
ATOM     17  C   LIG d   1       3.110   1.229  -7.411  0.00  0.00    -0.085 C 
ATOM     18  C   LIG d   1       2.938   1.151  -8.707  0.00  0.00    -0.080 C 
ATOM     19  H   LIG d   1       3.598   2.092  -6.981  0.00  0.00     0.057 H 
BRANCH  18  20
ATOM     20  C   LIG d   1       2.389  -0.110  -9.320  0.00  0.00    -0.044 C 
ATOM     21  H   LIG d   1       1.775  -0.633  -8.586  0.00  0.00     0.027 H 
ATOM     22  H   LIG d   1       1.781   0.142 -10.189  0.00  0.00     0.027 H 
ATOM     23  H   LIG d   1       3.213  -0.754  -9.628  0.00  0.00     0.027 H 
ENDBRANCH  18  20
BRANCH  18  24
ATOM     24  C   LIG d   1       3.291   2.325  -9.585  0.00  0.00    -0.044 C 
ATOM     25  H   LIG d   1       2.395   2.913  -9.785  0.00  0.00     0.027 H 
ATOM     26  H   LIG d   1       4.028   2.948  -9.078  0.00  0.00     0.027 H 
ATOM     27  H   LIG d   1       3.706   1.964 -10.525  0.00  0.00     0.027 H 
ENDBRANCH  18  24
ENDBRANCH  14  17
ENDBRANCH  11  14
ENDBRANCH   5  11
ENDBRANCH   1   5
BRANCH   1  28
ATOM     28  C   LIG d   1       6.056  -0.599  -4.204  0.00  0.00     0.024 C 
ATOM     29  H   LIG d   1       6.861   0.132  -4.131  0.00  0.00     0.050 H 
BRANCH  28  30
ATOM     30  C   LIG d   1       6.354  -1.781  -3.279  0.00  0.00    -0.046 C 
ATOM     31  H   LIG d   1       5.464  -2.017  -2.693  0.00  0.00     0.025 H 
ATOM     32  H   LIG d   1       6.636  -2.648  -3.876  0.00  0.00     0.025 H 
ATOM     33  H   LIG d   1       7.171  -1.520  -2.608  0.00  0.00     0.025 H 
ENDBRANCH  28  30
BRANCH  28  34
ATOM     34  C   LIG d   1       5.947  -1.095  -5.647  0.00  0.00    -0.031 C 
ATOM     35  H   LIG d   1       6.489  -2.035  -5.750  0.00  0.00     0.029 H 
ATOM     36  H   LIG d   1       4.898  -1.251  -5.900  0.00  0.00     0.029 H 
BRANCH  34  37
ATOM     37  C   LIG d   1       6.549  -0.053  -6.591  0.00  0.00    -0.033 C 
ATOM     38  H   LIG d   1       6.095   0.919  -6.397  0.00  0.00     0.031 H 
ATOM     39  H   LIG d   1       7.624   0.010  -6.425  0.00  0.00     0.031 H 
BRANCH  37  40
ATOM     40  C   LIG d   1       6.284  -0.456  -8.019  0.00  0.00    -0.085 C 
ATOM     41  C   LIG d   1       6.485   0.400  -8.989  0.00  0.00    -0.080 C 
ATOM     42  H   LIG d   1       5.928  -1.451  -8.242  0.00  0.00     0.057 H 
BRANCH  41  43
ATOM     43  C   LIG d   1       6.847   1.829  -8.671  0.00  0.00    -0.044 C 
ATOM     44  H   LIG d   1       7.928   1.954  -8.735  0.00  0.00     0.027 H 
ATOM     45  H   LIG d   1       6.361   2.494  -9.385  0.00  0.00     0.027 H 
ATOM     46  H   LIG d   1       6.512   2.073  -7.663  0.00  0.00     0.027 H 
ENDBRANCH  41  43
BRANCH  41  47
ATOM     47  C   LIG d   1       6.357  -0.042 -10.424  0.00  0.00    -0.044 C 
ATOM     48  H   LIG d   1       7.147   0.417 -11.018  0.00  0.00     0.027 H 
ATOM     49  H   LIG d   1       6.444  -1.127 -10.479  0.00  0.00     0.027 H 
ATOM     50  H   LIG d   1       5.386   0.265 -10.813  0.00  0.00     0.027 H 
ENDBRANCH  41  47
ENDBRANCH  37  40
ENDBRANCH  34  37
ENDBRANCH  28  34
ENDBRANCH   1  28
TORSDOF 14
ENDMDL
MODEL 7
REMARK VINA RESULT:      -4.5      2.439      4.180
REMARK  14 active torsions:
REMARK  status: ('A' for Active; 'I' for Inactive)
REMARK    1  A    between atoms: C_1  and  C_2 
REMARK    2  A    between atoms: C_2  and  C_4 
REMARK    3  A    between atoms: C_2  and  N_10 
REMARK    4  A    between atoms: C_4  and  C_5 
REMARK    5  A    between atoms: C_5  and  C_6 
REMARK    6  A    between atoms: C_7  and  C_8 
REMARK    7  A    between atoms: C_7  and  C_9 
REMARK       I    between atoms: N_10  and  C_11 
REMARK    8  A    between atoms: N_10  and  C_13 
REMARK    9  A    between atoms: C_13  and  C_15 
REMARK   10  A    between atoms: C_13  and  C_16 
REMARK   11  A    between atoms: C_16  and  C_17 
REMARK   12  A    between atoms: C_17  and  C_18 
REMARK   13  A    between atoms: C_19  and  C_20 
REMARK   14  A    between atoms: C_19  and  C_21 
ROOT
ATOM      1  N   LIG d   1       6.216  -0.972  -4.919  0.00  0.00    -0.298 N 
ATOM      2  C   LIG d   1       5.797  -0.429  -6.080  0.00  0.00     0.203 C 
ATOM      3  O   LIG d   1       4.803  -0.858  -6.626  0.00  0.00    -0.279 OA
ATOM      4  H   LIG d   1       6.347   0.387  -6.523  0.00  0.00     0.125 H 
ENDROOT
BRANCH   1   5
ATOM      5  C   LIG d   1       7.417  -0.454  -4.260  0.00  0.00     0.024 C 
ATOM      6  H   LIG d   1       7.603  -1.021  -3.348  0.00  0.00     0.050 H 
BRANCH   5   7
ATOM      7  C   LIG d   1       8.615  -0.592  -5.201  0.00  0.00    -0.046 C 
ATOM      8  H   LIG d   1       8.657   0.271  -5.865  0.00  0.00     0.025 H 
ATOM      9  H   LIG d   1       9.533  -0.643  -4.614  0.00  0.00     0.025 H 
ATOM     10  H   LIG d   1       8.511  -1.502  -5.790  0.00  0.00     0.025 H 
ENDBRANCH   5   7
BRANCH   5  11
ATOM     11  C   LIG d   1       7.210   1.021  -3.910  0.00  0.00    -0.031 C 
ATOM     12  H   LIG d   1       6.246   1.353  -4.293  0.00  0.00     0.029 H 
ATOM     13  H   LIG d   1       7.233   1.145  -2.827  0.00  0.00     0.029 H 
BRANCH  11  14
ATOM     14  C   LIG d   1       8.325   1.856  -4.542  0.00  0.00    -0.033 C 
ATOM     15  H   LIG d   1       8.994   1.204  -5.104  0.00  0.00     0.031 H 
ATOM     16  H   LIG d   1       7.890   2.596  -5.214  0.00  0.00     0.031 H 
BRANCH  14  17
ATOM     17  C   LIG d   1       9.104   2.558  -3.458  0.00  0.00    -0.085 C 
ATOM     18  C   LIG d   1       9.568   3.766  -3.663  0.00  0.00    -0.080 C 
ATOM     19  H   LIG d   1       9.279   2.064  -2.514  0.00  0.00     0.057 H 
BRANCH  18  20
ATOM     20  C   LIG d   1       9.449   4.398  -5.025  0.00  0.00    -0.044 C 
ATOM     21  H   LIG d   1       8.397   4.454  -5.308  0.00  0.00     0.027 H 
ATOM     22  H   LIG d   1       9.872   5.402  -4.999  0.00  0.00     0.027 H 
ATOM     23  H   LIG d   1       9.989   3.794  -5.755  0.00  0.00     0.027 H 
ENDBRANCH  18  20
BRANCH  18  24
ATOM     24  C   LIG d   1      10.223   4.521  -2.536  0.00  0.00    -0.044 C 
ATOM     25  H   LIG d   1      11.136   4.995  -2.897  0.00  0.00     0.027 H 
ATOM     26  H   LIG d   1       9.539   5.285  -2.166  0.00  0.00     0.027 H 
ATOM     27  H   LIG d   1      10.466   3.831  -1.728  0.00  0.00     0.027 H 
ENDBRANCH  18  24
ENDBRANCH  14  17
ENDBRANCH  11  14
ENDBRANCH   5  11
ENDBRANCH   1   5
BRANCH   1  28
ATOM     28  C   LIG d   1       5.470  -2.080  -4.318  0.00  0.00     0.024 C 
ATOM     29  H   LIG d   1       4.449  -2.081  -4.701  0.00  0.00     0.050 H 
BRANCH  28  30
ATOM     30  C   LIG d   1       6.149  -3.405  -4.675  0.00  0.00    -0.046 C 
ATOM     31  H   LIG d   1       6.927  -3.622  -3.943  0.00  0.00     0.025 H 
ATOM     32  H   LIG d   1       5.410  -4.206  -4.668  0.00  0.00     0.025 H 
ATOM     33  H   LIG d   1       6.594  -3.329  -5.667  0.00  0.00     0.025 H 
ENDBRANCH  28  30
BRANCH  28  34
ATOM     34  C   LIG d   1       5.444  -1.914  -2.798  0.00  0.00    -0.031 C 
ATOM     35  H   LIG d   1       5.886  -2.792  -2.328  0.00  0.00     0.029 H 
ATOM     36  H   LIG d   1       6.014  -1.026  -2.520  0.00  0.00     0.029 H 
BRANCH  34  37
ATOM     37  C   LIG d   1       3.997  -1.758  -2.326  0.00  0.00    -0.033 C 
ATOM     38  H   LIG d   1       3.589  -2.737  -2.075  0.00  0.00     0.031 H 
ATOM     39  H   LIG d   1       3.969  -1.116  -1.445  0.00  0.00     0.031 H 
BRANCH  37  40
ATOM     40  C   LIG d   1       3.174  -1.137  -3.426  0.00  0.00    -0.085 C 
ATOM     41  C   LIG d   1       3.059   0.165  -3.503  0.00  0.00    -0.080 C 
ATOM     42  H   LIG d   1       2.679  -1.767  -4.150  0.00  0.00     0.057 H 
BRANCH  41  43
ATOM     43  C   LIG d   1       3.631   1.038  -2.416  0.00  0.00    -0.044 C 
ATOM     44  H   LIG d   1       2.845   1.671  -2.005  0.00  0.00     0.027 H 
ATOM     45  H   LIG d   1       4.043   0.411  -1.625  0.00  0.00     0.027 H 
ATOM     46  H   LIG d   1       4.422   1.664  -2.830  0.00  0.00     0.027 H 
ENDBRANCH  41  43
BRANCH  41  47
ATOM     47  C   LIG d   1       2.356   0.791  -4.679  0.00  0.00    -0.044 C 
ATOM     48  H   LIG d   1       2.910   1.670  -5.008  0.00  0.00     0.027 H 
ATOM     49  H   LIG d   1       2.299   0.071  -5.495  0.00  0.00     0.027 H 
ATOM     50  H   LIG d   1       1.349   1.087  -4.385  0.00  0.00     0.027 H 
ENDBRANCH  41  47
ENDBRANCH  37  40
ENDBRANCH  34  37
ENDBRANCH  28  34
ENDBRANCH   1  28
TORSDOF 14
ENDMDL
MODEL 8
REMARK VINA RESULT:      -4.4      1.573      3.813
REMARK  14 active torsions:
REMARK  status: ('A' for Active; 'I' for Inactive)
REMARK    1  A    between atoms: C_1  and  C_2 
REMARK    2  A    between atoms: C_2  and  C_4 
REMARK    3  A    between atoms: C_2  and  N_10 
REMARK    4  A    between atoms: C_4  and  C_5 
REMARK    5  A    between atoms: C_5  and  C_6 
REMARK    6  A    between atoms: C_7  and  C_8 
REMARK    7  A    between atoms: C_7  and  C_9 
REMARK       I    between atoms: N_10  and  C_11 
REMARK    8  A    between atoms: N_10  and  C_13 
REMARK    9  A    between atoms: C_13  and  C_15 
REMARK   10  A    between atoms: C_13  and  C_16 
REMARK   11  A    between atoms: C_16  and  C_17 
REMARK   12  A    between atoms: C_17  and  C_18 
REMARK   13  A    between atoms: C_19  and  C_20 
REMARK   14  A    between atoms: C_19  and  C_21 
ROOT
ATOM      1  N   LIG d   1       3.376  -0.769  -8.142  0.00  0.00    -0.298 N 
ATOM      2  C   LIG d   1       2.329  -1.098  -8.924  0.00  0.00     0.203 C 
ATOM      3  O   LIG d   1       2.389  -2.075  -9.640  0.00  0.00    -0.279 OA
ATOM      4  H   LIG d   1       1.436  -0.491  -8.915  0.00  0.00     0.125 H 
ENDROOT
BRANCH   1   5
ATOM      5  C   LIG d   1       3.303   0.412  -7.279  0.00  0.00     0.024 C 
ATOM      6  H   LIG d   1       4.254   0.544  -6.763  0.00  0.00     0.050 H 
BRANCH   5   7
ATOM      7  C   LIG d   1       3.007   1.649  -8.129  0.00  0.00    -0.046 C 
ATOM      8  H   LIG d   1       2.472   2.384  -7.529  0.00  0.00     0.025 H 
ATOM      9  H   LIG d   1       3.945   2.081  -8.480  0.00  0.00     0.025 H 
ATOM     10  H   LIG d   1       2.397   1.364  -8.985  0.00  0.00     0.025 H 
ENDBRANCH   5   7
BRANCH   5  11
ATOM     11  C   LIG d   1       2.187   0.223  -6.250  0.00  0.00    -0.031 C 
ATOM     12  H   LIG d   1       1.305   0.782  -6.563  0.00  0.00     0.029 H 
ATOM     13  H   LIG d   1       1.937  -0.836  -6.174  0.00  0.00     0.029 H 
BRANCH  11  14
ATOM     14  C   LIG d   1       2.657   0.734  -4.887  0.00  0.00    -0.033 C 
ATOM     15  H   LIG d   1       3.425   1.494  -5.029  0.00  0.00     0.031 H 
ATOM     16  H   LIG d   1       1.813   1.167  -4.349  0.00  0.00     0.031 H 
BRANCH  14  17
ATOM     17  C   LIG d   1       3.227  -0.411  -4.089  0.00  0.00    -0.085 C 
ATOM     18  C   LIG d   1       3.658  -0.209  -2.868  0.00  0.00    -0.080 C 
ATOM     19  H   LIG d   1       3.279  -1.398  -4.524  0.00  0.00     0.057 H 
BRANCH  18  20
ATOM     20  C   LIG d   1       3.717   1.190  -2.312  0.00  0.00    -0.044 C 
ATOM     21  H   LIG d   1       2.752   1.446  -1.872  0.00  0.00     0.027 H 
ATOM     22  H   LIG d   1       4.491   1.245  -1.548  0.00  0.00     0.027 H 
ATOM     23  H   LIG d   1       3.946   1.891  -3.115  0.00  0.00     0.027 H 
ENDBRANCH  18  20
BRANCH  18  24
ATOM     24  C   LIG d   1       4.096  -1.376  -2.022  0.00  0.00    -0.044 C 
ATOM     25  H   LIG d   1       3.319  -2.141  -2.027  0.00  0.00     0.027 H 
ATOM     26  H   LIG d   1       5.018  -1.792  -2.428  0.00  0.00     0.027 H 
ATOM     27  H   LIG d   1       4.269  -1.040  -1.000  0.00  0.00     0.027 H 
ENDBRANCH  18  24
ENDBRANCH  14  17
ENDBRANCH  11  14
ENDBRANCH   5  11
ENDBRANCH   1   5
BRANCH   1  28
ATOM     28  C   LIG d   1       4.588  -1.593  -8.156  0.00  0.00     0.024 C 
ATOM     29  H   LIG d   1       4.369  -2.553  -8.622  0.00  0.00     0.050 H 
BRANCH  28  30
ATOM     30  C   LIG d   1       5.681  -0.877  -8.954  0.00  0.00    -0.046 C 
ATOM     31  H   LIG d   1       5.298   0.077  -9.320  0.00  0.00     0.025 H 
ATOM     32  H   LIG d   1       6.542  -0.699  -8.310  0.00  0.00     0.025 H 
ATOM     33  H   LIG d   1       5.980  -1.497  -9.798  0.00  0.00     0.025 H 
ENDBRANCH  28  30
BRANCH  28  34
ATOM     34  C   LIG d   1       5.068  -1.819  -6.722  0.00  0.00    -0.031 C 
ATOM     35  H   LIG d   1       4.432  -1.263  -6.033  0.00  0.00     0.029 H 
ATOM     36  H   LIG d   1       5.016  -2.883  -6.485  0.00  0.00     0.029 H 
BRANCH  34  37
ATOM     37  C   LIG d   1       6.512  -1.336  -6.585  0.00  0.00    -0.033 C 
ATOM     38  H   LIG d   1       7.119  -2.125  -6.140  0.00  0.00     0.031 H 
ATOM     39  H   LIG d   1       6.907  -1.087  -7.570  0.00  0.00     0.031 H 
BRANCH  37  40
ATOM     40  C   LIG d   1       6.552  -0.114  -5.704  0.00  0.00    -0.085 C 
ATOM     41  C   LIG d   1       6.980  -0.210  -4.469  0.00  0.00    -0.080 C 
ATOM     42  H   LIG d   1       6.229   0.841  -6.091  0.00  0.00     0.057 H 
BRANCH  41  43
ATOM     43  C   LIG d   1       7.298  -1.563  -3.885  0.00  0.00    -0.044 C 
ATOM     44  H   LIG d   1       7.631  -2.233  -4.678  0.00  0.00     0.027 H 
ATOM     45  H   LIG d   1       8.087  -1.460  -3.141  0.00  0.00     0.027 H 
ATOM     46  H   LIG d   1       6.405  -1.974  -3.413  0.00  0.00     0.027 H 
ENDBRANCH  41  43
BRANCH  41  47
ATOM     47  C   LIG d   1       7.154   1.031  -3.633  0.00  0.00    -0.044 C 
ATOM     48  H   LIG d   1       7.906   0.849  -2.865  0.00  0.00     0.027 H 
ATOM     49  H   LIG d   1       7.475   1.855  -4.268  0.00  0.00     0.027 H 
ATOM     50  H   LIG d   1       6.206   1.285  -3.158  0.00  0.00     0.027 H 
ENDBRANCH  41  47
ENDBRANCH  37  40
ENDBRANCH  34  37
ENDBRANCH  28  34
ENDBRANCH   1  28
TORSDOF 14
ENDMDL
MODEL 9
REMARK VINA RESULT:      -4.4      2.613      4.991
REMARK  14 active torsions:
REMARK  status: ('A' for Active; 'I' for Inactive)
REMARK    1  A    between atoms: C_1  and  C_2 
REMARK    2  A    between atoms: C_2  and  C_4 
REMARK    3  A    between atoms: C_2  and  N_10 
REMARK    4  A    between atoms: C_4  and  C_5 
REMARK    5  A    between atoms: C_5  and  C_6 
REMARK    6  A    between atoms: C_7  and  C_8 
REMARK    7  A    between atoms: C_7  and  C_9 
REMARK       I    between atoms: N_10  and  C_11 
REMARK    8  A    between atoms: N_10  and  C_13 
REMARK    9  A    between atoms: C_13  and  C_15 
REMARK   10  A    between atoms: C_13  and  C_16 
REMARK   11  A    between atoms: C_16  and  C_17 
REMARK   12  A    between atoms: C_17  and  C_18 
REMARK   13  A    between atoms: C_19  and  C_20 
REMARK   14  A    between atoms: C_19  and  C_21 
ROOT
ATOM      1  N   LIG d   1       5.288  -2.264  -5.613  0.00  0.00    -0.298 N 
ATOM      2  C   LIG d   1       4.379  -3.111  -5.090  0.00  0.00     0.203 C 
ATOM      3  O   LIG d   1       4.707  -3.891  -4.221  0.00  0.00    -0.279 OA
ATOM      4  H   LIG d   1       3.360  -3.096  -5.445  0.00  0.00     0.125 H 
ENDROOT
BRANCH   1   5
ATOM      5  C   LIG d   1       4.892  -1.322  -6.663  0.00  0.00     0.024 C 
ATOM      6  H   LIG d   1       5.755  -0.726  -6.960  0.00  0.00     0.050 H 
BRANCH   5   7
ATOM      7  C   LIG d   1       4.365  -2.097  -7.872  0.00  0.00    -0.046 C 
ATOM      8  H   LIG d   1       4.316  -1.434  -8.736  0.00  0.00     0.025 H 
ATOM      9  H   LIG d   1       5.035  -2.929  -8.090  0.00  0.00     0.025 H 
ATOM     10  H   LIG d   1       3.369  -2.481  -7.651  0.00  0.00     0.025 H 
ENDBRANCH   5   7
BRANCH   5  11
ATOM     11  C   LIG d   1       3.794  -0.399  -6.131  0.00  0.00    -0.031 C 
ATOM     12  H   LIG d   1       3.251  -0.903  -5.332  0.00  0.00     0.029 H 
ATOM     13  H   LIG d   1       4.243   0.516  -5.744  0.00  0.00     0.029 H 
BRANCH  11  14
ATOM     14  C   LIG d   1       2.827  -0.052  -7.264  0.00  0.00    -0.033 C 
ATOM     15  H   LIG d   1       2.760  -0.892  -7.955  0.00  0.00     0.031 H 
ATOM     16  H   LIG d   1       1.840   0.157  -6.850  0.00  0.00     0.031 H 
BRANCH  14  17
ATOM     17  C   LIG d   1       3.330   1.164  -8.000  0.00  0.00    -0.085 C 
ATOM     18  C   LIG d   1       3.132   1.278  -9.290  0.00  0.00    -0.080 C 
ATOM     19  H   LIG d   1       3.853   1.942  -7.463  0.00  0.00     0.057 H 
BRANCH  18  20
ATOM     20  C   LIG d   1       2.530   0.134 -10.063  0.00  0.00    -0.044 C 
ATOM     21  H   LIG d   1       3.243  -0.215 -10.810  0.00  0.00     0.027 H 
ATOM     22  H   LIG d   1       2.291  -0.681  -9.381  0.00  0.00     0.027 H 
ATOM     23  H   LIG d   1       1.620   0.471 -10.561  0.00  0.00     0.027 H 
ENDBRANCH  18  20
BRANCH  18  24
ATOM     24  C   LIG d   1       3.508   2.553 -10.000  0.00  0.00    -0.044 C 
ATOM     25  H   LIG d   1       2.860   2.693 -10.865  0.00  0.00     0.027 H 
ATOM     26  H   LIG d   1       3.390   3.395  -9.318  0.00  0.00     0.027 H 
ATOM     27  H   LIG d   1       4.545   2.494 -10.328  0.00  0.00     0.027 H 
ENDBRANCH  18  24
ENDBRANCH  14  17
ENDBRANCH  11  14
ENDBRANCH   5  11
ENDBRANCH   1   5
BRANCH   1  28
ATOM     28  C   LIG d   1       6.671  -2.286  -5.132  0.00  0.00     0.024 C 
ATOM     29  H   LIG d   1       6.742  -2.932  -4.256  0.00  0.00     0.050 H 
BRANCH  28  30
ATOM     30  C   LIG d   1       7.586  -2.822  -6.235  0.00  0.00    -0.046 C 
ATOM     31  H   LIG d   1       8.480  -2.201  -6.300  0.00  0.00     0.025 H 
ATOM     32  H   LIG d   1       7.874  -3.848  -6.003  0.00  0.00     0.025 H 
ATOM     33  H   LIG d   1       7.058  -2.800  -7.188  0.00  0.00     0.025 H 
ENDBRANCH  28  30
BRANCH  28  34
ATOM     34  C   LIG d   1       7.104  -0.868  -4.755  0.00  0.00    -0.031 C 
ATOM     35  H   LIG d   1       8.172  -0.753  -4.937  0.00  0.00     0.029 H 
ATOM     36  H   LIG d   1       6.552  -0.147  -5.360  0.00  0.00     0.029 H 
BRANCH  34  37
ATOM     37  C   LIG d   1       6.809  -0.621  -3.275  0.00  0.00    -0.033 C 
ATOM     38  H   LIG d   1       6.437  -1.540  -2.820  0.00  0.00     0.031 H 
ATOM     39  H   LIG d   1       7.723  -0.311  -2.769  0.00  0.00     0.031 H 
BRANCH  37  40
ATOM     40  C   LIG d   1       5.769   0.462  -3.143  0.00  0.00    -0.085 C 
ATOM     41  C   LIG d   1       4.666   0.233  -2.474  0.00  0.00    -0.080 C 
ATOM     42  H   LIG d   1       5.934   1.426  -3.600  0.00  0.00     0.057 H 
BRANCH  41  43
ATOM     43  C   LIG d   1       4.372  -1.151  -1.956  0.00  0.00    -0.044 C 
ATOM     44  H   LIG d   1       4.234  -1.114  -0.876  0.00  0.00     0.027 H 
ATOM     45  H   LIG d   1       3.465  -1.529  -2.426  0.00  0.00     0.027 H 
ATOM     46  H   LIG d   1       5.206  -1.813  -2.193  0.00  0.00     0.027 H 
ENDBRANCH  41  43
BRANCH  41  47
ATOM     47  C   LIG d   1       3.691   1.355  -2.222  0.00  0.00    -0.044 C 
ATOM     48  H   LIG d   1       2.727   1.103  -2.662  0.00  0.00     0.027 H 
ATOM     49  H   LIG d   1       3.575   1.500  -1.148  0.00  0.00     0.027 H 
ATOM     50  H   LIG d   1       4.068   2.272  -2.674  0.00  0.00     0.027 H 
ENDBRANCH  41  47
ENDBRANCH  37  40
ENDBRANCH  34  37
ENDBRANCH  28  34
ENDBRANCH   1  28
TORSDOF 14
ENDMDL
MODEL 10
REMARK VINA RESULT:      -4.3      2.658      5.620
REMARK  14 active torsions:
REMARK  status: ('A' for Active; 'I' for Inactive)
REMARK    1  A    between atoms: C_1  and  C_2 
REMARK    2  A    between atoms: C_2  and  C_4 
REMARK    3  A    between atoms: C_2  and  N_10 
REMARK    4  A    between atoms: C_4  and  C_5 
REMARK    5  A    between atoms: C_5  and  C_6 
REMARK    6  A    between atoms: C_7  and  C_8 
REMARK    7  A    between atoms: C_7  and  C_9 
REMARK       I    between atoms: N_10  and  C_11 
REMARK    8  A    between atoms: N_10  and  C_13 
REMARK    9  A    between atoms: C_13  and  C_15 
REMARK   10  A    between atoms: C_13  and  C_16 
REMARK   11  A    between atoms: C_16  and  C_17 
REMARK   12  A    between atoms: C_17  and  C_18 
REMARK   13  A    between atoms: C_19  and  C_20 
REMARK   14  A    between atoms: C_19  and  C_21 
ROOT
ATOM      1  N   LIG d   1       4.478  -0.149  -3.534  0.00  0.00    -0.298 N 
ATOM      2  C   LIG d   1       4.777   1.137  -3.263  0.00  0.00     0.203 C 
ATOM      3  O   LIG d   1       5.537   1.405  -2.357  0.00  0.00    -0.279 OA
ATOM      4  H   LIG d   1       4.339   1.929  -3.852  0.00  0.00     0.125 H 
ENDROOT
BRANCH   1   5
ATOM      5  C   LIG d   1       3.560  -0.472  -4.628  0.00  0.00     0.024 C 
ATOM      6  H   LIG d   1       3.312  -1.533  -4.593  0.00  0.00     0.050 H 
BRANCH   5   7
ATOM      7  C   LIG d   1       2.281   0.355  -4.483  0.00  0.00    -0.046 C 
ATOM      8  H   LIG d   1       1.806   0.464  -5.458  0.00  0.00     0.025 H 
ATOM      9  H   LIG d   1       1.598  -0.149  -3.800  0.00  0.00     0.025 H 
ATOM     10  H   LIG d   1       2.529   1.340  -4.087  0.00  0.00     0.025 H 
ENDBRANCH   5   7
BRANCH   5  11
ATOM     11  C   LIG d   1       4.227  -0.148  -5.966  0.00  0.00    -0.031 C 
ATOM     12  H   LIG d   1       4.701   0.831  -5.908  0.00  0.00     0.029 H 
ATOM     13  H   LIG d   1       4.981  -0.904  -6.189  0.00  0.00     0.029 H 
BRANCH  11  14
ATOM     14  C   LIG d   1       3.172  -0.139  -7.073  0.00  0.00    -0.033 C 
ATOM     15  H   LIG d   1       2.599  -1.066  -7.038  0.00  0.00     0.031 H 
ATOM     16  H   LIG d   1       2.500   0.708  -6.930  0.00  0.00     0.031 H 
BRANCH  14  17
ATOM     17  C   LIG d   1       3.850  -0.020  -8.415  0.00  0.00    -0.085 C 
ATOM     18  C   LIG d   1       3.705   1.069  -9.128  0.00  0.00    -0.080 C 
ATOM     19  H   LIG d   1       4.455  -0.834  -8.787  0.00  0.00     0.057 H 
BRANCH  18  20
ATOM     20  C   LIG d   1       2.751   2.144  -8.677  0.00  0.00    -0.044 C 
ATOM     21  H   LIG d   1       1.994   2.302  -9.445  0.00  0.00     0.027 H 
ATOM     22  H   LIG d   1       2.269   1.836  -7.750  0.00  0.00     0.027 H 
ATOM     23  H   LIG d   1       3.300   3.071  -8.512  0.00  0.00     0.027 H 
ENDBRANCH  18  20
BRANCH  18  24
ATOM     24  C   LIG d   1       4.494   1.246 -10.400  0.00  0.00    -0.044 C 
ATOM     25  H   LIG d   1       5.524   1.509 -10.156  0.00  0.00     0.027 H 
ATOM     26  H   LIG d   1       4.481   0.314 -10.966  0.00  0.00     0.027 H 
ATOM     27  H   LIG d   1       4.047   2.039 -10.997  0.00  0.00     0.027 H 
ENDBRANCH  18  24
ENDBRANCH  14  17
ENDBRANCH  11  14
ENDBRANCH   5  11
ENDBRANCH   1   5
BRANCH   1  28
ATOM     28  C   LIG d   1       5.072  -1.223  -2.734  0.00  0.00     0.024 C 
ATOM     29  H   LIG d   1       5.301  -0.849  -1.736  0.00  0.00     0.050 H 
BRANCH  28  30
ATOM     30  C   LIG d   1       4.083  -2.386  -2.628  0.00  0.00    -0.046 C 
ATOM     31  H   LIG d   1       3.283  -2.249  -3.357  0.00  0.00     0.025 H 
ATOM     32  H   LIG d   1       4.601  -3.323  -2.829  0.00  0.00     0.025 H 
ATOM     33  H   LIG d   1       3.659  -2.412  -1.624  0.00  0.00     0.025 H 
ENDBRANCH  28  30
BRANCH  28  34
ATOM     34  C   LIG d   1       6.359  -1.707  -3.404  0.00  0.00    -0.031 C 
ATOM     35  H   LIG d   1       6.721  -0.942  -4.091  0.00  0.00     0.029 H 
ATOM     36  H   LIG d   1       7.115  -1.899  -2.642  0.00  0.00     0.029 H 
BRANCH  34  37
ATOM     37  C   LIG d   1       6.077  -2.996  -4.178  0.00  0.00    -0.033 C 
ATOM     38  H   LIG d   1       6.575  -3.832  -3.686  0.00  0.00     0.031 H 
ATOM     39  H   LIG d   1       5.003  -3.178  -4.202  0.00  0.00     0.031 H 
BRANCH  37  40
ATOM     40  C   LIG d   1       6.595  -2.860  -5.586  0.00  0.00    -0.085 C 
ATOM     41  C   LIG d   1       5.845  -3.218  -6.598  0.00  0.00    -0.080 C 
ATOM     42  H   LIG d   1       7.586  -2.466  -5.761  0.00  0.00     0.057 H 
BRANCH  41  43
ATOM     43  C   LIG d   1       4.521  -3.896  -6.352  0.00  0.00    -0.044 C 
ATOM     44  H   LIG d   1       4.676  -4.969  -6.246  0.00  0.00     0.027 H 
ATOM     45  H   LIG d   1       4.075  -3.501  -5.439  0.00  0.00     0.027 H 
ATOM     46  H   LIG d   1       3.854  -3.706  -7.193  0.00  0.00     0.027 H 
ENDBRANCH  41  43
BRANCH  41  47
ATOM     47  C   LIG d   1       6.304  -2.953  -8.009  0.00  0.00    -0.044 C 
ATOM     48  H   LIG d   1       5.647  -3.470  -8.708  0.00  0.00     0.027 H 
ATOM     49  H   LIG d   1       6.273  -1.882  -8.206  0.00  0.00     0.027 H 
ATOM     50  H   LIG d   1       7.323  -3.317  -8.133  0.00  0.00     0.027 H 
ENDBRANCH  41  47
ENDBRANCH  37  40
ENDBRANCH  34  37
ENDBRANCH  28  34
ENDBRANCH   1  28
TORSDOF 14
ENDMDL
