MODEL 1
REMARK VINA RESULT:      -5.9      0.000      0.000
REMARK  10 active torsions:
REMARK  status: ('A' for Active; 'I' for Inactive)
REMARK    1  A    between atoms: C_1  and  O_2 
REMARK    2  A    between atoms: O_2  and  C_3 
REMARK    3  A    between atoms: C_5  and  C_13 
REMARK    4  A    between atoms: C_7  and  O_11 
REMARK    5  A    between atoms: C_8  and  O_9 
REMARK    6  A    between atoms: O_9  and  C_10 
REMARK    7  A    between atoms: O_11  and  C_12 
REMARK    8  A    between atoms: C_20  and  O_24 
REMARK    9  A    between atoms: O_24  and  C_25 
REMARK   10  A    between atoms: C_25  and  C_26 
ROOT
ATOM      1  C   LIG d   1      10.242   5.705  -1.890  0.00  0.00     0.166 A 
ATOM      2  C   LIG d   1      10.316   4.394  -2.321  0.00  0.00    -0.009 A 
ATOM      3  C   LIG d   1      10.029   4.082  -3.655  0.00  0.00    -0.014 A 
ATOM      4  C   LIG d   1       9.671   5.099  -4.548  0.00  0.00    -0.009 A 
ATOM      5  C   LIG d   1       9.594   6.406  -4.108  0.00  0.00     0.166 A 
ATOM      6  C   LIG d   1       9.881   6.715  -2.780  0.00  0.00     0.203 A 
ATOM      7  H   LIG d   1      10.595   3.613  -1.630  0.00  0.00     0.066 H 
ATOM      8  H   LIG d   1       9.453   4.862  -5.579  0.00  0.00     0.066 H 
ENDROOT
BRANCH   3   9
ATOM      9  C   LIG d   1      10.107   2.690  -4.118  0.00  0.00    -0.008 C 
ATOM     10  C   LIG d   1       9.017   1.885  -4.033  0.00  0.00     0.176 A 
ATOM     11  O   LIG d   1       7.833   2.199  -3.456  0.00  0.00    -0.451 OA
ATOM     12  C   LIG d   1       8.910   0.513  -4.549  0.00  0.00     0.232 A 
ATOM     13  C   LIG d   1       6.950   1.180  -3.536  0.00  0.00     0.143 A 
ATOM     14  C   LIG d   1       7.538   0.095  -4.207  0.00  0.00     0.068 A 
ATOM     15  C   LIG d   1       5.640   1.061  -3.087  0.00  0.00     0.023 A 
ATOM     16  C   LIG d   1       6.821  -1.086  -4.407  0.00  0.00    -0.044 A 
ATOM     17  C   LIG d   1       5.534  -1.185  -3.960  0.00  0.00    -0.019 A 
ATOM     18  H   LIG d   1       7.281  -1.917  -4.919  0.00  0.00     0.063 H 
ATOM     19  C   LIG d   1       4.938  -0.114  -3.299  0.00  0.00     0.125 A 
ATOM     20  H   LIG d   1       4.978  -2.097  -4.119  0.00  0.00     0.065 H 
ATOM     21  H   LIG d   1       5.170   1.887  -2.574  0.00  0.00     0.069 H 
ATOM     22  O   LIG d   1       9.762  -0.133  -5.135  0.00  0.00    -0.283 OA
ATOM     23  H   LIG d   1      11.031   2.308  -4.525  0.00  0.00     0.066 H 
BRANCH  19  24
ATOM     24  O   LIG d   1       3.659  -0.223  -2.858  0.00  0.00    -0.486 OA
BRANCH  24  25
ATOM     25  C   LIG d   1       2.649  -0.438  -3.845  0.00  0.00     0.129 C 
ATOM     26  H   LIG d   1       2.796  -1.413  -4.309  0.00  0.00     0.076 H 
ATOM     27  H   LIG d   1       1.666  -0.406  -3.371  0.00  0.00     0.076 H 
BRANCH  25  28
ATOM     28  C   LIG d   1       2.736   0.638  -4.896  0.00  0.00     0.079 C 
ATOM     29  O   LIG d   1       3.025   0.348  -6.033  0.00  0.00    -0.546 OA
ATOM     30  O   LIG d   1       2.493   1.917  -4.569  0.00  0.00    -0.546 OA
ENDBRANCH  25  28
ENDBRANCH  24  25
ENDBRANCH  19  24
ENDBRANCH   3   9
BRANCH   1  31
ATOM     31  O   LIG d   1      10.521   6.010  -0.594  0.00  0.00    -0.491 OA
BRANCH  31  32
ATOM     32  C   LIG d   1      11.851   5.755  -0.139  0.00  0.00     0.079 C 
ATOM     33  H   LIG d   1      12.321   5.015  -0.786  0.00  0.00     0.066 H 
ATOM     34  H   LIG d   1      12.428   6.680  -0.167  0.00  0.00     0.066 H 
ATOM     35  H   LIG d   1      11.820   5.377   0.883  0.00  0.00     0.066 H 
ENDBRANCH  31  32
ENDBRANCH   1  31
BRANCH   5  36
ATOM     36  O   LIG d   1       9.243   7.395  -4.973  0.00  0.00    -0.491 OA
BRANCH  36  37
ATOM     37  C   LIG d   1      10.084   7.588  -6.113  0.00  0.00     0.079 C 
ATOM     38  H   LIG d   1      10.756   8.426  -5.930  0.00  0.00     0.066 H 
ATOM     39  H   LIG d   1      10.668   6.686  -6.290  0.00  0.00     0.066 H 
ATOM     40  H   LIG d   1       9.468   7.800  -6.987  0.00  0.00     0.066 H 
ENDBRANCH  36  37
ENDBRANCH   5  36
BRANCH   6  41
ATOM     41  O   LIG d   1       9.809   8.002  -2.351  0.00  0.00    -0.488 OA
BRANCH  41  42
ATOM     42  C   LIG d   1      10.999   8.786  -2.450  0.00  0.00     0.079 C 
ATOM     43  H   LIG d   1      10.747   9.786  -2.801  0.00  0.00     0.066 H 
ATOM     44  H   LIG d   1      11.473   8.853  -1.471  0.00  0.00     0.066 H 
ATOM     45  H   LIG d   1      11.686   8.317  -3.154  0.00  0.00     0.066 H 
ENDBRANCH  41  42
ENDBRANCH   6  41
TORSDOF 10
ENDMDL
MODEL 2
REMARK VINA RESULT:      -5.8      0.893      2.634
REMARK  10 active torsions:
REMARK  status: ('A' for Active; 'I' for Inactive)
REMARK    1  A    between atoms: C_1  and  O_2 
REMARK    2  A    between atoms: O_2  and  C_3 
REMARK    3  A    between atoms: C_5  and  C_13 
REMARK    4  A    between atoms: C_7  and  O_11 
REMARK    5  A    between atoms: C_8  and  O_9 
REMARK    6  A    between atoms: O_9  and  C_10 
REMARK    7  A    between atoms: O_11  and  C_12 
REMARK    8  A    between atoms: C_20  and  O_24 
REMARK    9  A    between atoms: O_24  and  C_25 
REMARK   10  A    between atoms: C_25  and  C_26 
ROOT
ATOM      1  C   LIG d   1      10.013   7.109  -3.610  0.00  0.00     0.166 A 
ATOM      2  C   LIG d   1      10.254   5.869  -4.170  0.00  0.00    -0.009 A 
ATOM      3  C   LIG d   1      10.477   4.762  -3.342  0.00  0.00    -0.014 A 
ATOM      4  C   LIG d   1      10.453   4.915  -1.950  0.00  0.00    -0.009 A 
ATOM      5  C   LIG d   1      10.217   6.160  -1.399  0.00  0.00     0.166 A 
ATOM      6  C   LIG d   1       9.994   7.260  -2.225  0.00  0.00     0.203 A 
ATOM      7  H   LIG d   1      10.269   5.754  -5.243  0.00  0.00     0.066 H 
ATOM      8  H   LIG d   1      10.621   4.063  -1.309  0.00  0.00     0.066 H 
ENDROOT
BRANCH   3   9
ATOM      9  C   LIG d   1      10.733   3.441  -3.932  0.00  0.00    -0.008 C 
ATOM     10  C   LIG d   1       9.730   2.530  -4.013  0.00  0.00     0.176 A 
ATOM     11  O   LIG d   1       8.483   2.663  -3.503  0.00  0.00    -0.451 OA
ATOM     12  C   LIG d   1       9.803   1.216  -4.669  0.00  0.00     0.232 A 
ATOM     13  C   LIG d   1       7.719   1.578  -3.753  0.00  0.00     0.143 A 
ATOM     14  C   LIG d   1       8.462   0.633  -4.479  0.00  0.00     0.068 A 
ATOM     15  C   LIG d   1       6.402   1.286  -3.423  0.00  0.00     0.023 A 
ATOM     16  C   LIG d   1       7.889  -0.584  -4.851  0.00  0.00    -0.044 A 
ATOM     17  C   LIG d   1       6.592  -0.855  -4.518  0.00  0.00    -0.019 A 
ATOM     18  H   LIG d   1       8.467  -1.308  -5.405  0.00  0.00     0.063 H 
ATOM     19  C   LIG d   1       5.843   0.077  -3.803  0.00  0.00     0.125 A 
ATOM     20  H   LIG d   1       6.146  -1.795  -4.810  0.00  0.00     0.065 H 
ATOM     21  H   LIG d   1       5.813   2.002  -2.868  0.00  0.00     0.069 H 
ATOM     22  O   LIG d   1      10.756   0.722  -5.247  0.00  0.00    -0.283 OA
ATOM     23  H   LIG d   1      11.717   3.197  -4.301  0.00  0.00     0.066 H 
BRANCH  19  24
ATOM     24  O   LIG d   1       4.555  -0.202  -3.477  0.00  0.00    -0.486 OA
BRANCH  24  25
ATOM     25  C   LIG d   1       3.744  -0.799  -4.491  0.00  0.00     0.129 C 
ATOM     26  H   LIG d   1       4.375  -1.368  -5.173  0.00  0.00     0.076 H 
ATOM     27  H   LIG d   1       3.016  -1.467  -4.027  0.00  0.00     0.076 H 
BRANCH  25  28
ATOM     28  C   LIG d   1       3.021   0.279  -5.256  0.00  0.00     0.079 C 
ATOM     29  O   LIG d   1       2.714   1.309  -4.703  0.00  0.00    -0.546 OA
ATOM     30  O   LIG d   1       2.718   0.096  -6.551  0.00  0.00    -0.546 OA
ENDBRANCH  25  28
ENDBRANCH  24  25
ENDBRANCH  19  24
ENDBRANCH   3   9
BRANCH   1  31
ATOM     31  O   LIG d   1       9.796   8.185  -4.413  0.00  0.00    -0.491 OA
BRANCH  31  32
ATOM     32  C   LIG d   1       9.272   7.927  -5.717  0.00  0.00     0.079 C 
ATOM     33  H   LIG d   1      10.019   8.186  -6.466  0.00  0.00     0.066 H 
ATOM     34  H   LIG d   1       9.022   6.869  -5.805  0.00  0.00     0.066 H 
ATOM     35  H   LIG d   1       8.375   8.526  -5.875  0.00  0.00     0.066 H 
ENDBRANCH  31  32
ENDBRANCH   1  31
BRANCH   5  36
ATOM     36  O   LIG d   1      10.197   6.312  -0.047  0.00  0.00    -0.491 OA
BRANCH  36  37
ATOM     37  C   LIG d   1      11.356   5.882   0.670  0.00  0.00     0.079 C 
ATOM     38  H   LIG d   1      11.883   6.751   1.062  0.00  0.00     0.066 H 
ATOM     39  H   LIG d   1      11.055   5.237   1.494  0.00  0.00     0.066 H 
ATOM     40  H   LIG d   1      12.014   5.330  -0.001  0.00  0.00     0.066 H 
ENDBRANCH  36  37
ENDBRANCH   5  36
BRANCH   6  41
ATOM     41  O   LIG d   1       9.758   8.481  -1.680  0.00  0.00    -0.488 OA
BRANCH  41  42
ATOM     42  C   LIG d   1      10.896   9.303  -1.411  0.00  0.00     0.079 C 
ATOM     43  H   LIG d   1      11.805   8.762  -1.674  0.00  0.00     0.066 H 
ATOM     44  H   LIG d   1      10.833  10.217  -2.001  0.00  0.00     0.066 H 
ATOM     45  H   LIG d   1      10.918   9.556  -0.351  0.00  0.00     0.066 H 
ENDBRANCH  41  42
ENDBRANCH   6  41
TORSDOF 10
ENDMDL
MODEL 3
REMARK VINA RESULT:      -5.8      2.019      2.906
REMARK  10 active torsions:
REMARK  status: ('A' for Active; 'I' for Inactive)
REMARK    1  A    between atoms: C_1  and  O_2 
REMARK    2  A    between atoms: O_2  and  C_3 
REMARK    3  A    between atoms: C_5  and  C_13 
REMARK    4  A    between atoms: C_7  and  O_11 
REMARK    5  A    between atoms: C_8  and  O_9 
REMARK    6  A    between atoms: O_9  and  C_10 
REMARK    7  A    between atoms: O_11  and  C_12 
REMARK    8  A    between atoms: C_20  and  O_24 
REMARK    9  A    between atoms: O_24  and  C_25 
REMARK   10  A    between atoms: C_25  and  C_26 
ROOT
ATOM      1  C   LIG d   1      11.537   5.722  -0.972  0.00  0.00     0.166 A 
ATOM      2  C   LIG d   1      11.427   5.176  -2.237  0.00  0.00    -0.009 A 
ATOM      3  C   LIG d   1      10.350   5.530  -3.058  0.00  0.00    -0.014 A 
ATOM      4  C   LIG d   1       9.390   6.439  -2.595  0.00  0.00    -0.009 A 
ATOM      5  C   LIG d   1       9.505   6.975  -1.328  0.00  0.00     0.166 A 
ATOM      6  C   LIG d   1      10.578   6.622  -0.513  0.00  0.00     0.203 A 
ATOM      7  H   LIG d   1      12.172   4.478  -2.591  0.00  0.00     0.066 H 
ATOM      8  H   LIG d   1       8.560   6.717  -3.228  0.00  0.00     0.066 H 
ENDROOT
BRANCH   3   9
ATOM      9  C   LIG d   1      10.230   4.953  -4.403  0.00  0.00    -0.008 C 
ATOM     10  C   LIG d   1       9.479   3.839  -4.598  0.00  0.00     0.176 A 
ATOM     11  O   LIG d   1       8.873   3.103  -3.637  0.00  0.00    -0.451 OA
ATOM     12  C   LIG d   1       9.178   3.211  -5.893  0.00  0.00     0.232 A 
ATOM     13  C   LIG d   1       8.201   2.054  -4.156  0.00  0.00     0.143 A 
ATOM     14  C   LIG d   1       8.334   2.051  -5.555  0.00  0.00     0.068 A 
ATOM     15  C   LIG d   1       7.449   1.053  -3.553  0.00  0.00     0.023 A 
ATOM     16  C   LIG d   1       7.731   1.053  -6.322  0.00  0.00    -0.044 A 
ATOM     17  C   LIG d   1       6.995   0.078  -5.711  0.00  0.00    -0.019 A 
ATOM     18  H   LIG d   1       7.842   1.055  -7.395  0.00  0.00     0.063 H 
ATOM     19  C   LIG d   1       6.850   0.073  -4.326  0.00  0.00     0.125 A 
ATOM     20  H   LIG d   1       6.524  -0.692  -6.305  0.00  0.00     0.065 H 
ATOM     21  H   LIG d   1       7.331   1.041  -2.479  0.00  0.00     0.069 H 
ATOM     22  O   LIG d   1       9.540   3.573  -7.000  0.00  0.00    -0.283 OA
ATOM     23  H   LIG d   1      10.738   5.416  -5.235  0.00  0.00     0.066 H 
BRANCH  19  24
ATOM     24  O   LIG d   1       6.117  -0.902  -3.729  0.00  0.00    -0.486 OA
BRANCH  24  25
ATOM     25  C   LIG d   1       5.042  -0.481  -2.887  0.00  0.00     0.129 C 
ATOM     26  H   LIG d   1       5.375  -0.472  -1.850  0.00  0.00     0.076 H 
ATOM     27  H   LIG d   1       4.727   0.523  -3.176  0.00  0.00     0.076 H 
BRANCH  25  28
ATOM     28  C   LIG d   1       3.885  -1.434  -3.036  0.00  0.00     0.079 C 
ATOM     29  O   LIG d   1       2.752  -1.026  -2.938  0.00  0.00    -0.546 OA
ATOM     30  O   LIG d   1       4.113  -2.735  -3.276  0.00  0.00    -0.546 OA
ENDBRANCH  25  28
ENDBRANCH  24  25
ENDBRANCH  19  24
ENDBRANCH   3   9
BRANCH   1  31
ATOM     31  O   LIG d   1      12.584   5.379  -0.173  0.00  0.00    -0.491 OA
BRANCH  31  32
ATOM     32  C   LIG d   1      13.895   5.661  -0.665  0.00  0.00     0.079 C 
ATOM     33  H   LIG d   1      14.131   6.710  -0.489  0.00  0.00     0.066 H 
ATOM     34  H   LIG d   1      14.620   5.035  -0.145  0.00  0.00     0.066 H 
ATOM     35  H   LIG d   1      13.936   5.453  -1.734  0.00  0.00     0.066 H 
ENDBRANCH  31  32
ENDBRANCH   1  31
BRANCH   5  36
ATOM     36  O   LIG d   1       8.570   7.855  -0.875  0.00  0.00    -0.491 OA
BRANCH  36  37
ATOM     37  C   LIG d   1       8.811   9.242  -1.126  0.00  0.00     0.079 C 
ATOM     38  H   LIG d   1       7.868   9.736  -1.358  0.00  0.00     0.066 H 
ATOM     39  H   LIG d   1       9.254   9.699  -0.243  0.00  0.00     0.066 H 
ATOM     40  H   LIG d   1       9.493   9.344  -1.970  0.00  0.00     0.066 H 
ENDBRANCH  36  37
ENDBRANCH   5  36
BRANCH   6  41
ATOM     41  O   LIG d   1      10.690   7.155   0.731  0.00  0.00    -0.488 OA
BRANCH  41  42
ATOM     42  C   LIG d   1      11.575   8.267   0.884  0.00  0.00     0.079 C 
ATOM     43  H   LIG d   1      12.565   7.907   1.164  0.00  0.00     0.066 H 
ATOM     44  H   LIG d   1      11.638   8.813  -0.056  0.00  0.00     0.066 H 
ATOM     45  H   LIG d   1      11.196   8.927   1.664  0.00  0.00     0.066 H 
ENDBRANCH  41  42
ENDBRANCH   6  41
TORSDOF 10
ENDMDL
MODEL 4
REMARK VINA RESULT:      -5.8      1.963      3.545
REMARK  10 active torsions:
REMARK  status: ('A' for Active; 'I' for Inactive)
REMARK    1  A    between atoms: C_1  and  O_2 
REMARK    2  A    between atoms: O_2  and  C_3 
REMARK    3  A    between atoms: C_5  and  C_13 
REMARK    4  A    between atoms: C_7  and  O_11 
REMARK    5  A    between atoms: C_8  and  O_9 
REMARK    6  A    between atoms: O_9  and  C_10 
REMARK    7  A    between atoms: O_11  and  C_12 
REMARK    8  A    between atoms: C_20  and  O_24 
REMARK    9  A    between atoms: O_24  and  C_25 
REMARK   10  A    between atoms: C_25  and  C_26 
ROOT
ATOM      1  C   LIG d   1       9.766   7.310  -1.095  0.00  0.00     0.166 A 
ATOM      2  C   LIG d   1       9.705   6.799  -2.377  0.00  0.00    -0.009 A 
ATOM      3  C   LIG d   1      10.765   6.028  -2.871  0.00  0.00    -0.014 A 
ATOM      4  C   LIG d   1      11.880   5.776  -2.062  0.00  0.00    -0.009 A 
ATOM      5  C   LIG d   1      11.935   6.295  -0.783  0.00  0.00     0.166 A 
ATOM      6  C   LIG d   1      10.879   7.062  -0.294  0.00  0.00     0.203 A 
ATOM      7  H   LIG d   1       8.842   6.993  -2.996  0.00  0.00     0.066 H 
ATOM      8  H   LIG d   1      12.697   5.178  -2.438  0.00  0.00     0.066 H 
ENDROOT
BRANCH   3   9
ATOM      9  C   LIG d   1      10.704   5.481  -4.233  0.00  0.00    -0.008 C 
ATOM     10  C   LIG d   1       9.941   4.389  -4.491  0.00  0.00     0.176 A 
ATOM     11  O   LIG d   1       9.268   3.648  -3.580  0.00  0.00    -0.451 OA
ATOM     12  C   LIG d   1       9.696   3.795  -5.814  0.00  0.00     0.232 A 
ATOM     13  C   LIG d   1       8.601   2.626  -4.157  0.00  0.00     0.143 A 
ATOM     14  C   LIG d   1       8.810   2.648  -5.546  0.00  0.00     0.068 A 
ATOM     15  C   LIG d   1       7.796   1.631  -3.616  0.00  0.00     0.023 A 
ATOM     16  C   LIG d   1       8.227   1.680  -6.365  0.00  0.00    -0.044 A 
ATOM     17  C   LIG d   1       7.437   0.710  -5.816  0.00  0.00    -0.019 A 
ATOM     18  H   LIG d   1       8.395   1.701  -7.431  0.00  0.00     0.063 H 
ATOM     19  C   LIG d   1       7.218   0.680  -4.441  0.00  0.00     0.125 A 
ATOM     20  H   LIG d   1       6.982  -0.037  -6.450  0.00  0.00     0.065 H 
ATOM     21  H   LIG d   1       7.620   1.600  -2.550  0.00  0.00     0.069 H 
ATOM     22  O   LIG d   1      10.125   4.171  -6.891  0.00  0.00    -0.283 OA
ATOM     23  H   LIG d   1      11.267   5.949  -5.026  0.00  0.00     0.066 H 
BRANCH  19  24
ATOM     24  O   LIG d   1       6.432  -0.289  -3.905  0.00  0.00    -0.486 OA
BRANCH  24  25
ATOM     25  C   LIG d   1       5.019  -0.117  -4.024  0.00  0.00     0.129 C 
ATOM     26  H   LIG d   1       4.784   0.294  -5.005  0.00  0.00     0.076 H 
ATOM     27  H   LIG d   1       4.525  -1.082  -3.906  0.00  0.00     0.076 H 
BRANCH  25  28
ATOM     28  C   LIG d   1       4.536   0.829  -2.954  0.00  0.00     0.079 C 
ATOM     29  O   LIG d   1       4.031   1.882  -3.264  0.00  0.00    -0.546 OA
ATOM     30  O   LIG d   1       4.669   0.502  -1.659  0.00  0.00    -0.546 OA
ENDBRANCH  25  28
ENDBRANCH  24  25
ENDBRANCH  19  24
ENDBRANCH   3   9
BRANCH   1  31
ATOM     31  O   LIG d   1       8.738   8.059  -0.613  0.00  0.00    -0.491 OA
BRANCH  31  32
ATOM     32  C   LIG d   1       8.725   9.445  -0.960  0.00  0.00     0.079 C 
ATOM     33  H   LIG d   1       7.955   9.957  -0.385  0.00  0.00     0.066 H 
ATOM     34  H   LIG d   1       9.698   9.884  -0.736  0.00  0.00     0.066 H 
ATOM     35  H   LIG d   1       8.515   9.552  -2.025  0.00  0.00     0.066 H 
ENDBRANCH  31  32
ENDBRANCH   1  31
BRANCH   5  36
ATOM     36  O   LIG d   1      13.019   6.055   0.002  0.00  0.00    -0.491 OA
BRANCH  36  37
ATOM     37  C   LIG d   1      14.272   5.873  -0.661  0.00  0.00     0.079 C 
ATOM     38  H   LIG d   1      14.416   6.671  -1.389  0.00  0.00     0.066 H 
ATOM     39  H   LIG d   1      15.078   5.899   0.070  0.00  0.00     0.066 H 
ATOM     40  H   LIG d   1      14.276   4.911  -1.172  0.00  0.00     0.066 H 
ENDBRANCH  36  37
ENDBRANCH   5  36
BRANCH   6  41
ATOM     41  O   LIG d   1      10.934   7.568   0.965  0.00  0.00    -0.488 OA
BRANCH  41  42
ATOM     42  C   LIG d   1      11.614   8.813   1.136  0.00  0.00     0.079 C 
ATOM     43  H   LIG d   1      12.210   9.026   0.248  0.00  0.00     0.066 H 
ATOM     44  H   LIG d   1      10.885   9.608   1.284  0.00  0.00     0.066 H 
ATOM     45  H   LIG d   1      12.268   8.753   2.005  0.00  0.00     0.066 H 
ENDBRANCH  41  42
ENDBRANCH   6  41
TORSDOF 10
ENDMDL
MODEL 5
REMARK VINA RESULT:      -5.7      2.278      8.380
REMARK  10 active torsions:
REMARK  status: ('A' for Active; 'I' for Inactive)
REMARK    1  A    between atoms: C_1  and  O_2 
REMARK    2  A    between atoms: O_2  and  C_3 
REMARK    3  A    between atoms: C_5  and  C_13 
REMARK    4  A    between atoms: C_7  and  O_11 
REMARK    5  A    between atoms: C_8  and  O_9 
REMARK    6  A    between atoms: O_9  and  C_10 
REMARK    7  A    between atoms: O_11  and  C_12 
REMARK    8  A    between atoms: C_20  and  O_24 
REMARK    9  A    between atoms: O_24  and  C_25 
REMARK   10  A    between atoms: C_25  and  C_26 
ROOT
ATOM      1  C   LIG d   1       6.757  -1.405  -3.890  0.00  0.00     0.166 A 
ATOM      2  C   LIG d   1       7.482  -0.573  -4.721  0.00  0.00    -0.009 A 
ATOM      3  C   LIG d   1       7.362   0.816  -4.594  0.00  0.00    -0.014 A 
ATOM      4  C   LIG d   1       6.510   1.357  -3.623  0.00  0.00    -0.009 A 
ATOM      5  C   LIG d   1       5.784   0.517  -2.800  0.00  0.00     0.166 A 
ATOM      6  C   LIG d   1       5.906  -0.865  -2.928  0.00  0.00     0.203 A 
ATOM      7  H   LIG d   1       8.141  -0.994  -5.466  0.00  0.00     0.066 H 
ATOM      8  H   LIG d   1       6.418   2.428  -3.519  0.00  0.00     0.066 H 
ENDROOT
BRANCH   3   9
ATOM      9  C   LIG d   1       8.133   1.705  -5.474  0.00  0.00    -0.008 C 
ATOM     10  C   LIG d   1       9.003   2.599  -4.940  0.00  0.00     0.176 A 
ATOM     11  O   LIG d   1       9.187   2.850  -3.622  0.00  0.00    -0.451 OA
ATOM     12  C   LIG d   1       9.916   3.475  -5.689  0.00  0.00     0.232 A 
ATOM     13  C   LIG d   1      10.127   3.797  -3.417  0.00  0.00     0.143 A 
ATOM     14  C   LIG d   1      10.635   4.235  -4.651  0.00  0.00     0.068 A 
ATOM     15  C   LIG d   1      10.628   4.357  -2.249  0.00  0.00     0.023 A 
ATOM     16  C   LIG d   1      11.619   5.224  -4.701  0.00  0.00    -0.044 A 
ATOM     17  C   LIG d   1      12.101   5.763  -3.542  0.00  0.00    -0.019 A 
ATOM     18  H   LIG d   1      12.002   5.558  -5.653  0.00  0.00     0.063 H 
ATOM     19  C   LIG d   1      11.609   5.333  -2.312  0.00  0.00     0.125 A 
ATOM     20  H   LIG d   1      12.865   6.525  -3.580  0.00  0.00     0.065 H 
ATOM     21  H   LIG d   1      10.253   4.030  -1.290  0.00  0.00     0.069 H 
ATOM     22  O   LIG d   1      10.053   3.550  -6.899  0.00  0.00    -0.283 OA
ATOM     23  H   LIG d   1       8.006   1.646  -6.544  0.00  0.00     0.066 H 
BRANCH  19  24
ATOM     24  O   LIG d   1      12.094   5.876  -1.166  0.00  0.00    -0.486 OA
BRANCH  24  25
ATOM     25  C   LIG d   1      11.677   5.278   0.062  0.00  0.00     0.129 C 
ATOM     26  H   LIG d   1      10.966   4.478  -0.145  0.00  0.00     0.076 H 
ATOM     27  H   LIG d   1      12.545   4.866   0.579  0.00  0.00     0.076 H 
BRANCH  25  28
ATOM     28  C   LIG d   1      11.021   6.320   0.931  0.00  0.00     0.079 C 
ATOM     29  O   LIG d   1      10.372   7.204   0.426  0.00  0.00    -0.546 OA
ATOM     30  O   LIG d   1      11.160   6.265   2.265  0.00  0.00    -0.546 OA
ENDBRANCH  25  28
ENDBRANCH  24  25
ENDBRANCH  19  24
ENDBRANCH   3   9
BRANCH   1  31
ATOM     31  O   LIG d   1       6.873  -2.755  -4.012  0.00  0.00    -0.491 OA
BRANCH  31  32
ATOM     32  C   LIG d   1       6.443  -3.335  -5.245  0.00  0.00     0.079 C 
ATOM     33  H   LIG d   1       5.506  -3.868  -5.089  0.00  0.00     0.066 H 
ATOM     34  H   LIG d   1       6.293  -2.547  -5.984  0.00  0.00     0.066 H 
ATOM     35  H   LIG d   1       7.202  -4.030  -5.605  0.00  0.00     0.066 H 
ENDBRANCH  31  32
ENDBRANCH   1  31
BRANCH   5  36
ATOM     36  O   LIG d   1       4.952   1.041  -1.859  0.00  0.00    -0.491 OA
BRANCH  36  37
ATOM     37  C   LIG d   1       3.664   1.474  -2.302  0.00  0.00     0.079 C 
ATOM     38  H   LIG d   1       3.654   1.526  -3.390  0.00  0.00     0.066 H 
ATOM     39  H   LIG d   1       2.908   0.767  -1.965  0.00  0.00     0.066 H 
ATOM     40  H   LIG d   1       3.451   2.459  -1.889  0.00  0.00     0.066 H 
ENDBRANCH  36  37
ENDBRANCH   5  36
BRANCH   6  41
ATOM     41  O   LIG d   1       5.194  -1.687  -2.115  0.00  0.00    -0.488 OA
BRANCH  41  42
ATOM     42  C   LIG d   1       3.932  -2.149  -2.602  0.00  0.00     0.079 C 
ATOM     43  H   LIG d   1       3.349  -2.552  -1.774  0.00  0.00     0.066 H 
ATOM     44  H   LIG d   1       3.392  -1.319  -3.057  0.00  0.00     0.066 H 
ATOM     45  H   LIG d   1       4.094  -2.929  -3.345  0.00  0.00     0.066 H 
ENDBRANCH  41  42
ENDBRANCH   6  41
TORSDOF 10
ENDMDL
MODEL 6
REMARK VINA RESULT:      -5.7      1.553      2.007
REMARK  10 active torsions:
REMARK  status: ('A' for Active; 'I' for Inactive)
REMARK    1  A    between atoms: C_1  and  O_2 
REMARK    2  A    between atoms: O_2  and  C_3 
REMARK    3  A    between atoms: C_5  and  C_13 
REMARK    4  A    between atoms: C_7  and  O_11 
REMARK    5  A    between atoms: C_8  and  O_9 
REMARK    6  A    between atoms: O_9  and  C_10 
REMARK    7  A    between atoms: O_11  and  C_12 
REMARK    8  A    between atoms: C_20  and  O_24 
REMARK    9  A    between atoms: O_24  and  C_25 
REMARK   10  A    between atoms: C_25  and  C_26 
ROOT
ATOM      1  C   LIG d   1      10.272   6.359  -1.046  0.00  0.00     0.166 A 
ATOM      2  C   LIG d   1      10.622   5.162  -1.640  0.00  0.00    -0.009 A 
ATOM      3  C   LIG d   1      10.747   5.085  -3.033  0.00  0.00    -0.014 A 
ATOM      4  C   LIG d   1      10.521   6.222  -3.817  0.00  0.00    -0.009 A 
ATOM      5  C   LIG d   1      10.166   7.414  -3.216  0.00  0.00     0.166 A 
ATOM      6  C   LIG d   1      10.043   7.488  -1.830  0.00  0.00     0.203 A 
ATOM      7  H   LIG d   1      10.799   4.288  -1.032  0.00  0.00     0.066 H 
ATOM      8  H   LIG d   1      10.621   6.167  -4.891  0.00  0.00     0.066 H 
ENDROOT
BRANCH   3   9
ATOM      9  C   LIG d   1      11.120   3.814  -3.669  0.00  0.00    -0.008 C 
ATOM     10  C   LIG d   1      10.178   2.860  -3.880  0.00  0.00     0.176 A 
ATOM     11  O   LIG d   1       8.889   2.903  -3.469  0.00  0.00    -0.451 OA
ATOM     12  C   LIG d   1      10.373   1.591  -4.596  0.00  0.00     0.232 A 
ATOM     13  C   LIG d   1       8.207   1.797  -3.837  0.00  0.00     0.143 A 
ATOM     14  C   LIG d   1       9.055   0.932  -4.548  0.00  0.00     0.068 A 
ATOM     15  C   LIG d   1       6.885   1.421  -3.633  0.00  0.00     0.023 A 
ATOM     16  C   LIG d   1       8.580  -0.289  -5.030  0.00  0.00    -0.044 A 
ATOM     17  C   LIG d   1       7.277  -0.642  -4.820  0.00  0.00    -0.019 A 
ATOM     18  H   LIG d   1       9.240  -0.950  -5.571  0.00  0.00     0.063 H 
ATOM     19  C   LIG d   1       6.425   0.209  -4.122  0.00  0.00     0.125 A 
ATOM     20  H   LIG d   1       6.908  -1.584  -5.197  0.00  0.00     0.065 H 
ATOM     21  H   LIG d   1       6.216   2.074  -3.092  0.00  0.00     0.069 H 
ATOM     22  O   LIG d   1      11.395   1.179  -5.119  0.00  0.00    -0.283 OA
ATOM     23  H   LIG d   1      12.143   3.640  -3.967  0.00  0.00     0.066 H 
BRANCH  19  24
ATOM     24  O   LIG d   1       5.132  -0.152  -3.918  0.00  0.00    -0.486 OA
BRANCH  24  25
ATOM     25  C   LIG d   1       4.781  -0.595  -2.606  0.00  0.00     0.129 C 
ATOM     26  H   LIG d   1       5.595  -1.189  -2.193  0.00  0.00     0.076 H 
ATOM     27  H   LIG d   1       4.602   0.271  -1.967  0.00  0.00     0.076 H 
BRANCH  25  28
ATOM     28  C   LIG d   1       3.531  -1.435  -2.677  0.00  0.00     0.079 C 
ATOM     29  O   LIG d   1       2.482  -0.928  -2.994  0.00  0.00    -0.546 OA
ATOM     30  O   LIG d   1       3.586  -2.744  -2.388  0.00  0.00    -0.546 OA
ENDBRANCH  25  28
ENDBRANCH  24  25
ENDBRANCH  19  24
ENDBRANCH   3   9
BRANCH   1  31
ATOM     31  O   LIG d   1      10.151   6.436   0.306  0.00  0.00    -0.491 OA
BRANCH  31  32
ATOM     32  C   LIG d   1      11.300   6.092   1.082  0.00  0.00     0.079 C 
ATOM     33  H   LIG d   1      11.754   5.187   0.678  0.00  0.00     0.066 H 
ATOM     34  H   LIG d   1      12.022   6.908   1.043  0.00  0.00     0.066 H 
ATOM     35  H   LIG d   1      11.003   5.918   2.117  0.00  0.00     0.066 H 
ENDBRANCH  31  32
ENDBRANCH   1  31
BRANCH   5  36
ATOM     36  O   LIG d   1       9.942   8.519  -3.977  0.00  0.00    -0.491 OA
BRANCH  36  37
ATOM     37  C   LIG d   1       9.691   8.308  -5.368  0.00  0.00     0.079 C 
ATOM     38  H   LIG d   1       8.929   9.008  -5.709  0.00  0.00     0.066 H 
ATOM     39  H   LIG d   1      10.609   8.467  -5.931  0.00  0.00     0.066 H 
ATOM     40  H   LIG d   1       9.342   7.287  -5.522  0.00  0.00     0.066 H 
ENDBRANCH  36  37
ENDBRANCH   5  36
BRANCH   6  41
ATOM     41  O   LIG d   1       9.699   8.663  -1.241  0.00  0.00    -0.488 OA
BRANCH  41  42
ATOM     42  C   LIG d   1      10.765   9.532  -0.853  0.00  0.00     0.079 C 
ATOM     43  H   LIG d   1      11.564   9.479  -1.591  0.00  0.00     0.066 H 
ATOM     44  H   LIG d   1      10.395  10.555  -0.788  0.00  0.00     0.066 H 
ATOM     45  H   LIG d   1      11.149   9.222   0.119  0.00  0.00     0.066 H 
ENDBRANCH  41  42
ENDBRANCH   6  41
TORSDOF 10
ENDMDL
MODEL 7
REMARK VINA RESULT:      -5.5      7.438     13.696
REMARK  10 active torsions:
REMARK  status: ('A' for Active; 'I' for Inactive)
REMARK    1  A    between atoms: C_1  and  O_2 
REMARK    2  A    between atoms: O_2  and  C_3 
REMARK    3  A    between atoms: C_5  and  C_13 
REMARK    4  A    between atoms: C_7  and  O_11 
REMARK    5  A    between atoms: C_8  and  O_9 
REMARK    6  A    between atoms: O_9  and  C_10 
REMARK    7  A    between atoms: O_11  and  C_12 
REMARK    8  A    between atoms: C_20  and  O_24 
REMARK    9  A    between atoms: O_24  and  C_25 
REMARK   10  A    between atoms: C_25  and  C_26 
ROOT
ATOM      1  C   LIG d   1      -0.031  -6.753 -10.153  0.00  0.00     0.166 A 
ATOM      2  C   LIG d   1       0.610  -5.767 -10.879  0.00  0.00    -0.009 A 
ATOM      3  C   LIG d   1      -0.084  -4.607 -11.244  0.00  0.00    -0.014 A 
ATOM      4  C   LIG d   1      -1.424  -4.449 -10.869  0.00  0.00    -0.009 A 
ATOM      5  C   LIG d   1      -2.059  -5.442 -10.148  0.00  0.00     0.166 A 
ATOM      6  C   LIG d   1      -1.365  -6.595  -9.786  0.00  0.00     0.203 A 
ATOM      7  H   LIG d   1       1.644  -5.891 -11.164  0.00  0.00     0.066 H 
ATOM      8  H   LIG d   1      -1.962  -3.554 -11.145  0.00  0.00     0.066 H 
ENDROOT
BRANCH   3   9
ATOM      9  C   LIG d   1       0.593  -3.556 -12.015  0.00  0.00    -0.008 C 
ATOM     10  C   LIG d   1       1.253  -2.561 -11.370  0.00  0.00     0.176 A 
ATOM     11  O   LIG d   1       1.284  -2.357 -10.031  0.00  0.00    -0.451 OA
ATOM     12  C   LIG d   1       2.062  -1.506 -11.998  0.00  0.00     0.232 A 
ATOM     13  C   LIG d   1       2.030  -1.280  -9.705  0.00  0.00     0.143 A 
ATOM     14  C   LIG d   1       2.555  -0.696 -10.869  0.00  0.00     0.068 A 
ATOM     15  C   LIG d   1       2.333  -0.710  -8.474  0.00  0.00     0.023 A 
ATOM     16  C   LIG d   1       3.358   0.443 -10.791  0.00  0.00    -0.044 A 
ATOM     17  C   LIG d   1       3.645   0.990  -9.572  0.00  0.00    -0.019 A 
ATOM     18  H   LIG d   1       3.754   0.889 -11.691  0.00  0.00     0.063 H 
ATOM     19  C   LIG d   1       3.135   0.417  -8.410  0.00  0.00     0.125 A 
ATOM     20  H   LIG d   1       4.270   1.869  -9.511  0.00  0.00     0.065 H 
ATOM     21  H   LIG d   1       1.942  -1.147  -7.567  0.00  0.00     0.069 H 
ATOM     22  O   LIG d   1       2.281  -1.343 -13.186  0.00  0.00    -0.283 OA
ATOM     23  H   LIG d   1       0.565  -3.576 -13.094  0.00  0.00     0.066 H 
BRANCH  19  24
ATOM     24  O   LIG d   1       3.428   0.968  -7.204  0.00  0.00    -0.486 OA
BRANCH  24  25
ATOM     25  C   LIG d   1       3.568   0.073  -6.099  0.00  0.00     0.129 C 
ATOM     26  H   LIG d   1       3.248  -0.925  -6.396  0.00  0.00     0.076 H 
ATOM     27  H   LIG d   1       4.613   0.042  -5.788  0.00  0.00     0.076 H 
BRANCH  25  28
ATOM     28  C   LIG d   1       2.716   0.553  -4.952  0.00  0.00     0.079 C 
ATOM     29  O   LIG d   1       1.643   0.042  -4.743  0.00  0.00    -0.546 OA
ATOM     30  O   LIG d   1       3.151   1.550  -4.165  0.00  0.00    -0.546 OA
ENDBRANCH  25  28
ENDBRANCH  24  25
ENDBRANCH  19  24
ENDBRANCH   3   9
BRANCH   1  31
ATOM     31  O   LIG d   1       0.643  -7.880  -9.798  0.00  0.00    -0.491 OA
BRANCH  31  32
ATOM     32  C   LIG d   1       0.891  -8.839 -10.827  0.00  0.00     0.079 C 
ATOM     33  H   LIG d   1       0.679  -8.394 -11.798  0.00  0.00     0.066 H 
ATOM     34  H   LIG d   1       1.937  -9.148 -10.791  0.00  0.00     0.066 H 
ATOM     35  H   LIG d   1       0.251  -9.709 -10.677  0.00  0.00     0.066 H 
ENDBRANCH  31  32
ENDBRANCH   1  31
BRANCH   5  36
ATOM     36  O   LIG d   1      -3.362  -5.293  -9.786  0.00  0.00    -0.491 OA
BRANCH  36  37
ATOM     37  C   LIG d   1      -4.135  -4.345 -10.526  0.00  0.00     0.079 C 
ATOM     38  H   LIG d   1      -3.850  -3.336 -10.229  0.00  0.00     0.066 H 
ATOM     39  H   LIG d   1      -3.949  -4.476 -11.591  0.00  0.00     0.066 H 
ATOM     40  H   LIG d   1      -5.193  -4.500 -10.319  0.00  0.00     0.066 H 
ENDBRANCH  36  37
ENDBRANCH   5  36
BRANCH   6  41
ATOM     41  O   LIG d   1      -1.991  -7.568  -9.073  0.00  0.00    -0.488 OA
BRANCH  41  42
ATOM     42  C   LIG d   1      -2.702  -8.561  -9.814  0.00  0.00     0.079 C 
ATOM     43  H   LIG d   1      -2.240  -9.534  -9.654  0.00  0.00     0.066 H 
ATOM     44  H   LIG d   1      -3.739  -8.590  -9.481  0.00  0.00     0.066 H 
ATOM     45  H   LIG d   1      -2.668  -8.314 -10.875  0.00  0.00     0.066 H 
ENDBRANCH  41  42
ENDBRANCH   6  41
TORSDOF 10
ENDMDL
MODEL 8
REMARK VINA RESULT:      -5.3      1.574      7.946
REMARK  10 active torsions:
REMARK  status: ('A' for Active; 'I' for Inactive)
REMARK    1  A    between atoms: C_1  and  O_2 
REMARK    2  A    between atoms: O_2  and  C_3 
REMARK    3  A    between atoms: C_5  and  C_13 
REMARK    4  A    between atoms: C_7  and  O_11 
REMARK    5  A    between atoms: C_8  and  O_9 
REMARK    6  A    between atoms: O_9  and  C_10 
REMARK    7  A    between atoms: O_11  and  C_12 
REMARK    8  A    between atoms: C_20  and  O_24 
REMARK    9  A    between atoms: O_24  and  C_25 
REMARK   10  A    between atoms: C_25  and  C_26 
ROOT
ATOM      1  C   LIG d   1       5.472  -0.303  -3.452  0.00  0.00     0.166 A 
ATOM      2  C   LIG d   1       6.836  -0.094  -3.523  0.00  0.00    -0.009 A 
ATOM      3  C   LIG d   1       7.474  -0.074  -4.769  0.00  0.00    -0.014 A 
ATOM      4  C   LIG d   1       6.727  -0.261  -5.938  0.00  0.00    -0.009 A 
ATOM      5  C   LIG d   1       5.364  -0.475  -5.858  0.00  0.00     0.166 A 
ATOM      6  C   LIG d   1       4.732  -0.495  -4.616  0.00  0.00     0.203 A 
ATOM      7  H   LIG d   1       7.408   0.053  -2.619  0.00  0.00     0.066 H 
ATOM      8  H   LIG d   1       7.215  -0.242  -6.902  0.00  0.00     0.066 H 
ENDROOT
BRANCH   3   9
ATOM      9  C   LIG d   1       8.923   0.149  -4.850  0.00  0.00    -0.008 C 
ATOM     10  C   LIG d   1       9.434   1.384  -4.609  0.00  0.00     0.176 A 
ATOM     11  O   LIG d   1       8.723   2.514  -4.384  0.00  0.00    -0.451 OA
ATOM     12  C   LIG d   1      10.860   1.736  -4.547  0.00  0.00     0.232 A 
ATOM     13  C   LIG d   1       9.527   3.580  -4.178  0.00  0.00     0.143 A 
ATOM     14  C   LIG d   1      10.872   3.182  -4.256  0.00  0.00     0.068 A 
ATOM     15  C   LIG d   1       9.237   4.913  -3.916  0.00  0.00     0.023 A 
ATOM     16  C   LIG d   1      11.897   4.112  -4.085  0.00  0.00    -0.044 A 
ATOM     17  C   LIG d   1      11.593   5.419  -3.827  0.00  0.00    -0.019 A 
ATOM     18  H   LIG d   1      12.928   3.800  -4.151  0.00  0.00     0.063 H 
ATOM     19  C   LIG d   1      10.264   5.826  -3.741  0.00  0.00     0.125 A 
ATOM     20  H   LIG d   1      12.387   6.139  -3.690  0.00  0.00     0.065 H 
ATOM     21  H   LIG d   1       8.208   5.238  -3.847  0.00  0.00     0.069 H 
ATOM     22  O   LIG d   1      11.818   0.997  -4.695  0.00  0.00    -0.283 OA
ATOM     23  H   LIG d   1       9.581  -0.669  -5.101  0.00  0.00     0.066 H 
BRANCH  19  24
ATOM     24  O   LIG d   1       9.973   7.127  -3.485  0.00  0.00    -0.486 OA
BRANCH  24  25
ATOM     25  C   LIG d   1      10.538   7.697  -2.303  0.00  0.00     0.129 C 
ATOM     26  H   LIG d   1      11.555   7.327  -2.171  0.00  0.00     0.076 H 
ATOM     27  H   LIG d   1      10.557   8.784  -2.398  0.00  0.00     0.076 H 
BRANCH  25  28
ATOM     28  C   LIG d   1       9.703   7.311  -1.110  0.00  0.00     0.079 C 
ATOM     29  O   LIG d   1       8.638   7.848  -0.919  0.00  0.00    -0.546 OA
ATOM     30  O   LIG d   1      10.143   6.370  -0.259  0.00  0.00    -0.546 OA
ENDBRANCH  25  28
ENDBRANCH  24  25
ENDBRANCH  19  24
ENDBRANCH   3   9
BRANCH   1  31
ATOM     31  O   LIG d   1       4.850  -0.323  -2.242  0.00  0.00    -0.491 OA
BRANCH  31  32
ATOM     32  C   LIG d   1       4.593   0.939  -1.623  0.00  0.00     0.079 C 
ATOM     33  H   LIG d   1       3.820   1.466  -2.181  0.00  0.00     0.066 H 
ATOM     34  H   LIG d   1       4.256   0.779  -0.599  0.00  0.00     0.066 H 
ATOM     35  H   LIG d   1       5.507   1.534  -1.616  0.00  0.00     0.066 H 
ENDBRANCH  31  32
ENDBRANCH   1  31
BRANCH   5  36
ATOM     36  O   LIG d   1       4.637  -0.662  -6.993  0.00  0.00    -0.491 OA
BRANCH  36  37
ATOM     37  C   LIG d   1       4.656  -1.971  -7.566  0.00  0.00     0.079 C 
ATOM     38  H   LIG d   1       3.645  -2.252  -7.861  0.00  0.00     0.066 H 
ATOM     39  H   LIG d   1       5.304  -1.976  -8.441  0.00  0.00     0.066 H 
ATOM     40  H   LIG d   1       5.031  -2.683  -6.832  0.00  0.00     0.066 H 
ENDBRANCH  36  37
ENDBRANCH   5  36
BRANCH   6  41
ATOM     41  O   LIG d   1       3.391  -0.701  -4.541  0.00  0.00    -0.488 OA
BRANCH  41  42
ATOM     42  C   LIG d   1       2.548   0.439  -4.721  0.00  0.00     0.079 C 
ATOM     43  H   LIG d   1       2.854   0.980  -5.616  0.00  0.00     0.066 H 
ATOM     44  H   LIG d   1       1.514   0.113  -4.829  0.00  0.00     0.066 H 
ATOM     45  H   LIG d   1       2.634   1.094  -3.855  0.00  0.00     0.066 H 
ENDBRANCH  41  42
ENDBRANCH   6  41
TORSDOF 10
ENDMDL
MODEL 9
REMARK VINA RESULT:      -5.3      3.967      4.965
REMARK  10 active torsions:
REMARK  status: ('A' for Active; 'I' for Inactive)
REMARK    1  A    between atoms: C_1  and  O_2 
REMARK    2  A    between atoms: O_2  and  C_3 
REMARK    3  A    between atoms: C_5  and  C_13 
REMARK    4  A    between atoms: C_7  and  O_11 
REMARK    5  A    between atoms: C_8  and  O_9 
REMARK    6  A    between atoms: O_9  and  C_10 
REMARK    7  A    between atoms: O_11  and  C_12 
REMARK    8  A    between atoms: C_20  and  O_24 
REMARK    9  A    between atoms: O_24  and  C_25 
REMARK   10  A    between atoms: C_25  and  C_26 
ROOT
ATOM      1  C   LIG d   1      11.155   1.364  -5.246  0.00  0.00     0.166 A 
ATOM      2  C   LIG d   1      10.081   1.403  -4.377  0.00  0.00    -0.009 A 
ATOM      3  C   LIG d   1       8.860   1.939  -4.801  0.00  0.00    -0.014 A 
ATOM      4  C   LIG d   1       8.730   2.432  -6.105  0.00  0.00    -0.009 A 
ATOM      5  C   LIG d   1       9.810   2.395  -6.966  0.00  0.00     0.166 A 
ATOM      6  C   LIG d   1      11.024   1.859  -6.541  0.00  0.00     0.203 A 
ATOM      7  H   LIG d   1      10.184   1.018  -3.373  0.00  0.00     0.066 H 
ATOM      8  H   LIG d   1       7.788   2.843  -6.437  0.00  0.00     0.066 H 
ENDROOT
BRANCH   3   9
ATOM      9  C   LIG d   1       7.715   1.981  -3.881  0.00  0.00    -0.008 C 
ATOM     10  C   LIG d   1       6.904   0.900  -3.758  0.00  0.00     0.176 A 
ATOM     11  O   LIG d   1       6.971  -0.238  -4.488  0.00  0.00    -0.451 OA
ATOM     12  C   LIG d   1       5.792   0.753  -2.808  0.00  0.00     0.232 A 
ATOM     13  C   LIG d   1       6.022  -1.126  -4.122  0.00  0.00     0.143 A 
ATOM     14  C   LIG d   1       5.249  -0.591  -3.079  0.00  0.00     0.068 A 
ATOM     15  C   LIG d   1       5.723  -2.400  -4.592  0.00  0.00     0.023 A 
ATOM     16  C   LIG d   1       4.193  -1.321  -2.532  0.00  0.00    -0.044 A 
ATOM     17  C   LIG d   1       3.915  -2.572  -3.006  0.00  0.00    -0.019 A 
ATOM     18  H   LIG d   1       3.601  -0.901  -1.733  0.00  0.00     0.063 H 
ATOM     19  C   LIG d   1       4.677  -3.116  -4.036  0.00  0.00     0.125 A 
ATOM     20  H   LIG d   1       3.100  -3.140  -2.580  0.00  0.00     0.065 H 
ATOM     21  H   LIG d   1       6.309  -2.830  -5.391  0.00  0.00     0.069 H 
ATOM     22  O   LIG d   1       5.409   1.559  -1.976  0.00  0.00    -0.283 OA
ATOM     23  H   LIG d   1       7.520   2.873  -3.304  0.00  0.00     0.066 H 
BRANCH  19  24
ATOM     24  O   LIG d   1       4.391  -4.360  -4.500  0.00  0.00    -0.486 OA
BRANCH  24  25
ATOM     25  C   LIG d   1       5.078  -4.786  -5.678  0.00  0.00     0.129 C 
ATOM     26  H   LIG d   1       5.923  -4.124  -5.867  0.00  0.00     0.076 H 
ATOM     27  H   LIG d   1       5.441  -5.806  -5.538  0.00  0.00     0.076 H 
BRANCH  25  28
ATOM     28  C   LIG d   1       4.135  -4.745  -6.853  0.00  0.00     0.079 C 
ATOM     29  O   LIG d   1       3.538  -5.742  -7.182  0.00  0.00    -0.546 OA
ATOM     30  O   LIG d   1       3.959  -3.601  -7.532  0.00  0.00    -0.546 OA
ENDBRANCH  25  28
ENDBRANCH  24  25
ENDBRANCH  19  24
ENDBRANCH   3   9
BRANCH   1  31
ATOM     31  O   LIG d   1      12.342   0.842  -4.835  0.00  0.00    -0.491 OA
BRANCH  31  32
ATOM     32  C   LIG d   1      13.080   1.591  -3.867  0.00  0.00     0.079 C 
ATOM     33  H   LIG d   1      14.142   1.371  -3.971  0.00  0.00     0.066 H 
ATOM     34  H   LIG d   1      12.913   2.656  -4.028  0.00  0.00     0.066 H 
ATOM     35  H   LIG d   1      12.748   1.318  -2.865  0.00  0.00     0.066 H 
ENDBRANCH  31  32
ENDBRANCH   1  31
BRANCH   5  36
ATOM     36  O   LIG d   1       9.686   2.877  -8.232  0.00  0.00    -0.491 OA
BRANCH  36  37
ATOM     37  C   LIG d   1       8.967   2.068  -9.166  0.00  0.00     0.079 C 
ATOM     38  H   LIG d   1       8.416   2.711  -9.852  0.00  0.00     0.066 H 
ATOM     39  H   LIG d   1       9.668   1.453  -9.728  0.00  0.00     0.066 H 
ATOM     40  H   LIG d   1       8.270   1.427  -8.628  0.00  0.00     0.066 H 
ENDBRANCH  36  37
ENDBRANCH   5  36
BRANCH   6  41
ATOM     41  O   LIG d   1      12.082   1.820  -7.392  0.00  0.00    -0.488 OA
BRANCH  41  42
ATOM     42  C   LIG d   1      12.940   2.963  -7.413  0.00  0.00     0.079 C 
ATOM     43  H   LIG d   1      12.524   3.717  -8.080  0.00  0.00     0.066 H 
ATOM     44  H   LIG d   1      13.026   3.373  -6.408  0.00  0.00     0.066 H 
ATOM     45  H   LIG d   1      13.927   2.669  -7.771  0.00  0.00     0.066 H 
ENDBRANCH  41  42
ENDBRANCH   6  41
TORSDOF 10
ENDMDL
MODEL 10
REMARK VINA RESULT:      -5.2      6.767      9.653
REMARK  10 active torsions:
REMARK  status: ('A' for Active; 'I' for Inactive)
REMARK    1  A    between atoms: C_1  and  O_2 
REMARK    2  A    between atoms: O_2  and  C_3 
REMARK    3  A    between atoms: C_5  and  C_13 
REMARK    4  A    between atoms: C_7  and  O_11 
REMARK    5  A    between atoms: C_8  and  O_9 
REMARK    6  A    between atoms: O_9  and  C_10 
REMARK    7  A    between atoms: O_11  and  C_12 
REMARK    8  A    between atoms: C_20  and  O_24 
REMARK    9  A    between atoms: O_24  and  C_25 
REMARK   10  A    between atoms: C_25  and  C_26 
ROOT
ATOM      1  C   LIG d   1       4.229  -1.435  -8.123  0.00  0.00     0.166 A 
ATOM      2  C   LIG d   1       5.259  -2.234  -7.664  0.00  0.00    -0.009 A 
ATOM      3  C   LIG d   1       5.698  -2.115  -6.340  0.00  0.00    -0.014 A 
ATOM      4  C   LIG d   1       5.090  -1.188  -5.485  0.00  0.00    -0.009 A 
ATOM      5  C   LIG d   1       4.065  -0.389  -5.953  0.00  0.00     0.166 A 
ATOM      6  C   LIG d   1       3.629  -0.510  -7.271  0.00  0.00     0.203 A 
ATOM      7  H   LIG d   1       5.723  -2.950  -8.326  0.00  0.00     0.066 H 
ATOM      8  H   LIG d   1       5.423  -1.096  -4.461  0.00  0.00     0.066 H 
ENDROOT
BRANCH   3   9
ATOM      9  C   LIG d   1       6.791  -2.963  -5.848  0.00  0.00    -0.008 C 
ATOM     10  C   LIG d   1       6.612  -4.304  -5.738  0.00  0.00     0.176 A 
ATOM     11  O   LIG d   1       5.456  -4.978  -5.949  0.00  0.00    -0.451 OA
ATOM     12  C   LIG d   1       7.638  -5.289  -5.366  0.00  0.00     0.232 A 
ATOM     13  C   LIG d   1       5.607  -6.306  -5.758  0.00  0.00     0.143 A 
ATOM     14  C   LIG d   1       6.936  -6.585  -5.399  0.00  0.00     0.068 A 
ATOM     15  C   LIG d   1       4.705  -7.358  -5.861  0.00  0.00     0.023 A 
ATOM     16  C   LIG d   1       7.339  -7.896  -5.139  0.00  0.00    -0.044 A 
ATOM     17  C   LIG d   1       6.438  -8.918  -5.246  0.00  0.00    -0.019 A 
ATOM     18  H   LIG d   1       8.361  -8.102  -4.859  0.00  0.00     0.063 H 
ATOM     19  C   LIG d   1       5.120  -8.655  -5.607  0.00  0.00     0.125 A 
ATOM     20  H   LIG d   1       6.751  -9.933  -5.050  0.00  0.00     0.065 H 
ATOM     21  H   LIG d   1       3.680  -7.163  -6.141  0.00  0.00     0.069 H 
ATOM     22  O   LIG d   1       8.809  -5.082  -5.098  0.00  0.00    -0.283 OA
ATOM     23  H   LIG d   1       7.736  -2.519  -5.573  0.00  0.00     0.066 H 
BRANCH  19  24
ATOM     24  O   LIG d   1       4.233  -9.678  -5.710  0.00  0.00    -0.486 OA
BRANCH  24  25
ATOM     25  C   LIG d   1       4.351 -10.737  -4.759  0.00  0.00     0.129 C 
ATOM     26  H   LIG d   1       3.727 -11.575  -5.068  0.00  0.00     0.076 H 
ATOM     27  H   LIG d   1       5.392 -11.061  -4.704  0.00  0.00     0.076 H 
BRANCH  25  28
ATOM     28  C   LIG d   1       3.904 -10.249  -3.405  0.00  0.00     0.079 C 
ATOM     29  O   LIG d   1       2.776  -9.846  -3.252  0.00  0.00    -0.546 OA
ATOM     30  O   LIG d   1       4.760 -10.262  -2.371  0.00  0.00    -0.546 OA
ENDBRANCH  25  28
ENDBRANCH  24  25
ENDBRANCH  19  24
ENDBRANCH   3   9
BRANCH   1  31
ATOM     31  O   LIG d   1       3.802  -1.550  -9.408  0.00  0.00    -0.491 OA
BRANCH  31  32
ATOM     32  C   LIG d   1       4.701  -1.123 -10.433  0.00  0.00     0.079 C 
ATOM     33  H   LIG d   1       5.396  -0.391 -10.024  0.00  0.00     0.066 H 
ATOM     34  H   LIG d   1       5.259  -1.982 -10.808  0.00  0.00     0.066 H 
ATOM     35  H   LIG d   1       4.136  -0.672 -11.249  0.00  0.00     0.066 H 
ENDBRANCH  31  32
ENDBRANCH   1  31
BRANCH   5  36
ATOM     36  O   LIG d   1       3.475   0.515  -5.124  0.00  0.00    -0.491 OA
BRANCH  36  37
ATOM     37  C   LIG d   1       2.670  -0.006  -4.064  0.00  0.00     0.079 C 
ATOM     38  H   LIG d   1       1.776  -0.467  -4.483  0.00  0.00     0.066 H 
ATOM     39  H   LIG d   1       3.238  -0.751  -3.509  0.00  0.00     0.066 H 
ATOM     40  H   LIG d   1       2.382   0.805  -3.395  0.00  0.00     0.066 H 
ENDBRANCH  36  37
ENDBRANCH   5  36
BRANCH   6  41
ATOM     41  O   LIG d   1       2.618   0.274  -7.726  0.00  0.00    -0.488 OA
BRANCH  41  42
ATOM     42  C   LIG d   1       2.982   1.517  -8.330  0.00  0.00     0.079 C 
ATOM     43  H   LIG d   1       2.133   1.914  -8.885  0.00  0.00     0.066 H 
ATOM     44  H   LIG d   1       3.274   2.226  -7.555  0.00  0.00     0.066 H 
ATOM     45  H   LIG d   1       3.818   1.359  -9.011  0.00  0.00     0.066 H 
ENDBRANCH  41  42
ENDBRANCH   6  41
TORSDOF 10
ENDMDL
