MODEL 1
REMARK VINA RESULT:      -5.3      0.000      0.000
REMARK  11 active torsions:
REMARK  status: ('A' for Active; 'I' for Inactive)
REMARK    1  A    between atoms: C_1  and  C_2 
REMARK    2  A    between atoms: C_2  and  C_3 
REMARK    3  A    between atoms: C_3  and  C_4 
REMARK    4  A    between atoms: C_4  and  O_5 
REMARK    5  A    between atoms: O_5  and  C_6 
REMARK    6  A    between atoms: C_10  and  C_23 
REMARK    7  A    between atoms: C_11  and  C_18 
REMARK    8  A    between atoms: C_16  and  C_17 
REMARK    9  A    between atoms: C_18  and  C_19 
REMARK   10  A    between atoms: C_19  and  O_21 
REMARK   11  A    between atoms: O_21  and  C_22 
ROOT
ATOM      1  C   LIG d   1       8.713  -3.242  -5.431  0.00  0.00     0.127 A 
ATOM      2  C   LIG d   1       7.619  -4.047  -5.123  0.00  0.00    -0.019 A 
ATOM      3  C   LIG d   1       6.545  -3.530  -4.460  0.00  0.00    -0.047 A 
ATOM      4  C   LIG d   1       6.541  -2.181  -4.086  0.00  0.00     0.021 A 
ATOM      5  C   LIG d   1       5.402  -1.598  -3.375  0.00  0.00    -0.029 A 
ATOM      6  C   LIG d   1       5.459  -0.282  -3.040  0.00  0.00     0.051 A 
ATOM      7  C   LIG d   1       6.596   0.479  -3.380  0.00  0.00     0.341 A 
ATOM      8  O   LIG d   1       6.636   1.657  -3.071  0.00  0.00    -0.245 OA
ATOM      9  O   LIG d   1       7.636  -0.061  -4.034  0.00  0.00    -0.422 OA
ATOM     10  C   LIG d   1       7.643  -1.362  -4.395  0.00  0.00     0.146 A 
ATOM     11  C   LIG d   1       8.727  -1.904  -5.069  0.00  0.00     0.034 A 
ATOM     12  H   LIG d   1       7.621  -5.088  -5.410  0.00  0.00     0.065 H 
ATOM     13  H   LIG d   1       5.699  -4.159  -4.222  0.00  0.00     0.063 H 
ENDROOT
BRANCH   1  14
ATOM     14  O   LIG d   1       9.774  -3.772  -6.090  0.00  0.00    -0.492 OA
BRANCH  14  15
ATOM     15  C   LIG d   1      10.443  -4.870  -5.467  0.00  0.00     0.090 C 
ATOM     16  H   LIG d   1       9.711  -5.624  -5.178  0.00  0.00     0.070 H 
ATOM     17  H   LIG d   1      11.157  -5.304  -6.166  0.00  0.00     0.070 H 
BRANCH  15  18
ATOM     18  C   LIG d   1      11.183  -4.377  -4.222  0.00  0.00    -0.019 C 
ATOM     19  H   LIG d   1      12.257  -4.512  -4.360  0.00  0.00     0.030 H 
ATOM     20  H   LIG d   1      10.968  -3.320  -4.065  0.00  0.00     0.030 H 
BRANCH  18  21
ATOM     21  C   LIG d   1      10.722  -5.178  -3.003  0.00  0.00    -0.053 C 
ATOM     22  H   LIG d   1      10.211  -6.082  -3.335  0.00  0.00     0.026 H 
ATOM     23  H   LIG d   1      11.586  -5.450  -2.399  0.00  0.00     0.026 H 
BRANCH  21  24
ATOM     24  C   LIG d   1       9.761  -4.328  -2.168  0.00  0.00    -0.065 C 
ATOM     25  H   LIG d   1       9.250  -3.615  -2.816  0.00  0.00     0.023 H 
ATOM     26  H   LIG d   1       9.028  -4.975  -1.688  0.00  0.00     0.023 H 
ATOM     27  H   LIG d   1      10.323  -3.787  -1.407  0.00  0.00     0.023 H 
ENDBRANCH  21  24
ENDBRANCH  18  21
ENDBRANCH  15  18
ENDBRANCH  14  15
ENDBRANCH   1  14
BRANCH  11  28
ATOM     28  C   LIG d   1       9.916  -1.042  -5.408  0.00  0.00    -0.033 C 
ATOM     29  H   LIG d   1       9.690  -0.002  -5.168  0.00  0.00     0.028 H 
ATOM     30  H   LIG d   1      10.779  -1.369  -4.830  0.00  0.00     0.028 H 
ATOM     31  H   LIG d   1      10.137  -1.129  -6.472  0.00  0.00     0.028 H 
ENDBRANCH  11  28
BRANCH   5  32
ATOM     32  C   LIG d   1       4.199  -2.435  -3.023  0.00  0.00    -0.038 C 
ATOM     33  H   LIG d   1       4.377  -2.947  -2.077  0.00  0.00     0.028 H 
ATOM     34  H   LIG d   1       3.324  -1.792  -2.928  0.00  0.00     0.028 H 
ATOM     35  H   LIG d   1       4.026  -3.171  -3.807  0.00  0.00     0.028 H 
ENDBRANCH   5  32
BRANCH   6  36
ATOM     36  C   LIG d   1       4.310   0.361  -2.306  0.00  0.00     0.077 C 
ATOM     37  H   LIG d   1       3.745  -0.404  -1.775  0.00  0.00     0.043 H 
ATOM     38  H   LIG d   1       4.698   1.088  -1.592  0.00  0.00     0.043 H 
BRANCH  36  39
ATOM     39  C   LIG d   1       3.410   1.057  -3.294  0.00  0.00     0.311 C 
ATOM     40  O   LIG d   1       3.469   2.256  -3.424  0.00  0.00    -0.251 OA
BRANCH  39  41
ATOM     41  O   LIG d   1       2.542   0.344  -4.028  0.00  0.00    -0.468 OA
BRANCH  41  42
ATOM     42  C   LIG d   1       2.726   0.361  -5.468  0.00  0.00     0.082 C 
ATOM     43  H   LIG d   1       2.202   1.219  -5.891  0.00  0.00     0.066 H 
ATOM     44  H   LIG d   1       3.789   0.435  -5.698  0.00  0.00     0.066 H 
ATOM     45  H   LIG d   1       2.324  -0.556  -5.897  0.00  0.00     0.066 H 
ENDBRANCH  41  42
ENDBRANCH  39  41
ENDBRANCH  36  39
ENDBRANCH   6  36
TORSDOF 11
ENDMDL
MODEL 2
REMARK VINA RESULT:      -5.2      4.226      6.743
REMARK  11 active torsions:
REMARK  status: ('A' for Active; 'I' for Inactive)
REMARK    1  A    between atoms: C_1  and  C_2 
REMARK    2  A    between atoms: C_2  and  C_3 
REMARK    3  A    between atoms: C_3  and  C_4 
REMARK    4  A    between atoms: C_4  and  O_5 
REMARK    5  A    between atoms: O_5  and  C_6 
REMARK    6  A    between atoms: C_10  and  C_23 
REMARK    7  A    between atoms: C_11  and  C_18 
REMARK    8  A    between atoms: C_16  and  C_17 
REMARK    9  A    between atoms: C_18  and  C_19 
REMARK   10  A    between atoms: C_19  and  O_21 
REMARK   11  A    between atoms: O_21  and  C_22 
ROOT
ATOM      1  C   LIG d   1       4.204  -1.451  -4.842  0.00  0.00     0.127 A 
ATOM      2  C   LIG d   1       5.157  -2.132  -5.597  0.00  0.00    -0.019 A 
ATOM      3  C   LIG d   1       5.380  -1.789  -6.899  0.00  0.00    -0.047 A 
ATOM      4  C   LIG d   1       4.650  -0.747  -7.479  0.00  0.00     0.021 A 
ATOM      5  C   LIG d   1       4.869  -0.356  -8.873  0.00  0.00    -0.029 A 
ATOM      6  C   LIG d   1       4.127   0.664  -9.379  0.00  0.00     0.051 A 
ATOM      7  C   LIG d   1       3.180   1.313  -8.562  0.00  0.00     0.341 A 
ATOM      8  O   LIG d   1       2.519   2.224  -9.029  0.00  0.00    -0.245 OA
ATOM      9  O   LIG d   1       2.984   0.952  -7.285  0.00  0.00    -0.422 OA
ATOM     10  C   LIG d   1       3.687  -0.054  -6.721  0.00  0.00     0.146 A 
ATOM     11  C   LIG d   1       3.471  -0.416  -5.400  0.00  0.00     0.034 A 
ATOM     12  H   LIG d   1       5.721  -2.937  -5.150  0.00  0.00     0.065 H 
ATOM     13  H   LIG d   1       6.119  -2.321  -7.480  0.00  0.00     0.063 H 
ENDROOT
BRANCH   1  14
ATOM     14  O   LIG d   1       3.993  -1.804  -3.549  0.00  0.00    -0.492 OA
BRANCH  14  15
ATOM     15  C   LIG d   1       4.982  -1.406  -2.597  0.00  0.00     0.090 C 
ATOM     16  H   LIG d   1       5.377  -2.288  -2.094  0.00  0.00     0.070 H 
ATOM     17  H   LIG d   1       5.790  -0.885  -3.109  0.00  0.00     0.070 H 
BRANCH  15  18
ATOM     18  C   LIG d   1       4.348  -0.472  -1.563  0.00  0.00    -0.019 C 
ATOM     19  H   LIG d   1       3.262  -0.559  -1.612  0.00  0.00     0.030 H 
ATOM     20  H   LIG d   1       4.690  -0.748  -0.566  0.00  0.00     0.030 H 
BRANCH  18  21
ATOM     21  C   LIG d   1       4.758   0.972  -1.862  0.00  0.00    -0.053 C 
ATOM     22  H   LIG d   1       3.900   1.518  -2.256  0.00  0.00     0.026 H 
ATOM     23  H   LIG d   1       5.102   1.448  -0.944  0.00  0.00     0.026 H 
BRANCH  21  24
ATOM     24  C   LIG d   1       5.886   0.979  -2.895  0.00  0.00    -0.065 C 
ATOM     25  H   LIG d   1       6.608   0.200  -2.650  0.00  0.00     0.023 H 
ATOM     26  H   LIG d   1       5.472   0.792  -3.886  0.00  0.00     0.023 H 
ATOM     27  H   LIG d   1       6.382   1.949  -2.885  0.00  0.00     0.023 H 
ENDBRANCH  21  24
ENDBRANCH  18  21
ENDBRANCH  15  18
ENDBRANCH  14  15
ENDBRANCH   1  14
BRANCH  11  28
ATOM     28  C   LIG d   1       2.445   0.315  -4.574  0.00  0.00    -0.033 C 
ATOM     29  H   LIG d   1       1.531   0.438  -5.156  0.00  0.00     0.028 H 
ATOM     30  H   LIG d   1       2.227  -0.259  -3.673  0.00  0.00     0.028 H 
ATOM     31  H   LIG d   1       2.834   1.295  -4.295  0.00  0.00     0.028 H 
ENDBRANCH  11  28
BRANCH   5  32
ATOM     32  C   LIG d   1       5.889  -1.068  -9.725  0.00  0.00    -0.038 C 
ATOM     33  H   LIG d   1       6.858  -1.046  -9.225  0.00  0.00     0.028 H 
ATOM     34  H   LIG d   1       5.581  -2.103  -9.872  0.00  0.00     0.028 H 
ATOM     35  H   LIG d   1       5.967  -0.571 -10.691  0.00  0.00     0.028 H 
ENDBRANCH   5  32
BRANCH   6  36
ATOM     36  C   LIG d   1       4.318   1.100 -10.809  0.00  0.00     0.077 C 
ATOM     37  H   LIG d   1       3.893   2.094 -10.946  0.00  0.00     0.043 H 
ATOM     38  H   LIG d   1       5.383   1.125 -11.041  0.00  0.00     0.043 H 
BRANCH  36  39
ATOM     39  C   LIG d   1       3.626   0.127 -11.728  0.00  0.00     0.311 C 
ATOM     40  O   LIG d   1       4.166  -0.229 -12.748  0.00  0.00    -0.251 OA
BRANCH  39  41
ATOM     41  O   LIG d   1       2.409  -0.343 -11.413  0.00  0.00    -0.468 OA
BRANCH  41  42
ATOM     42  C   LIG d   1       1.933  -1.494 -12.161  0.00  0.00     0.082 C 
ATOM     43  H   LIG d   1       1.067  -1.206 -12.757  0.00  0.00     0.066 H 
ATOM     44  H   LIG d   1       2.725  -1.853 -12.818  0.00  0.00     0.066 H 
ATOM     45  H   LIG d   1       1.650  -2.285 -11.467  0.00  0.00     0.066 H 
ENDBRANCH  41  42
ENDBRANCH  39  41
ENDBRANCH  36  39
ENDBRANCH   6  36
TORSDOF 11
ENDMDL
MODEL 3
REMARK VINA RESULT:      -5.1      4.200      6.789
REMARK  11 active torsions:
REMARK  status: ('A' for Active; 'I' for Inactive)
REMARK    1  A    between atoms: C_1  and  C_2 
REMARK    2  A    between atoms: C_2  and  C_3 
REMARK    3  A    between atoms: C_3  and  C_4 
REMARK    4  A    between atoms: C_4  and  O_5 
REMARK    5  A    between atoms: O_5  and  C_6 
REMARK    6  A    between atoms: C_10  and  C_23 
REMARK    7  A    between atoms: C_11  and  C_18 
REMARK    8  A    between atoms: C_16  and  C_17 
REMARK    9  A    between atoms: C_18  and  C_19 
REMARK   10  A    between atoms: C_19  and  O_21 
REMARK   11  A    between atoms: O_21  and  C_22 
ROOT
ATOM      1  C   LIG d   1       3.555  -1.309  -4.682  0.00  0.00     0.127 A 
ATOM      2  C   LIG d   1       2.730  -0.202  -4.870  0.00  0.00    -0.019 A 
ATOM      3  C   LIG d   1       2.738   0.472  -6.056  0.00  0.00    -0.047 A 
ATOM      4  C   LIG d   1       3.578   0.048  -7.092  0.00  0.00     0.021 A 
ATOM      5  C   LIG d   1       3.607   0.751  -8.376  0.00  0.00    -0.029 A 
ATOM      6  C   LIG d   1       4.445   0.290  -9.342  0.00  0.00     0.051 A 
ATOM      7  C   LIG d   1       5.254  -0.836  -9.089  0.00  0.00     0.341 A 
ATOM      8  O   LIG d   1       6.003  -1.236  -9.962  0.00  0.00    -0.245 OA
ATOM      9  O   LIG d   1       5.222  -1.477  -7.910  0.00  0.00    -0.422 OA
ATOM     10  C   LIG d   1       4.413  -1.070  -6.909  0.00  0.00     0.146 A 
ATOM     11  C   LIG d   1       4.393  -1.743  -5.696  0.00  0.00     0.034 A 
ATOM     12  H   LIG d   1       2.082   0.126  -4.071  0.00  0.00     0.065 H 
ATOM     13  H   LIG d   1       2.098   1.331  -6.197  0.00  0.00     0.063 H 
ENDROOT
BRANCH   1  14
ATOM     14  O   LIG d   1       3.536  -1.968  -3.496  0.00  0.00    -0.492 OA
BRANCH  14  15
ATOM     15  C   LIG d   1       3.874  -1.215  -2.330  0.00  0.00     0.090 C 
ATOM     16  H   LIG d   1       3.220  -0.346  -2.256  0.00  0.00     0.070 H 
ATOM     17  H   LIG d   1       3.752  -1.839  -1.446  0.00  0.00     0.070 H 
BRANCH  15  18
ATOM     18  C   LIG d   1       5.329  -0.749  -2.427  0.00  0.00    -0.019 C 
ATOM     19  H   LIG d   1       5.892  -1.137  -1.577  0.00  0.00     0.030 H 
ATOM     20  H   LIG d   1       5.768  -1.119  -3.353  0.00  0.00     0.030 H 
BRANCH  18  21
ATOM     21  C   LIG d   1       5.376   0.780  -2.415  0.00  0.00    -0.053 C 
ATOM     22  H   LIG d   1       6.130   1.114  -1.701  0.00  0.00     0.026 H 
ATOM     23  H   LIG d   1       5.632   1.143  -3.410  0.00  0.00     0.026 H 
BRANCH  21  24
ATOM     24  C   LIG d   1       4.008   1.330  -2.007  0.00  0.00    -0.065 C 
ATOM     25  H   LIG d   1       3.350   1.350  -2.876  0.00  0.00     0.023 H 
ATOM     26  H   LIG d   1       3.575   0.691  -1.238  0.00  0.00     0.023 H 
ATOM     27  H   LIG d   1       4.124   2.341  -1.617  0.00  0.00     0.023 H 
ENDBRANCH  21  24
ENDBRANCH  18  21
ENDBRANCH  15  18
ENDBRANCH  14  15
ENDBRANCH   1  14
BRANCH  11  28
ATOM     28  C   LIG d   1       5.280  -2.943  -5.483  0.00  0.00    -0.033 C 
ATOM     29  H   LIG d   1       4.907  -3.780  -6.075  0.00  0.00     0.028 H 
ATOM     30  H   LIG d   1       6.297  -2.703  -5.793  0.00  0.00     0.028 H 
ATOM     31  H   LIG d   1       5.277  -3.214  -4.427  0.00  0.00     0.028 H 
ENDBRANCH  11  28
BRANCH   5  32
ATOM     32  C   LIG d   1       2.731   1.953  -8.620  0.00  0.00    -0.038 C 
ATOM     33  H   LIG d   1       1.685   1.673  -8.492  0.00  0.00     0.028 H 
ATOM     34  H   LIG d   1       2.986   2.738  -7.908  0.00  0.00     0.028 H 
ATOM     35  H   LIG d   1       2.888   2.317  -9.634  0.00  0.00     0.028 H 
ENDBRANCH   5  32
BRANCH   6  36
ATOM     36  C   LIG d   1       4.508   0.982 -10.680  0.00  0.00     0.077 C 
ATOM     37  H   LIG d   1       4.024   1.955 -10.608  0.00  0.00     0.043 H 
ATOM     38  H   LIG d   1       5.551   1.116 -10.969  0.00  0.00     0.043 H 
BRANCH  36  39
ATOM     39  C   LIG d   1       3.802   0.144 -11.713  0.00  0.00     0.311 C 
ATOM     40  O   LIG d   1       4.347  -0.109 -12.761  0.00  0.00    -0.251 OA
BRANCH  39  41
ATOM     41  O   LIG d   1       2.567  -0.321 -11.470  0.00  0.00    -0.468 OA
BRANCH  41  42
ATOM     42  C   LIG d   1       2.341  -1.739 -11.690  0.00  0.00     0.082 C 
ATOM     43  H   LIG d   1       2.429  -1.959 -12.755  0.00  0.00     0.066 H 
ATOM     44  H   LIG d   1       3.081  -2.315 -11.137  0.00  0.00     0.066 H 
ATOM     45  H   LIG d   1       1.341  -2.005 -11.346  0.00  0.00     0.066 H 
ENDBRANCH  41  42
ENDBRANCH  39  41
ENDBRANCH  36  39
ENDBRANCH   6  36
TORSDOF 11
ENDMDL
MODEL 4
REMARK VINA RESULT:      -5.0      3.523      6.907
REMARK  11 active torsions:
REMARK  status: ('A' for Active; 'I' for Inactive)
REMARK    1  A    between atoms: C_1  and  C_2 
REMARK    2  A    between atoms: C_2  and  C_3 
REMARK    3  A    between atoms: C_3  and  C_4 
REMARK    4  A    between atoms: C_4  and  O_5 
REMARK    5  A    between atoms: O_5  and  C_6 
REMARK    6  A    between atoms: C_10  and  C_23 
REMARK    7  A    between atoms: C_11  and  C_18 
REMARK    8  A    between atoms: C_16  and  C_17 
REMARK    9  A    between atoms: C_18  and  C_19 
REMARK   10  A    between atoms: C_19  and  O_21 
REMARK   11  A    between atoms: O_21  and  C_22 
ROOT
ATOM      1  C   LIG d   1       5.668  -0.692  -4.601  0.00  0.00     0.127 A 
ATOM      2  C   LIG d   1       6.666  -1.453  -3.995  0.00  0.00    -0.019 A 
ATOM      3  C   LIG d   1       6.887  -2.741  -4.388  0.00  0.00    -0.047 A 
ATOM      4  C   LIG d   1       6.108  -3.302  -5.405  0.00  0.00     0.021 A 
ATOM      5  C   LIG d   1       6.324  -4.681  -5.848  0.00  0.00    -0.029 A 
ATOM      6  C   LIG d   1       5.533  -5.168  -6.840  0.00  0.00     0.051 A 
ATOM      7  C   LIG d   1       4.541  -4.347  -7.412  0.00  0.00     0.341 A 
ATOM      8  O   LIG d   1       3.837  -4.797  -8.299  0.00  0.00    -0.245 OA
ATOM      9  O   LIG d   1       4.348  -3.083  -7.003  0.00  0.00    -0.422 OA
ATOM     10  C   LIG d   1       5.098  -2.539  -6.021  0.00  0.00     0.146 A 
ATOM     11  C   LIG d   1       4.886  -1.231  -5.610  0.00  0.00     0.034 A 
ATOM     12  H   LIG d   1       7.268  -1.021  -3.209  0.00  0.00     0.065 H 
ATOM     13  H   LIG d   1       7.662  -3.327  -3.914  0.00  0.00     0.063 H 
ENDROOT
BRANCH   1  14
ATOM     14  O   LIG d   1       5.459   0.587  -4.198  0.00  0.00    -0.492 OA
BRANCH  14  15
ATOM     15  C   LIG d   1       5.846   0.918  -2.863  0.00  0.00     0.090 C 
ATOM     16  H   LIG d   1       6.688   0.295  -2.563  0.00  0.00     0.070 H 
ATOM     17  H   LIG d   1       6.135   1.968  -2.819  0.00  0.00     0.070 H 
BRANCH  15  18
ATOM     18  C   LIG d   1       4.669   0.674  -1.916  0.00  0.00    -0.019 C 
ATOM     19  H   LIG d   1       4.747  -0.327  -1.490  0.00  0.00     0.030 H 
ATOM     20  H   LIG d   1       4.689   1.411  -1.113  0.00  0.00     0.030 H 
BRANCH  18  21
ATOM     21  C   LIG d   1       3.356   0.798  -2.691  0.00  0.00    -0.053 C 
ATOM     22  H   LIG d   1       2.713   1.528  -2.199  0.00  0.00     0.026 H 
ATOM     23  H   LIG d   1       3.565   1.125  -3.709  0.00  0.00     0.026 H 
BRANCH  21  24
ATOM     24  C   LIG d   1       2.653  -0.560  -2.724  0.00  0.00    -0.065 C 
ATOM     25  H   LIG d   1       3.247  -1.263  -3.308  0.00  0.00     0.023 H 
ATOM     26  H   LIG d   1       2.541  -0.936  -1.707  0.00  0.00     0.023 H 
ATOM     27  H   LIG d   1       1.670  -0.449  -3.181  0.00  0.00     0.023 H 
ENDBRANCH  21  24
ENDBRANCH  18  21
ENDBRANCH  15  18
ENDBRANCH  14  15
ENDBRANCH   1  14
BRANCH  11  28
ATOM     28  C   LIG d   1       3.810  -0.400  -6.259  0.00  0.00    -0.033 C 
ATOM     29  H   LIG d   1       3.917   0.640  -5.946  0.00  0.00     0.028 H 
ATOM     30  H   LIG d   1       3.905  -0.464  -7.343  0.00  0.00     0.028 H 
ATOM     31  H   LIG d   1       2.831  -0.772  -5.957  0.00  0.00     0.028 H 
ENDBRANCH  11  28
BRANCH   5  32
ATOM     32  C   LIG d   1       7.393  -5.537  -5.219  0.00  0.00    -0.038 C 
ATOM     33  H   LIG d   1       8.292  -5.508  -5.835  0.00  0.00     0.028 H 
ATOM     34  H   LIG d   1       7.622  -5.157  -4.223  0.00  0.00     0.028 H 
ATOM     35  H   LIG d   1       7.037  -6.564  -5.143  0.00  0.00     0.028 H 
ENDBRANCH   5  32
BRANCH   6  36
ATOM     36  C   LIG d   1       5.719  -6.582  -7.328  0.00  0.00     0.077 C 
ATOM     37  H   LIG d   1       5.647  -6.603  -8.415  0.00  0.00     0.043 H 
ATOM     38  H   LIG d   1       6.699  -6.945  -7.021  0.00  0.00     0.043 H 
BRANCH  36  39
ATOM     39  C   LIG d   1       4.648  -7.462  -6.737  0.00  0.00     0.311 C 
ATOM     40  O   LIG d   1       3.875  -8.042  -7.461  0.00  0.00    -0.251 OA
BRANCH  39  41
ATOM     41  O   LIG d   1       4.553  -7.600  -5.405  0.00  0.00    -0.468 OA
BRANCH  41  42
ATOM     42  C   LIG d   1       4.864  -8.907  -4.854  0.00  0.00     0.082 C 
ATOM     43  H   LIG d   1       4.078  -9.612  -5.127  0.00  0.00     0.066 H 
ATOM     44  H   LIG d   1       5.817  -9.252  -5.253  0.00  0.00     0.066 H 
ATOM     45  H   LIG d   1       4.928  -8.837  -3.768  0.00  0.00     0.066 H 
ENDBRANCH  41  42
ENDBRANCH  39  41
ENDBRANCH  36  39
ENDBRANCH   6  36
TORSDOF 11
ENDMDL
MODEL 5
REMARK VINA RESULT:      -4.9      3.949      6.909
REMARK  11 active torsions:
REMARK  status: ('A' for Active; 'I' for Inactive)
REMARK    1  A    between atoms: C_1  and  C_2 
REMARK    2  A    between atoms: C_2  and  C_3 
REMARK    3  A    between atoms: C_3  and  C_4 
REMARK    4  A    between atoms: C_4  and  O_5 
REMARK    5  A    between atoms: O_5  and  C_6 
REMARK    6  A    between atoms: C_10  and  C_23 
REMARK    7  A    between atoms: C_11  and  C_18 
REMARK    8  A    between atoms: C_16  and  C_17 
REMARK    9  A    between atoms: C_18  and  C_19 
REMARK   10  A    between atoms: C_19  and  O_21 
REMARK   11  A    between atoms: O_21  and  C_22 
ROOT
ATOM      1  C   LIG d   1       3.685  -0.844  -9.242  0.00  0.00     0.127 A 
ATOM      2  C   LIG d   1       4.242  -2.026  -8.758  0.00  0.00    -0.019 A 
ATOM      3  C   LIG d   1       4.392  -2.220  -7.416  0.00  0.00    -0.047 A 
ATOM      4  C   LIG d   1       3.982  -1.226  -6.519  0.00  0.00     0.021 A 
ATOM      5  C   LIG d   1       4.129  -1.407  -5.074  0.00  0.00    -0.029 A 
ATOM      6  C   LIG d   1       3.713  -0.405  -4.255  0.00  0.00     0.051 A 
ATOM      7  C   LIG d   1       3.157   0.766  -4.808  0.00  0.00     0.341 A 
ATOM      8  O   LIG d   1       2.791   1.658  -4.064  0.00  0.00    -0.245 OA
ATOM      9  O   LIG d   1       3.024   0.925  -6.134  0.00  0.00    -0.422 OA
ATOM     10  C   LIG d   1       3.418  -0.031  -7.002  0.00  0.00     0.146 A 
ATOM     11  C   LIG d   1       3.274   0.150  -8.370  0.00  0.00     0.034 A 
ATOM     12  H   LIG d   1       4.559  -2.793  -9.449  0.00  0.00     0.065 H 
ATOM     13  H   LIG d   1       4.826  -3.137  -7.045  0.00  0.00     0.063 H 
ENDROOT
BRANCH   1  14
ATOM     14  O   LIG d   1       3.544  -0.666 -10.580  0.00  0.00    -0.492 OA
BRANCH  14  15
ATOM     15  C   LIG d   1       2.734  -1.613 -11.279  0.00  0.00     0.090 C 
ATOM     16  H   LIG d   1       3.087  -1.706 -12.306  0.00  0.00     0.070 H 
ATOM     17  H   LIG d   1       2.797  -2.581 -10.784  0.00  0.00     0.070 H 
BRANCH  15  18
ATOM     18  C   LIG d   1       1.279  -1.137 -11.283  0.00  0.00    -0.019 C 
ATOM     19  H   LIG d   1       0.798  -1.432 -10.349  0.00  0.00     0.030 H 
ATOM     20  H   LIG d   1       1.252  -0.052 -11.378  0.00  0.00     0.030 H 
BRANCH  18  21
ATOM     21  C   LIG d   1       0.538  -1.772 -12.461  0.00  0.00    -0.053 C 
ATOM     22  H   LIG d   1      -0.055  -2.614 -12.105  0.00  0.00     0.026 H 
ATOM     23  H   LIG d   1      -0.119  -1.031 -12.917  0.00  0.00     0.026 H 
BRANCH  21  24
ATOM     24  C   LIG d   1       1.551  -2.262 -13.497  0.00  0.00    -0.065 C 
ATOM     25  H   LIG d   1       2.384  -2.749 -12.989  0.00  0.00     0.023 H 
ATOM     26  H   LIG d   1       1.069  -2.973 -14.168  0.00  0.00     0.023 H 
ATOM     27  H   LIG d   1       1.923  -1.414 -14.072  0.00  0.00     0.023 H 
ENDBRANCH  21  24
ENDBRANCH  18  21
ENDBRANCH  15  18
ENDBRANCH  14  15
ENDBRANCH   1  14
BRANCH  11  28
ATOM     28  C   LIG d   1       2.671   1.424  -8.904  0.00  0.00    -0.033 C 
ATOM     29  H   LIG d   1       2.922   1.529  -9.960  0.00  0.00     0.028 H 
ATOM     30  H   LIG d   1       1.587   1.389  -8.791  0.00  0.00     0.028 H 
ATOM     31  H   LIG d   1       3.067   2.274  -8.350  0.00  0.00     0.028 H 
ENDBRANCH  11  28
BRANCH   5  32
ATOM     32  C   LIG d   1       4.728  -2.670  -4.509  0.00  0.00    -0.038 C 
ATOM     33  H   LIG d   1       5.100  -2.477  -3.502  0.00  0.00     0.028 H 
ATOM     34  H   LIG d   1       3.965  -3.447  -4.471  0.00  0.00     0.028 H 
ATOM     35  H   LIG d   1       5.550  -2.998  -5.144  0.00  0.00     0.028 H 
ENDBRANCH   5  32
BRANCH   6  36
ATOM     36  C   LIG d   1       3.845  -0.547  -2.760  0.00  0.00     0.077 C 
ATOM     37  H   LIG d   1       2.936  -0.188  -2.280  0.00  0.00     0.043 H 
ATOM     38  H   LIG d   1       4.000  -1.596  -2.508  0.00  0.00     0.043 H 
BRANCH  36  39
ATOM     39  C   LIG d   1       5.021   0.265  -2.281  0.00  0.00     0.311 C 
ATOM     40  O   LIG d   1       4.865   1.113  -1.435  0.00  0.00    -0.251 OA
BRANCH  39  41
ATOM     41  O   LIG d   1       6.241   0.047  -2.795  0.00  0.00    -0.468 OA
BRANCH  41  42
ATOM     42  C   LIG d   1       6.852   1.140  -3.530  0.00  0.00     0.082 C 
ATOM     43  H   LIG d   1       6.761   2.061  -2.953  0.00  0.00     0.066 H 
ATOM     44  H   LIG d   1       7.906   0.919  -3.699  0.00  0.00     0.066 H 
ATOM     45  H   LIG d   1       6.347   1.260  -4.488  0.00  0.00     0.066 H 
ENDBRANCH  41  42
ENDBRANCH  39  41
ENDBRANCH  36  39
ENDBRANCH   6  36
TORSDOF 11
ENDMDL
MODEL 6
REMARK VINA RESULT:      -4.9      3.895      6.578
REMARK  11 active torsions:
REMARK  status: ('A' for Active; 'I' for Inactive)
REMARK    1  A    between atoms: C_1  and  C_2 
REMARK    2  A    between atoms: C_2  and  C_3 
REMARK    3  A    between atoms: C_3  and  C_4 
REMARK    4  A    between atoms: C_4  and  O_5 
REMARK    5  A    between atoms: O_5  and  C_6 
REMARK    6  A    between atoms: C_10  and  C_23 
REMARK    7  A    between atoms: C_11  and  C_18 
REMARK    8  A    between atoms: C_16  and  C_17 
REMARK    9  A    between atoms: C_18  and  C_19 
REMARK   10  A    between atoms: C_19  and  O_21 
REMARK   11  A    between atoms: O_21  and  C_22 
ROOT
ATOM      1  C   LIG d   1       4.584  -1.356  -4.946  0.00  0.00     0.127 A 
ATOM      2  C   LIG d   1       5.915  -1.719  -4.751  0.00  0.00    -0.019 A 
ATOM      3  C   LIG d   1       6.895  -1.207  -5.550  0.00  0.00    -0.047 A 
ATOM      4  C   LIG d   1       6.562  -0.312  -6.573  0.00  0.00     0.021 A 
ATOM      5  C   LIG d   1       7.592   0.254  -7.446  0.00  0.00    -0.029 A 
ATOM      6  C   LIG d   1       7.205   1.117  -8.421  0.00  0.00     0.051 A 
ATOM      7  C   LIG d   1       5.841   1.444  -8.566  0.00  0.00     0.341 A 
ATOM      8  O   LIG d   1       5.507   2.216  -9.447  0.00  0.00    -0.245 OA
ATOM      9  O   LIG d   1       4.901   0.923  -7.762  0.00  0.00    -0.422 OA
ATOM     10  C   LIG d   1       5.219   0.059  -6.775  0.00  0.00     0.146 A 
ATOM     11  C   LIG d   1       4.235  -0.472  -5.953  0.00  0.00     0.034 A 
ATOM     12  H   LIG d   1       6.173  -2.410  -3.962  0.00  0.00     0.065 H 
ATOM     13  H   LIG d   1       7.926  -1.493  -5.396  0.00  0.00     0.063 H 
ENDROOT
BRANCH   1  14
ATOM     14  O   LIG d   1       3.621  -1.875  -4.142  0.00  0.00    -0.492 OA
BRANCH  14  15
ATOM     15  C   LIG d   1       3.169  -1.057  -3.061  0.00  0.00     0.090 C 
ATOM     16  H   LIG d   1       2.964  -0.051  -3.426  0.00  0.00     0.070 H 
ATOM     17  H   LIG d   1       2.259  -1.484  -2.639  0.00  0.00     0.070 H 
BRANCH  15  18
ATOM     18  C   LIG d   1       4.251  -0.996  -1.981  0.00  0.00    -0.019 C 
ATOM     19  H   LIG d   1       3.877  -1.456  -1.065  0.00  0.00     0.030 H 
ATOM     20  H   LIG d   1       5.136  -1.534  -2.322  0.00  0.00     0.030 H 
BRANCH  18  21
ATOM     21  C   LIG d   1       4.615   0.464  -1.706  0.00  0.00    -0.053 C 
ATOM     22  H   LIG d   1       4.493   0.675  -0.644  0.00  0.00     0.026 H 
ATOM     23  H   LIG d   1       5.651   0.640  -1.995  0.00  0.00     0.026 H 
BRANCH  21  24
ATOM     24  C   LIG d   1       3.697   1.380  -2.517  0.00  0.00    -0.065 C 
ATOM     25  H   LIG d   1       2.879   1.726  -1.886  0.00  0.00     0.023 H 
ATOM     26  H   LIG d   1       4.265   2.238  -2.878  0.00  0.00     0.023 H 
ATOM     27  H   LIG d   1       3.292   0.829  -3.366  0.00  0.00     0.023 H 
ENDBRANCH  21  24
ENDBRANCH  18  21
ENDBRANCH  15  18
ENDBRANCH  14  15
ENDBRANCH   1  14
BRANCH  11  28
ATOM     28  C   LIG d   1       2.793  -0.085  -6.155  0.00  0.00    -0.033 C 
ATOM     29  H   LIG d   1       2.207  -0.975  -6.385  0.00  0.00     0.028 H 
ATOM     30  H   LIG d   1       2.410   0.376  -5.244  0.00  0.00     0.028 H 
ATOM     31  H   LIG d   1       2.718   0.624  -6.979  0.00  0.00     0.028 H 
ENDBRANCH  11  28
BRANCH   5  32
ATOM     32  C   LIG d   1       9.044  -0.113  -7.269  0.00  0.00    -0.038 C 
ATOM     33  H   LIG d   1       9.616   0.244  -8.125  0.00  0.00     0.028 H 
ATOM     34  H   LIG d   1       9.426   0.348  -6.358  0.00  0.00     0.028 H 
ATOM     35  H   LIG d   1       9.138  -1.196  -7.195  0.00  0.00     0.028 H 
ENDBRANCH   5  32
BRANCH   6  36
ATOM     36  C   LIG d   1       8.230   1.724  -9.344  0.00  0.00     0.077 C 
ATOM     37  H   LIG d   1       9.137   1.119  -9.327  0.00  0.00     0.043 H 
ATOM     38  H   LIG d   1       7.832   1.754 -10.358  0.00  0.00     0.043 H 
BRANCH  36  39
ATOM     39  C   LIG d   1       8.551   3.123  -8.888  0.00  0.00     0.311 C 
ATOM     40  O   LIG d   1       9.278   3.298  -7.939  0.00  0.00    -0.251 OA
BRANCH  39  41
ATOM     41  O   LIG d   1       8.029   4.176  -9.535  0.00  0.00    -0.468 OA
BRANCH  41  42
ATOM     42  C   LIG d   1       8.849   5.372  -9.619  0.00  0.00     0.082 C 
ATOM     43  H   LIG d   1       8.523   6.090  -8.866  0.00  0.00     0.066 H 
ATOM     44  H   LIG d   1       9.892   5.110  -9.445  0.00  0.00     0.066 H 
ATOM     45  H   LIG d   1       8.746   5.814 -10.610  0.00  0.00     0.066 H 
ENDBRANCH  41  42
ENDBRANCH  39  41
ENDBRANCH  36  39
ENDBRANCH   6  36
TORSDOF 11
ENDMDL
MODEL 7
REMARK VINA RESULT:      -4.8      4.647      7.005
REMARK  11 active torsions:
REMARK  status: ('A' for Active; 'I' for Inactive)
REMARK    1  A    between atoms: C_1  and  C_2 
REMARK    2  A    between atoms: C_2  and  C_3 
REMARK    3  A    between atoms: C_3  and  C_4 
REMARK    4  A    between atoms: C_4  and  O_5 
REMARK    5  A    between atoms: O_5  and  C_6 
REMARK    6  A    between atoms: C_10  and  C_23 
REMARK    7  A    between atoms: C_11  and  C_18 
REMARK    8  A    between atoms: C_16  and  C_17 
REMARK    9  A    between atoms: C_18  and  C_19 
REMARK   10  A    between atoms: C_19  and  O_21 
REMARK   11  A    between atoms: O_21  and  C_22 
ROOT
ATOM      1  C   LIG d   1       5.167  -1.841  -5.426  0.00  0.00     0.127 A 
ATOM      2  C   LIG d   1       4.896  -0.483  -5.586  0.00  0.00    -0.019 A 
ATOM      3  C   LIG d   1       4.179  -0.043  -6.659  0.00  0.00    -0.047 A 
ATOM      4  C   LIG d   1       3.710  -0.960  -7.607  0.00  0.00     0.021 A 
ATOM      5  C   LIG d   1       2.937  -0.517  -8.768  0.00  0.00    -0.029 A 
ATOM      6  C   LIG d   1       2.510  -1.457  -9.653  0.00  0.00     0.051 A 
ATOM      7  C   LIG d   1       2.817  -2.815  -9.434  0.00  0.00     0.341 A 
ATOM      8  O   LIG d   1       2.432  -3.647 -10.236  0.00  0.00    -0.245 OA
ATOM      9  O   LIG d   1       3.525  -3.215  -8.367  0.00  0.00    -0.422 OA
ATOM     10  C   LIG d   1       3.979  -2.333  -7.451  0.00  0.00     0.146 A 
ATOM     11  C   LIG d   1       4.711  -2.763  -6.354  0.00  0.00     0.034 A 
ATOM     12  H   LIG d   1       5.258   0.226  -4.855  0.00  0.00     0.065 H 
ATOM     13  H   LIG d   1       3.973   1.011  -6.779  0.00  0.00     0.063 H 
ENDROOT
BRANCH   1  14
ATOM     14  O   LIG d   1       5.883  -2.262  -4.354  0.00  0.00    -0.492 OA
BRANCH  14  15
ATOM     15  C   LIG d   1       5.801  -1.471  -3.166  0.00  0.00     0.090 C 
ATOM     16  H   LIG d   1       6.664  -1.675  -2.533  0.00  0.00     0.070 H 
ATOM     17  H   LIG d   1       5.787  -0.415  -3.434  0.00  0.00     0.070 H 
BRANCH  15  18
ATOM     18  C   LIG d   1       4.519  -1.822  -2.408  0.00  0.00    -0.019 C 
ATOM     19  H   LIG d   1       3.957  -2.569  -2.969  0.00  0.00     0.030 H 
ATOM     20  H   LIG d   1       4.774  -2.221  -1.426  0.00  0.00     0.030 H 
BRANCH  18  21
ATOM     21  C   LIG d   1       3.665  -0.563  -2.240  0.00  0.00    -0.053 C 
ATOM     22  H   LIG d   1       3.202  -0.308  -3.193  0.00  0.00     0.026 H 
ATOM     23  H   LIG d   1       2.890  -0.747  -1.496  0.00  0.00     0.026 H 
BRANCH  21  24
ATOM     24  C   LIG d   1       4.551   0.596  -1.778  0.00  0.00    -0.065 C 
ATOM     25  H   LIG d   1       5.433   0.656  -2.416  0.00  0.00     0.023 H 
ATOM     26  H   LIG d   1       3.992   1.529  -1.843  0.00  0.00     0.023 H 
ATOM     27  H   LIG d   1       4.861   0.428  -0.746  0.00  0.00     0.023 H 
ENDBRANCH  21  24
ENDBRANCH  18  21
ENDBRANCH  15  18
ENDBRANCH  14  15
ENDBRANCH   1  14
BRANCH  11  28
ATOM     28  C   LIG d   1       5.008  -4.229  -6.171  0.00  0.00    -0.033 C 
ATOM     29  H   LIG d   1       5.493  -4.616  -7.068  0.00  0.00     0.028 H 
ATOM     30  H   LIG d   1       5.669  -4.362  -5.315  0.00  0.00     0.028 H 
ATOM     31  H   LIG d   1       4.077  -4.770  -5.999  0.00  0.00     0.028 H 
ENDBRANCH  11  28
BRANCH   5  32
ATOM     32  C   LIG d   1       2.623   0.943  -8.978  0.00  0.00    -0.038 C 
ATOM     33  H   LIG d   1       2.563   1.151 -10.046  0.00  0.00     0.028 H 
ATOM     34  H   LIG d   1       1.669   1.180  -8.508  0.00  0.00     0.028 H 
ATOM     35  H   LIG d   1       3.409   1.551  -8.532  0.00  0.00     0.028 H 
ENDBRANCH   5  32
BRANCH   6  36
ATOM     36  C   LIG d   1       1.711  -1.047 -10.863  0.00  0.00     0.077 C 
ATOM     37  H   LIG d   1       0.916  -1.772 -11.035  0.00  0.00     0.043 H 
ATOM     38  H   LIG d   1       1.276  -0.062 -10.693  0.00  0.00     0.043 H 
BRANCH  36  39
ATOM     39  C   LIG d   1       2.615  -0.997 -12.068  0.00  0.00     0.311 C 
ATOM     40  O   LIG d   1       2.418  -1.737 -13.002  0.00  0.00    -0.251 OA
BRANCH  39  41
ATOM     41  O   LIG d   1       3.639  -0.130 -12.103  0.00  0.00    -0.468 OA
BRANCH  41  42
ATOM     42  C   LIG d   1       4.968  -0.687 -12.280  0.00  0.00     0.082 C 
ATOM     43  H   LIG d   1       5.288  -0.542 -13.313  0.00  0.00     0.066 H 
ATOM     44  H   LIG d   1       5.665  -0.184 -11.610  0.00  0.00     0.066 H 
ATOM     45  H   LIG d   1       4.949  -1.752 -12.052  0.00  0.00     0.066 H 
ENDBRANCH  41  42
ENDBRANCH  39  41
ENDBRANCH  36  39
ENDBRANCH   6  36
TORSDOF 11
ENDMDL
MODEL 8
REMARK VINA RESULT:      -4.8      2.949      4.993
REMARK  11 active torsions:
REMARK  status: ('A' for Active; 'I' for Inactive)
REMARK    1  A    between atoms: C_1  and  C_2 
REMARK    2  A    between atoms: C_2  and  C_3 
REMARK    3  A    between atoms: C_3  and  C_4 
REMARK    4  A    between atoms: C_4  and  O_5 
REMARK    5  A    between atoms: O_5  and  C_6 
REMARK    6  A    between atoms: C_10  and  C_23 
REMARK    7  A    between atoms: C_11  and  C_18 
REMARK    8  A    between atoms: C_16  and  C_17 
REMARK    9  A    between atoms: C_18  and  C_19 
REMARK   10  A    between atoms: C_19  and  O_21 
REMARK   11  A    between atoms: O_21  and  C_22 
ROOT
ATOM      1  C   LIG d   1       9.725   1.420  -5.577  0.00  0.00     0.127 A 
ATOM      2  C   LIG d   1       9.792   0.040  -5.757  0.00  0.00    -0.019 A 
ATOM      3  C   LIG d   1       8.874  -0.778  -5.167  0.00  0.00    -0.047 A 
ATOM      4  C   LIG d   1       7.858  -0.230  -4.378  0.00  0.00     0.021 A 
ATOM      5  C   LIG d   1       6.858  -1.083  -3.733  0.00  0.00    -0.029 A 
ATOM      6  C   LIG d   1       5.896  -0.490  -2.978  0.00  0.00     0.051 A 
ATOM      7  C   LIG d   1       5.883   0.913  -2.837  0.00  0.00     0.341 A 
ATOM      8  O   LIG d   1       5.018   1.432  -2.154  0.00  0.00    -0.245 OA
ATOM      9  O   LIG d   1       6.802   1.690  -3.431  0.00  0.00    -0.422 OA
ATOM     10  C   LIG d   1       7.784   1.164  -4.193  0.00  0.00     0.146 A 
ATOM     11  C   LIG d   1       8.726   1.982  -4.799  0.00  0.00     0.034 A 
ATOM     12  H   LIG d   1      10.577  -0.385  -6.366  0.00  0.00     0.065 H 
ATOM     13  H   LIG d   1       8.931  -1.848  -5.308  0.00  0.00     0.063 H 
ENDROOT
BRANCH   1  14
ATOM     14  O   LIG d   1      10.647   2.221  -6.170  0.00  0.00    -0.492 OA
BRANCH  14  15
ATOM     15  C   LIG d   1      10.830   2.068  -7.579  0.00  0.00     0.090 C 
ATOM     16  H   LIG d   1      11.759   2.552  -7.879  0.00  0.00     0.070 H 
ATOM     17  H   LIG d   1      10.874   1.008  -7.826  0.00  0.00     0.070 H 
BRANCH  15  18
ATOM     18  C   LIG d   1       9.657   2.715  -8.319  0.00  0.00    -0.019 C 
ATOM     19  H   LIG d   1       9.727   2.484  -9.383  0.00  0.00     0.030 H 
ATOM     20  H   LIG d   1       8.718   2.326  -7.924  0.00  0.00     0.030 H 
BRANCH  18  21
ATOM     21  C   LIG d   1       9.704   4.232  -8.122  0.00  0.00    -0.053 C 
ATOM     22  H   LIG d   1       9.253   4.487  -7.163  0.00  0.00     0.026 H 
ATOM     23  H   LIG d   1      10.740   4.568  -8.137  0.00  0.00     0.026 H 
BRANCH  21  24
ATOM     24  C   LIG d   1       8.928   4.917  -9.249  0.00  0.00    -0.065 C 
ATOM     25  H   LIG d   1       7.864   4.915  -9.010  0.00  0.00     0.023 H 
ATOM     26  H   LIG d   1       9.275   5.944  -9.356  0.00  0.00     0.023 H 
ATOM     27  H   LIG d   1       9.091   4.378 -10.182  0.00  0.00     0.023 H 
ENDBRANCH  21  24
ENDBRANCH  18  21
ENDBRANCH  15  18
ENDBRANCH  14  15
ENDBRANCH   1  14
BRANCH  11  28
ATOM     28  C   LIG d   1       8.662   3.476  -4.613  0.00  0.00    -0.033 C 
ATOM     29  H   LIG d   1       7.849   3.882  -5.215  0.00  0.00     0.028 H 
ATOM     30  H   LIG d   1       8.485   3.704  -3.562  0.00  0.00     0.028 H 
ATOM     31  H   LIG d   1       9.606   3.922  -4.927  0.00  0.00     0.028 H 
ENDBRANCH  11  28
BRANCH   5  32
ATOM     32  C   LIG d   1       6.895  -2.581  -3.902  0.00  0.00    -0.038 C 
ATOM     33  H   LIG d   1       6.949  -2.826  -4.963  0.00  0.00     0.028 H 
ATOM     34  H   LIG d   1       7.771  -2.981  -3.392  0.00  0.00     0.028 H 
ATOM     35  H   LIG d   1       5.994  -3.017  -3.473  0.00  0.00     0.028 H 
ENDBRANCH   5  32
BRANCH   6  36
ATOM     36  C   LIG d   1       4.847  -1.329  -2.296  0.00  0.00     0.077 C 
ATOM     37  H   LIG d   1       5.264  -2.305  -2.052  0.00  0.00     0.043 H 
ATOM     38  H   LIG d   1       4.525  -0.832  -1.380  0.00  0.00     0.043 H 
BRANCH  36  39
ATOM     39  C   LIG d   1       3.666  -1.502  -3.215  0.00  0.00     0.311 C 
ATOM     40  O   LIG d   1       3.602  -2.465  -3.942  0.00  0.00    -0.251 OA
BRANCH  39  41
ATOM     41  O   LIG d   1       2.685  -0.586  -3.229  0.00  0.00    -0.468 OA
BRANCH  41  42
ATOM     42  C   LIG d   1       2.544   0.211  -4.434  0.00  0.00     0.082 C 
ATOM     43  H   LIG d   1       2.440   1.263  -4.164  0.00  0.00     0.066 H 
ATOM     44  H   LIG d   1       3.426   0.082  -5.061  0.00  0.00     0.066 H 
ATOM     45  H   LIG d   1       1.659  -0.112  -4.981  0.00  0.00     0.066 H 
ENDBRANCH  41  42
ENDBRANCH  39  41
ENDBRANCH  36  39
ENDBRANCH   6  36
TORSDOF 11
ENDMDL
MODEL 9
REMARK VINA RESULT:      -4.8      4.906      7.642
REMARK  11 active torsions:
REMARK  status: ('A' for Active; 'I' for Inactive)
REMARK    1  A    between atoms: C_1  and  C_2 
REMARK    2  A    between atoms: C_2  and  C_3 
REMARK    3  A    between atoms: C_3  and  C_4 
REMARK    4  A    between atoms: C_4  and  O_5 
REMARK    5  A    between atoms: O_5  and  C_6 
REMARK    6  A    between atoms: C_10  and  C_23 
REMARK    7  A    between atoms: C_11  and  C_18 
REMARK    8  A    between atoms: C_16  and  C_17 
REMARK    9  A    between atoms: C_18  and  C_19 
REMARK   10  A    between atoms: C_19  and  O_21 
REMARK   11  A    between atoms: O_21  and  C_22 
ROOT
ATOM      1  C   LIG d   1       3.792  -0.092  -5.856  0.00  0.00     0.127 A 
ATOM      2  C   LIG d   1       2.839   0.612  -6.590  0.00  0.00    -0.019 A 
ATOM      3  C   LIG d   1       2.418   0.148  -7.802  0.00  0.00    -0.047 A 
ATOM      4  C   LIG d   1       2.946  -1.043  -8.312  0.00  0.00     0.021 A 
ATOM      5  C   LIG d   1       2.513  -1.567  -9.609  0.00  0.00    -0.029 A 
ATOM      6  C   LIG d   1       3.063  -2.728 -10.050  0.00  0.00     0.051 A 
ATOM      7  C   LIG d   1       4.023  -3.393  -9.259  0.00  0.00     0.341 A 
ATOM      8  O   LIG d   1       4.511  -4.432  -9.668  0.00  0.00    -0.245 OA
ATOM      9  O   LIG d   1       4.415  -2.909  -8.070  0.00  0.00    -0.422 OA
ATOM     10  C   LIG d   1       3.908  -1.760  -7.575  0.00  0.00     0.146 A 
ATOM     11  C   LIG d   1       4.325  -1.273  -6.345  0.00  0.00     0.034 A 
ATOM     12  H   LIG d   1       2.431   1.532  -6.197  0.00  0.00     0.065 H 
ATOM     13  H   LIG d   1       1.680   0.698  -8.367  0.00  0.00     0.063 H 
ENDROOT
BRANCH   1  14
ATOM     14  O   LIG d   1       4.200   0.384  -4.653  0.00  0.00    -0.492 OA
BRANCH  14  15
ATOM     15  C   LIG d   1       3.220   0.452  -3.615  0.00  0.00     0.090 C 
ATOM     16  H   LIG d   1       2.612   1.346  -3.747  0.00  0.00     0.070 H 
ATOM     17  H   LIG d   1       2.584  -0.431  -3.658  0.00  0.00     0.070 H 
BRANCH  15  18
ATOM     18  C   LIG d   1       3.920   0.509  -2.255  0.00  0.00    -0.019 C 
ATOM     19  H   LIG d   1       4.707   1.265  -2.283  0.00  0.00     0.030 H 
ATOM     20  H   LIG d   1       3.196   0.769  -1.484  0.00  0.00     0.030 H 
BRANCH  18  21
ATOM     21  C   LIG d   1       4.535  -0.856  -1.940  0.00  0.00    -0.053 C 
ATOM     22  H   LIG d   1       5.452  -0.982  -2.516  0.00  0.00     0.026 H 
ATOM     23  H   LIG d   1       4.763  -0.914  -0.876  0.00  0.00     0.026 H 
BRANCH  21  24
ATOM     24  C   LIG d   1       3.543  -1.960  -2.312  0.00  0.00    -0.065 C 
ATOM     25  H   LIG d   1       3.834  -2.890  -1.822  0.00  0.00     0.023 H 
ATOM     26  H   LIG d   1       2.543  -1.675  -1.987  0.00  0.00     0.023 H 
ATOM     27  H   LIG d   1       3.548  -2.103  -3.393  0.00  0.00     0.023 H 
ENDBRANCH  21  24
ENDBRANCH  18  21
ENDBRANCH  15  18
ENDBRANCH  14  15
ENDBRANCH   1  14
BRANCH  11  28
ATOM     28  C   LIG d   1       5.354  -2.027  -5.543  0.00  0.00    -0.033 C 
ATOM     29  H   LIG d   1       6.261  -2.146  -6.136  0.00  0.00     0.028 H 
ATOM     30  H   LIG d   1       5.585  -1.472  -4.634  0.00  0.00     0.028 H 
ATOM     31  H   LIG d   1       4.961  -3.009  -5.279  0.00  0.00     0.028 H 
ENDBRANCH  11  28
BRANCH   5  32
ATOM     32  C   LIG d   1       1.485  -0.835 -10.434  0.00  0.00    -0.038 C 
ATOM     33  H   LIG d   1       0.594  -1.456 -10.539  0.00  0.00     0.028 H 
ATOM     34  H   LIG d   1       1.220   0.099  -9.939  0.00  0.00     0.028 H 
ATOM     35  H   LIG d   1       1.896  -0.621 -11.420  0.00  0.00     0.028 H 
ENDBRANCH   5  32
BRANCH   6  36
ATOM     36  C   LIG d   1       2.648  -3.304 -11.379  0.00  0.00     0.077 C 
ATOM     37  H   LIG d   1       2.242  -2.512 -12.007  0.00  0.00     0.043 H 
ATOM     38  H   LIG d   1       3.516  -3.747 -11.869  0.00  0.00     0.043 H 
BRANCH  36  39
ATOM     39  C   LIG d   1       1.598  -4.363 -11.163  0.00  0.00     0.311 C 
ATOM     40  O   LIG d   1       1.872  -5.528 -11.325  0.00  0.00    -0.251 OA
BRANCH  39  41
ATOM     41  O   LIG d   1       0.358  -4.011 -10.791  0.00  0.00    -0.468 OA
BRANCH  41  42
ATOM     42  C   LIG d   1      -0.592  -5.086 -10.562  0.00  0.00     0.082 C 
ATOM     43  H   LIG d   1      -1.071  -5.353 -11.505  0.00  0.00     0.066 H 
ATOM     44  H   LIG d   1      -0.069  -5.953 -10.160  0.00  0.00     0.066 H 
ATOM     45  H   LIG d   1      -1.349  -4.756  -9.851  0.00  0.00     0.066 H 
ENDBRANCH  41  42
ENDBRANCH  39  41
ENDBRANCH  36  39
ENDBRANCH   6  36
TORSDOF 11
ENDMDL
MODEL 10
REMARK VINA RESULT:      -4.7      5.380      7.789
REMARK  11 active torsions:
REMARK  status: ('A' for Active; 'I' for Inactive)
REMARK    1  A    between atoms: C_1  and  C_2 
REMARK    2  A    between atoms: C_2  and  C_3 
REMARK    3  A    between atoms: C_3  and  C_4 
REMARK    4  A    between atoms: C_4  and  O_5 
REMARK    5  A    between atoms: O_5  and  C_6 
REMARK    6  A    between atoms: C_10  and  C_23 
REMARK    7  A    between atoms: C_11  and  C_18 
REMARK    8  A    between atoms: C_16  and  C_17 
REMARK    9  A    between atoms: C_18  and  C_19 
REMARK   10  A    between atoms: C_19  and  O_21 
REMARK   11  A    between atoms: O_21  and  C_22 
ROOT
ATOM      1  C   LIG d   1       4.460  -0.794  -6.422  0.00  0.00     0.127 A 
ATOM      2  C   LIG d   1       4.975  -2.078  -6.253  0.00  0.00    -0.019 A 
ATOM      3  C   LIG d   1       4.607  -3.086  -7.094  0.00  0.00    -0.047 A 
ATOM      4  C   LIG d   1       3.706  -2.831  -8.134  0.00  0.00     0.021 A 
ATOM      5  C   LIG d   1       3.293  -3.893  -9.054  0.00  0.00    -0.029 A 
ATOM      6  C   LIG d   1       2.416  -3.581 -10.043  0.00  0.00     0.051 A 
ATOM      7  C   LIG d   1       1.932  -2.262 -10.161  0.00  0.00     0.341 A 
ATOM      8  O   LIG d   1       1.143  -1.997 -11.051  0.00  0.00    -0.245 OA
ATOM      9  O   LIG d   1       2.315  -1.292  -9.316  0.00  0.00    -0.422 OA
ATOM     10  C   LIG d   1       3.183  -1.536  -8.311  0.00  0.00     0.146 A 
ATOM     11  C   LIG d   1       3.568  -0.522  -7.446  0.00  0.00     0.034 A 
ATOM     12  H   LIG d   1       5.670  -2.276  -5.449  0.00  0.00     0.065 H 
ATOM     13  H   LIG d   1       5.007  -4.080  -6.958  0.00  0.00     0.063 H 
ENDROOT
BRANCH   1  14
ATOM     14  O   LIG d   1       4.836   0.199  -5.576  0.00  0.00    -0.492 OA
BRANCH  14  15
ATOM     15  C   LIG d   1       4.763  -0.079  -4.176  0.00  0.00     0.090 C 
ATOM     16  H   LIG d   1       4.930  -1.143  -4.007  0.00  0.00     0.070 H 
ATOM     17  H   LIG d   1       5.524   0.497  -3.651  0.00  0.00     0.070 H 
BRANCH  15  18
ATOM     18  C   LIG d   1       3.379   0.307  -3.651  0.00  0.00    -0.019 C 
ATOM     19  H   LIG d   1       3.483   1.071  -2.879  0.00  0.00     0.030 H 
ATOM     20  H   LIG d   1       2.776   0.700  -4.469  0.00  0.00     0.030 H 
BRANCH  18  21
ATOM     21  C   LIG d   1       2.695  -0.926  -3.058  0.00  0.00    -0.053 C 
ATOM     22  H   LIG d   1       2.053  -0.623  -2.231  0.00  0.00     0.026 H 
ATOM     23  H   LIG d   1       2.094  -1.412  -3.827  0.00  0.00     0.026 H 
BRANCH  21  24
ATOM     24  C   LIG d   1       3.757  -1.903  -2.548  0.00  0.00    -0.065 C 
ATOM     25  H   LIG d   1       4.378  -1.407  -1.802  0.00  0.00     0.023 H 
ATOM     26  H   LIG d   1       3.269  -2.767  -2.098  0.00  0.00     0.023 H 
ATOM     27  H   LIG d   1       4.381  -2.229  -3.380  0.00  0.00     0.023 H 
ENDBRANCH  21  24
ENDBRANCH  18  21
ENDBRANCH  15  18
ENDBRANCH  14  15
ENDBRANCH   1  14
BRANCH  11  28
ATOM     28  C   LIG d   1       3.019   0.870  -7.621  0.00  0.00    -0.033 C 
ATOM     29  H   LIG d   1       2.275   1.066  -6.848  0.00  0.00     0.028 H 
ATOM     30  H   LIG d   1       3.829   1.594  -7.536  0.00  0.00     0.028 H 
ATOM     31  H   LIG d   1       2.555   0.957  -8.603  0.00  0.00     0.028 H 
ENDBRANCH  11  28
BRANCH   5  32
ATOM     32  C   LIG d   1       3.826  -5.295  -8.905  0.00  0.00    -0.038 C 
ATOM     33  H   LIG d   1       3.894  -5.764  -9.887  0.00  0.00     0.028 H 
ATOM     34  H   LIG d   1       4.816  -5.261  -8.450  0.00  0.00     0.028 H 
ATOM     35  H   LIG d   1       3.155  -5.873  -8.271  0.00  0.00     0.028 H 
ENDBRANCH   5  32
BRANCH   6  36
ATOM     36  C   LIG d   1       1.962  -4.642 -11.013  0.00  0.00     0.077 C 
ATOM     37  H   LIG d   1       1.762  -4.187 -11.982  0.00  0.00     0.043 H 
ATOM     38  H   LIG d   1       2.744  -5.394 -11.119  0.00  0.00     0.043 H 
BRANCH  36  39
ATOM     39  C   LIG d   1       0.706  -5.293 -10.494  0.00  0.00     0.311 C 
ATOM     40  O   LIG d   1      -0.370  -4.790 -10.714  0.00  0.00    -0.251 OA
BRANCH  39  41
ATOM     41  O   LIG d   1       0.783  -6.430  -9.786  0.00  0.00    -0.468 OA
BRANCH  41  42
ATOM     42  C   LIG d   1      -0.102  -7.513 -10.181  0.00  0.00     0.082 C 
ATOM     43  H   LIG d   1       0.028  -8.354  -9.499  0.00  0.00     0.066 H 
ATOM     44  H   LIG d   1      -1.136  -7.169 -10.142  0.00  0.00     0.066 H 
ATOM     45  H   LIG d   1       0.139  -7.828 -11.195  0.00  0.00     0.066 H 
ENDBRANCH  41  42
ENDBRANCH  39  41
ENDBRANCH  36  39
ENDBRANCH   6  36
TORSDOF 11
ENDMDL
