MODEL 1
REMARK VINA RESULT:      -6.0      0.000      0.000
REMARK  15 active torsions:
REMARK  status: ('A' for Active; 'I' for Inactive)
REMARK    1  A    between atoms: C_1  and  C_2 
REMARK    2  A    between atoms: C_2  and  C_9 
REMARK    3  A    between atoms: C_3  and  C_4 
REMARK    4  A    between atoms: C_4  and  O_5 
REMARK    5  A    between atoms: O_5  and  C_6 
REMARK    6  A    between atoms: C_6  and  C_8 
REMARK    7  A    between atoms: C_9  and  O_11 
REMARK    8  A    between atoms: O_11  and  C_12 
REMARK    9  A    between atoms: C_15  and  C_36 
REMARK   10  A    between atoms: C_16  and  O_35 
REMARK   11  A    between atoms: C_24  and  O_34 
REMARK   12  A    between atoms: C_26  and  C_28 
REMARK   13  A    between atoms: C_28  and  C_30 
REMARK   14  A    between atoms: C_30  and  O_32 
REMARK   15  A    between atoms: O_32  and  C_33 
ROOT
ATOM      1  C   LIG d   1       6.324  -2.397  -4.916  0.00  0.00     0.113 C 
ATOM      2  H   LIG d   1       6.927  -3.300  -5.145  0.00  0.00     0.074 H 
ATOM      3  C   LIG d   1       5.175  -2.821  -4.026  0.00  0.00    -0.006 C 
ATOM      4  C   LIG d   1       4.439  -1.692  -3.314  0.00  0.00     0.009 C 
ATOM      5  C   LIG d   1       3.312  -1.153  -4.181  0.00  0.00     0.062 C 
ATOM      6  H   LIG d   1       2.606  -1.981  -4.372  0.00  0.00     0.060 H 
ATOM      7  C   LIG d   1       2.534  -0.033  -3.496  0.00  0.00    -0.020 C 
ATOM      8  C   LIG d   1       3.477   1.124  -3.154  0.00  0.00     0.009 C 
ATOM      9  C   LIG d   1       4.598   0.583  -2.298  0.00  0.00     0.140 C 
ATOM     10  O   LIG d   1       4.873   1.113  -1.244  0.00  0.00    -0.297 OA
ATOM     11  C   LIG d   1       5.370  -0.626  -2.774  0.00  0.00     0.052 C 
ATOM     12  H   LIG d   1       5.886  -1.051  -1.882  0.00  0.00     0.041 H 
ATOM     13  C   LIG d   1       6.450  -0.188  -3.751  0.00  0.00     0.076 C 
ATOM     14  H   LIG d   1       7.144   0.486  -3.221  0.00  0.00     0.061 H 
ATOM     15  C   LIG d   1       7.247  -1.399  -4.227  0.00  0.00     0.054 C 
ATOM     16  H   LIG d   1       7.722  -1.878  -3.366  0.00  0.00     0.041 H 
ATOM     17  H   LIG d   1       4.443  -3.381  -4.629  0.00  0.00     0.031 H 
ATOM     18  H   LIG d   1       5.549  -3.521  -3.264  0.00  0.00     0.031 H 
ATOM     19  H   LIG d   1       1.760   0.333  -4.179  0.00  0.00     0.029 H 
ATOM     20  H   LIG d   1       2.049  -0.395  -2.593  0.00  0.00     0.029 H 
ATOM     21  H   LIG d   1       3.879   1.558  -4.067  0.00  0.00     0.034 H 
ATOM     22  H   LIG d   1       2.929   1.887  -2.599  0.00  0.00     0.034 H 
ENDROOT
BRANCH   1  23
ATOM     23  O   LIG d   1       5.865  -1.881  -6.163  0.00  0.00    -0.457 OA
BRANCH  23  24
ATOM     24  C   LIG d   1       5.786  -2.746  -7.193  0.00  0.00     0.335 C 
ATOM     25  O   LIG d   1       6.788  -3.045  -7.813  0.00  0.00    -0.245 OA
BRANCH  24  26
ATOM     26  C   LIG d   1       4.490  -3.329  -7.566  0.00  0.00     0.033 C 
ATOM     27  C   LIG d   1       3.666  -2.661  -8.370  0.00  0.00    -0.037 C 
ATOM     28  H   LIG d   1       2.677  -3.044  -8.569  0.00  0.00     0.061 H 
BRANCH  26  29
ATOM     29  C   LIG d   1       4.092  -4.684  -7.039  0.00  0.00    -0.033 C 
ATOM     30  H   LIG d   1       3.829  -4.600  -5.985  0.00  0.00     0.028 H 
ATOM     31  H   LIG d   1       3.233  -5.053  -7.600  0.00  0.00     0.028 H 
ATOM     32  H   LIG d   1       4.925  -5.376  -7.151  0.00  0.00     0.028 H 
ENDBRANCH  26  29
BRANCH  27  33
ATOM     33  C   LIG d   1       4.114  -1.367  -9.001  0.00  0.00     0.111 C 
ATOM     34  H   LIG d   1       5.160  -1.184  -8.753  0.00  0.00     0.074 H 
ATOM     35  H   LIG d   1       4.005  -1.435 -10.084  0.00  0.00     0.074 H 
BRANCH  33  36
ATOM     36  O   LIG d   1       3.312  -0.293  -8.507  0.00  0.00    -0.461 OA
BRANCH  36  37
ATOM     37  C   LIG d   1       3.917   0.895  -8.345  0.00  0.00     0.304 C 
ATOM     38  O   LIG d   1       4.931   0.972  -7.695  0.00  0.00    -0.251 OA
BRANCH  37  39
ATOM     39  C   LIG d   1       3.329   2.131  -8.975  0.00  0.00     0.033 C 
ATOM     40  H   LIG d   1       2.824   1.862  -9.903  0.00  0.00     0.034 H 
ATOM     41  H   LIG d   1       2.610   2.581  -8.290  0.00  0.00     0.034 H 
ATOM     42  H   LIG d   1       4.125   2.844  -9.187  0.00  0.00     0.034 H 
ENDBRANCH  37  39
ENDBRANCH  36  37
ENDBRANCH  33  36
ENDBRANCH  27  33
ENDBRANCH  24  26
ENDBRANCH  23  24
ENDBRANCH   1  23
BRANCH  15  43
ATOM     43  C   LIG d   1       8.318  -0.950  -5.190  0.00  0.00     0.039 C 
ATOM     44  C   LIG d   1       9.153  -1.841  -5.720  0.00  0.00    -0.088 C 
ATOM     45  H   LIG d   1       9.944  -1.515  -6.378  0.00  0.00     0.054 H 
ATOM     46  H   LIG d   1       9.039  -2.890  -5.490  0.00  0.00     0.054 H 
BRANCH  43  47
ATOM     47  C   LIG d   1       8.438   0.470  -5.544  0.00  0.00     0.335 C 
ATOM     48  O   LIG d   1       8.072   0.858  -6.636  0.00  0.00    -0.245 OA
BRANCH  47  49
ATOM     49  O   LIG d   1       8.953   1.346  -4.656  0.00  0.00    -0.465 OA
BRANCH  49  50
ATOM     50  C   LIG d   1       8.697   2.732  -4.889  0.00  0.00     0.082 C 
ATOM     51  H   LIG d   1       7.622   2.893  -4.979  0.00  0.00     0.066 H 
ATOM     52  H   LIG d   1       9.083   3.318  -4.056  0.00  0.00     0.066 H 
ATOM     53  H   LIG d   1       9.189   3.042  -5.811  0.00  0.00     0.066 H 
ENDBRANCH  49  50
ENDBRANCH  47  49
ENDBRANCH  43  47
ENDBRANCH  15  43
BRANCH  13  54
ATOM     54  O   LIG d   1       5.908   0.523  -4.857  0.00  0.00    -0.390 OA
ATOM     55  H   LIG d   1       6.514   1.169  -5.245  0.00  0.00     0.210 HD
ENDBRANCH  13  54
BRANCH   4  56
ATOM     56  C   LIG d   1       3.767  -2.356  -2.079  0.00  0.00    -0.056 C 
ATOM     57  H   LIG d   1       2.830  -2.823  -2.382  0.00  0.00     0.024 H 
ATOM     58  H   LIG d   1       4.434  -3.114  -1.667  0.00  0.00     0.024 H 
ATOM     59  H   LIG d   1       3.568  -1.597  -1.322  0.00  0.00     0.024 H 
ENDBRANCH   4  56
BRANCH   5  60
ATOM     60  O   LIG d   1       3.786  -0.697  -5.447  0.00  0.00    -0.391 OA
ATOM     61  H   LIG d   1       4.668  -1.020  -5.675  0.00  0.00     0.210 HD
ENDBRANCH   5  60
TORSDOF 15
ENDMDL
MODEL 2
REMARK VINA RESULT:      -5.5      2.236      4.787
REMARK  15 active torsions:
REMARK  status: ('A' for Active; 'I' for Inactive)
REMARK    1  A    between atoms: C_1  and  C_2 
REMARK    2  A    between atoms: C_2  and  C_9 
REMARK    3  A    between atoms: C_3  and  C_4 
REMARK    4  A    between atoms: C_4  and  O_5 
REMARK    5  A    between atoms: O_5  and  C_6 
REMARK    6  A    between atoms: C_6  and  C_8 
REMARK    7  A    between atoms: C_9  and  O_11 
REMARK    8  A    between atoms: O_11  and  C_12 
REMARK    9  A    between atoms: C_15  and  C_36 
REMARK   10  A    between atoms: C_16  and  O_35 
REMARK   11  A    between atoms: C_24  and  O_34 
REMARK   12  A    between atoms: C_26  and  C_28 
REMARK   13  A    between atoms: C_28  and  C_30 
REMARK   14  A    between atoms: C_30  and  O_32 
REMARK   15  A    between atoms: O_32  and  C_33 
ROOT
ATOM      1  C   LIG d   1       5.466  -2.536  -6.572  0.00  0.00     0.113 C 
ATOM      2  H   LIG d   1       5.957  -3.081  -7.404  0.00  0.00     0.074 H 
ATOM      3  C   LIG d   1       6.218  -2.859  -5.298  0.00  0.00    -0.006 C 
ATOM      4  C   LIG d   1       5.931  -1.948  -4.111  0.00  0.00     0.009 C 
ATOM      5  C   LIG d   1       4.745  -2.465  -3.311  0.00  0.00     0.062 C 
ATOM      6  H   LIG d   1       5.003  -3.473  -2.939  0.00  0.00     0.060 H 
ATOM      7  C   LIG d   1       4.436  -1.591  -2.098  0.00  0.00    -0.020 C 
ATOM      8  C   LIG d   1       4.127  -0.161  -2.550  0.00  0.00     0.009 C 
ATOM      9  C   LIG d   1       5.304   0.346  -3.350  0.00  0.00     0.140 C 
ATOM     10  O   LIG d   1       5.819   1.407  -3.074  0.00  0.00    -0.297 OA
ATOM     11  C   LIG d   1       5.827  -0.486  -4.497  0.00  0.00     0.052 C 
ATOM     12  H   LIG d   1       6.858  -0.123  -4.716  0.00  0.00     0.041 H 
ATOM     13  C   LIG d   1       4.988  -0.227  -5.739  0.00  0.00     0.076 C 
ATOM     14  H   LIG d   1       5.083   0.839  -6.005  0.00  0.00     0.061 H 
ATOM     15  C   LIG d   1       5.518  -1.051  -6.909  0.00  0.00     0.054 C 
ATOM     16  H   LIG d   1       6.551  -0.760  -7.115  0.00  0.00     0.041 H 
ATOM     17  H   LIG d   1       5.989  -3.894  -5.000  0.00  0.00     0.031 H 
ATOM     18  H   LIG d   1       7.299  -2.827  -5.502  0.00  0.00     0.031 H 
ATOM     19  H   LIG d   1       3.558  -1.996  -1.583  0.00  0.00     0.029 H 
ATOM     20  H   LIG d   1       5.270  -1.587  -1.400  0.00  0.00     0.029 H 
ATOM     21  H   LIG d   1       3.227  -0.151  -3.160  0.00  0.00     0.034 H 
ATOM     22  H   LIG d   1       3.979   0.473  -1.674  0.00  0.00     0.034 H 
ENDROOT
BRANCH   1  23
ATOM     23  O   LIG d   1       4.117  -2.994  -6.519  0.00  0.00    -0.457 OA
BRANCH  23  24
ATOM     24  C   LIG d   1       3.892  -4.278  -6.864  0.00  0.00     0.335 C 
ATOM     25  O   LIG d   1       3.511  -5.074  -6.028  0.00  0.00    -0.245 OA
BRANCH  24  26
ATOM     26  C   LIG d   1       4.108  -4.715  -8.250  0.00  0.00     0.033 C 
ATOM     27  C   LIG d   1       5.139  -5.503  -8.546  0.00  0.00    -0.037 C 
ATOM     28  H   LIG d   1       5.353  -5.748  -9.576  0.00  0.00     0.061 H 
BRANCH  26  29
ATOM     29  C   LIG d   1       3.162  -4.272  -9.336  0.00  0.00    -0.033 C 
ATOM     30  H   LIG d   1       3.700  -3.661 -10.059  0.00  0.00     0.028 H 
ATOM     31  H   LIG d   1       2.750  -5.149  -9.838  0.00  0.00     0.028 H 
ATOM     32  H   LIG d   1       2.352  -3.690  -8.898  0.00  0.00     0.028 H 
ENDBRANCH  26  29
BRANCH  27  33
ATOM     33  C   LIG d   1       6.010  -6.052  -7.445  0.00  0.00     0.111 C 
ATOM     34  H   LIG d   1       7.042  -5.745  -7.611  0.00  0.00     0.074 H 
ATOM     35  H   LIG d   1       5.667  -5.666  -6.484  0.00  0.00     0.074 H 
BRANCH  33  36
ATOM     36  O   LIG d   1       5.930  -7.479  -7.441  0.00  0.00    -0.461 OA
BRANCH  36  37
ATOM     37  C   LIG d   1       4.929  -8.031  -6.739  0.00  0.00     0.304 C 
ATOM     38  O   LIG d   1       3.932  -8.410  -7.304  0.00  0.00    -0.251 OA
BRANCH  37  39
ATOM     39  C   LIG d   1       5.049  -8.176  -5.243  0.00  0.00     0.033 C 
ATOM     40  H   LIG d   1       4.811  -7.225  -4.765  0.00  0.00     0.034 H 
ATOM     41  H   LIG d   1       4.353  -8.940  -4.895  0.00  0.00     0.034 H 
ATOM     42  H   LIG d   1       6.067  -8.467  -4.987  0.00  0.00     0.034 H 
ENDBRANCH  37  39
ENDBRANCH  36  37
ENDBRANCH  33  36
ENDBRANCH  27  33
ENDBRANCH  24  26
ENDBRANCH  23  24
ENDBRANCH   1  23
BRANCH  15  43
ATOM     43  C   LIG d   1       4.680  -0.780  -8.135  0.00  0.00     0.039 C 
ATOM     44  C   LIG d   1       5.042  -1.284  -9.312  0.00  0.00    -0.088 C 
ATOM     45  H   LIG d   1       4.465  -1.058 -10.196  0.00  0.00     0.054 H 
ATOM     46  H   LIG d   1       5.913  -1.918  -9.384  0.00  0.00     0.054 H 
BRANCH  43  47
ATOM     47  C   LIG d   1       3.465   0.038  -8.028  0.00  0.00     0.335 C 
ATOM     48  O   LIG d   1       2.371  -0.490  -8.056  0.00  0.00    -0.245 OA
BRANCH  47  49
ATOM     49  O   LIG d   1       3.563   1.377  -7.895  0.00  0.00    -0.465 OA
BRANCH  49  50
ATOM     50  C   LIG d   1       3.411   2.159  -9.082  0.00  0.00     0.082 C 
ATOM     51  H   LIG d   1       3.013   3.140  -8.822  0.00  0.00     0.066 H 
ATOM     52  H   LIG d   1       4.379   2.277  -9.567  0.00  0.00     0.066 H 
ATOM     53  H   LIG d   1       2.723   1.656  -9.762  0.00  0.00     0.066 H 
ENDBRANCH  49  50
ENDBRANCH  47  49
ENDBRANCH  43  47
ENDBRANCH  15  43
BRANCH  13  54
ATOM     54  O   LIG d   1       3.611  -0.501  -5.514  0.00  0.00    -0.390 OA
ATOM     55  H   LIG d   1       3.441  -1.365  -5.113  0.00  0.00     0.210 HD
ENDBRANCH  13  54
BRANCH   4  56
ATOM     56  C   LIG d   1       7.176  -2.072  -3.188  0.00  0.00    -0.056 C 
ATOM     57  H   LIG d   1       8.012  -1.534  -3.633  0.00  0.00     0.024 H 
ATOM     58  H   LIG d   1       6.947  -1.645  -2.211  0.00  0.00     0.024 H 
ATOM     59  H   LIG d   1       7.439  -3.124  -3.072  0.00  0.00     0.024 H 
ENDBRANCH   4  56
BRANCH   5  60
ATOM     60  O   LIG d   1       3.575  -2.593  -4.114  0.00  0.00    -0.391 OA
ATOM     61  H   LIG d   1       3.715  -3.083  -4.936  0.00  0.00     0.210 HD
ENDBRANCH   5  60
TORSDOF 15
ENDMDL
MODEL 3
REMARK VINA RESULT:      -5.5      2.013      3.683
REMARK  15 active torsions:
REMARK  status: ('A' for Active; 'I' for Inactive)
REMARK    1  A    between atoms: C_1  and  C_2 
REMARK    2  A    between atoms: C_2  and  C_9 
REMARK    3  A    between atoms: C_3  and  C_4 
REMARK    4  A    between atoms: C_4  and  O_5 
REMARK    5  A    between atoms: O_5  and  C_6 
REMARK    6  A    between atoms: C_6  and  C_8 
REMARK    7  A    between atoms: C_9  and  O_11 
REMARK    8  A    between atoms: O_11  and  C_12 
REMARK    9  A    between atoms: C_15  and  C_36 
REMARK   10  A    between atoms: C_16  and  O_35 
REMARK   11  A    between atoms: C_24  and  O_34 
REMARK   12  A    between atoms: C_26  and  C_28 
REMARK   13  A    between atoms: C_28  and  C_30 
REMARK   14  A    between atoms: C_30  and  O_32 
REMARK   15  A    between atoms: O_32  and  C_33 
ROOT
ATOM      1  C   LIG d   1       5.632  -2.421  -6.564  0.00  0.00     0.113 C 
ATOM      2  H   LIG d   1       6.194  -2.907  -7.387  0.00  0.00     0.074 H 
ATOM      3  C   LIG d   1       6.354  -2.723  -5.268  0.00  0.00    -0.006 C 
ATOM      4  C   LIG d   1       5.953  -1.866  -4.073  0.00  0.00     0.009 C 
ATOM      5  C   LIG d   1       4.777  -2.487  -3.335  0.00  0.00     0.062 C 
ATOM      6  H   LIG d   1       5.092  -3.484  -2.976  0.00  0.00     0.060 H 
ATOM      7  C   LIG d   1       4.358  -1.670  -2.116  0.00  0.00    -0.020 C 
ATOM      8  C   LIG d   1       3.965  -0.254  -2.546  0.00  0.00     0.009 C 
ATOM      9  C   LIG d   1       5.132   0.356  -3.285  0.00  0.00     0.140 C 
ATOM     10  O   LIG d   1       5.558   1.444  -2.963  0.00  0.00    -0.297 OA
ATOM     11  C   LIG d   1       5.760  -0.405  -4.429  0.00  0.00     0.052 C 
ATOM     12  H   LIG d   1       6.770   0.036  -4.595  0.00  0.00     0.041 H 
ATOM     13  C   LIG d   1       4.955  -0.175  -5.698  0.00  0.00     0.076 C 
ATOM     14  H   LIG d   1       4.983   0.903  -5.935  0.00  0.00     0.061 H 
ATOM     15  C   LIG d   1       5.589  -0.927  -6.864  0.00  0.00     0.054 C 
ATOM     16  H   LIG d   1       6.607  -0.558  -7.019  0.00  0.00     0.041 H 
ATOM     17  H   LIG d   1       6.188  -3.779  -5.003  0.00  0.00     0.031 H 
ATOM     18  H   LIG d   1       7.437  -2.608  -5.425  0.00  0.00     0.031 H 
ATOM     19  H   LIG d   1       3.491  -2.149  -1.647  0.00  0.00     0.029 H 
ATOM     20  H   LIG d   1       5.160  -1.625  -1.384  0.00  0.00     0.029 H 
ATOM     21  H   LIG d   1       3.091  -0.292  -3.194  0.00  0.00     0.034 H 
ATOM     22  H   LIG d   1       3.736   0.344  -1.663  0.00  0.00     0.034 H 
ENDROOT
BRANCH   1  23
ATOM     23  O   LIG d   1       4.318  -2.975  -6.578  0.00  0.00    -0.457 OA
BRANCH  23  24
ATOM     24  C   LIG d   1       4.207  -4.277  -6.906  0.00  0.00     0.335 C 
ATOM     25  O   LIG d   1       3.532  -5.021  -6.221  0.00  0.00    -0.245 OA
BRANCH  24  26
ATOM     26  C   LIG d   1       4.901  -4.799  -8.092  0.00  0.00     0.033 C 
ATOM     27  C   LIG d   1       4.313  -4.742  -9.285  0.00  0.00    -0.037 C 
ATOM     28  H   LIG d   1       4.780  -5.208 -10.140  0.00  0.00     0.061 H 
BRANCH  26  29
ATOM     29  C   LIG d   1       6.277  -5.396  -7.959  0.00  0.00    -0.033 C 
ATOM     30  H   LIG d   1       6.192  -6.447  -7.686  0.00  0.00     0.028 H 
ATOM     31  H   LIG d   1       6.804  -5.310  -8.910  0.00  0.00     0.028 H 
ATOM     32  H   LIG d   1       6.831  -4.864  -7.186  0.00  0.00     0.028 H 
ENDBRANCH  26  29
BRANCH  27  33
ATOM     33  C   LIG d   1       2.994  -4.030  -9.443  0.00  0.00     0.111 C 
ATOM     34  H   LIG d   1       2.183  -4.758  -9.421  0.00  0.00     0.074 H 
ATOM     35  H   LIG d   1       2.865  -3.318  -8.627  0.00  0.00     0.074 H 
BRANCH  33  36
ATOM     36  O   LIG d   1       2.975  -3.333 -10.691  0.00  0.00    -0.461 OA
BRANCH  36  37
ATOM     37  C   LIG d   1       1.971  -2.464 -10.887  0.00  0.00     0.304 C 
ATOM     38  O   LIG d   1       0.861  -2.723 -10.490  0.00  0.00    -0.251 OA
BRANCH  37  39
ATOM     39  C   LIG d   1       2.231  -1.165 -11.606  0.00  0.00     0.033 C 
ATOM     40  H   LIG d   1       1.316  -0.572 -11.628  0.00  0.00     0.034 H 
ATOM     41  H   LIG d   1       3.010  -0.610 -11.084  0.00  0.00     0.034 H 
ATOM     42  H   LIG d   1       2.553  -1.373 -12.626  0.00  0.00     0.034 H 
ENDBRANCH  37  39
ENDBRANCH  36  37
ENDBRANCH  33  36
ENDBRANCH  27  33
ENDBRANCH  24  26
ENDBRANCH  23  24
ENDBRANCH   1  23
BRANCH  15  43
ATOM     43  C   LIG d   1       4.784  -0.685  -8.117  0.00  0.00     0.039 C 
ATOM     44  C   LIG d   1       5.226  -1.134  -9.289  0.00  0.00    -0.088 C 
ATOM     45  H   LIG d   1       4.670  -0.926 -10.191  0.00  0.00     0.054 H 
ATOM     46  H   LIG d   1       6.140  -1.706  -9.338  0.00  0.00     0.054 H 
BRANCH  43  47
ATOM     47  C   LIG d   1       3.512   0.047  -8.042  0.00  0.00     0.335 C 
ATOM     48  O   LIG d   1       2.460  -0.559  -8.072  0.00  0.00    -0.245 OA
BRANCH  47  49
ATOM     49  O   LIG d   1       3.513   1.392  -7.938  0.00  0.00    -0.465 OA
BRANCH  49  50
ATOM     50  C   LIG d   1       3.067   2.130  -9.077  0.00  0.00     0.082 C 
ATOM     51  H   LIG d   1       1.977   2.162  -9.087  0.00  0.00     0.066 H 
ATOM     52  H   LIG d   1       3.459   3.146  -9.029  0.00  0.00     0.066 H 
ATOM     53  H   LIG d   1       3.425   1.646  -9.986  0.00  0.00     0.066 H 
ENDBRANCH  49  50
ENDBRANCH  47  49
ENDBRANCH  43  47
ENDBRANCH  15  43
BRANCH  13  54
ATOM     54  O   LIG d   1       3.593  -0.552  -5.537  0.00  0.00    -0.390 OA
ATOM     55  H   LIG d   1       3.315  -0.641  -4.615  0.00  0.00     0.210 HD
ENDBRANCH  13  54
BRANCH   4  56
ATOM     56  C   LIG d   1       7.166  -1.925  -3.101  0.00  0.00    -0.056 C 
ATOM     57  H   LIG d   1       7.399  -2.965  -2.875  0.00  0.00     0.024 H 
ATOM     58  H   LIG d   1       8.030  -1.452  -3.570  0.00  0.00     0.024 H 
ATOM     59  H   LIG d   1       6.919  -1.398  -2.180  0.00  0.00     0.024 H 
ENDBRANCH   4  56
BRANCH   5  60
ATOM     60  O   LIG d   1       3.653  -2.677  -4.190  0.00  0.00    -0.391 OA
ATOM     61  H   LIG d   1       3.856  -3.155  -5.005  0.00  0.00     0.210 HD
ENDBRANCH   5  60
TORSDOF 15
ENDMDL
MODEL 4
REMARK VINA RESULT:      -5.3      2.225      6.600
REMARK  15 active torsions:
REMARK  status: ('A' for Active; 'I' for Inactive)
REMARK    1  A    between atoms: C_1  and  C_2 
REMARK    2  A    between atoms: C_2  and  C_9 
REMARK    3  A    between atoms: C_3  and  C_4 
REMARK    4  A    between atoms: C_4  and  O_5 
REMARK    5  A    between atoms: O_5  and  C_6 
REMARK    6  A    between atoms: C_6  and  C_8 
REMARK    7  A    between atoms: C_9  and  O_11 
REMARK    8  A    between atoms: O_11  and  C_12 
REMARK    9  A    between atoms: C_15  and  C_36 
REMARK   10  A    between atoms: C_16  and  O_35 
REMARK   11  A    between atoms: C_24  and  O_34 
REMARK   12  A    between atoms: C_26  and  C_28 
REMARK   13  A    between atoms: C_28  and  C_30 
REMARK   14  A    between atoms: C_30  and  O_32 
REMARK   15  A    between atoms: O_32  and  C_33 
ROOT
ATOM      1  C   LIG d   1       5.701  -2.321  -7.667  0.00  0.00     0.113 C 
ATOM      2  H   LIG d   1       6.733  -2.344  -7.261  0.00  0.00     0.074 H 
ATOM      3  C   LIG d   1       5.654  -1.265  -8.752  0.00  0.00    -0.006 C 
ATOM      4  C   LIG d   1       4.440  -1.316  -9.671  0.00  0.00     0.009 C 
ATOM      5  C   LIG d   1       3.294  -0.498  -9.097  0.00  0.00     0.062 C 
ATOM      6  H   LIG d   1       3.637   0.549  -9.008  0.00  0.00     0.060 H 
ATOM      7  C   LIG d   1       2.063  -0.504  -9.999  0.00  0.00    -0.020 C 
ATOM      8  C   LIG d   1       1.575  -1.941 -10.205  0.00  0.00     0.009 C 
ATOM      9  C   LIG d   1       2.717  -2.752 -10.770  0.00  0.00     0.140 C 
ATOM     10  O   LIG d   1       2.561  -3.413 -11.773  0.00  0.00    -0.297 OA
ATOM     11  C   LIG d   1       4.055  -2.728 -10.068  0.00  0.00     0.052 C 
ATOM     12  H   LIG d   1       4.812  -3.088 -10.802  0.00  0.00     0.041 H 
ATOM     13  C   LIG d   1       4.043  -3.717  -8.914  0.00  0.00     0.076 C 
ATOM     14  H   LIG d   1       3.880  -4.728  -9.326  0.00  0.00     0.061 H 
ATOM     15  C   LIG d   1       5.395  -3.713  -8.206  0.00  0.00     0.054 C 
ATOM     16  H   LIG d   1       6.173  -4.007  -8.916  0.00  0.00     0.041 H 
ATOM     17  H   LIG d   1       5.688  -0.269  -8.283  0.00  0.00     0.031 H 
ATOM     18  H   LIG d   1       6.558  -1.347  -9.372  0.00  0.00     0.031 H 
ATOM     19  H   LIG d   1       1.266   0.073  -9.518  0.00  0.00     0.029 H 
ATOM     20  H   LIG d   1       2.285  -0.047 -10.960  0.00  0.00     0.029 H 
ATOM     21  H   LIG d   1       1.249  -2.363  -9.257  0.00  0.00     0.034 H 
ATOM     22  H   LIG d   1       0.741  -1.944 -10.909  0.00  0.00     0.034 H 
ENDROOT
BRANCH   1  23
ATOM     23  O   LIG d   1       4.836  -2.000  -6.580  0.00  0.00    -0.457 OA
BRANCH  23  24
ATOM     24  C   LIG d   1       5.292  -1.110  -5.677  0.00  0.00     0.335 C 
ATOM     25  O   LIG d   1       4.884   0.035  -5.692  0.00  0.00    -0.245 OA
BRANCH  24  26
ATOM     26  C   LIG d   1       6.283  -1.524  -4.673  0.00  0.00     0.033 C 
ATOM     27  C   LIG d   1       5.886  -2.130  -3.557  0.00  0.00    -0.037 C 
ATOM     28  H   LIG d   1       6.601  -2.350  -2.777  0.00  0.00     0.061 H 
BRANCH  26  29
ATOM     29  C   LIG d   1       7.748  -1.262  -4.907  0.00  0.00    -0.033 C 
ATOM     30  H   LIG d   1       8.019  -0.300  -4.475  0.00  0.00     0.028 H 
ATOM     31  H   LIG d   1       8.337  -2.050  -4.436  0.00  0.00     0.028 H 
ATOM     32  H   LIG d   1       7.949  -1.250  -5.978  0.00  0.00     0.028 H 
ENDBRANCH  26  29
BRANCH  27  33
ATOM     33  C   LIG d   1       4.438  -2.509  -3.378  0.00  0.00     0.111 C 
ATOM     34  H   LIG d   1       3.898  -2.331  -4.308  0.00  0.00     0.074 H 
ATOM     35  H   LIG d   1       4.368  -3.565  -3.115  0.00  0.00     0.074 H 
BRANCH  33  36
ATOM     36  O   LIG d   1       3.864  -1.719  -2.335  0.00  0.00    -0.461 OA
BRANCH  36  37
ATOM     37  C   LIG d   1       3.260  -0.577  -2.699  0.00  0.00     0.304 C 
ATOM     38  O   LIG d   1       2.284  -0.608  -3.409  0.00  0.00    -0.251 OA
BRANCH  37  39
ATOM     39  C   LIG d   1       3.802   0.746  -2.221  0.00  0.00     0.033 C 
ATOM     40  H   LIG d   1       4.837   0.621  -1.902  0.00  0.00     0.034 H 
ATOM     41  H   LIG d   1       3.759   1.471  -3.034  0.00  0.00     0.034 H 
ATOM     42  H   LIG d   1       3.204   1.103  -1.383  0.00  0.00     0.034 H 
ENDBRANCH  37  39
ENDBRANCH  36  37
ENDBRANCH  33  36
ENDBRANCH  27  33
ENDBRANCH  24  26
ENDBRANCH  23  24
ENDBRANCH   1  23
BRANCH  15  43
ATOM     43  C   LIG d   1       5.371  -4.703  -7.068  0.00  0.00     0.039 C 
ATOM     44  C   LIG d   1       6.435  -4.837  -6.280  0.00  0.00    -0.088 C 
ATOM     45  H   LIG d   1       6.433  -5.574  -5.491  0.00  0.00     0.054 H 
ATOM     46  H   LIG d   1       7.302  -4.211  -6.432  0.00  0.00     0.054 H 
BRANCH  43  47
ATOM     47  C   LIG d   1       4.173  -5.518  -6.829  0.00  0.00     0.335 C 
ATOM     48  O   LIG d   1       3.453  -5.277  -5.880  0.00  0.00    -0.245 OA
BRANCH  47  49
ATOM     49  O   LIG d   1       3.869  -6.533  -7.665  0.00  0.00    -0.465 OA
BRANCH  49  50
ATOM     50  C   LIG d   1       4.463  -7.802  -7.386  0.00  0.00     0.082 C 
ATOM     51  H   LIG d   1       3.690  -8.503  -7.068  0.00  0.00     0.066 H 
ATOM     52  H   LIG d   1       4.949  -8.181  -8.284  0.00  0.00     0.066 H 
ATOM     53  H   LIG d   1       5.201  -7.690  -6.592  0.00  0.00     0.066 H 
ENDBRANCH  49  50
ENDBRANCH  47  49
ENDBRANCH  43  47
ENDBRANCH  15  43
BRANCH  13  54
ATOM     54  O   LIG d   1       2.994  -3.446  -7.993  0.00  0.00    -0.390 OA
ATOM     55  H   LIG d   1       2.768  -4.193  -7.422  0.00  0.00     0.210 HD
ENDBRANCH  13  54
BRANCH   4  56
ATOM     56  C   LIG d   1       4.884  -0.598 -10.977  0.00  0.00    -0.056 C 
ATOM     57  H   LIG d   1       4.013  -0.170 -11.471  0.00  0.00     0.024 H 
ATOM     58  H   LIG d   1       5.591   0.195 -10.733  0.00  0.00     0.024 H 
ATOM     59  H   LIG d   1       5.363  -1.318 -11.642  0.00  0.00     0.024 H 
ENDBRANCH   4  56
BRANCH   5  60
ATOM     60  O   LIG d   1       2.928  -0.938  -7.791  0.00  0.00    -0.391 OA
ATOM     61  H   LIG d   1       1.973  -0.960  -7.637  0.00  0.00     0.210 HD
ENDBRANCH   5  60
TORSDOF 15
ENDMDL
MODEL 5
REMARK VINA RESULT:      -5.1      1.731      6.116
REMARK  15 active torsions:
REMARK  status: ('A' for Active; 'I' for Inactive)
REMARK    1  A    between atoms: C_1  and  C_2 
REMARK    2  A    between atoms: C_2  and  C_9 
REMARK    3  A    between atoms: C_3  and  C_4 
REMARK    4  A    between atoms: C_4  and  O_5 
REMARK    5  A    between atoms: O_5  and  C_6 
REMARK    6  A    between atoms: C_6  and  C_8 
REMARK    7  A    between atoms: C_9  and  O_11 
REMARK    8  A    between atoms: O_11  and  C_12 
REMARK    9  A    between atoms: C_15  and  C_36 
REMARK   10  A    between atoms: C_16  and  O_35 
REMARK   11  A    between atoms: C_24  and  O_34 
REMARK   12  A    between atoms: C_26  and  C_28 
REMARK   13  A    between atoms: C_28  and  C_30 
REMARK   14  A    between atoms: C_30  and  O_32 
REMARK   15  A    between atoms: O_32  and  C_33 
ROOT
ATOM      1  C   LIG d   1       4.703  -0.870  -6.214  0.00  0.00     0.113 C 
ATOM      2  H   LIG d   1       4.967  -1.521  -5.355  0.00  0.00     0.074 H 
ATOM      3  C   LIG d   1       5.126  -1.580  -7.482  0.00  0.00    -0.006 C 
ATOM      4  C   LIG d   1       4.543  -1.027  -8.776  0.00  0.00     0.009 C 
ATOM      5  C   LIG d   1       5.424   0.079  -9.334  0.00  0.00     0.062 C 
ATOM      6  H   LIG d   1       6.419  -0.354  -9.542  0.00  0.00     0.060 H 
ATOM      7  C   LIG d   1       4.886   0.648 -10.644  0.00  0.00    -0.020 C 
ATOM      8  C   LIG d   1       3.480   1.213 -10.430  0.00  0.00     0.009 C 
ATOM      9  C   LIG d   1       2.609   0.114  -9.869  0.00  0.00     0.140 C 
ATOM     10  O   LIG d   1       1.547  -0.150 -10.388  0.00  0.00    -0.297 OA
ATOM     11  C   LIG d   1       3.080  -0.651  -8.653  0.00  0.00     0.052 C 
ATOM     12  H   LIG d   1       2.492  -1.597  -8.619  0.00  0.00     0.041 H 
ATOM     13  C   LIG d   1       2.741   0.134  -7.396  0.00  0.00     0.076 C 
ATOM     14  H   LIG d   1       1.645   0.243  -7.340  0.00  0.00     0.061 H 
ATOM     15  C   LIG d   1       3.198  -0.637  -6.160  0.00  0.00     0.054 C 
ATOM     16  H   LIG d   1       2.682  -1.600  -6.125  0.00  0.00     0.041 H 
ATOM     17  H   LIG d   1       6.225  -1.550  -7.560  0.00  0.00     0.031 H 
ATOM     18  H   LIG d   1       4.850  -2.643  -7.407  0.00  0.00     0.031 H 
ATOM     19  H   LIG d   1       5.545   1.457 -10.978  0.00  0.00     0.029 H 
ATOM     20  H   LIG d   1       4.864  -0.116 -11.418  0.00  0.00     0.029 H 
ATOM     21  H   LIG d   1       3.518   2.051  -9.736  0.00  0.00     0.034 H 
ATOM     22  H   LIG d   1       3.074   1.551 -11.385  0.00  0.00     0.034 H 
ENDROOT
BRANCH   1  23
ATOM     23  O   LIG d   1       5.410   0.356  -6.034  0.00  0.00    -0.457 OA
BRANCH  23  24
ATOM     24  C   LIG d   1       6.606   0.288  -5.417  0.00  0.00     0.335 C 
ATOM     25  O   LIG d   1       7.630   0.369  -6.067  0.00  0.00    -0.245 OA
BRANCH  24  26
ATOM     26  C   LIG d   1       6.673   0.115  -3.959  0.00  0.00     0.033 C 
ATOM     27  C   LIG d   1       7.071  -1.046  -3.444  0.00  0.00    -0.037 C 
ATOM     28  H   LIG d   1       7.032  -1.205  -2.376  0.00  0.00     0.061 H 
BRANCH  26  29
ATOM     29  C   LIG d   1       6.291   1.252  -3.047  0.00  0.00    -0.033 C 
ATOM     30  H   LIG d   1       7.095   1.986  -3.026  0.00  0.00     0.028 H 
ATOM     31  H   LIG d   1       5.379   1.723  -3.416  0.00  0.00     0.028 H 
ATOM     32  H   LIG d   1       6.121   0.870  -2.041  0.00  0.00     0.028 H 
ENDBRANCH  26  29
BRANCH  27  33
ATOM     33  C   LIG d   1       7.577  -2.139  -4.351  0.00  0.00     0.111 C 
ATOM     34  H   LIG d   1       7.475  -1.826  -5.389  0.00  0.00     0.074 H 
ATOM     35  H   LIG d   1       8.627  -2.335  -4.132  0.00  0.00     0.074 H 
BRANCH  33  36
ATOM     36  O   LIG d   1       6.814  -3.328  -4.134  0.00  0.00    -0.461 OA
BRANCH  36  37
ATOM     37  C   LIG d   1       6.433  -4.013  -5.223  0.00  0.00     0.304 C 
ATOM     38  O   LIG d   1       7.208  -4.180  -6.135  0.00  0.00    -0.251 OA
BRANCH  37  39
ATOM     39  C   LIG d   1       5.037  -4.574  -5.309  0.00  0.00     0.033 C 
ATOM     40  H   LIG d   1       4.407  -4.100  -4.556  0.00  0.00     0.034 H 
ATOM     41  H   LIG d   1       4.626  -4.378  -6.299  0.00  0.00     0.034 H 
ATOM     42  H   LIG d   1       5.066  -5.649  -5.134  0.00  0.00     0.034 H 
ENDBRANCH  37  39
ENDBRANCH  36  37
ENDBRANCH  33  36
ENDBRANCH  27  33
ENDBRANCH  24  26
ENDBRANCH  23  24
ENDBRANCH   1  23
BRANCH  15  43
ATOM     43  C   LIG d   1       2.851   0.150  -4.920  0.00  0.00     0.039 C 
ATOM     44  C   LIG d   1       2.391   1.394  -5.028  0.00  0.00    -0.088 C 
ATOM     45  H   LIG d   1       2.181   1.971  -4.141  0.00  0.00     0.054 H 
ATOM     46  H   LIG d   1       2.230   1.827  -6.004  0.00  0.00     0.054 H 
BRANCH  43  47
ATOM     47  C   LIG d   1       3.020  -0.458  -3.593  0.00  0.00     0.335 C 
ATOM     48  O   LIG d   1       3.007   0.240  -2.599  0.00  0.00    -0.245 OA
BRANCH  47  49
ATOM     49  O   LIG d   1       3.187  -1.791  -3.479  0.00  0.00    -0.465 OA
BRANCH  49  50
ATOM     50  C   LIG d   1       3.907  -2.259  -2.337  0.00  0.00     0.082 C 
ATOM     51  H   LIG d   1       3.755  -3.333  -2.225  0.00  0.00     0.066 H 
ATOM     52  H   LIG d   1       4.970  -2.054  -2.468  0.00  0.00     0.066 H 
ATOM     53  H   LIG d   1       3.546  -1.746  -1.445  0.00  0.00     0.066 H 
ENDBRANCH  49  50
ENDBRANCH  47  49
ENDBRANCH  43  47
ENDBRANCH  15  43
BRANCH  13  54
ATOM     54  O   LIG d   1       3.310   1.437  -7.414  0.00  0.00    -0.390 OA
ATOM     55  H   LIG d   1       2.928   2.042  -6.764  0.00  0.00     0.210 HD
ENDBRANCH  13  54
BRANCH   4  56
ATOM     56  C   LIG d   1       4.611  -2.202  -9.792  0.00  0.00    -0.056 C 
ATOM     57  H   LIG d   1       5.652  -2.476  -9.961  0.00  0.00     0.024 H 
ATOM     58  H   LIG d   1       4.069  -3.059  -9.392  0.00  0.00     0.024 H 
ATOM     59  H   LIG d   1       4.158  -1.894 -10.734  0.00  0.00     0.024 H 
ENDBRANCH   4  56
BRANCH   5  60
ATOM     60  O   LIG d   1       5.608   1.138  -8.397  0.00  0.00    -0.391 OA
ATOM     61  H   LIG d   1       5.241   0.955  -7.521  0.00  0.00     0.210 HD
ENDBRANCH   5  60
TORSDOF 15
ENDMDL
MODEL 6
REMARK VINA RESULT:      -4.9      1.770      6.144
REMARK  15 active torsions:
REMARK  status: ('A' for Active; 'I' for Inactive)
REMARK    1  A    between atoms: C_1  and  C_2 
REMARK    2  A    between atoms: C_2  and  C_9 
REMARK    3  A    between atoms: C_3  and  C_4 
REMARK    4  A    between atoms: C_4  and  O_5 
REMARK    5  A    between atoms: O_5  and  C_6 
REMARK    6  A    between atoms: C_6  and  C_8 
REMARK    7  A    between atoms: C_9  and  O_11 
REMARK    8  A    between atoms: O_11  and  C_12 
REMARK    9  A    between atoms: C_15  and  C_36 
REMARK   10  A    between atoms: C_16  and  O_35 
REMARK   11  A    between atoms: C_24  and  O_34 
REMARK   12  A    between atoms: C_26  and  C_28 
REMARK   13  A    between atoms: C_28  and  C_30 
REMARK   14  A    between atoms: C_30  and  O_32 
REMARK   15  A    between atoms: O_32  and  C_33 
ROOT
ATOM      1  C   LIG d   1       4.588  -0.843  -5.714  0.00  0.00     0.113 C 
ATOM      2  H   LIG d   1       4.810  -1.420  -4.793  0.00  0.00     0.074 H 
ATOM      3  C   LIG d   1       4.964  -1.701  -6.902  0.00  0.00    -0.006 C 
ATOM      4  C   LIG d   1       4.416  -1.244  -8.248  0.00  0.00     0.009 C 
ATOM      5  C   LIG d   1       5.365  -0.257  -8.909  0.00  0.00     0.062 C 
ATOM      6  H   LIG d   1       6.330  -0.771  -9.068  0.00  0.00     0.060 H 
ATOM      7  C   LIG d   1       4.863   0.211 -10.272  0.00  0.00    -0.020 C 
ATOM      8  C   LIG d   1       3.495   0.883 -10.123  0.00  0.00     0.009 C 
ATOM      9  C   LIG d   1       2.557  -0.098  -9.460  0.00  0.00     0.140 C 
ATOM     10  O   LIG d   1       1.480  -0.344  -9.956  0.00  0.00    -0.297 OA
ATOM     11  C   LIG d   1       2.979  -0.766  -8.172  0.00  0.00     0.052 C 
ATOM     12  H   LIG d   1       2.333  -1.665  -8.047  0.00  0.00     0.041 H 
ATOM     13  C   LIG d   1       2.692   0.160  -7.000  0.00  0.00     0.076 C 
ATOM     14  H   LIG d   1       1.605   0.343  -6.961  0.00  0.00     0.061 H 
ATOM     15  C   LIG d   1       3.101  -0.511  -5.691  0.00  0.00     0.054 C 
ATOM     16  H   LIG d   1       2.524  -1.431  -5.564  0.00  0.00     0.041 H 
ATOM     17  H   LIG d   1       6.062  -1.749  -6.977  0.00  0.00     0.031 H 
ATOM     18  H   LIG d   1       4.621  -2.732  -6.724  0.00  0.00     0.031 H 
ATOM     19  H   LIG d   1       5.571   0.940 -10.681  0.00  0.00     0.029 H 
ATOM     20  H   LIG d   1       4.792  -0.623 -10.966  0.00  0.00     0.029 H 
ATOM     21  H   LIG d   1       3.587   1.782  -9.516  0.00  0.00     0.034 H 
ATOM     22  H   LIG d   1       3.111   1.148 -11.108  0.00  0.00     0.034 H 
ENDROOT
BRANCH   1  23
ATOM     23  O   LIG d   1       5.371   0.348  -5.653  0.00  0.00    -0.457 OA
BRANCH  23  24
ATOM     24  C   LIG d   1       6.354   0.387  -4.732  0.00  0.00     0.335 C 
ATOM     25  O   LIG d   1       6.176   0.963  -3.676  0.00  0.00    -0.245 OA
BRANCH  24  26
ATOM     26  C   LIG d   1       7.642  -0.267  -5.004  0.00  0.00     0.033 C 
ATOM     27  C   LIG d   1       8.620   0.412  -5.598  0.00  0.00    -0.037 C 
ATOM     28  H   LIG d   1       9.532  -0.092  -5.883  0.00  0.00     0.061 H 
BRANCH  26  29
ATOM     29  C   LIG d   1       7.855  -1.705  -4.609  0.00  0.00    -0.033 C 
ATOM     30  H   LIG d   1       7.138  -2.336  -5.134  0.00  0.00     0.028 H 
ATOM     31  H   LIG d   1       8.868  -2.008  -4.877  0.00  0.00     0.028 H 
ATOM     32  H   LIG d   1       7.716  -1.812  -3.534  0.00  0.00     0.028 H 
ENDBRANCH  26  29
BRANCH  27  33
ATOM     33  C   LIG d   1       8.456   1.885  -5.876  0.00  0.00     0.111 C 
ATOM     34  H   LIG d   1       8.375   2.044  -6.951  0.00  0.00     0.074 H 
ATOM     35  H   LIG d   1       7.552   2.248  -5.386  0.00  0.00     0.074 H 
BRANCH  33  36
ATOM     36  O   LIG d   1       9.589   2.594  -5.373  0.00  0.00    -0.461 OA
BRANCH  36  37
ATOM     37  C   LIG d   1       9.762   2.599  -4.042  0.00  0.00     0.304 C 
ATOM     38  O   LIG d   1       8.851   2.917  -3.315  0.00  0.00    -0.251 OA
BRANCH  37  39
ATOM     39  C   LIG d   1      11.095   2.210  -3.454  0.00  0.00     0.033 C 
ATOM     40  H   LIG d   1      11.707   3.102  -3.319  0.00  0.00     0.034 H 
ATOM     41  H   LIG d   1      10.939   1.728  -2.489  0.00  0.00     0.034 H 
ATOM     42  H   LIG d   1      11.601   1.520  -4.128  0.00  0.00     0.034 H 
ENDBRANCH  37  39
ENDBRANCH  36  37
ENDBRANCH  33  36
ENDBRANCH  27  33
ENDBRANCH  24  26
ENDBRANCH  23  24
ENDBRANCH   1  23
BRANCH  15  43
ATOM     43  C   LIG d   1       2.805   0.416  -4.538  0.00  0.00     0.039 C 
ATOM     44  C   LIG d   1       2.389   1.658  -4.772  0.00  0.00    -0.088 C 
ATOM     45  H   LIG d   1       2.216   2.333  -3.948  0.00  0.00     0.054 H 
ATOM     46  H   LIG d   1       2.226   1.990  -5.786  0.00  0.00     0.054 H 
BRANCH  43  47
ATOM     47  C   LIG d   1       2.976  -0.054  -3.156  0.00  0.00     0.335 C 
ATOM     48  O   LIG d   1       3.192   0.744  -2.266  0.00  0.00    -0.245 OA
BRANCH  47  49
ATOM     49  O   LIG d   1       2.891  -1.370  -2.876  0.00  0.00    -0.465 OA
BRANCH  49  50
ATOM     50  C   LIG d   1       4.033  -1.979  -2.269  0.00  0.00     0.082 C 
ATOM     51  H   LIG d   1       3.755  -2.953  -1.867  0.00  0.00     0.066 H 
ATOM     52  H   LIG d   1       4.817  -2.105  -3.015  0.00  0.00     0.066 H 
ATOM     53  H   LIG d   1       4.397  -1.343  -1.462  0.00  0.00     0.066 H 
ENDBRANCH  49  50
ENDBRANCH  47  49
ENDBRANCH  43  47
ENDBRANCH  15  43
BRANCH  13  54
ATOM     54  O   LIG d   1       3.343   1.416  -7.145  0.00  0.00    -0.390 OA
ATOM     55  H   LIG d   1       3.864   1.498  -7.956  0.00  0.00     0.210 HD
ENDBRANCH  13  54
BRANCH   4  56
ATOM     56  C   LIG d   1       4.408  -2.517  -9.142  0.00  0.00    -0.056 C 
ATOM     57  H   LIG d   1       5.406  -2.681  -9.548  0.00  0.00     0.024 H 
ATOM     58  H   LIG d   1       4.113  -3.378  -8.544  0.00  0.00     0.024 H 
ATOM     59  H   LIG d   1       3.700  -2.382  -9.960  0.00  0.00     0.024 H 
ENDBRANCH   4  56
BRANCH   5  60
ATOM     60  O   LIG d   1       5.616   0.876  -8.081  0.00  0.00    -0.391 OA
ATOM     61  H   LIG d   1       4.816   1.295  -7.736  0.00  0.00     0.210 HD
ENDBRANCH   5  60
TORSDOF 15
ENDMDL
MODEL 7
REMARK VINA RESULT:      -4.9      1.821      5.944
REMARK  15 active torsions:
REMARK  status: ('A' for Active; 'I' for Inactive)
REMARK    1  A    between atoms: C_1  and  C_2 
REMARK    2  A    between atoms: C_2  and  C_9 
REMARK    3  A    between atoms: C_3  and  C_4 
REMARK    4  A    between atoms: C_4  and  O_5 
REMARK    5  A    between atoms: O_5  and  C_6 
REMARK    6  A    between atoms: C_6  and  C_8 
REMARK    7  A    between atoms: C_9  and  O_11 
REMARK    8  A    between atoms: O_11  and  C_12 
REMARK    9  A    between atoms: C_15  and  C_36 
REMARK   10  A    between atoms: C_16  and  O_35 
REMARK   11  A    between atoms: C_24  and  O_34 
REMARK   12  A    between atoms: C_26  and  C_28 
REMARK   13  A    between atoms: C_28  and  C_30 
REMARK   14  A    between atoms: C_30  and  O_32 
REMARK   15  A    between atoms: O_32  and  C_33 
ROOT
ATOM      1  C   LIG d   1       5.947  -0.945  -6.835  0.00  0.00     0.113 C 
ATOM      2  H   LIG d   1       6.690  -1.620  -6.363  0.00  0.00     0.074 H 
ATOM      3  C   LIG d   1       6.035  -1.134  -8.334  0.00  0.00    -0.006 C 
ATOM      4  C   LIG d   1       4.871  -0.571  -9.141  0.00  0.00     0.009 C 
ATOM      5  C   LIG d   1       5.124   0.883  -9.507  0.00  0.00     0.062 C 
ATOM      6  H   LIG d   1       6.042   0.923 -10.120  0.00  0.00     0.060 H 
ATOM      7  C   LIG d   1       3.990   1.481 -10.335  0.00  0.00    -0.020 C 
ATOM      8  C   LIG d   1       2.675   1.400  -9.556  0.00  0.00     0.009 C 
ATOM      9  C   LIG d   1       2.431  -0.045  -9.189  0.00  0.00     0.140 C 
ATOM     10  O   LIG d   1       1.371  -0.571  -9.448  0.00  0.00    -0.297 OA
ATOM     11  C   LIG d   1       3.524  -0.823  -8.493  0.00  0.00     0.052 C 
ATOM     12  H   LIG d   1       3.286  -1.903  -8.624  0.00  0.00     0.041 H 
ATOM     13  C   LIG d   1       3.486  -0.532  -7.001  0.00  0.00     0.076 C 
ATOM     14  H   LIG d   1       2.512  -0.867  -6.608  0.00  0.00     0.061 H 
ATOM     15  C   LIG d   1       4.577  -1.325  -6.286  0.00  0.00     0.054 C 
ATOM     16  H   LIG d   1       4.406  -2.393  -6.442  0.00  0.00     0.041 H 
ATOM     17  H   LIG d   1       6.964  -0.669  -8.700  0.00  0.00     0.031 H 
ATOM     18  H   LIG d   1       6.118  -2.209  -8.556  0.00  0.00     0.031 H 
ATOM     19  H   LIG d   1       4.215   2.534 -10.540  0.00  0.00     0.029 H 
ATOM     20  H   LIG d   1       3.889   0.962 -11.285  0.00  0.00     0.029 H 
ATOM     21  H   LIG d   1       2.738   2.010  -8.656  0.00  0.00     0.034 H 
ATOM     22  H   LIG d   1       1.858   1.761 -10.182  0.00  0.00     0.034 H 
ENDROOT
BRANCH   1  23
ATOM     23  O   LIG d   1       6.294   0.384  -6.449  0.00  0.00    -0.457 OA
BRANCH  23  24
ATOM     24  C   LIG d   1       7.606   0.685  -6.404  0.00  0.00     0.335 C 
ATOM     25  O   LIG d   1       8.111   1.339  -7.296  0.00  0.00    -0.245 OA
BRANCH  24  26
ATOM     26  C   LIG d   1       8.428   0.224  -5.276  0.00  0.00     0.033 C 
ATOM     27  C   LIG d   1       8.716   1.057  -4.279  0.00  0.00    -0.037 C 
ATOM     28  H   LIG d   1       9.396   0.750  -3.497  0.00  0.00     0.061 H 
BRANCH  26  29
ATOM     29  C   LIG d   1       8.944  -1.191  -5.247  0.00  0.00    -0.033 C 
ATOM     30  H   LIG d   1       9.908  -1.216  -4.741  0.00  0.00     0.028 H 
ATOM     31  H   LIG d   1       8.236  -1.825  -4.711  0.00  0.00     0.028 H 
ATOM     32  H   LIG d   1       9.059  -1.557  -6.267  0.00  0.00     0.028 H 
ENDBRANCH  26  29
BRANCH  27  33
ATOM     33  C   LIG d   1       8.096   2.431  -4.240  0.00  0.00     0.111 C 
ATOM     34  H   LIG d   1       7.638   2.650  -5.204  0.00  0.00     0.074 H 
ATOM     35  H   LIG d   1       7.334   2.463  -3.460  0.00  0.00     0.074 H 
BRANCH  33  36
ATOM     36  O   LIG d   1       9.106   3.402  -3.960  0.00  0.00    -0.461 OA
BRANCH  36  37
ATOM     37  C   LIG d   1       9.357   4.311  -4.915  0.00  0.00     0.304 C 
ATOM     38  O   LIG d   1       9.692   3.952  -6.018  0.00  0.00    -0.251 OA
BRANCH  37  39
ATOM     39  C   LIG d   1       9.222   5.781  -4.609  0.00  0.00     0.033 C 
ATOM     40  H   LIG d   1       9.881   6.042  -3.781  0.00  0.00     0.034 H 
ATOM     41  H   LIG d   1       9.498   6.362  -5.489  0.00  0.00     0.034 H 
ATOM     42  H   LIG d   1       8.190   6.002  -4.337  0.00  0.00     0.034 H 
ENDBRANCH  37  39
ENDBRANCH  36  37
ENDBRANCH  33  36
ENDBRANCH  27  33
ENDBRANCH  24  26
ENDBRANCH  23  24
ENDBRANCH   1  23
BRANCH  15  43
ATOM     43  C   LIG d   1       4.524  -1.032  -4.807  0.00  0.00     0.039 C 
ATOM     44  C   LIG d   1       5.405  -1.597  -3.985  0.00  0.00    -0.088 C 
ATOM     45  H   LIG d   1       5.343  -1.419  -2.922  0.00  0.00     0.054 H 
ATOM     46  H   LIG d   1       6.181  -2.235  -4.381  0.00  0.00     0.054 H 
BRANCH  43  47
ATOM     47  C   LIG d   1       3.501  -0.122  -4.275  0.00  0.00     0.335 C 
ATOM     48  O   LIG d   1       2.355  -0.505  -4.146  0.00  0.00    -0.245 OA
BRANCH  47  49
ATOM     49  O   LIG d   1       3.833   1.138  -3.927  0.00  0.00    -0.465 OA
BRANCH  49  50
ATOM     50  C   LIG d   1       3.782   1.462  -2.537  0.00  0.00     0.082 C 
ATOM     51  H   LIG d   1       4.430   0.783  -1.981  0.00  0.00     0.066 H 
ATOM     52  H   LIG d   1       4.119   2.487  -2.389  0.00  0.00     0.066 H 
ATOM     53  H   LIG d   1       2.758   1.360  -2.178  0.00  0.00     0.066 H 
ENDBRANCH  49  50
ENDBRANCH  47  49
ENDBRANCH  43  47
ENDBRANCH  15  43
BRANCH  13  54
ATOM     54  O   LIG d   1       3.614   0.858  -6.728  0.00  0.00    -0.390 OA
ATOM     55  H   LIG d   1       3.467   1.092  -5.801  0.00  0.00     0.210 HD
ENDBRANCH  13  54
BRANCH   4  56
ATOM     56  C   LIG d   1       4.873  -1.370 -10.475  0.00  0.00    -0.056 C 
ATOM     57  H   LIG d   1       4.806  -2.436 -10.261  0.00  0.00     0.024 H 
ATOM     58  H   LIG d   1       4.020  -1.066 -11.081  0.00  0.00     0.024 H 
ATOM     59  H   LIG d   1       5.796  -1.165 -11.019  0.00  0.00     0.024 H 
ENDBRANCH   4  56
BRANCH   5  60
ATOM     60  O   LIG d   1       5.346   1.692  -8.354  0.00  0.00    -0.391 OA
ATOM     61  H   LIG d   1       5.635   2.593  -8.555  0.00  0.00     0.210 HD
ENDBRANCH   5  60
TORSDOF 15
ENDMDL
MODEL 8
REMARK VINA RESULT:      -4.9      2.136      3.672
REMARK  15 active torsions:
REMARK  status: ('A' for Active; 'I' for Inactive)
REMARK    1  A    between atoms: C_1  and  C_2 
REMARK    2  A    between atoms: C_2  and  C_9 
REMARK    3  A    between atoms: C_3  and  C_4 
REMARK    4  A    between atoms: C_4  and  O_5 
REMARK    5  A    between atoms: O_5  and  C_6 
REMARK    6  A    between atoms: C_6  and  C_8 
REMARK    7  A    between atoms: C_9  and  O_11 
REMARK    8  A    between atoms: O_11  and  C_12 
REMARK    9  A    between atoms: C_15  and  C_36 
REMARK   10  A    between atoms: C_16  and  O_35 
REMARK   11  A    between atoms: C_24  and  O_34 
REMARK   12  A    between atoms: C_26  and  C_28 
REMARK   13  A    between atoms: C_28  and  C_30 
REMARK   14  A    between atoms: C_30  and  O_32 
REMARK   15  A    between atoms: O_32  and  C_33 
ROOT
ATOM      1  C   LIG d   1       5.867  -0.941  -6.285  0.00  0.00     0.113 C 
ATOM      2  H   LIG d   1       5.941  -0.941  -7.392  0.00  0.00     0.074 H 
ATOM      3  C   LIG d   1       4.591  -0.219  -5.906  0.00  0.00    -0.006 C 
ATOM      4  C   LIG d   1       4.123  -0.414  -4.469  0.00  0.00     0.009 C 
ATOM      5  C   LIG d   1       4.752   0.624  -3.552  0.00  0.00     0.062 C 
ATOM      6  H   LIG d   1       4.434   1.622  -3.904  0.00  0.00     0.060 H 
ATOM      7  C   LIG d   1       4.293   0.478  -2.104  0.00  0.00    -0.020 C 
ATOM      8  C   LIG d   1       4.656  -0.913  -1.579  0.00  0.00     0.009 C 
ATOM      9  C   LIG d   1       4.036  -1.941  -2.495  0.00  0.00     0.140 C 
ATOM     10  O   LIG d   1       3.355  -2.834  -2.041  0.00  0.00    -0.297 OA
ATOM     11  C   LIG d   1       4.276  -1.842  -3.984  0.00  0.00     0.052 C 
ATOM     12  H   LIG d   1       3.486  -2.451  -4.480  0.00  0.00     0.041 H 
ATOM     13  C   LIG d   1       5.614  -2.477  -4.328  0.00  0.00     0.076 C 
ATOM     14  H   LIG d   1       5.573  -3.544  -4.049  0.00  0.00     0.061 H 
ATOM     15  C   LIG d   1       5.860  -2.396  -5.832  0.00  0.00     0.054 C 
ATOM     16  H   LIG d   1       5.068  -2.937  -6.356  0.00  0.00     0.041 H 
ATOM     17  H   LIG d   1       4.725   0.861  -6.080  0.00  0.00     0.031 H 
ATOM     18  H   LIG d   1       3.782  -0.543  -6.577  0.00  0.00     0.031 H 
ATOM     19  H   LIG d   1       4.802   1.230  -1.491  0.00  0.00     0.029 H 
ATOM     20  H   LIG d   1       3.221   0.637  -2.020  0.00  0.00     0.029 H 
ATOM     21  H   LIG d   1       5.738  -1.033  -1.560  0.00  0.00     0.034 H 
ATOM     22  H   LIG d   1       4.261  -1.036  -0.570  0.00  0.00     0.034 H 
ENDROOT
BRANCH   1  23
ATOM     23  O   LIG d   1       7.023  -0.265  -5.794  0.00  0.00    -0.457 OA
BRANCH  23  24
ATOM     24  C   LIG d   1       7.531   0.717  -6.564  0.00  0.00     0.335 C 
ATOM     25  O   LIG d   1       7.596   1.853  -6.136  0.00  0.00    -0.245 OA
BRANCH  24  26
ATOM     26  C   LIG d   1       8.006   0.415  -7.922  0.00  0.00     0.033 C 
ATOM     27  C   LIG d   1       7.305   0.821  -8.978  0.00  0.00    -0.037 C 
ATOM     28  H   LIG d   1       7.602   0.520  -9.972  0.00  0.00     0.061 H 
BRANCH  26  29
ATOM     29  C   LIG d   1       9.287  -0.353  -8.119  0.00  0.00    -0.033 C 
ATOM     30  H   LIG d   1       9.223  -1.306  -7.594  0.00  0.00     0.028 H 
ATOM     31  H   LIG d   1       9.441  -0.535  -9.183  0.00  0.00     0.028 H 
ATOM     32  H   LIG d   1      10.122   0.224  -7.723  0.00  0.00     0.028 H 
ENDBRANCH  26  29
BRANCH  27  33
ATOM     33  C   LIG d   1       6.094   1.699  -8.787  0.00  0.00     0.111 C 
ATOM     34  H   LIG d   1       5.888   1.808  -7.723  0.00  0.00     0.074 H 
ATOM     35  H   LIG d   1       6.286   2.681  -9.222  0.00  0.00     0.074 H 
BRANCH  33  36
ATOM     36  O   LIG d   1       4.967   1.104  -9.433  0.00  0.00    -0.461 OA
BRANCH  36  37
ATOM     37  C   LIG d   1       3.752   1.518  -9.041  0.00  0.00     0.304 C 
ATOM     38  O   LIG d   1       3.614   2.619  -8.564  0.00  0.00    -0.251 OA
BRANCH  37  39
ATOM     39  C   LIG d   1       2.561   0.608  -9.196  0.00  0.00     0.033 C 
ATOM     40  H   LIG d   1       2.880  -0.429  -9.094  0.00  0.00     0.034 H 
ATOM     41  H   LIG d   1       1.825   0.838  -8.425  0.00  0.00     0.034 H 
ATOM     42  H   LIG d   1       2.115   0.757 -10.179  0.00  0.00     0.034 H 
ENDBRANCH  37  39
ENDBRANCH  36  37
ENDBRANCH  33  36
ENDBRANCH  27  33
ENDBRANCH  24  26
ENDBRANCH  23  24
ENDBRANCH   1  23
BRANCH  15  43
ATOM     43  C   LIG d   1       7.188  -3.035  -6.159  0.00  0.00     0.039 C 
ATOM     44  C   LIG d   1       7.472  -3.371  -7.415  0.00  0.00    -0.088 C 
ATOM     45  H   LIG d   1       8.405  -3.864  -7.643  0.00  0.00     0.054 H 
ATOM     46  H   LIG d   1       6.769  -3.153  -8.205  0.00  0.00     0.054 H 
BRANCH  43  47
ATOM     47  C   LIG d   1       8.166  -3.283  -5.092  0.00  0.00     0.335 C 
ATOM     48  O   LIG d   1       9.035  -2.466  -4.862  0.00  0.00    -0.245 OA
BRANCH  47  49
ATOM     49  O   LIG d   1       8.099  -4.418  -4.366  0.00  0.00    -0.465 OA
BRANCH  49  50
ATOM     50  C   LIG d   1       9.148  -4.648  -3.424  0.00  0.00     0.082 C 
ATOM     51  H   LIG d   1       8.843  -5.426  -2.723  0.00  0.00     0.066 H 
ATOM     52  H   LIG d   1      10.047  -4.966  -3.951  0.00  0.00     0.066 H 
ATOM     53  H   LIG d   1       9.353  -3.728  -2.877  0.00  0.00     0.066 H 
ENDBRANCH  49  50
ENDBRANCH  47  49
ENDBRANCH  43  47
ENDBRANCH  15  43
BRANCH  13  54
ATOM     54  O   LIG d   1       6.686  -1.877  -3.610  0.00  0.00    -0.390 OA
ATOM     55  H   LIG d   1       6.424  -1.112  -3.080  0.00  0.00     0.210 HD
ENDBRANCH  13  54
BRANCH   4  56
ATOM     56  C   LIG d   1       2.597  -0.118  -4.491  0.00  0.00    -0.056 C 
ATOM     57  H   LIG d   1       2.371   0.563  -5.310  0.00  0.00     0.024 H 
ATOM     58  H   LIG d   1       2.049  -1.049  -4.630  0.00  0.00     0.024 H 
ATOM     59  H   LIG d   1       2.302   0.339  -3.546  0.00  0.00     0.024 H 
ENDBRANCH   4  56
BRANCH   5  60
ATOM     60  O   LIG d   1       6.177   0.588  -3.605  0.00  0.00    -0.391 OA
ATOM     61  H   LIG d   1       6.537   0.624  -4.501  0.00  0.00     0.210 HD
ENDBRANCH   5  60
TORSDOF 15
ENDMDL
MODEL 9
REMARK VINA RESULT:      -4.9      1.789      5.865
REMARK  15 active torsions:
REMARK  status: ('A' for Active; 'I' for Inactive)
REMARK    1  A    between atoms: C_1  and  C_2 
REMARK    2  A    between atoms: C_2  and  C_9 
REMARK    3  A    between atoms: C_3  and  C_4 
REMARK    4  A    between atoms: C_4  and  O_5 
REMARK    5  A    between atoms: O_5  and  C_6 
REMARK    6  A    between atoms: C_6  and  C_8 
REMARK    7  A    between atoms: C_9  and  O_11 
REMARK    8  A    between atoms: O_11  and  C_12 
REMARK    9  A    between atoms: C_15  and  C_36 
REMARK   10  A    between atoms: C_16  and  O_35 
REMARK   11  A    between atoms: C_24  and  O_34 
REMARK   12  A    between atoms: C_26  and  C_28 
REMARK   13  A    between atoms: C_28  and  C_30 
REMARK   14  A    between atoms: C_30  and  O_32 
REMARK   15  A    between atoms: O_32  and  C_33 
ROOT
ATOM      1  C   LIG d   1       6.312  -1.128  -7.699  0.00  0.00     0.113 C 
ATOM      2  H   LIG d   1       7.158  -1.827  -7.536  0.00  0.00     0.074 H 
ATOM      3  C   LIG d   1       6.283  -0.770  -9.169  0.00  0.00    -0.006 C 
ATOM      4  C   LIG d   1       5.001  -0.111  -9.664  0.00  0.00     0.009 C 
ATOM      5  C   LIG d   1       5.073   1.399  -9.498  0.00  0.00     0.062 C 
ATOM      6  H   LIG d   1       5.924   1.765 -10.101  0.00  0.00     0.060 H 
ATOM      7  C   LIG d   1       3.815   2.101 -10.002  0.00  0.00    -0.020 C 
ATOM      8  C   LIG d   1       2.590   1.589  -9.240  0.00  0.00     0.009 C 
ATOM      9  C   LIG d   1       2.526   0.089  -9.401  0.00  0.00     0.140 C 
ATOM     10  O   LIG d   1       1.505  -0.442  -9.780  0.00  0.00    -0.297 OA
ATOM     11  C   LIG d   1       3.749  -0.739  -9.084  0.00  0.00     0.052 C 
ATOM     12  H   LIG d   1       3.609  -1.727  -9.580  0.00  0.00     0.041 H 
ATOM     13  C   LIG d   1       3.817  -0.995  -7.587  0.00  0.00     0.076 C 
ATOM     14  H   LIG d   1       2.920  -1.566  -7.292  0.00  0.00     0.061 H 
ATOM     15  C   LIG d   1       5.041  -1.844  -7.256  0.00  0.00     0.054 C 
ATOM     16  H   LIG d   1       4.964  -2.804  -7.775  0.00  0.00     0.041 H 
ATOM     17  H   LIG d   1       7.123  -0.094  -9.390  0.00  0.00     0.031 H 
ATOM     18  H   LIG d   1       6.452  -1.680  -9.764  0.00  0.00     0.031 H 
ATOM     19  H   LIG d   1       3.914   3.178  -9.828  0.00  0.00     0.029 H 
ATOM     20  H   LIG d   1       3.682   1.939 -11.069  0.00  0.00     0.029 H 
ATOM     21  H   LIG d   1       2.673   1.849  -8.186  0.00  0.00     0.034 H 
ATOM     22  H   LIG d   1       1.688   2.041  -9.655  0.00  0.00     0.034 H 
ENDROOT
BRANCH   1  23
ATOM     23  O   LIG d   1       6.557   0.014  -6.881  0.00  0.00    -0.457 OA
BRANCH  23  24
ATOM     24  C   LIG d   1       7.829   0.221  -6.486  0.00  0.00     0.335 C 
ATOM     25  O   LIG d   1       8.622  -0.700  -6.480  0.00  0.00    -0.245 OA
BRANCH  24  26
ATOM     26  C   LIG d   1       8.257   1.561  -6.060  0.00  0.00     0.033 C 
ATOM     27  C   LIG d   1       7.971   1.993  -4.834  0.00  0.00    -0.037 C 
ATOM     28  H   LIG d   1       8.202   3.010  -4.552  0.00  0.00     0.061 H 
BRANCH  26  29
ATOM     29  C   LIG d   1       9.020   2.446  -7.012  0.00  0.00    -0.033 C 
ATOM     30  H   LIG d   1      10.052   2.538  -6.673  0.00  0.00     0.028 H 
ATOM     31  H   LIG d   1       9.003   2.006  -8.009  0.00  0.00     0.028 H 
ATOM     32  H   LIG d   1       8.558   3.432  -7.041  0.00  0.00     0.028 H 
ENDBRANCH  26  29
BRANCH  27  33
ATOM     33  C   LIG d   1       7.323   1.064  -3.839  0.00  0.00     0.111 C 
ATOM     34  H   LIG d   1       7.003   0.154  -4.347  0.00  0.00     0.074 H 
ATOM     35  H   LIG d   1       8.041   0.811  -3.058  0.00  0.00     0.074 H 
BRANCH  33  36
ATOM     36  O   LIG d   1       6.190   1.708  -3.255  0.00  0.00    -0.461 OA
BRANCH  36  37
ATOM     37  C   LIG d   1       5.291   0.921  -2.643  0.00  0.00     0.304 C 
ATOM     38  O   LIG d   1       5.595  -0.200  -2.311  0.00  0.00    -0.251 OA
BRANCH  37  39
ATOM     39  C   LIG d   1       3.900   1.436  -2.372  0.00  0.00     0.033 C 
ATOM     40  H   LIG d   1       3.910   2.526  -2.372  0.00  0.00     0.034 H 
ATOM     41  H   LIG d   1       3.223   1.079  -3.148  0.00  0.00     0.034 H 
ATOM     42  H   LIG d   1       3.563   1.075  -1.400  0.00  0.00     0.034 H 
ENDBRANCH  37  39
ENDBRANCH  36  37
ENDBRANCH  33  36
ENDBRANCH  27  33
ENDBRANCH  24  26
ENDBRANCH  23  24
ENDBRANCH   1  23
BRANCH  15  43
ATOM     43  C   LIG d   1       5.093  -2.095  -5.769  0.00  0.00     0.039 C 
ATOM     44  C   LIG d   1       4.151  -1.590  -4.976  0.00  0.00    -0.088 C 
ATOM     45  H   LIG d   1       4.209  -1.735  -3.908  0.00  0.00     0.054 H 
ATOM     46  H   LIG d   1       3.329  -1.033  -5.401  0.00  0.00     0.054 H 
BRANCH  43  47
ATOM     47  C   LIG d   1       6.182  -2.898  -5.197  0.00  0.00     0.335 C 
ATOM     48  O   LIG d   1       6.417  -4.005  -5.638  0.00  0.00    -0.245 OA
BRANCH  47  49
ATOM     49  O   LIG d   1       6.923  -2.405  -4.183  0.00  0.00    -0.465 OA
BRANCH  49  50
ATOM     50  C   LIG d   1       8.150  -3.075  -3.891  0.00  0.00     0.082 C 
ATOM     51  H   LIG d   1       8.338  -3.836  -4.650  0.00  0.00     0.066 H 
ATOM     52  H   LIG d   1       8.967  -2.355  -3.890  0.00  0.00     0.066 H 
ATOM     53  H   LIG d   1       8.081  -3.548  -2.912  0.00  0.00     0.066 H 
ENDBRANCH  49  50
ENDBRANCH  47  49
ENDBRANCH  43  47
ENDBRANCH  15  43
BRANCH  13  54
ATOM     54  O   LIG d   1       3.830   0.216  -6.842  0.00  0.00    -0.390 OA
ATOM     55  H   LIG d   1       4.012   1.003  -7.373  0.00  0.00     0.210 HD
ENDBRANCH  13  54
BRANCH   4  56
ATOM     56  C   LIG d   1       4.962  -0.387 -11.194  0.00  0.00    -0.056 C 
ATOM     57  H   LIG d   1       5.811   0.101 -11.672  0.00  0.00     0.024 H 
ATOM     58  H   LIG d   1       5.013  -1.461 -11.370  0.00  0.00     0.024 H 
ATOM     59  H   LIG d   1       4.035   0.007 -11.610  0.00  0.00     0.024 H 
ENDBRANCH   4  56
BRANCH   5  60
ATOM     60  O   LIG d   1       5.317   1.775  -8.145  0.00  0.00    -0.391 OA
ATOM     61  H   LIG d   1       6.030   1.278  -7.722  0.00  0.00     0.210 HD
ENDBRANCH   5  60
TORSDOF 15
ENDMDL
MODEL 10
REMARK VINA RESULT:      -4.8      1.874      6.171
REMARK  15 active torsions:
REMARK  status: ('A' for Active; 'I' for Inactive)
REMARK    1  A    between atoms: C_1  and  C_2 
REMARK    2  A    between atoms: C_2  and  C_9 
REMARK    3  A    between atoms: C_3  and  C_4 
REMARK    4  A    between atoms: C_4  and  O_5 
REMARK    5  A    between atoms: O_5  and  C_6 
REMARK    6  A    between atoms: C_6  and  C_8 
REMARK    7  A    between atoms: C_9  and  O_11 
REMARK    8  A    between atoms: O_11  and  C_12 
REMARK    9  A    between atoms: C_15  and  C_36 
REMARK   10  A    between atoms: C_16  and  O_35 
REMARK   11  A    between atoms: C_24  and  O_34 
REMARK   12  A    between atoms: C_26  and  C_28 
REMARK   13  A    between atoms: C_28  and  C_30 
REMARK   14  A    between atoms: C_30  and  O_32 
REMARK   15  A    between atoms: O_32  and  C_33 
ROOT
ATOM      1  C   LIG d   1       5.640  -1.114  -6.489  0.00  0.00     0.113 C 
ATOM      2  H   LIG d   1       6.534  -0.933  -5.857  0.00  0.00     0.074 H 
ATOM      3  C   LIG d   1       5.516   0.040  -7.460  0.00  0.00    -0.006 C 
ATOM      4  C   LIG d   1       4.575  -0.184  -8.638  0.00  0.00     0.009 C 
ATOM      5  C   LIG d   1       3.155   0.223  -8.277  0.00  0.00     0.062 C 
ATOM      6  H   LIG d   1       3.166   1.298  -8.022  0.00  0.00     0.060 H 
ATOM      7  C   LIG d   1       2.182   0.034  -9.437  0.00  0.00    -0.020 C 
ATOM      8  C   LIG d   1       2.168  -1.433  -9.873  0.00  0.00     0.009 C 
ATOM      9  C   LIG d   1       3.581  -1.835 -10.224  0.00  0.00     0.140 C 
ATOM     10  O   LIG d   1       3.820  -2.362 -11.289  0.00  0.00    -0.297 OA
ATOM     11  C   LIG d   1       4.690  -1.574  -9.232  0.00  0.00     0.052 C 
ATOM     12  H   LIG d   1       5.648  -1.618  -9.798  0.00  0.00     0.041 H 
ATOM     13  C   LIG d   1       4.725  -2.691  -8.201  0.00  0.00     0.076 C 
ATOM     14  H   LIG d   1       4.938  -3.639  -8.724  0.00  0.00     0.061 H 
ATOM     15  C   LIG d   1       5.852  -2.445  -7.201  0.00  0.00     0.054 C 
ATOM     16  H   LIG d   1       6.807  -2.425  -7.733  0.00  0.00     0.041 H 
ATOM     17  H   LIG d   1       5.175   0.933  -6.913  0.00  0.00     0.031 H 
ATOM     18  H   LIG d   1       6.513   0.282  -7.859  0.00  0.00     0.031 H 
ATOM     19  H   LIG d   1       1.176   0.314  -9.107  0.00  0.00     0.029 H 
ATOM     20  H   LIG d   1       2.454   0.668 -10.278  0.00  0.00     0.029 H 
ATOM     21  H   LIG d   1       1.791  -2.057  -9.066  0.00  0.00     0.034 H 
ATOM     22  H   LIG d   1       1.527  -1.546 -10.749  0.00  0.00     0.034 H 
ENDROOT
BRANCH   1  23
ATOM     23  O   LIG d   1       4.521  -1.187  -5.608  0.00  0.00    -0.457 OA
BRANCH  23  24
ATOM     24  C   LIG d   1       4.535  -0.376  -4.532  0.00  0.00     0.335 C 
ATOM     25  O   LIG d   1       3.935   0.682  -4.560  0.00  0.00    -0.245 OA
BRANCH  24  26
ATOM     26  C   LIG d   1       5.276  -0.769  -3.325  0.00  0.00     0.033 C 
ATOM     27  C   LIG d   1       6.526  -0.350  -3.146  0.00  0.00    -0.037 C 
ATOM     28  H   LIG d   1       7.103  -0.713  -2.308  0.00  0.00     0.061 H 
BRANCH  26  29
ATOM     29  C   LIG d   1       4.619  -1.645  -2.290  0.00  0.00    -0.033 C 
ATOM     30  H   LIG d   1       3.598  -1.866  -2.597  0.00  0.00     0.028 H 
ATOM     31  H   LIG d   1       5.179  -2.577  -2.196  0.00  0.00     0.028 H 
ATOM     32  H   LIG d   1       4.608  -1.129  -1.331  0.00  0.00     0.028 H 
ENDBRANCH  26  29
BRANCH  27  33
ATOM     33  C   LIG d   1       7.139   0.630  -4.114  0.00  0.00     0.111 C 
ATOM     34  H   LIG d   1       7.992   0.167  -4.609  0.00  0.00     0.074 H 
ATOM     35  H   LIG d   1       6.398   0.916  -4.860  0.00  0.00     0.074 H 
BRANCH  33  36
ATOM     36  O   LIG d   1       7.574   1.792  -3.404  0.00  0.00    -0.461 OA
BRANCH  36  37
ATOM     37  C   LIG d   1       8.717   2.363  -3.813  0.00  0.00     0.304 C 
ATOM     38  O   LIG d   1       9.712   2.279  -3.134  0.00  0.00    -0.251 OA
BRANCH  37  39
ATOM     39  C   LIG d   1       8.758   3.112  -5.121  0.00  0.00     0.033 C 
ATOM     40  H   LIG d   1       8.991   2.418  -5.930  0.00  0.00     0.034 H 
ATOM     41  H   LIG d   1       7.788   3.571  -5.307  0.00  0.00     0.034 H 
ATOM     42  H   LIG d   1       9.524   3.885  -5.073  0.00  0.00     0.034 H 
ENDBRANCH  37  39
ENDBRANCH  36  37
ENDBRANCH  33  36
ENDBRANCH  27  33
ENDBRANCH  24  26
ENDBRANCH  23  24
ENDBRANCH   1  23
BRANCH  15  43
ATOM     43  C   LIG d   1       5.879  -3.564  -6.189  0.00  0.00     0.039 C 
ATOM     44  C   LIG d   1       6.751  -3.530  -5.183  0.00  0.00    -0.088 C 
ATOM     45  H   LIG d   1       6.797  -4.349  -4.482  0.00  0.00     0.054 H 
ATOM     46  H   LIG d   1       7.412  -2.684  -5.071  0.00  0.00     0.054 H 
BRANCH  43  47
ATOM     47  C   LIG d   1       4.943  -4.689  -6.312  0.00  0.00     0.335 C 
ATOM     48  O   LIG d   1       4.021  -4.802  -5.527  0.00  0.00    -0.245 OA
BRANCH  47  49
ATOM     49  O   LIG d   1       5.104  -5.595  -7.297  0.00  0.00    -0.465 OA
BRANCH  49  50
ATOM     50  C   LIG d   1       6.037  -6.651  -7.060  0.00  0.00     0.082 C 
ATOM     51  H   LIG d   1       6.780  -6.323  -6.333  0.00  0.00     0.066 H 
ATOM     52  H   LIG d   1       5.509  -7.522  -6.672  0.00  0.00     0.066 H 
ATOM     53  H   LIG d   1       6.533  -6.913  -7.994  0.00  0.00     0.066 H 
ENDBRANCH  49  50
ENDBRANCH  47  49
ENDBRANCH  43  47
ENDBRANCH  15  43
BRANCH  13  54
ATOM     54  O   LIG d   1       3.479  -2.832  -7.529  0.00  0.00    -0.390 OA
ATOM     55  H   LIG d   1       2.787  -3.243  -8.066  0.00  0.00     0.210 HD
ENDBRANCH  13  54
BRANCH   4  56
ATOM     56  C   LIG d   1       5.053   0.805  -9.738  0.00  0.00    -0.056 C 
ATOM     57  H   LIG d   1       5.905   0.378 -10.265  0.00  0.00     0.024 H 
ATOM     58  H   LIG d   1       4.241   0.983 -10.443  0.00  0.00     0.024 H 
ATOM     59  H   LIG d   1       5.346   1.748  -9.276  0.00  0.00     0.024 H 
ENDBRANCH   4  56
BRANCH   5  60
ATOM     60  O   LIG d   1       2.674  -0.481  -7.134  0.00  0.00    -0.391 OA
ATOM     61  H   LIG d   1       2.024   0.013  -6.614  0.00  0.00     0.210 HD
ENDBRANCH   5  60
TORSDOF 15
ENDMDL
