MODEL 1
REMARK VINA RESULT:      -6.9      0.000      0.000
REMARK  10 active torsions:
REMARK  status: ('A' for Active; 'I' for Inactive)
REMARK    1  A    between atoms: CD1_1  and  CG_2 
REMARK    2  A    between atoms: CG_2  and  CD2_3 
REMARK    3  A    between atoms: CG_2  and  CB_4 
REMARK    4  A    between atoms: CB_4  and  CA_5 
REMARK       I    between atoms: CA_5  and  C_7 
REMARK       I    between atoms: CA_5  and  N_9 
REMARK       I    between atoms: N_9  and  C_10 
REMARK    5  A    between atoms: C_10  and  C_12 
REMARK    6  A    between atoms: C_12  and  C_13 
REMARK    7  A    between atoms: C_13  and  C_14 
REMARK    8  A    between atoms: C_14  and  C_15 
REMARK    9  A    between atoms: C_15  and  C_16 
REMARK   10  A    between atoms: C_16  and  N_17 
REMARK       I    between atoms: N_17  and  C_18 
REMARK       I    between atoms: C_18  and  N_20 
ROOT
ATOM      1  C   UNK d   0       3.246   0.243  -2.565  0.00  0.00    -0.051 C 
ATOM      2  H   UNK d   0       2.549   0.798  -1.936  0.00  0.00     0.027 H 
ATOM      3  H   UNK d   0       3.272   0.689  -3.559  0.00  0.00     0.027 H 
ENDROOT
BRANCH   1   4
ATOM      4  C   UNK d   0       4.644   0.292  -1.947  0.00  0.00    -0.045 C 
ATOM      5  H   UNK d   0       5.157  -0.651  -2.133  0.00  0.00     0.027 H 
ATOM      6  H   UNK d   0       4.560   0.455  -0.872  0.00  0.00     0.027 H 
BRANCH   4   7
ATOM      7  C   UNK d   0       5.439   1.439  -2.574  0.00  0.00     0.024 C 
ATOM      8  H   UNK d   0       5.883   2.047  -1.787  0.00  0.00     0.036 H 
ATOM      9  H   UNK d   0       4.772   2.056  -3.177  0.00  0.00     0.036 H 
BRANCH   7  10
ATOM     10  C   UNK d   0       6.529   0.875  -3.448  0.00  0.00     0.213 C 
ATOM     11  N   LEU d   1       7.041   1.616  -4.451  0.00  0.00    -0.307 N 
ATOM     12  CA  LEU d   1       8.100   1.068  -5.300  0.00  0.00     0.063 C 
ATOM     13  H   LEU d   1       6.707   2.514  -4.610  0.00  0.00     0.149 HD
ATOM     14  HA  LEU d   1       7.939  -0.001  -5.439  0.00  0.00     0.056 H 
ATOM     15  C   LEU d   1       9.438   1.294  -4.644  0.00  0.00     0.062 C 
ATOM     16  O   LEU d   1       9.499   1.855  -3.576  0.00  0.00    -0.548 OA
ATOM     17  OXT LEU d   1      10.561   0.872  -5.246  0.00  0.00    -0.548 OA
ATOM     18  O   UNK d   0       6.946  -0.247  -3.250  0.00  0.00    -0.276 OA
BRANCH  12  19
ATOM     19  CB  LEU d   1       8.076   1.767  -6.662  0.00  0.00    -0.027 C 
ATOM     20  HB1 LEU d   1       9.097   1.930  -7.006  0.00  0.00     0.029 H 
ATOM     21  HB2 LEU d   1       7.566   2.727  -6.568  0.00  0.00     0.029 H 
BRANCH  19  22
ATOM     22  CG  LEU d   1       7.331   0.891  -7.671  0.00  0.00    -0.045 C 
ATOM     23  HG  LEU d   1       6.263   0.914  -7.454  0.00  0.00     0.030 H 
BRANCH  22  24
ATOM     24  CD1 LEU d   1       7.575   1.422  -9.085  0.00  0.00    -0.063 C 
ATOM     25 1HD1 LEU d   1       7.186   2.437  -9.164  0.00  0.00     0.023 H 
ATOM     26 2HD1 LEU d   1       8.645   1.425  -9.292  0.00  0.00     0.023 H 
ATOM     27 3HD1 LEU d   1       7.067   0.781  -9.806  0.00  0.00     0.023 H 
ENDBRANCH  22  24
BRANCH  22  28
ATOM     28  CD2 LEU d   1       7.841  -0.549  -7.572  0.00  0.00    -0.063 C 
ATOM     29 1HD2 LEU d   1       8.519  -0.636  -6.721  0.00  0.00     0.023 H 
ATOM     30 2HD2 LEU d   1       6.998  -1.224  -7.435  0.00  0.00     0.023 H 
ATOM     31 3HD2 LEU d   1       8.372  -0.810  -8.488  0.00  0.00     0.023 H 
ENDBRANCH  22  28
ENDBRANCH  19  22
ENDBRANCH  12  19
ENDBRANCH   7  10
ENDBRANCH   4   7
ENDBRANCH   1   4
BRANCH   1  32
ATOM     32  C   UNK d   0       2.787  -1.213  -2.672  0.00  0.00    -0.037 C 
ATOM     33  H   UNK d   0       2.485  -1.571  -1.688  0.00  0.00     0.028 H 
ATOM     34  H   UNK d   0       1.942  -1.279  -3.358  0.00  0.00     0.028 H 
BRANCH  32  35
ATOM     35  C   UNK d   0       3.938  -2.074  -3.196  0.00  0.00     0.013 C 
ATOM     36  H   UNK d   0       4.865  -1.778  -2.705  0.00  0.00     0.046 H 
ATOM     37  H   UNK d   0       3.734  -3.124  -2.983  0.00  0.00     0.046 H 
BRANCH  35  38
ATOM     38  N   UNK d   0       4.070  -1.886  -4.643  0.00  0.00    -0.299 N 
ATOM     39  C   UNK d   0       4.476  -2.908  -5.420  0.00  0.00     0.309 C 
ATOM     40  O   UNK d   0       4.734  -3.986  -4.923  0.00  0.00    -0.252 OA
ATOM     41  N   UNK d   0       4.597  -2.734  -6.753  0.00  0.00    -0.224 N 
ATOM     42  C   UNK d   0       4.334  -1.557  -7.436  0.00  0.00     0.207 A 
ATOM     43  C   UNK d   0       5.033  -3.759  -7.707  0.00  0.00     0.042 A 
ATOM     44  N   UNK d   0       4.546  -1.687  -8.774  0.00  0.00    -0.310 N 
ATOM     45  N   UNK d   0       3.934  -0.326  -7.179  0.00  0.00    -0.214 NA
ATOM     46  C   UNK d   0       4.993  -3.054  -9.074  0.00  0.00     0.043 A 
ATOM     47  C   UNK d   0       4.260  -0.468  -9.369  0.00  0.00     0.070 A 
ATOM     48  H   UNK d   0       4.285  -3.548  -9.739  0.00  0.00     0.051 H 
ATOM     49  H   UNK d   0       5.987  -3.040  -9.520  0.00  0.00     0.051 H 
ATOM     50  C   UNK d   0       3.868   0.389  -8.329  0.00  0.00     0.091 A 
ATOM     51  C   UNK d   0       4.292  -0.006 -10.676  0.00  0.00    -0.036 A 
ATOM     52  C   UNK d   0       3.514   1.708  -8.624  0.00  0.00    -0.034 A 
ATOM     53  C   UNK d   0       3.551   2.151  -9.927  0.00  0.00    -0.060 A 
ATOM     54  H   UNK d   0       3.212   2.379  -7.833  0.00  0.00     0.064 H 
ATOM     55  C   UNK d   0       3.937   1.298 -10.951  0.00  0.00    -0.060 A 
ATOM     56  H   UNK d   0       3.276   3.171 -10.155  0.00  0.00     0.062 H 
ATOM     57  H   UNK d   0       3.963   1.658 -11.968  0.00  0.00     0.062 H 
ATOM     58  H   UNK d   0       4.593  -0.666 -11.477  0.00  0.00     0.064 H 
ATOM     59  H   UNK d   0       6.046  -4.088  -7.476  0.00  0.00     0.049 H 
ATOM     60  H   UNK d   0       4.346  -4.605  -7.697  0.00  0.00     0.049 H 
ATOM     61  H   UNK d   0       3.864  -1.025  -5.040  0.00  0.00     0.150 HD
ENDBRANCH  35  38
ENDBRANCH  32  35
ENDBRANCH   1  32
TORSDOF 12
ENDMDL
MODEL 2
REMARK VINA RESULT:      -6.8      2.180      5.190
REMARK  10 active torsions:
REMARK  status: ('A' for Active; 'I' for Inactive)
REMARK    1  A    between atoms: CD1_1  and  CG_2 
REMARK    2  A    between atoms: CG_2  and  CD2_3 
REMARK    3  A    between atoms: CG_2  and  CB_4 
REMARK    4  A    between atoms: CB_4  and  CA_5 
REMARK       I    between atoms: CA_5  and  C_7 
REMARK       I    between atoms: CA_5  and  N_9 
REMARK       I    between atoms: N_9  and  C_10 
REMARK    5  A    between atoms: C_10  and  C_12 
REMARK    6  A    between atoms: C_12  and  C_13 
REMARK    7  A    between atoms: C_13  and  C_14 
REMARK    8  A    between atoms: C_14  and  C_15 
REMARK    9  A    between atoms: C_15  and  C_16 
REMARK   10  A    between atoms: C_16  and  N_17 
REMARK       I    between atoms: N_17  and  C_18 
REMARK       I    between atoms: C_18  and  N_20 
ROOT
ATOM      1  C   UNK d   0       2.713   0.458  -9.158  0.00  0.00    -0.051 C 
ATOM      2  H   UNK d   0       3.369   0.012  -8.410  0.00  0.00     0.027 H 
ATOM      3  H   UNK d   0       1.900   0.986  -8.660  0.00  0.00     0.027 H 
ENDROOT
BRANCH   1   4
ATOM      4  C   UNK d   0       3.510   1.442 -10.016  0.00  0.00    -0.045 C 
ATOM      5  H   UNK d   0       2.830   1.987 -10.670  0.00  0.00     0.027 H 
ATOM      6  H   UNK d   0       4.233   0.893 -10.620  0.00  0.00     0.027 H 
BRANCH   4   7
ATOM      7  C   UNK d   0       4.248   2.428  -9.109  0.00  0.00     0.024 C 
ATOM      8  H   UNK d   0       3.689   2.557  -8.182  0.00  0.00     0.036 H 
ATOM      9  H   UNK d   0       4.338   3.389  -9.616  0.00  0.00     0.036 H 
BRANCH   7  10
ATOM     10  C   UNK d   0       5.621   1.893  -8.797  0.00  0.00     0.213 C 
ATOM     11  N   LEU d   1       5.809   1.102  -7.722  0.00  0.00    -0.307 N 
ATOM     12  CA  LEU d   1       7.144   0.582  -7.419  0.00  0.00     0.063 C 
ATOM     13  H   LEU d   1       5.059   0.875  -7.149  0.00  0.00     0.149 HD
ATOM     14  HA  LEU d   1       7.894   1.327  -7.687  0.00  0.00     0.056 H 
ATOM     15  C   LEU d   1       7.384  -0.679  -8.209  0.00  0.00     0.062 C 
ATOM     16  O   LEU d   1       6.527  -1.099  -8.950  0.00  0.00    -0.548 OA
ATOM     17  OXT LEU d   1       8.550  -1.334  -8.090  0.00  0.00    -0.548 OA
ATOM     18  O   UNK d   0       6.559   2.176  -9.513  0.00  0.00    -0.276 OA
BRANCH  12  19
ATOM     19  CB  LEU d   1       7.244   0.273  -5.924  0.00  0.00    -0.027 C 
ATOM     20  HB1 LEU d   1       7.535  -0.769  -5.786  0.00  0.00     0.029 H 
ATOM     21  HB2 LEU d   1       6.276   0.445  -5.452  0.00  0.00     0.029 H 
BRANCH  19  22
ATOM     22  CG  LEU d   1       8.293   1.185  -5.284  0.00  0.00    -0.045 C 
ATOM     23  HG  LEU d   1       9.175   0.599  -5.025  0.00  0.00     0.030 H 
BRANCH  22  24
ATOM     24  CD1 LEU d   1       8.683   2.286  -6.271  0.00  0.00    -0.063 C 
ATOM     25 1HD1 LEU d   1       7.891   2.409  -7.010  0.00  0.00     0.023 H 
ATOM     26 2HD1 LEU d   1       8.826   3.223  -5.732  0.00  0.00     0.023 H 
ATOM     27 3HD1 LEU d   1       9.609   2.011  -6.774  0.00  0.00     0.023 H 
ENDBRANCH  22  24
BRANCH  22  28
ATOM     28  CD2 LEU d   1       7.713   1.818  -4.016  0.00  0.00    -0.063 C 
ATOM     29 1HD2 LEU d   1       8.123   2.821  -3.891  0.00  0.00     0.023 H 
ATOM     30 2HD2 LEU d   1       6.629   1.876  -4.102  0.00  0.00     0.023 H 
ATOM     31 3HD2 LEU d   1       7.978   1.207  -3.152  0.00  0.00     0.023 H 
ENDBRANCH  22  28
ENDBRANCH  19  22
ENDBRANCH  12  19
ENDBRANCH   7  10
ENDBRANCH   4   7
ENDBRANCH   1   4
BRANCH   1  32
ATOM     32  C   UNK d   0       2.135  -0.644 -10.049  0.00  0.00    -0.037 C 
ATOM     33  H   UNK d   0       1.053  -0.683  -9.923  0.00  0.00     0.028 H 
ATOM     34  H   UNK d   0       2.373  -0.430 -11.091  0.00  0.00     0.028 H 
BRANCH  32  35
ATOM     35  C   UNK d   0       2.743  -1.992  -9.653  0.00  0.00     0.013 C 
ATOM     36  H   UNK d   0       1.971  -2.761  -9.684  0.00  0.00     0.046 H 
ATOM     37  H   UNK d   0       3.541  -2.250 -10.349  0.00  0.00     0.046 H 
BRANCH  35  38
ATOM     38  N   UNK d   0       3.287  -1.902  -8.295  0.00  0.00    -0.299 N 
ATOM     39  C   UNK d   0       4.124  -2.855  -7.842  0.00  0.00     0.309 C 
ATOM     40  O   UNK d   0       4.427  -3.790  -8.556  0.00  0.00    -0.252 OA
ATOM     41  N   UNK d   0       4.625  -2.772  -6.592  0.00  0.00    -0.224 N 
ATOM     42  C   UNK d   0       4.356  -1.760  -5.684  0.00  0.00     0.207 A 
ATOM     43  C   UNK d   0       5.537  -3.743  -5.976  0.00  0.00     0.042 A 
ATOM     44  N   UNK d   0       5.007  -1.948  -4.505  0.00  0.00    -0.310 N 
ATOM     45  N   UNK d   0       3.647  -0.649  -5.615  0.00  0.00    -0.214 NA
ATOM     46  C   UNK d   0       5.800  -3.183  -4.568  0.00  0.00     0.043 A 
ATOM     47  C   UNK d   0       4.679  -0.894  -3.666  0.00  0.00     0.070 A 
ATOM     48  H   UNK d   0       6.860  -2.962  -4.436  0.00  0.00     0.051 H 
ATOM     49  H   UNK d   0       5.463  -3.891  -3.812  0.00  0.00     0.051 H 
ATOM     50  C   UNK d   0       3.807  -0.073  -4.398  0.00  0.00     0.091 A 
ATOM     51  C   UNK d   0       5.030  -0.554  -2.368  0.00  0.00    -0.036 A 
ATOM     52  C   UNK d   0       3.299   1.086  -3.807  0.00  0.00    -0.034 A 
ATOM     53  C   UNK d   0       3.657   1.411  -2.518  0.00  0.00    -0.060 A 
ATOM     54  H   UNK d   0       2.626   1.727  -4.359  0.00  0.00     0.064 H 
ATOM     55  C   UNK d   0       4.519   0.596  -1.800  0.00  0.00    -0.060 A 
ATOM     56  H   UNK d   0       3.263   2.307  -2.062  0.00  0.00     0.062 H 
ATOM     57  H   UNK d   0       4.792   0.861  -0.790  0.00  0.00     0.062 H 
ATOM     58  H   UNK d   0       5.701  -1.185  -1.805  0.00  0.00     0.064 H 
ATOM     59  H   UNK d   0       5.065  -4.723  -5.917  0.00  0.00     0.049 H 
ATOM     60  H   UNK d   0       6.468  -3.801  -6.541  0.00  0.00     0.049 H 
ATOM     61  H   UNK d   0       3.046  -1.156  -7.725  0.00  0.00     0.150 HD
ENDBRANCH  35  38
ENDBRANCH  32  35
ENDBRANCH   1  32
TORSDOF 12
ENDMDL
MODEL 3
REMARK VINA RESULT:      -6.2      2.973      6.713
REMARK  10 active torsions:
REMARK  status: ('A' for Active; 'I' for Inactive)
REMARK    1  A    between atoms: CD1_1  and  CG_2 
REMARK    2  A    between atoms: CG_2  and  CD2_3 
REMARK    3  A    between atoms: CG_2  and  CB_4 
REMARK    4  A    between atoms: CB_4  and  CA_5 
REMARK       I    between atoms: CA_5  and  C_7 
REMARK       I    between atoms: CA_5  and  N_9 
REMARK       I    between atoms: N_9  and  C_10 
REMARK    5  A    between atoms: C_10  and  C_12 
REMARK    6  A    between atoms: C_12  and  C_13 
REMARK    7  A    between atoms: C_13  and  C_14 
REMARK    8  A    between atoms: C_14  and  C_15 
REMARK    9  A    between atoms: C_15  and  C_16 
REMARK   10  A    between atoms: C_16  and  N_17 
REMARK       I    between atoms: N_17  and  C_18 
REMARK       I    between atoms: C_18  and  N_20 
ROOT
ATOM      1  C   UNK d   0       8.965   2.529  -7.004  0.00  0.00    -0.051 C 
ATOM      2  H   UNK d   0       8.454   3.489  -6.912  0.00  0.00     0.027 H 
ATOM      3  H   UNK d   0       8.550   1.827  -6.282  0.00  0.00     0.027 H 
ENDROOT
BRANCH   1   4
ATOM      4  C   UNK d   0       8.771   1.981  -8.419  0.00  0.00    -0.045 C 
ATOM      5  H   UNK d   0       8.672   0.896  -8.378  0.00  0.00     0.027 H 
ATOM      6  H   UNK d   0       9.633   2.245  -9.032  0.00  0.00     0.027 H 
BRANCH   4   7
ATOM      7  C   UNK d   0       7.507   2.586  -9.032  0.00  0.00     0.024 C 
ATOM      8  H   UNK d   0       7.722   2.934 -10.042  0.00  0.00     0.036 H 
ATOM      9  H   UNK d   0       7.174   3.427  -8.422  0.00  0.00     0.036 H 
BRANCH   7  10
ATOM     10  C   UNK d   0       6.423   1.542  -9.081  0.00  0.00     0.213 C 
ATOM     11  N   LEU d   1       5.183   1.834  -8.640  0.00  0.00    -0.307 N 
ATOM     12  CA  LEU d   1       4.129   0.819  -8.688  0.00  0.00     0.063 C 
ATOM     13  H   LEU d   1       4.988   2.719  -8.291  0.00  0.00     0.149 HD
ATOM     14  HA  LEU d   1       4.561  -0.163  -8.492  0.00  0.00     0.056 H 
ATOM     15  C   LEU d   1       3.488   0.823 -10.052  0.00  0.00     0.062 C 
ATOM     16  O   LEU d   1       3.873   1.595 -10.897  0.00  0.00    -0.548 OA
ATOM     17  OXT LEU d   1       2.490  -0.032 -10.327  0.00  0.00    -0.548 OA
ATOM     18  O   UNK d   0       6.665   0.435  -9.517  0.00  0.00    -0.276 OA
BRANCH  12  19
ATOM     19  CB  LEU d   1       3.071   1.130  -7.626  0.00  0.00    -0.027 C 
ATOM     20  HB1 LEU d   1       2.103   1.267  -8.108  0.00  0.00     0.029 H 
ATOM     21  HB2 LEU d   1       3.346   2.043  -7.097  0.00  0.00     0.029 H 
BRANCH  19  22
ATOM     22  CG  LEU d   1       2.988  -0.031  -6.633  0.00  0.00    -0.045 C 
ATOM     23  HG  LEU d   1       2.264  -0.764  -6.990  0.00  0.00     0.030 H 
BRANCH  22  24
ATOM     24  CD1 LEU d   1       4.362  -0.691  -6.504  0.00  0.00    -0.063 C 
ATOM     25 1HD1 LEU d   1       4.245  -1.695  -6.096  0.00  0.00     0.023 H 
ATOM     26 2HD1 LEU d   1       4.830  -0.751  -7.487  0.00  0.00     0.023 H 
ATOM     27 3HD1 LEU d   1       4.988  -0.100  -5.838  0.00  0.00     0.023 H 
ENDBRANCH  22  24
BRANCH  22  28
ATOM     28  CD2 LEU d   1       2.546   0.498  -5.267  0.00  0.00    -0.063 C 
ATOM     29 1HD2 LEU d   1       2.180  -0.330  -4.658  0.00  0.00     0.023 H 
ATOM     30 2HD2 LEU d   1       3.392   0.970  -4.768  0.00  0.00     0.023 H 
ATOM     31 3HD2 LEU d   1       1.748   1.230  -5.401  0.00  0.00     0.023 H 
ENDBRANCH  22  28
ENDBRANCH  19  22
ENDBRANCH  12  19
ENDBRANCH   7  10
ENDBRANCH   4   7
ENDBRANCH   1   4
BRANCH   1  32
ATOM     32  C   UNK d   0      10.458   2.720  -6.731  0.00  0.00    -0.037 C 
ATOM     33  H   UNK d   0      10.977   2.916  -7.669  0.00  0.00     0.028 H 
ATOM     34  H   UNK d   0      10.600   3.562  -6.054  0.00  0.00     0.028 H 
BRANCH  32  35
ATOM     35  C   UNK d   0      11.026   1.450  -6.091  0.00  0.00     0.013 C 
ATOM     36  H   UNK d   0      11.520   0.849  -6.854  0.00  0.00     0.046 H 
ATOM     37  H   UNK d   0      11.747   1.722  -5.320  0.00  0.00     0.046 H 
BRANCH  35  38
ATOM     38  N   UNK d   0       9.936   0.677  -5.491  0.00  0.00    -0.299 N 
ATOM     39  C   UNK d   0       9.923  -0.666  -5.603  0.00  0.00     0.309 C 
ATOM     40  O   UNK d   0      10.814  -1.236  -6.201  0.00  0.00    -0.252 OA
ATOM     41  N   UNK d   0       8.919  -1.378  -5.050  0.00  0.00    -0.224 N 
ATOM     42  C   UNK d   0       7.851  -0.847  -4.346  0.00  0.00     0.207 A 
ATOM     43  C   UNK d   0       8.784  -2.838  -5.104  0.00  0.00     0.042 A 
ATOM     44  N   UNK d   0       6.998  -1.812  -3.908  0.00  0.00    -0.310 N 
ATOM     45  N   UNK d   0       7.400   0.334  -3.964  0.00  0.00    -0.214 NA
ATOM     46  C   UNK d   0       7.489  -3.132  -4.327  0.00  0.00     0.043 A 
ATOM     47  C   UNK d   0       5.968  -1.190  -3.220  0.00  0.00     0.070 A 
ATOM     48  H   UNK d   0       7.698  -3.755  -3.456  0.00  0.00     0.051 H 
ATOM     49  H   UNK d   0       6.762  -3.619  -4.976  0.00  0.00     0.051 H 
ATOM     50  C   UNK d   0       6.246   0.185  -3.267  0.00  0.00     0.091 A 
ATOM     51  C   UNK d   0       4.835  -1.649  -2.566  0.00  0.00    -0.036 A 
ATOM     52  C   UNK d   0       5.371   1.083  -2.651  0.00  0.00    -0.034 A 
ATOM     53  C   UNK d   0       4.250   0.612  -2.004  0.00  0.00    -0.060 A 
ATOM     54  H   UNK d   0       5.572   2.144  -2.680  0.00  0.00     0.064 H 
ATOM     55  C   UNK d   0       3.982  -0.749  -1.960  0.00  0.00    -0.060 A 
ATOM     56  H   UNK d   0       3.575   1.306  -1.527  0.00  0.00     0.062 H 
ATOM     57  H   UNK d   0       3.100  -1.106  -1.451  0.00  0.00     0.062 H 
ATOM     58  H   UNK d   0       4.622  -2.707  -2.529  0.00  0.00     0.064 H 
ATOM     59  H   UNK d   0       8.695  -3.173  -6.137  0.00  0.00     0.049 H 
ATOM     60  H   UNK d   0       9.634  -3.317  -4.619  0.00  0.00     0.049 H 
ATOM     61  H   UNK d   0       9.225   1.131  -5.013  0.00  0.00     0.150 HD
ENDBRANCH  35  38
ENDBRANCH  32  35
ENDBRANCH   1  32
TORSDOF 12
ENDMDL
MODEL 4
REMARK VINA RESULT:      -6.2      2.882      6.231
REMARK  10 active torsions:
REMARK  status: ('A' for Active; 'I' for Inactive)
REMARK    1  A    between atoms: CD1_1  and  CG_2 
REMARK    2  A    between atoms: CG_2  and  CD2_3 
REMARK    3  A    between atoms: CG_2  and  CB_4 
REMARK    4  A    between atoms: CB_4  and  CA_5 
REMARK       I    between atoms: CA_5  and  C_7 
REMARK       I    between atoms: CA_5  and  N_9 
REMARK       I    between atoms: N_9  and  C_10 
REMARK    5  A    between atoms: C_10  and  C_12 
REMARK    6  A    between atoms: C_12  and  C_13 
REMARK    7  A    between atoms: C_13  and  C_14 
REMARK    8  A    between atoms: C_14  and  C_15 
REMARK    9  A    between atoms: C_15  and  C_16 
REMARK   10  A    between atoms: C_16  and  N_17 
REMARK       I    between atoms: N_17  and  C_18 
REMARK       I    between atoms: C_18  and  N_20 
ROOT
ATOM      1  C   UNK d   0       6.632  -5.942  -6.185  0.00  0.00    -0.051 C 
ATOM      2  H   UNK d   0       6.888  -6.189  -7.216  0.00  0.00     0.027 H 
ATOM      3  H   UNK d   0       6.749  -4.870  -6.028  0.00  0.00     0.027 H 
ENDROOT
BRANCH   1   4
ATOM      4  C   UNK d   0       5.183  -6.344  -5.908  0.00  0.00    -0.045 C 
ATOM      5  H   UNK d   0       5.163  -7.150  -5.175  0.00  0.00     0.027 H 
ATOM      6  H   UNK d   0       4.716  -6.682  -6.833  0.00  0.00     0.027 H 
BRANCH   4   7
ATOM      7  C   UNK d   0       4.416  -5.138  -5.361  0.00  0.00     0.024 C 
ATOM      8  H   UNK d   0       4.926  -4.752  -4.478  0.00  0.00     0.036 H 
ATOM      9  H   UNK d   0       3.404  -5.443  -5.091  0.00  0.00     0.036 H 
BRANCH   7  10
ATOM     10  C   UNK d   0       4.352  -4.063  -6.414  0.00  0.00     0.213 C 
ATOM     11  N   LEU d   1       4.831  -2.831  -6.150  0.00  0.00    -0.307 N 
ATOM     12  CA  LEU d   1       4.769  -1.786  -7.174  0.00  0.00     0.063 C 
ATOM     13  H   LEU d   1       5.219  -2.636  -5.282  0.00  0.00     0.149 HD
ATOM     14  HA  LEU d   1       3.857  -1.904  -7.760  0.00  0.00     0.056 H 
ATOM     15  C   LEU d   1       5.967  -1.900  -8.082  0.00  0.00     0.062 C 
ATOM     16  O   LEU d   1       6.787  -2.766  -7.893  0.00  0.00    -0.548 OA
ATOM     17  OXT LEU d   1       6.121  -1.040  -9.101  0.00  0.00    -0.548 OA
ATOM     18  O   UNK d   0       3.869  -4.306  -7.500  0.00  0.00    -0.276 OA
BRANCH  12  19
ATOM     19  CB  LEU d   1       4.769  -0.412  -6.502  0.00  0.00    -0.027 C 
ATOM     20  HB1 LEU d   1       5.589   0.188  -6.899  0.00  0.00     0.029 H 
ATOM     21  HB2 LEU d   1       4.896  -0.534  -5.426  0.00  0.00     0.029 H 
BRANCH  19  22
ATOM     22  CG  LEU d   1       3.440   0.293  -6.781  0.00  0.00    -0.045 C 
ATOM     23  HG  LEU d   1       3.632   1.313  -7.115  0.00  0.00     0.030 H 
BRANCH  22  24
ATOM     24  CD1 LEU d   1       2.679  -0.466  -7.870  0.00  0.00    -0.063 C 
ATOM     25 1HD1 LEU d   1       3.235  -1.362  -8.145  0.00  0.00     0.023 H 
ATOM     26 2HD1 LEU d   1       1.695  -0.749  -7.495  0.00  0.00     0.023 H 
ATOM     27 3HD1 LEU d   1       2.565   0.173  -8.745  0.00  0.00     0.023 H 
ENDBRANCH  22  24
BRANCH  22  28
ATOM     28  CD2 LEU d   1       2.601   0.325  -5.501  0.00  0.00    -0.063 C 
ATOM     29 1HD2 LEU d   1       1.838   1.100  -5.586  0.00  0.00     0.023 H 
ATOM     30 2HD2 LEU d   1       2.123  -0.643  -5.355  0.00  0.00     0.023 H 
ATOM     31 3HD2 LEU d   1       3.247   0.545  -4.650  0.00  0.00     0.023 H 
ENDBRANCH  22  28
ENDBRANCH  19  22
ENDBRANCH  12  19
ENDBRANCH   7  10
ENDBRANCH   4   7
ENDBRANCH   1   4
BRANCH   1  32
ATOM     32  C   UNK d   0       7.562  -6.701  -5.235  0.00  0.00    -0.037 C 
ATOM     33  H   UNK d   0       7.037  -6.910  -4.303  0.00  0.00     0.028 H 
ATOM     34  H   UNK d   0       7.869  -7.639  -5.698  0.00  0.00     0.028 H 
BRANCH  32  35
ATOM     35  C   UNK d   0       8.799  -5.848  -4.942  0.00  0.00     0.013 C 
ATOM     36  H   UNK d   0       9.310  -6.240  -4.063  0.00  0.00     0.046 H 
ATOM     37  H   UNK d   0       9.473  -5.878  -5.798  0.00  0.00     0.046 H 
BRANCH  35  38
ATOM     38  N   UNK d   0       8.389  -4.464  -4.690  0.00  0.00    -0.299 N 
ATOM     39  C   UNK d   0       9.118  -3.446  -5.187  0.00  0.00     0.309 C 
ATOM     40  O   UNK d   0      10.115  -3.674  -5.843  0.00  0.00    -0.252 OA
ATOM     41  N   UNK d   0       8.741  -2.171  -4.955  0.00  0.00    -0.224 N 
ATOM     42  C   UNK d   0       7.628  -1.783  -4.225  0.00  0.00     0.207 A 
ATOM     43  C   UNK d   0       9.447  -0.976  -5.432  0.00  0.00     0.042 A 
ATOM     44  N   UNK d   0       7.506  -0.430  -4.164  0.00  0.00    -0.310 N 
ATOM     45  N   UNK d   0       6.633  -2.338  -3.558  0.00  0.00    -0.214 NA
ATOM     46  C   UNK d   0       8.609   0.200  -4.903  0.00  0.00     0.043 A 
ATOM     47  C   UNK d   0       6.375  -0.138  -3.419  0.00  0.00     0.070 A 
ATOM     48  H   UNK d   0       8.222   0.797  -5.729  0.00  0.00     0.051 H 
ATOM     49  H   UNK d   0       9.208   0.820  -4.236  0.00  0.00     0.051 H 
ATOM     50  C   UNK d   0       5.829  -1.376  -3.042  0.00  0.00     0.091 A 
ATOM     51  C   UNK d   0       5.759   1.041  -3.028  0.00  0.00    -0.036 A 
ATOM     52  C   UNK d   0       4.665  -1.406  -2.271  0.00  0.00    -0.034 A 
ATOM     53  C   UNK d   0       4.065  -0.226  -1.890  0.00  0.00    -0.060 A 
ATOM     54  H   UNK d   0       4.236  -2.352  -1.972  0.00  0.00     0.064 H 
ATOM     55  C   UNK d   0       4.608   0.993  -2.267  0.00  0.00    -0.060 A 
ATOM     56  H   UNK d   0       3.165  -0.250  -1.294  0.00  0.00     0.062 H 
ATOM     57  H   UNK d   0       4.129   1.911  -1.963  0.00  0.00     0.062 H 
ATOM     58  H   UNK d   0       6.177   1.993  -3.318  0.00  0.00     0.064 H 
ATOM     59  H   UNK d   0      10.456  -0.943  -5.022  0.00  0.00     0.049 H 
ATOM     60  H   UNK d   0       9.476  -0.961  -6.521  0.00  0.00     0.049 H 
ATOM     61  H   UNK d   0       7.594  -4.281  -4.167  0.00  0.00     0.150 HD
ENDBRANCH  35  38
ENDBRANCH  32  35
ENDBRANCH   1  32
TORSDOF 12
ENDMDL
MODEL 5
REMARK VINA RESULT:      -6.2      2.081      4.013
REMARK  10 active torsions:
REMARK  status: ('A' for Active; 'I' for Inactive)
REMARK    1  A    between atoms: CD1_1  and  CG_2 
REMARK    2  A    between atoms: CG_2  and  CD2_3 
REMARK    3  A    between atoms: CG_2  and  CB_4 
REMARK    4  A    between atoms: CB_4  and  CA_5 
REMARK       I    between atoms: CA_5  and  C_7 
REMARK       I    between atoms: CA_5  and  N_9 
REMARK       I    between atoms: N_9  and  C_10 
REMARK    5  A    between atoms: C_10  and  C_12 
REMARK    6  A    between atoms: C_12  and  C_13 
REMARK    7  A    between atoms: C_13  and  C_14 
REMARK    8  A    between atoms: C_14  and  C_15 
REMARK    9  A    between atoms: C_15  and  C_16 
REMARK   10  A    between atoms: C_16  and  N_17 
REMARK       I    between atoms: N_17  and  C_18 
REMARK       I    between atoms: C_18  and  N_20 
ROOT
ATOM      1  C   UNK d   0       6.180  -5.384  -5.622  0.00  0.00    -0.051 C 
ATOM      2  H   UNK d   0       6.276  -5.505  -6.702  0.00  0.00     0.027 H 
ATOM      3  H   UNK d   0       6.438  -6.319  -5.127  0.00  0.00     0.027 H 
ENDROOT
BRANCH   1   4
ATOM      4  C   UNK d   0       7.121  -4.277  -5.146  0.00  0.00    -0.045 C 
ATOM      5  H   UNK d   0       8.098  -4.704  -4.919  0.00  0.00     0.027 H 
ATOM      6  H   UNK d   0       6.711  -3.811  -4.250  0.00  0.00     0.027 H 
BRANCH   4   7
ATOM      7  C   UNK d   0       7.267  -3.224  -6.246  0.00  0.00     0.024 C 
ATOM      8  H   UNK d   0       6.751  -3.562  -7.144  0.00  0.00     0.036 H 
ATOM      9  H   UNK d   0       8.324  -3.075  -6.468  0.00  0.00     0.036 H 
BRANCH   7  10
ATOM     10  C   UNK d   0       6.664  -1.924  -5.781  0.00  0.00     0.213 C 
ATOM     11  N   LEU d   1       6.430  -1.720  -4.469  0.00  0.00    -0.307 N 
ATOM     12  CA  LEU d   1       5.844  -0.457  -4.017  0.00  0.00     0.063 C 
ATOM     13  H   LEU d   1       6.652  -2.410  -3.823  0.00  0.00     0.149 HD
ATOM     14  HA  LEU d   1       5.131  -0.100  -4.760  0.00  0.00     0.056 H 
ATOM     15  C   LEU d   1       6.934   0.567  -3.834  0.00  0.00     0.062 C 
ATOM     16  O   LEU d   1       8.084   0.271  -4.059  0.00  0.00    -0.548 OA
ATOM     17  OXT LEU d   1       6.629   1.808  -3.422  0.00  0.00    -0.548 OA
ATOM     18  O   UNK d   0       6.387  -1.061  -6.587  0.00  0.00    -0.276 OA
BRANCH  12  19
ATOM     19  CB  LEU d   1       5.123  -0.677  -2.685  0.00  0.00    -0.027 C 
ATOM     20  HB1 LEU d   1       5.630  -0.116  -1.899  0.00  0.00     0.029 H 
ATOM     21  HB2 LEU d   1       5.134  -1.739  -2.437  0.00  0.00     0.029 H 
BRANCH  19  22
ATOM     22  CG  LEU d   1       3.676  -0.195  -2.802  0.00  0.00    -0.045 C 
ATOM     23  HG  LEU d   1       3.026  -0.851  -2.221  0.00  0.00     0.030 H 
BRANCH  22  24
ATOM     24  CD1 LEU d   1       3.568   1.234  -2.269  0.00  0.00    -0.063 C 
ATOM     25 1HD1 LEU d   1       2.868   1.258  -1.434  0.00  0.00     0.023 H 
ATOM     26 2HD1 LEU d   1       4.549   1.570  -1.931  0.00  0.00     0.023 H 
ATOM     27 3HD1 LEU d   1       3.211   1.892  -3.060  0.00  0.00     0.023 H 
ENDBRANCH  22  24
BRANCH  22  28
ATOM     28  CD2 LEU d   1       3.246  -0.225  -4.271  0.00  0.00    -0.063 C 
ATOM     29 1HD2 LEU d   1       4.029  -0.692  -4.869  0.00  0.00     0.023 H 
ATOM     30 2HD2 LEU d   1       2.324  -0.797  -4.368  0.00  0.00     0.023 H 
ATOM     31 3HD2 LEU d   1       3.081   0.794  -4.621  0.00  0.00     0.023 H 
ENDBRANCH  22  28
ENDBRANCH  19  22
ENDBRANCH  12  19
ENDBRANCH   7  10
ENDBRANCH   4   7
ENDBRANCH   1   4
BRANCH   1  32
ATOM     32  C   UNK d   0       4.736  -5.008  -5.279  0.00  0.00    -0.037 C 
ATOM     33  H   UNK d   0       4.394  -5.610  -4.438  0.00  0.00     0.028 H 
ATOM     34  H   UNK d   0       4.689  -3.952  -5.014  0.00  0.00     0.028 H 
BRANCH  32  35
ATOM     35  C   UNK d   0       3.839  -5.270  -6.491  0.00  0.00     0.013 C 
ATOM     36  H   UNK d   0       4.162  -6.183  -6.991  0.00  0.00     0.046 H 
ATOM     37  H   UNK d   0       2.806  -5.383  -6.162  0.00  0.00     0.046 H 
BRANCH  35  38
ATOM     38  N   UNK d   0       3.936  -4.144  -7.423  0.00  0.00    -0.299 N 
ATOM     39  C   UNK d   0       4.418  -4.338  -8.666  0.00  0.00     0.309 C 
ATOM     40  O   UNK d   0       4.774  -5.446  -9.015  0.00  0.00    -0.252 OA
ATOM     41  N   UNK d   0       4.506  -3.301  -9.524  0.00  0.00    -0.224 N 
ATOM     42  C   UNK d   0       4.135  -1.995  -9.246  0.00  0.00     0.207 A 
ATOM     43  C   UNK d   0       5.017  -3.376 -10.898  0.00  0.00     0.042 A 
ATOM     44  N   UNK d   0       4.340  -1.170 -10.308  0.00  0.00    -0.310 N 
ATOM     45  N   UNK d   0       3.634  -1.295  -8.245  0.00  0.00    -0.214 NA
ATOM     46  C   UNK d   0       4.899  -1.937 -11.430  0.00  0.00     0.043 A 
ATOM     47  C   UNK d   0       3.943   0.106  -9.939  0.00  0.00     0.070 A 
ATOM     48  H   UNK d   0       4.227  -1.900 -12.288  0.00  0.00     0.051 H 
ATOM     49  H   UNK d   0       5.882  -1.553 -11.700  0.00  0.00     0.051 H 
ATOM     50  C   UNK d   0       3.493   0.003  -8.613  0.00  0.00     0.091 A 
ATOM     51  C   UNK d   0       3.919   1.331 -10.588  0.00  0.00    -0.036 A 
ATOM     52  C   UNK d   0       3.022   1.143  -7.958  0.00  0.00    -0.034 A 
ATOM     53  C   UNK d   0       3.004   2.352  -8.617  0.00  0.00    -0.060 A 
ATOM     54  H   UNK d   0       2.674   1.078  -6.937  0.00  0.00     0.064 H 
ATOM     55  C   UNK d   0       3.450   2.447  -9.927  0.00  0.00    -0.060 A 
ATOM     56  H   UNK d   0       2.640   3.234  -8.110  0.00  0.00     0.062 H 
ATOM     57  H   UNK d   0       3.431   3.401 -10.432  0.00  0.00     0.062 H 
ATOM     58  H   UNK d   0       4.264   1.410 -11.608  0.00  0.00     0.064 H 
ATOM     59  H   UNK d   0       6.057  -3.700 -10.899  0.00  0.00     0.049 H 
ATOM     60  H   UNK d   0       4.405  -4.052 -11.494  0.00  0.00     0.049 H 
ATOM     61  H   UNK d   0       3.652  -3.259  -7.146  0.00  0.00     0.150 HD
ENDBRANCH  35  38
ENDBRANCH  32  35
ENDBRANCH   1  32
TORSDOF 12
ENDMDL
MODEL 6
REMARK VINA RESULT:      -6.2      2.632      5.779
REMARK  10 active torsions:
REMARK  status: ('A' for Active; 'I' for Inactive)
REMARK    1  A    between atoms: CD1_1  and  CG_2 
REMARK    2  A    between atoms: CG_2  and  CD2_3 
REMARK    3  A    between atoms: CG_2  and  CB_4 
REMARK    4  A    between atoms: CB_4  and  CA_5 
REMARK       I    between atoms: CA_5  and  C_7 
REMARK       I    between atoms: CA_5  and  N_9 
REMARK       I    between atoms: N_9  and  C_10 
REMARK    5  A    between atoms: C_10  and  C_12 
REMARK    6  A    between atoms: C_12  and  C_13 
REMARK    7  A    between atoms: C_13  and  C_14 
REMARK    8  A    between atoms: C_14  and  C_15 
REMARK    9  A    between atoms: C_15  and  C_16 
REMARK   10  A    between atoms: C_16  and  N_17 
REMARK       I    between atoms: N_17  and  C_18 
REMARK       I    between atoms: C_18  and  N_20 
ROOT
ATOM      1  C   UNK d   0      10.153   1.271  -4.713  0.00  0.00    -0.051 C 
ATOM      2  H   UNK d   0      10.397   1.969  -3.912  0.00  0.00     0.027 H 
ATOM      3  H   UNK d   0       9.403   0.563  -4.363  0.00  0.00     0.027 H 
ENDROOT
BRANCH   1   4
ATOM      4  C   UNK d   0       9.605   2.043  -5.914  0.00  0.00    -0.045 C 
ATOM      5  H   UNK d   0       9.980   1.597  -6.835  0.00  0.00     0.027 H 
ATOM      6  H   UNK d   0       9.928   3.083  -5.856  0.00  0.00     0.027 H 
BRANCH   4   7
ATOM      7  C   UNK d   0       8.076   1.983  -5.904  0.00  0.00     0.024 C 
ATOM      8  H   UNK d   0       7.673   2.912  -6.308  0.00  0.00     0.036 H 
ATOM      9  H   UNK d   0       7.725   1.850  -4.880  0.00  0.00     0.036 H 
BRANCH   7  10
ATOM     10  C   UNK d   0       7.613   0.825  -6.749  0.00  0.00     0.213 C 
ATOM     11  N   LEU d   1       6.295   0.576  -6.888  0.00  0.00    -0.307 N 
ATOM     12  CA  LEU d   1       5.845  -0.549  -7.709  0.00  0.00     0.063 C 
ATOM     13  H   LEU d   1       5.645   1.144  -6.444  0.00  0.00     0.149 HD
ATOM     14  HA  LEU d   1       6.550  -1.376  -7.612  0.00  0.00     0.056 H 
ATOM     15  C   LEU d   1       5.769  -0.120  -9.152  0.00  0.00     0.062 C 
ATOM     16  O   LEU d   1       6.062   1.010  -9.462  0.00  0.00    -0.548 OA
ATOM     17  OXT LEU d   1       5.377  -0.994 -10.092  0.00  0.00    -0.548 OA
ATOM     18  O   UNK d   0       8.426   0.115  -7.304  0.00  0.00    -0.276 OA
BRANCH  12  19
ATOM     19  CB  LEU d   1       4.461  -1.003  -7.239  0.00  0.00    -0.027 C 
ATOM     20  HB1 LEU d   1       4.514  -1.308  -6.193  0.00  0.00     0.029 H 
ATOM     21  HB2 LEU d   1       4.129  -1.845  -7.847  0.00  0.00     0.029 H 
BRANCH  19  22
ATOM     22  CG  LEU d   1       3.469   0.152  -7.384  0.00  0.00    -0.045 C 
ATOM     23  HG  LEU d   1       3.999   1.047  -7.713  0.00  0.00     0.030 H 
BRANCH  22  24
ATOM     24  CD1 LEU d   1       2.402  -0.218  -8.416  0.00  0.00    -0.063 C 
ATOM     25 1HD1 LEU d   1       2.856  -0.809  -9.211  0.00  0.00     0.023 H 
ATOM     26 2HD1 LEU d   1       1.616  -0.799  -7.934  0.00  0.00     0.023 H 
ATOM     27 3HD1 LEU d   1       1.975   0.691  -8.838  0.00  0.00     0.023 H 
ENDBRANCH  22  24
BRANCH  22  28
ATOM     28  CD2 LEU d   1       2.801   0.423  -6.034  0.00  0.00    -0.063 C 
ATOM     29 1HD2 LEU d   1       2.022   1.177  -6.159  0.00  0.00     0.023 H 
ATOM     30 2HD2 LEU d   1       2.359  -0.498  -5.656  0.00  0.00     0.023 H 
ATOM     31 3HD2 LEU d   1       3.547   0.787  -5.326  0.00  0.00     0.023 H 
ENDBRANCH  22  28
ENDBRANCH  19  22
ENDBRANCH  12  19
ENDBRANCH   7  10
ENDBRANCH   4   7
ENDBRANCH   1   4
BRANCH   1  32
ATOM     32  C   UNK d   0      11.416   0.512  -5.129  0.00  0.00    -0.037 C 
ATOM     33  H   UNK d   0      11.665   0.758  -6.161  0.00  0.00     0.028 H 
ATOM     34  H   UNK d   0      12.242   0.797  -4.477  0.00  0.00     0.028 H 
BRANCH  32  35
ATOM     35  C   UNK d   0      11.169  -0.994  -5.010  0.00  0.00     0.013 C 
ATOM     36  H   UNK d   0      11.443  -1.482  -5.945  0.00  0.00     0.046 H 
ATOM     37  H   UNK d   0      11.774  -1.399  -4.198  0.00  0.00     0.046 H 
BRANCH  35  38
ATOM     38  N   UNK d   0       9.751  -1.236  -4.731  0.00  0.00    -0.299 N 
ATOM     39  C   UNK d   0       9.181  -2.398  -5.102  0.00  0.00     0.309 C 
ATOM     40  O   UNK d   0       9.841  -3.247  -5.667  0.00  0.00    -0.252 OA
ATOM     41  N   UNK d   0       7.876  -2.621  -4.845  0.00  0.00    -0.224 N 
ATOM     42  C   UNK d   0       7.020  -1.735  -4.209  0.00  0.00     0.207 A 
ATOM     43  C   UNK d   0       7.135  -3.837  -5.200  0.00  0.00     0.042 A 
ATOM     44  N   UNK d   0       5.761  -2.238  -4.092  0.00  0.00    -0.310 N 
ATOM     45  N   UNK d   0       7.056  -0.529  -3.673  0.00  0.00    -0.214 NA
ATOM     46  C   UNK d   0       5.708  -3.581  -4.685  0.00  0.00     0.043 A 
ATOM     47  C   UNK d   0       4.982  -1.289  -3.449  0.00  0.00     0.070 A 
ATOM     48  H   UNK d   0       5.434  -4.320  -3.931  0.00  0.00     0.051 H 
ATOM     49  H   UNK d   0       4.999  -3.603  -5.512  0.00  0.00     0.051 H 
ATOM     50  C   UNK d   0       5.832  -0.202  -3.188  0.00  0.00     0.091 A 
ATOM     51  C   UNK d   0       3.652  -1.239  -3.062  0.00  0.00    -0.036 A 
ATOM     52  C   UNK d   0       5.324   0.926  -2.539  0.00  0.00    -0.034 A 
ATOM     53  C   UNK d   0       4.000   0.959  -2.161  0.00  0.00    -0.060 A 
ATOM     54  H   UNK d   0       5.967   1.770  -2.334  0.00  0.00     0.064 H 
ATOM     55  C   UNK d   0       3.166  -0.118  -2.420  0.00  0.00    -0.060 A 
ATOM     56  H   UNK d   0       3.608   1.831  -1.659  0.00  0.00     0.062 H 
ATOM     57  H   UNK d   0       2.130  -0.079  -2.119  0.00  0.00     0.062 H 
ATOM     58  H   UNK d   0       2.998  -2.075  -3.261  0.00  0.00     0.064 H 
ATOM     59  H   UNK d   0       7.133  -3.979  -6.280  0.00  0.00     0.049 H 
ATOM     60  H   UNK d   0       7.567  -4.704  -4.701  0.00  0.00     0.049 H 
ATOM     61  H   UNK d   0       9.224  -0.559  -4.279  0.00  0.00     0.150 HD
ENDBRANCH  35  38
ENDBRANCH  32  35
ENDBRANCH   1  32
TORSDOF 12
ENDMDL
MODEL 7
REMARK VINA RESULT:      -6.2      5.568      8.122
REMARK  10 active torsions:
REMARK  status: ('A' for Active; 'I' for Inactive)
REMARK    1  A    between atoms: CD1_1  and  CG_2 
REMARK    2  A    between atoms: CG_2  and  CD2_3 
REMARK    3  A    between atoms: CG_2  and  CB_4 
REMARK    4  A    between atoms: CB_4  and  CA_5 
REMARK       I    between atoms: CA_5  and  C_7 
REMARK       I    between atoms: CA_5  and  N_9 
REMARK       I    between atoms: N_9  and  C_10 
REMARK    5  A    between atoms: C_10  and  C_12 
REMARK    6  A    between atoms: C_12  and  C_13 
REMARK    7  A    between atoms: C_13  and  C_14 
REMARK    8  A    between atoms: C_14  and  C_15 
REMARK    9  A    between atoms: C_15  and  C_16 
REMARK   10  A    between atoms: C_16  and  N_17 
REMARK       I    between atoms: N_17  and  C_18 
REMARK       I    between atoms: C_18  and  N_20 
ROOT
ATOM      1  C   UNK d   0       9.960   5.173  -2.464  0.00  0.00    -0.051 C 
ATOM      2  H   UNK d   0      10.291   4.246  -1.994  0.00  0.00     0.027 H 
ATOM      3  H   UNK d   0       8.872   5.185  -2.517  0.00  0.00     0.027 H 
ENDROOT
BRANCH   1   4
ATOM      4  C   UNK d   0      10.444   6.366  -1.640  0.00  0.00    -0.045 C 
ATOM      5  H   UNK d   0      11.375   6.745  -2.061  0.00  0.00     0.027 H 
ATOM      6  H   UNK d   0      10.613   6.052  -0.609  0.00  0.00     0.027 H 
BRANCH   4   7
ATOM      7  C   UNK d   0       9.384   7.469  -1.669  0.00  0.00     0.024 C 
ATOM      8  H   UNK d   0       9.111   7.738  -0.649  0.00  0.00     0.036 H 
ATOM      9  H   UNK d   0       8.502   7.111  -2.200  0.00  0.00     0.036 H 
BRANCH   7  10
ATOM     10  C   UNK d   0       9.938   8.679  -2.375  0.00  0.00     0.213 C 
ATOM     11  N   LEU d   1       9.477   9.018  -3.595  0.00  0.00    -0.307 N 
ATOM     12  CA  LEU d   1      10.016  10.195  -4.281  0.00  0.00     0.063 C 
ATOM     13  H   LEU d   1       8.788   8.483  -4.020  0.00  0.00     0.149 HD
ATOM     14  HA  LEU d   1      11.076  10.297  -4.050  0.00  0.00     0.056 H 
ATOM     15  C   LEU d   1       9.279  11.426  -3.820  0.00  0.00     0.062 C 
ATOM     16  O   LEU d   1       8.396  11.330  -3.002  0.00  0.00    -0.548 OA
ATOM     17  OXT LEU d   1       9.605  12.629  -4.319  0.00  0.00    -0.548 OA
ATOM     18  O   UNK d   0      10.800   9.350  -1.845  0.00  0.00    -0.276 OA
BRANCH  12  19
ATOM     19  CB  LEU d   1       9.838  10.030  -5.792  0.00  0.00    -0.027 C 
ATOM     20  HB1 LEU d   1      10.656  10.531  -6.312  0.00  0.00     0.029 H 
ATOM     21  HB2 LEU d   1       8.889  10.474  -6.097  0.00  0.00     0.029 H 
BRANCH  19  22
ATOM     22  CG  LEU d   1       9.842   8.542  -6.148  0.00  0.00    -0.045 C 
ATOM     23  HG  LEU d   1       9.411   7.971  -5.325  0.00  0.00     0.030 H 
BRANCH  22  24
ATOM     24  CD1 LEU d   1       9.013   8.318  -7.414  0.00  0.00    -0.063 C 
ATOM     25 1HD1 LEU d   1       9.606   7.766  -8.143  0.00  0.00     0.023 H 
ATOM     26 2HD1 LEU d   1       8.119   7.747  -7.166  0.00  0.00     0.023 H 
ATOM     27 3HD1 LEU d   1       8.725   9.281  -7.835  0.00  0.00     0.023 H 
ENDBRANCH  22  24
BRANCH  22  28
ATOM     28  CD2 LEU d   1      11.280   8.080  -6.390  0.00  0.00    -0.063 C 
ATOM     29 1HD2 LEU d   1      11.822   8.849  -6.942  0.00  0.00     0.023 H 
ATOM     30 2HD2 LEU d   1      11.772   7.903  -5.434  0.00  0.00     0.023 H 
ATOM     31 3HD2 LEU d   1      11.271   7.156  -6.971  0.00  0.00     0.023 H 
ENDBRANCH  22  28
ENDBRANCH  19  22
ENDBRANCH  12  19
ENDBRANCH   7  10
ENDBRANCH   4   7
ENDBRANCH   1   4
BRANCH   1  32
ATOM     32  C   UNK d   0      10.540   5.261  -3.878  0.00  0.00    -0.037 C 
ATOM     33  H   UNK d   0      10.952   6.257  -4.040  0.00  0.00     0.028 H 
ATOM     34  H   UNK d   0      11.330   4.518  -3.993  0.00  0.00     0.028 H 
BRANCH  32  35
ATOM     35  C   UNK d   0       9.434   4.993  -4.901  0.00  0.00     0.013 C 
ATOM     36  H   UNK d   0       8.650   5.742  -4.792  0.00  0.00     0.046 H 
ATOM     37  H   UNK d   0       9.850   5.046  -5.908  0.00  0.00     0.046 H 
BRANCH  35  38
ATOM     38  N   UNK d   0       8.871   3.660  -4.674  0.00  0.00    -0.299 N 
ATOM     39  C   UNK d   0       9.445   2.581  -5.240  0.00  0.00     0.309 C 
ATOM     40  O   UNK d   0      10.431   2.712  -5.940  0.00  0.00    -0.252 OA
ATOM     41  N   UNK d   0       8.926   1.354  -5.031  0.00  0.00    -0.224 N 
ATOM     42  C   UNK d   0       7.811   1.075  -4.257  0.00  0.00     0.207 A 
ATOM     43  C   UNK d   0       9.450   0.103  -5.591  0.00  0.00     0.042 A 
ATOM     44  N   UNK d   0       7.528  -0.256  -4.233  0.00  0.00    -0.310 N 
ATOM     45  N   UNK d   0       6.923   1.720  -3.523  0.00  0.00    -0.214 NA
ATOM     46  C   UNK d   0       8.509  -0.985  -5.047  0.00  0.00     0.043 A 
ATOM     47  C   UNK d   0       6.405  -0.437  -3.441  0.00  0.00     0.070 A 
ATOM     48  H   UNK d   0       9.061  -1.696  -4.432  0.00  0.00     0.051 H 
ATOM     49  H   UNK d   0       8.013  -1.500  -5.869  0.00  0.00     0.051 H 
ATOM     50  C   UNK d   0       6.034   0.842  -2.995  0.00  0.00     0.091 A 
ATOM     51  C   UNK d   0       5.668  -1.547  -3.058  0.00  0.00    -0.036 A 
ATOM     52  C   UNK d   0       4.920   0.983  -2.165  0.00  0.00    -0.034 A 
ATOM     53  C   UNK d   0       4.199  -0.130  -1.793  0.00  0.00    -0.060 A 
ATOM     54  H   UNK d   0       4.623   1.961  -1.816  0.00  0.00     0.064 H 
ATOM     55  C   UNK d   0       4.571  -1.390  -2.236  0.00  0.00    -0.060 A 
ATOM     56  H   UNK d   0       3.337  -0.020  -1.151  0.00  0.00     0.062 H 
ATOM     57  H   UNK d   0       3.997  -2.255  -1.938  0.00  0.00     0.062 H 
ATOM     58  H   UNK d   0       5.953  -2.531  -3.400  0.00  0.00     0.064 H 
ATOM     59  H   UNK d   0       9.415   0.130  -6.680  0.00  0.00     0.049 H 
ATOM     60  H   UNK d   0      10.470  -0.071  -5.247  0.00  0.00     0.049 H 
ATOM     61  H   UNK d   0       8.085   3.555  -4.116  0.00  0.00     0.150 HD
ENDBRANCH  35  38
ENDBRANCH  32  35
ENDBRANCH   1  32
TORSDOF 12
ENDMDL
MODEL 8
REMARK VINA RESULT:      -6.1      5.283      8.063
REMARK  10 active torsions:
REMARK  status: ('A' for Active; 'I' for Inactive)
REMARK    1  A    between atoms: CD1_1  and  CG_2 
REMARK    2  A    between atoms: CG_2  and  CD2_3 
REMARK    3  A    between atoms: CG_2  and  CB_4 
REMARK    4  A    between atoms: CB_4  and  CA_5 
REMARK       I    between atoms: CA_5  and  C_7 
REMARK       I    between atoms: CA_5  and  N_9 
REMARK       I    between atoms: N_9  and  C_10 
REMARK    5  A    between atoms: C_10  and  C_12 
REMARK    6  A    between atoms: C_12  and  C_13 
REMARK    7  A    between atoms: C_13  and  C_14 
REMARK    8  A    between atoms: C_14  and  C_15 
REMARK    9  A    between atoms: C_15  and  C_16 
REMARK   10  A    between atoms: C_16  and  N_17 
REMARK       I    between atoms: N_17  and  C_18 
REMARK       I    between atoms: C_18  and  N_20 
ROOT
ATOM      1  C   UNK d   0      10.568   4.341  -2.344  0.00  0.00    -0.051 C 
ATOM      2  H   UNK d   0      10.772   3.380  -2.819  0.00  0.00     0.027 H 
ATOM      3  H   UNK d   0       9.928   4.188  -1.476  0.00  0.00     0.027 H 
ENDROOT
BRANCH   1   4
ATOM      4  C   UNK d   0      11.884   4.982  -1.902  0.00  0.00    -0.045 C 
ATOM      5  H   UNK d   0      12.013   5.937  -2.412  0.00  0.00     0.027 H 
ATOM      6  H   UNK d   0      12.714   4.321  -2.154  0.00  0.00     0.027 H 
BRANCH   4   7
ATOM      7  C   UNK d   0      11.857   5.210  -0.389  0.00  0.00     0.024 C 
ATOM      8  H   UNK d   0      12.867   5.126   0.010  0.00  0.00     0.036 H 
ATOM      9  H   UNK d   0      11.217   4.462   0.079  0.00  0.00     0.036 H 
BRANCH   7  10
ATOM     10  C   UNK d   0      11.316   6.586  -0.099  0.00  0.00     0.213 C 
ATOM     11  N   LEU d   1      11.150   7.472  -1.102  0.00  0.00    -0.307 N 
ATOM     12  CA  LEU d   1      10.624   8.809  -0.819  0.00  0.00     0.063 C 
ATOM     13  H   LEU d   1      11.378   7.223  -2.012  0.00  0.00     0.149 HD
ATOM     14  HA  LEU d   1      10.988   9.145   0.152  0.00  0.00     0.056 H 
ATOM     15  C   LEU d   1       9.118   8.764  -0.803  0.00  0.00     0.062 C 
ATOM     16  O   LEU d   1       8.543   7.721  -1.006  0.00  0.00    -0.548 OA
ATOM     17  OXT LEU d   1       8.415   9.882  -0.563  0.00  0.00    -0.548 OA
ATOM     18  O   UNK d   0      11.030   6.898   1.039  0.00  0.00    -0.276 OA
BRANCH  12  19
ATOM     19  CB  LEU d   1      11.094   9.781  -1.903  0.00  0.00    -0.027 C 
ATOM     20  HB1 LEU d   1      12.165   9.956  -1.797  0.00  0.00     0.029 H 
ATOM     21  HB2 LEU d   1      10.560  10.727  -1.799  0.00  0.00     0.029 H 
BRANCH  19  22
ATOM     22  CG  LEU d   1      10.808   9.185  -3.283  0.00  0.00    -0.045 C 
ATOM     23  HG  LEU d   1      10.335   8.209  -3.166  0.00  0.00     0.030 H 
BRANCH  22  24
ATOM     24  CD1 LEU d   1       9.873  10.115  -4.057  0.00  0.00    -0.063 C 
ATOM     25 1HD1 LEU d   1       9.353  10.771  -3.360  0.00  0.00     0.023 H 
ATOM     26 2HD1 LEU d   1      10.455  10.715  -4.757  0.00  0.00     0.023 H 
ATOM     27 3HD1 LEU d   1       9.144   9.521  -4.608  0.00  0.00     0.023 H 
ENDBRANCH  22  24
BRANCH  22  28
ATOM     28  CD2 LEU d   1      12.122   9.026  -4.052  0.00  0.00    -0.063 C 
ATOM     29 1HD2 LEU d   1      12.527  10.011  -4.287  0.00  0.00     0.023 H 
ATOM     30 2HD2 LEU d   1      12.836   8.475  -3.441  0.00  0.00     0.023 H 
ATOM     31 3HD2 LEU d   1      11.936   8.480  -4.977  0.00  0.00     0.023 H 
ENDBRANCH  22  28
ENDBRANCH  19  22
ENDBRANCH  12  19
ENDBRANCH   7  10
ENDBRANCH   4   7
ENDBRANCH   1   4
BRANCH   1  32
ATOM     32  C   UNK d   0       9.862   5.262  -3.342  0.00  0.00    -0.037 C 
ATOM     33  H   UNK d   0       8.875   5.522  -2.960  0.00  0.00     0.028 H 
ATOM     34  H   UNK d   0      10.451   6.170  -3.478  0.00  0.00     0.028 H 
BRANCH  32  35
ATOM     35  C   UNK d   0       9.716   4.543  -4.685  0.00  0.00     0.013 C 
ATOM     36  H   UNK d   0       9.140   5.166  -5.369  0.00  0.00     0.046 H 
ATOM     37  H   UNK d   0      10.703   4.357  -5.108  0.00  0.00     0.046 H 
BRANCH  35  38
ATOM     38  N   UNK d   0       9.022   3.268  -4.484  0.00  0.00    -0.299 N 
ATOM     39  C   UNK d   0       9.531   2.136  -5.006  0.00  0.00     0.309 C 
ATOM     40  O   UNK d   0      10.564   2.169  -5.644  0.00  0.00    -0.252 OA
ATOM     41  N   UNK d   0       8.891   0.962  -4.820  0.00  0.00    -0.224 N 
ATOM     42  C   UNK d   0       7.710   0.794  -4.115  0.00  0.00     0.207 A 
ATOM     43  C   UNK d   0       9.334  -0.337  -5.338  0.00  0.00     0.042 A 
ATOM     44  N   UNK d   0       7.308  -0.506  -4.099  0.00  0.00    -0.310 N 
ATOM     45  N   UNK d   0       6.841   1.525  -3.441  0.00  0.00    -0.214 NA
ATOM     46  C   UNK d   0       8.267  -1.330  -4.845  0.00  0.00     0.043 A 
ATOM     47  C   UNK d   0       6.127  -0.576  -3.376  0.00  0.00     0.070 A 
ATOM     48  H   UNK d   0       8.715  -2.080  -4.192  0.00  0.00     0.051 H 
ATOM     49  H   UNK d   0       7.778  -1.809  -5.693  0.00  0.00     0.051 H 
ATOM     50  C   UNK d   0       5.847   0.736  -2.963  0.00  0.00     0.091 A 
ATOM     51  C   UNK d   0       5.271  -1.611  -3.031  0.00  0.00    -0.036 A 
ATOM     52  C   UNK d   0       4.701   0.987  -2.204  0.00  0.00    -0.034 A 
ATOM     53  C   UNK d   0       3.861  -0.052  -1.870  0.00  0.00    -0.060 A 
ATOM     54  H   UNK d   0       4.473   1.992  -1.881  0.00  0.00     0.064 H 
ATOM     55  C   UNK d   0       4.145  -1.346  -2.280  0.00  0.00    -0.060 A 
ATOM     56  H   UNK d   0       2.976   0.142  -1.283  0.00  0.00     0.062 H 
ATOM     57  H   UNK d   0       3.478  -2.153  -2.011  0.00  0.00     0.062 H 
ATOM     58  H   UNK d   0       5.487  -2.620  -3.348  0.00  0.00     0.064 H 
ATOM     59  H   UNK d   0       9.367  -0.321  -6.428  0.00  0.00     0.049 H 
ATOM     60  H   UNK d   0      10.310  -0.597  -4.930  0.00  0.00     0.049 H 
ATOM     61  H   UNK d   0       8.198   3.241  -3.974  0.00  0.00     0.150 HD
ENDBRANCH  35  38
ENDBRANCH  32  35
ENDBRANCH   1  32
TORSDOF 12
ENDMDL
MODEL 9
REMARK VINA RESULT:      -6.0      5.027      7.858
REMARK  10 active torsions:
REMARK  status: ('A' for Active; 'I' for Inactive)
REMARK    1  A    between atoms: CD1_1  and  CG_2 
REMARK    2  A    between atoms: CG_2  and  CD2_3 
REMARK    3  A    between atoms: CG_2  and  CB_4 
REMARK    4  A    between atoms: CB_4  and  CA_5 
REMARK       I    between atoms: CA_5  and  C_7 
REMARK       I    between atoms: CA_5  and  N_9 
REMARK       I    between atoms: N_9  and  C_10 
REMARK    5  A    between atoms: C_10  and  C_12 
REMARK    6  A    between atoms: C_12  and  C_13 
REMARK    7  A    between atoms: C_13  and  C_14 
REMARK    8  A    between atoms: C_14  and  C_15 
REMARK    9  A    between atoms: C_15  and  C_16 
REMARK   10  A    between atoms: C_16  and  N_17 
REMARK       I    between atoms: N_17  and  C_18 
REMARK       I    between atoms: C_18  and  N_20 
ROOT
ATOM      1  C   UNK d   0       9.209   4.743  -4.679  0.00  0.00    -0.051 C 
ATOM      2  H   UNK d   0       8.818   3.807  -4.277  0.00  0.00     0.027 H 
ATOM      3  H   UNK d   0       8.406   5.289  -5.174  0.00  0.00     0.027 H 
ENDROOT
BRANCH   1   4
ATOM      4  C   UNK d   0       9.776   5.591  -3.540  0.00  0.00    -0.045 C 
ATOM      5  H   UNK d   0       8.959   6.078  -3.007  0.00  0.00     0.027 H 
ATOM      6  H   UNK d   0      10.446   6.348  -3.949  0.00  0.00     0.027 H 
BRANCH   4   7
ATOM      7  C   UNK d   0      10.551   4.693  -2.573  0.00  0.00     0.024 C 
ATOM      8  H   UNK d   0      11.279   4.102  -3.130  0.00  0.00     0.036 H 
ATOM      9  H   UNK d   0       9.857   4.027  -2.061  0.00  0.00     0.036 H 
BRANCH   7  10
ATOM     10  C   UNK d   0      11.269   5.547  -1.560  0.00  0.00     0.213 C 
ATOM     11  N   LEU d   1      10.690   6.672  -1.095  0.00  0.00    -0.307 N 
ATOM     12  CA  LEU d   1      11.387   7.502  -0.111  0.00  0.00     0.063 C 
ATOM     13  H   LEU d   1       9.810   6.932  -1.412  0.00  0.00     0.149 HD
ATOM     14  HA  LEU d   1      12.459   7.482  -0.311  0.00  0.00     0.056 H 
ATOM     15  C   LEU d   1      11.125   6.967   1.274  0.00  0.00     0.062 C 
ATOM     16  O   LEU d   1      10.427   5.992   1.422  0.00  0.00    -0.548 OA
ATOM     17  OXT LEU d   1      11.666   7.573   2.342  0.00  0.00    -0.548 OA
ATOM     18  O   UNK d   0      12.368   5.223  -1.163  0.00  0.00    -0.276 OA
BRANCH  12  19
ATOM     19  CB  LEU d   1      10.879   8.942  -0.205  0.00  0.00    -0.027 C 
ATOM     20  HB1 LEU d   1      11.713   9.608  -0.430  0.00  0.00     0.029 H 
ATOM     21  HB2 LEU d   1      10.430   9.232   0.745  0.00  0.00     0.029 H 
BRANCH  19  22
ATOM     22  CG  LEU d   1       9.832   9.042  -1.316  0.00  0.00    -0.045 C 
ATOM     23  HG  LEU d   1       9.668   8.055  -1.751  0.00  0.00     0.030 H 
BRANCH  22  24
ATOM     24  CD1 LEU d   1       8.518   9.566  -0.733  0.00  0.00    -0.063 C 
ATOM     25 1HD1 LEU d   1       8.238  10.489  -1.240  0.00  0.00     0.023 H 
ATOM     26 2HD1 LEU d   1       7.735   8.821  -0.875  0.00  0.00     0.023 H 
ATOM     27 3HD1 LEU d   1       8.645   9.761   0.332  0.00  0.00     0.023 H 
ENDBRANCH  22  24
BRANCH  22  28
ATOM     28  CD2 LEU d   1      10.327  10.001  -2.400  0.00  0.00    -0.063 C 
ATOM     29 1HD2 LEU d   1       9.807   9.793  -3.336  0.00  0.00     0.023 H 
ATOM     30 2HD2 LEU d   1      10.130  11.028  -2.095  0.00  0.00     0.023 H 
ATOM     31 3HD2 LEU d   1      11.400   9.864  -2.543  0.00  0.00     0.023 H 
ENDBRANCH  22  28
ENDBRANCH  19  22
ENDBRANCH  12  19
ENDBRANCH   7  10
ENDBRANCH   4   7
ENDBRANCH   1   4
BRANCH   1  32
ATOM     32  C   UNK d   0      10.318   4.439  -5.689  0.00  0.00    -0.037 C 
ATOM     33  H   UNK d   0      10.602   5.357  -6.203  0.00  0.00     0.028 H 
ATOM     34  H   UNK d   0      11.183   4.032  -5.166  0.00  0.00     0.028 H 
BRANCH  32  35
ATOM     35  C   UNK d   0       9.811   3.418  -6.711  0.00  0.00     0.013 C 
ATOM     36  H   UNK d   0       9.139   3.910  -7.413  0.00  0.00     0.046 H 
ATOM     37  H   UNK d   0      10.657   2.997  -7.254  0.00  0.00     0.046 H 
BRANCH  35  38
ATOM     38  N   UNK d   0       9.093   2.346  -6.016  0.00  0.00    -0.299 N 
ATOM     39  C   UNK d   0       9.470   1.064  -6.186  0.00  0.00     0.309 C 
ATOM     40  O   UNK d   0      10.405   0.795  -6.914  0.00  0.00    -0.252 OA
ATOM     41  N   UNK d   0       8.808   0.078  -5.546  0.00  0.00    -0.224 N 
ATOM     42  C   UNK d   0       7.731   0.255  -4.692  0.00  0.00     0.207 A 
ATOM     43  C   UNK d   0       9.113  -1.354  -5.648  0.00  0.00     0.042 A 
ATOM     44  N   UNK d   0       7.274  -0.926  -4.197  0.00  0.00    -0.310 N 
ATOM     45  N   UNK d   0       7.000   1.241  -4.205  0.00  0.00    -0.214 NA
ATOM     46  C   UNK d   0       8.080  -2.032  -4.732  0.00  0.00     0.043 A 
ATOM     47  C   UNK d   0       6.204  -0.650  -3.360  0.00  0.00     0.070 A 
ATOM     48  H   UNK d   0       8.578  -2.566  -3.922  0.00  0.00     0.051 H 
ATOM     49  H   UNK d   0       7.455  -2.714  -5.308  0.00  0.00     0.051 H 
ATOM     50  C   UNK d   0       6.046   0.744  -3.379  0.00  0.00     0.091 A 
ATOM     51  C   UNK d   0       5.357  -1.435  -2.592  0.00  0.00    -0.036 A 
ATOM     52  C   UNK d   0       5.031   1.330  -2.620  0.00  0.00    -0.034 A 
ATOM     53  C   UNK d   0       4.198   0.537  -1.862  0.00  0.00    -0.060 A 
ATOM     54  H   UNK d   0       4.898   2.403  -2.626  0.00  0.00     0.064 H 
ATOM     55  C   UNK d   0       4.360  -0.840  -1.847  0.00  0.00    -0.060 A 
ATOM     56  H   UNK d   0       3.414   0.991  -1.275  0.00  0.00     0.062 H 
ATOM     57  H   UNK d   0       3.701  -1.451  -1.249  0.00  0.00     0.062 H 
ATOM     58  H   UNK d   0       5.478  -2.508  -2.576  0.00  0.00     0.064 H 
ATOM     59  H   UNK d   0       8.994  -1.695  -6.676  0.00  0.00     0.049 H 
ATOM     60  H   UNK d   0      10.123  -1.554  -5.293  0.00  0.00     0.049 H 
ATOM     61  H   UNK d   0       8.348   2.561  -5.435  0.00  0.00     0.150 HD
ENDBRANCH  35  38
ENDBRANCH  32  35
ENDBRANCH   1  32
TORSDOF 12
ENDMDL
