MODEL 1
REMARK VINA RESULT:      -5.2      0.000      0.000
REMARK  2 active torsions:
REMARK  status: ('A' for Active; 'I' for Inactive)
REMARK    1  A    between atoms: C_2  and  N_13 
REMARK    2  A    between atoms: C_4  and  C_11 
ROOT
ATOM      1  C   LIG d   1       4.642  -2.825  -3.589  0.00  0.00     0.025 A 
ATOM      2  C   LIG d   1       4.729  -3.263  -4.900  0.00  0.00     0.274 A 
ATOM      3  C   LIG d   1       4.598  -2.372  -5.941  0.00  0.00     0.029 A 
ATOM      4  C   LIG d   1       4.377  -1.016  -5.674  0.00  0.00     0.063 A 
ATOM      5  C   LIG d   1       4.292  -0.577  -4.342  0.00  0.00     0.140 A 
ATOM      6  C   LIG d   1       4.424  -1.490  -3.307  0.00  0.00     0.027 A 
ATOM      7  C   LIG d   1       4.326  -1.036  -1.873  0.00  0.00     0.080 C 
ATOM      8  O   LIG d   1       4.470   0.385  -1.812  0.00  0.00    -0.339 OA
ATOM      9  C   LIG d   1       3.645   1.073  -2.761  0.00  0.00     0.191 C 
ATOM     10  O   LIG d   1       4.083   0.737  -4.081  0.00  0.00    -0.465 OA
ATOM     11  H   LIG d   1       4.747  -3.533  -2.779  0.00  0.00     0.069 H 
ATOM     12  H   LIG d   1       4.665  -2.718  -6.962  0.00  0.00     0.069 H 
ATOM     13  H   LIG d   1       3.353  -1.318  -1.468  0.00  0.00     0.061 H 
ATOM     14  H   LIG d   1       5.114  -1.509  -1.287  0.00  0.00     0.061 H 
ATOM     15  H   LIG d   1       3.732   2.149  -2.609  0.00  0.00     0.102 H 
ATOM     16  H   LIG d   1       2.606   0.768  -2.632  0.00  0.00     0.102 H 
ENDROOT
BRANCH   2  17
ATOM     17  N   LIG d   1       4.964  -4.697  -5.184  0.00  0.00     0.080 N 
ATOM     18  O   LIG d   1       6.080  -5.086  -5.479  0.00  0.00     0.041 OA
ATOM     19  O   LIG d   1       4.040  -5.489  -5.124  0.00  0.00    -0.576 OA
ENDBRANCH   2  17
BRANCH   4  20
ATOM     20  C   LIG d   1       4.236  -0.058  -6.777  0.00  0.00     0.154 C 
ATOM     21  O   LIG d   1       5.217   0.476  -7.246  0.00  0.00    -0.296 OA
ATOM     22  H   LIG d   1       3.255   0.169  -7.170  0.00  0.00     0.108 H 
ENDBRANCH   4  20
TORSDOF 2
ENDMDL
MODEL 2
REMARK VINA RESULT:      -4.9      2.469      3.577
REMARK  2 active torsions:
REMARK  status: ('A' for Active; 'I' for Inactive)
REMARK    1  A    between atoms: C_2  and  N_13 
REMARK    2  A    between atoms: C_4  and  C_11 
ROOT
ATOM      1  C   LIG d   1       6.651  -1.436  -4.993  0.00  0.00     0.025 A 
ATOM      2  C   LIG d   1       5.714  -2.123  -4.237  0.00  0.00     0.274 A 
ATOM      3  C   LIG d   1       5.080  -1.502  -3.184  0.00  0.00     0.029 A 
ATOM      4  C   LIG d   1       5.382  -0.170  -2.877  0.00  0.00     0.063 A 
ATOM      5  C   LIG d   1       6.332   0.521  -3.648  0.00  0.00     0.140 A 
ATOM      6  C   LIG d   1       6.961  -0.122  -4.702  0.00  0.00     0.027 A 
ATOM      7  C   LIG d   1       7.989   0.604  -5.533  0.00  0.00     0.080 C 
ATOM      8  O   LIG d   1       7.880   2.011  -5.303  0.00  0.00    -0.339 OA
ATOM      9  C   LIG d   1       7.825   2.349  -3.912  0.00  0.00     0.191 C 
ATOM     10  O   LIG d   1       6.621   1.814  -3.355  0.00  0.00    -0.465 OA
ATOM     11  H   LIG d   1       7.142  -1.933  -5.817  0.00  0.00     0.069 H 
ATOM     12  H   LIG d   1       4.352  -2.041  -2.597  0.00  0.00     0.069 H 
ATOM     13  H   LIG d   1       8.987   0.268  -5.251  0.00  0.00     0.061 H 
ATOM     14  H   LIG d   1       7.818   0.392  -6.589  0.00  0.00     0.061 H 
ATOM     15  H   LIG d   1       7.831   3.433  -3.798  0.00  0.00     0.102 H 
ATOM     16  H   LIG d   1       8.687   1.922  -3.397  0.00  0.00     0.102 H 
ENDROOT
BRANCH   2  17
ATOM     17  N   LIG d   1       5.393  -3.531  -4.562  0.00  0.00     0.080 N 
ATOM     18  O   LIG d   1       6.237  -4.247  -5.070  0.00  0.00     0.041 OA
ATOM     19  O   LIG d   1       4.284  -3.973  -4.322  0.00  0.00    -0.576 OA
ENDBRANCH   2  17
BRANCH   4  20
ATOM     20  C   LIG d   1       4.712   0.501  -1.757  0.00  0.00     0.154 C 
ATOM     21  O   LIG d   1       3.671   1.094  -1.939  0.00  0.00    -0.296 OA
ATOM     22  H   LIG d   1       5.147   0.464  -0.769  0.00  0.00     0.108 H 
ENDBRANCH   4  20
TORSDOF 2
ENDMDL
MODEL 3
REMARK VINA RESULT:      -4.8      3.456      5.032
REMARK  2 active torsions:
REMARK  status: ('A' for Active; 'I' for Inactive)
REMARK    1  A    between atoms: C_2  and  N_13 
REMARK    2  A    between atoms: C_4  and  C_11 
ROOT
ATOM      1  C   LIG d   1       5.985   1.164  -3.273  0.00  0.00     0.025 A 
ATOM      2  C   LIG d   1       7.257   0.995  -3.796  0.00  0.00     0.274 A 
ATOM      3  C   LIG d   1       7.723  -0.264  -4.097  0.00  0.00     0.029 A 
ATOM      4  C   LIG d   1       6.909  -1.380  -3.876  0.00  0.00     0.063 A 
ATOM      5  C   LIG d   1       5.619  -1.204  -3.346  0.00  0.00     0.140 A 
ATOM      6  C   LIG d   1       5.168   0.072  -3.046  0.00  0.00     0.027 A 
ATOM      7  C   LIG d   1       3.791   0.278  -2.469  0.00  0.00     0.080 C 
ATOM      8  O   LIG d   1       3.011  -0.905  -2.665  0.00  0.00    -0.339 OA
ATOM      9  C   LIG d   1       3.698  -2.100  -2.275  0.00  0.00     0.191 C 
ATOM     10  O   LIG d   1       4.827  -2.284  -3.135  0.00  0.00    -0.465 OA
ATOM     11  H   LIG d   1       5.628   2.156  -3.040  0.00  0.00     0.069 H 
ATOM     12  H   LIG d   1       8.716  -0.391  -4.505  0.00  0.00     0.069 H 
ATOM     13  H   LIG d   1       3.871   0.485  -1.402  0.00  0.00     0.061 H 
ATOM     14  H   LIG d   1       3.309   1.119  -2.968  0.00  0.00     0.061 H 
ATOM     15  H   LIG d   1       3.027  -2.954  -2.365  0.00  0.00     0.102 H 
ATOM     16  H   LIG d   1       4.037  -2.008  -1.243  0.00  0.00     0.102 H 
ENDROOT
BRANCH   2  17
ATOM     17  N   LIG d   1       8.118   2.176  -4.033  0.00  0.00     0.080 N 
ATOM     18  O   LIG d   1       8.060   2.771  -5.094  0.00  0.00     0.041 OA
ATOM     19  O   LIG d   1       8.887   2.552  -3.165  0.00  0.00    -0.576 OA
ENDBRANCH   2  17
BRANCH   4  20
ATOM     20  C   LIG d   1       7.397  -2.727  -4.194  0.00  0.00     0.154 C 
ATOM     21  O   LIG d   1       8.518  -3.059  -3.871  0.00  0.00    -0.296 OA
ATOM     22  H   LIG d   1       6.756  -3.424  -4.715  0.00  0.00     0.108 H 
ENDBRANCH   4  20
TORSDOF 2
ENDMDL
MODEL 4
REMARK VINA RESULT:      -4.8      2.555      2.822
REMARK  2 active torsions:
REMARK  status: ('A' for Active; 'I' for Inactive)
REMARK    1  A    between atoms: C_2  and  N_13 
REMARK    2  A    between atoms: C_4  and  C_11 
ROOT
ATOM      1  C   LIG d   1       5.970  -2.097  -3.348  0.00  0.00     0.025 A 
ATOM      2  C   LIG d   1       7.156  -2.129  -4.062  0.00  0.00     0.274 A 
ATOM      3  C   LIG d   1       7.834  -0.962  -4.338  0.00  0.00     0.029 A 
ATOM      4  C   LIG d   1       7.322   0.262  -3.892  0.00  0.00     0.063 A 
ATOM      5  C   LIG d   1       6.119   0.288  -3.167  0.00  0.00     0.140 A 
ATOM      6  C   LIG d   1       5.450  -0.897  -2.902  0.00  0.00     0.027 A 
ATOM      7  C   LIG d   1       4.154  -0.884  -2.133  0.00  0.00     0.080 C 
ATOM      8  O   LIG d   1       4.005   0.374  -1.470  0.00  0.00    -0.339 OA
ATOM      9  C   LIG d   1       4.251   1.493  -2.331  0.00  0.00     0.191 C 
ATOM     10  O   LIG d   1       5.625   1.473  -2.731  0.00  0.00    -0.465 OA
ATOM     11  H   LIG d   1       5.447  -3.018  -3.137  0.00  0.00     0.069 H 
ATOM     12  H   LIG d   1       8.758  -0.992  -4.896  0.00  0.00     0.069 H 
ATOM     13  H   LIG d   1       3.321  -1.031  -2.821  0.00  0.00     0.061 H 
ATOM     14  H   LIG d   1       4.161  -1.687  -1.395  0.00  0.00     0.061 H 
ATOM     15  H   LIG d   1       4.039   2.419  -1.797  0.00  0.00     0.102 H 
ATOM     16  H   LIG d   1       3.613   1.424  -3.212  0.00  0.00     0.102 H 
ENDROOT
BRANCH   2  17
ATOM     17  N   LIG d   1       7.699  -3.424  -4.532  0.00  0.00     0.080 N 
ATOM     18  O   LIG d   1       8.897  -3.637  -4.482  0.00  0.00     0.041 OA
ATOM     19  O   LIG d   1       6.947  -4.276  -4.970  0.00  0.00    -0.576 OA
ENDBRANCH   2  17
BRANCH   4  20
ATOM     20  C   LIG d   1       8.037   1.511  -4.181  0.00  0.00     0.154 C 
ATOM     21  O   LIG d   1       7.776   2.142  -5.183  0.00  0.00    -0.296 OA
ATOM     22  H   LIG d   1       8.795   1.868  -3.499  0.00  0.00     0.108 H 
ENDBRANCH   4  20
TORSDOF 2
ENDMDL
MODEL 5
REMARK VINA RESULT:      -4.8      3.327      5.396
REMARK  2 active torsions:
REMARK  status: ('A' for Active; 'I' for Inactive)
REMARK    1  A    between atoms: C_2  and  N_13 
REMARK    2  A    between atoms: C_4  and  C_11 
ROOT
ATOM      1  C   LIG d   1       7.514  -0.106  -4.570  0.00  0.00     0.025 A 
ATOM      2  C   LIG d   1       7.259   1.089  -3.916  0.00  0.00     0.274 A 
ATOM      3  C   LIG d   1       6.173   1.203  -3.076  0.00  0.00     0.029 A 
ATOM      4  C   LIG d   1       5.326   0.107  -2.880  0.00  0.00     0.063 A 
ATOM      5  C   LIG d   1       5.591  -1.102  -3.545  0.00  0.00     0.140 A 
ATOM      6  C   LIG d   1       6.686  -1.197  -4.389  0.00  0.00     0.027 A 
ATOM      7  C   LIG d   1       6.979  -2.485  -5.117  0.00  0.00     0.080 C 
ATOM      8  O   LIG d   1       6.242  -3.551  -4.513  0.00  0.00    -0.339 OA
ATOM      9  C   LIG d   1       4.861  -3.231  -4.306  0.00  0.00     0.191 C 
ATOM     10  O   LIG d   1       4.772  -2.167  -3.353  0.00  0.00    -0.465 OA
ATOM     11  H   LIG d   1       8.368  -0.185  -5.226  0.00  0.00     0.069 H 
ATOM     12  H   LIG d   1       5.978   2.136  -2.568  0.00  0.00     0.069 H 
ATOM     13  H   LIG d   1       6.683  -2.387  -6.162  0.00  0.00     0.061 H 
ATOM     14  H   LIG d   1       8.046  -2.700  -5.060  0.00  0.00     0.061 H 
ATOM     15  H   LIG d   1       4.335  -4.107  -3.926  0.00  0.00     0.102 H 
ATOM     16  H   LIG d   1       4.413  -2.915  -5.249  0.00  0.00     0.102 H 
ENDROOT
BRANCH   2  17
ATOM     17  N   LIG d   1       8.156   2.248  -4.120  0.00  0.00     0.080 N 
ATOM     18  O   LIG d   1       8.171   2.826  -5.192  0.00  0.00     0.041 OA
ATOM     19  O   LIG d   1       8.881   2.623  -3.215  0.00  0.00    -0.576 OA
ENDBRANCH   2  17
BRANCH   4  20
ATOM     20  C   LIG d   1       4.166   0.219  -1.987  0.00  0.00     0.154 C 
ATOM     21  O   LIG d   1       3.526   1.247  -1.949  0.00  0.00    -0.296 OA
ATOM     22  H   LIG d   1       3.883  -0.618  -1.364  0.00  0.00     0.108 H 
ENDBRANCH   4  20
TORSDOF 2
ENDMDL
MODEL 6
REMARK VINA RESULT:      -4.7      2.826      4.466
REMARK  2 active torsions:
REMARK  status: ('A' for Active; 'I' for Inactive)
REMARK    1  A    between atoms: C_2  and  N_13 
REMARK    2  A    between atoms: C_4  and  C_11 
ROOT
ATOM      1  C   LIG d   1       4.830  -0.528  -6.607  0.00  0.00     0.025 A 
ATOM      2  C   LIG d   1       3.557   0.005  -6.490  0.00  0.00     0.274 A 
ATOM      3  C   LIG d   1       2.999   0.209  -5.248  0.00  0.00     0.029 A 
ATOM      4  C   LIG d   1       3.723  -0.122  -4.097  0.00  0.00     0.063 A 
ATOM      5  C   LIG d   1       5.015  -0.661  -4.221  0.00  0.00     0.140 A 
ATOM      6  C   LIG d   1       5.558  -0.862  -5.481  0.00  0.00     0.027 A 
ATOM      7  C   LIG d   1       6.939  -1.447  -5.631  0.00  0.00     0.080 C 
ATOM      8  O   LIG d   1       7.629  -1.367  -4.380  0.00  0.00    -0.339 OA
ATOM      9  C   LIG d   1       6.847  -1.842  -3.278  0.00  0.00     0.191 C 
ATOM     10  O   LIG d   1       5.720  -0.978  -3.106  0.00  0.00    -0.465 OA
ATOM     11  H   LIG d   1       5.259  -0.683  -7.586  0.00  0.00     0.069 H 
ATOM     12  H   LIG d   1       2.006   0.624  -5.162  0.00  0.00     0.069 H 
ATOM     13  H   LIG d   1       6.860  -2.492  -5.934  0.00  0.00     0.061 H 
ATOM     14  H   LIG d   1       7.490  -0.890  -6.388  0.00  0.00     0.061 H 
ATOM     15  H   LIG d   1       7.452  -1.838  -2.371  0.00  0.00     0.102 H 
ATOM     16  H   LIG d   1       6.502  -2.856  -3.483  0.00  0.00     0.102 H 
ENDROOT
BRANCH   2  17
ATOM     17  N   LIG d   1       2.791   0.358  -7.708  0.00  0.00     0.080 N 
ATOM     18  O   LIG d   1       2.769   1.510  -8.101  0.00  0.00     0.041 OA
ATOM     19  O   LIG d   1       2.183  -0.506  -8.315  0.00  0.00    -0.576 OA
ENDBRANCH   2  17
BRANCH   4  20
ATOM     20  C   LIG d   1       3.138   0.091  -2.768  0.00  0.00     0.154 C 
ATOM     21  O   LIG d   1       3.341   1.128  -2.174  0.00  0.00    -0.296 OA
ATOM     22  H   LIG d   1       2.524  -0.677  -2.320  0.00  0.00     0.108 H 
ENDBRANCH   4  20
TORSDOF 2
ENDMDL
MODEL 7
REMARK VINA RESULT:      -4.7      1.981      2.357
REMARK  2 active torsions:
REMARK  status: ('A' for Active; 'I' for Inactive)
REMARK    1  A    between atoms: C_2  and  N_13 
REMARK    2  A    between atoms: C_4  and  C_11 
ROOT
ATOM      1  C   LIG d   1       4.496  -3.023  -3.861  0.00  0.00     0.025 A 
ATOM      2  C   LIG d   1       5.377  -3.624  -4.745  0.00  0.00     0.274 A 
ATOM      3  C   LIG d   1       6.571  -3.015  -5.060  0.00  0.00     0.029 A 
ATOM      4  C   LIG d   1       6.898  -1.784  -4.482  0.00  0.00     0.063 A 
ATOM      5  C   LIG d   1       6.002  -1.179  -3.585  0.00  0.00     0.140 A 
ATOM      6  C   LIG d   1       4.803  -1.806  -3.282  0.00  0.00     0.027 A 
ATOM      7  C   LIG d   1       3.828  -1.166  -2.328  0.00  0.00     0.080 C 
ATOM      8  O   LIG d   1       4.490  -0.137  -1.588  0.00  0.00    -0.339 OA
ATOM      9  C   LIG d   1       5.251   0.749  -2.419  0.00  0.00     0.191 C 
ATOM     10  O   LIG d   1       6.320   0.013  -3.020  0.00  0.00    -0.465 OA
ATOM     11  H   LIG d   1       3.563  -3.509  -3.620  0.00  0.00     0.069 H 
ATOM     12  H   LIG d   1       7.254  -3.488  -5.751  0.00  0.00     0.069 H 
ATOM     13  H   LIG d   1       3.001  -0.731  -2.891  0.00  0.00     0.061 H 
ATOM     14  H   LIG d   1       3.443  -1.920  -1.641  0.00  0.00     0.061 H 
ATOM     15  H   LIG d   1       5.659   1.558  -1.813  0.00  0.00     0.102 H 
ATOM     16  H   LIG d   1       4.609   1.163  -3.197  0.00  0.00     0.102 H 
ENDROOT
BRANCH   2  17
ATOM     17  N   LIG d   1       5.032  -4.929  -5.356  0.00  0.00     0.080 N 
ATOM     18  O   LIG d   1       3.926  -5.409  -5.184  0.00  0.00     0.041 OA
ATOM     19  O   LIG d   1       5.856  -5.522  -6.029  0.00  0.00    -0.576 OA
ENDBRANCH   2  17
BRANCH   4  20
ATOM     20  C   LIG d   1       8.168  -1.127  -4.812  0.00  0.00     0.154 C 
ATOM     21  O   LIG d   1       9.146  -1.792  -5.075  0.00  0.00    -0.296 OA
ATOM     22  H   LIG d   1       8.231  -0.048  -4.819  0.00  0.00     0.108 H 
ENDBRANCH   4  20
TORSDOF 2
ENDMDL
MODEL 8
REMARK VINA RESULT:      -4.7      2.711      4.180
REMARK  2 active torsions:
REMARK  status: ('A' for Active; 'I' for Inactive)
REMARK    1  A    between atoms: C_2  and  N_13 
REMARK    2  A    between atoms: C_4  and  C_11 
ROOT
ATOM      1  C   LIG d   1       2.858   0.239  -5.608  0.00  0.00     0.025 A 
ATOM      2  C   LIG d   1       3.426   0.203  -6.871  0.00  0.00     0.274 A 
ATOM      3  C   LIG d   1       4.518  -0.598  -7.119  0.00  0.00     0.029 A 
ATOM      4  C   LIG d   1       5.056  -1.380  -6.092  0.00  0.00     0.063 A 
ATOM      5  C   LIG d   1       4.475  -1.341  -4.813  0.00  0.00     0.140 A 
ATOM      6  C   LIG d   1       3.378  -0.526  -4.581  0.00  0.00     0.027 A 
ATOM      7  C   LIG d   1       2.748  -0.466  -3.213  0.00  0.00     0.080 C 
ATOM      8  O   LIG d   1       3.194  -1.579  -2.434  0.00  0.00    -0.339 OA
ATOM      9  C   LIG d   1       4.615  -1.762  -2.480  0.00  0.00     0.191 C 
ATOM     10  O   LIG d   1       4.993  -2.102  -3.817  0.00  0.00    -0.465 OA
ATOM     11  H   LIG d   1       2.001   0.871  -5.423  0.00  0.00     0.069 H 
ATOM     12  H   LIG d   1       4.958  -0.623  -8.105  0.00  0.00     0.069 H 
ATOM     13  H   LIG d   1       3.041   0.461  -2.718  0.00  0.00     0.061 H 
ATOM     14  H   LIG d   1       1.663  -0.499  -3.309  0.00  0.00     0.061 H 
ATOM     15  H   LIG d   1       4.902  -2.566  -1.802  0.00  0.00     0.102 H 
ATOM     16  H   LIG d   1       5.113  -0.838  -2.183  0.00  0.00     0.102 H 
ENDROOT
BRANCH   2  17
ATOM     17  N   LIG d   1       2.856   1.029  -7.959  0.00  0.00     0.080 N 
ATOM     18  O   LIG d   1       2.379   0.495  -8.944  0.00  0.00     0.041 OA
ATOM     19  O   LIG d   1       2.865   2.244  -7.869  0.00  0.00    -0.576 OA
ENDBRANCH   2  17
BRANCH   4  20
ATOM     20  C   LIG d   1       6.220  -2.237  -6.346  0.00  0.00     0.154 C 
ATOM     21  O   LIG d   1       7.329  -1.752  -6.409  0.00  0.00    -0.296 OA
ATOM     22  H   LIG d   1       6.088  -3.302  -6.477  0.00  0.00     0.108 H 
ENDBRANCH   4  20
TORSDOF 2
ENDMDL
MODEL 9
REMARK VINA RESULT:      -4.5      3.544      4.992
REMARK  2 active torsions:
REMARK  status: ('A' for Active; 'I' for Inactive)
REMARK    1  A    between atoms: C_2  and  N_13 
REMARK    2  A    between atoms: C_4  and  C_11 
ROOT
ATOM      1  C   LIG d   1       5.967   1.111  -3.203  0.00  0.00     0.025 A 
ATOM      2  C   LIG d   1       5.049   0.074  -3.158  0.00  0.00     0.274 A 
ATOM      3  C   LIG d   1       5.366  -1.158  -3.684  0.00  0.00     0.029 A 
ATOM      4  C   LIG d   1       6.622  -1.365  -4.265  0.00  0.00     0.063 A 
ATOM      5  C   LIG d   1       7.550  -0.311  -4.306  0.00  0.00     0.140 A 
ATOM      6  C   LIG d   1       7.211   0.924  -3.775  0.00  0.00     0.027 A 
ATOM      7  C   LIG d   1       8.192   2.068  -3.819  0.00  0.00     0.080 C 
ATOM      8  O   LIG d   1       9.500   1.563  -4.102  0.00  0.00    -0.339 OA
ATOM      9  C   LIG d   1       9.522   0.655  -5.210  0.00  0.00     0.191 C 
ATOM     10  O   LIG d   1       8.769  -0.512  -4.865  0.00  0.00    -0.465 OA
ATOM     11  H   LIG d   1       5.709   2.074  -2.788  0.00  0.00     0.069 H 
ATOM     12  H   LIG d   1       4.647  -1.963  -3.648  0.00  0.00     0.069 H 
ATOM     13  H   LIG d   1       7.898   2.768  -4.602  0.00  0.00     0.061 H 
ATOM     14  H   LIG d   1       8.198   2.579  -2.857  0.00  0.00     0.061 H 
ATOM     15  H   LIG d   1      10.552   0.373  -5.431  0.00  0.00     0.102 H 
ATOM     16  H   LIG d   1       9.078   1.132  -6.083  0.00  0.00     0.102 H 
ENDROOT
BRANCH   2  17
ATOM     17  N   LIG d   1       3.721   0.292  -2.542  0.00  0.00     0.080 N 
ATOM     18  O   LIG d   1       2.856  -0.560  -2.640  0.00  0.00     0.041 OA
ATOM     19  O   LIG d   1       3.492   1.325  -1.938  0.00  0.00    -0.576 OA
ENDBRANCH   2  17
BRANCH   4  20
ATOM     20  C   LIG d   1       6.969  -2.675  -4.828  0.00  0.00     0.154 C 
ATOM     21  O   LIG d   1       7.492  -3.517  -4.130  0.00  0.00    -0.296 OA
ATOM     22  H   LIG d   1       6.758  -2.889  -5.866  0.00  0.00     0.108 H 
ENDBRANCH   4  20
TORSDOF 2
ENDMDL
MODEL 10
REMARK VINA RESULT:      -4.5      9.667     11.585
REMARK  2 active torsions:
REMARK  status: ('A' for Active; 'I' for Inactive)
REMARK    1  A    between atoms: C_2  and  N_13 
REMARK    2  A    between atoms: C_4  and  C_11 
ROOT
ATOM      1  C   LIG d   1      10.518   5.765  -0.823  0.00  0.00     0.025 A 
ATOM      2  C   LIG d   1      10.692   6.849   0.022  0.00  0.00     0.274 A 
ATOM      3  C   LIG d   1      10.531   8.132  -0.451  0.00  0.00     0.029 A 
ATOM      4  C   LIG d   1      10.188   8.343  -1.791  0.00  0.00     0.063 A 
ATOM      5  C   LIG d   1      10.012   7.240  -2.643  0.00  0.00     0.140 A 
ATOM      6  C   LIG d   1      10.181   5.956  -2.150  0.00  0.00     0.027 A 
ATOM      7  C   LIG d   1      10.004   4.762  -3.054  0.00  0.00     0.080 C 
ATOM      8  O   LIG d   1       9.314   5.162  -4.241  0.00  0.00    -0.339 OA
ATOM      9  C   LIG d   1       9.864   6.343  -4.838  0.00  0.00     0.191 C 
ATOM     10  O   LIG d   1       9.675   7.442  -3.942  0.00  0.00    -0.465 OA
ATOM     11  H   LIG d   1      10.646   4.763  -0.443  0.00  0.00     0.069 H 
ATOM     12  H   LIG d   1      10.668   8.974   0.212  0.00  0.00     0.069 H 
ATOM     13  H   LIG d   1      10.982   4.361  -3.322  0.00  0.00     0.061 H 
ATOM     14  H   LIG d   1       9.427   3.996  -2.536  0.00  0.00     0.061 H 
ATOM     15  H   LIG d   1       9.355   6.547  -5.780  0.00  0.00     0.102 H 
ATOM     16  H   LIG d   1      10.929   6.199  -5.021  0.00  0.00     0.102 H 
ENDROOT
BRANCH   2  17
ATOM     17  N   LIG d   1      11.052   6.627   1.440  0.00  0.00     0.080 N 
ATOM     18  O   LIG d   1      10.936   5.519   1.933  0.00  0.00     0.041 OA
ATOM     19  O   LIG d   1      11.464   7.554   2.116  0.00  0.00    -0.576 OA
ENDBRANCH   2  17
BRANCH   4  20
ATOM     20  C   LIG d   1      10.014   9.707  -2.304  0.00  0.00     0.154 C 
ATOM     21  O   LIG d   1       9.151  10.423  -1.845  0.00  0.00    -0.296 OA
ATOM     22  H   LIG d   1      10.657  10.072  -3.092  0.00  0.00     0.108 H 
ENDBRANCH   4  20
TORSDOF 2
ENDMDL
