MODEL 1
REMARK VINA RESULT:      -8.3      0.000      0.000
REMARK  7 active torsions:
REMARK  status: ('A' for Active; 'I' for Inactive)
REMARK    1  A    between atoms: C_1  and  O_2 
REMARK    2  A    between atoms: O_2  and  C_3 
REMARK    3  A    between atoms: C_6  and  S_9 
REMARK    4  A    between atoms: S_9  and  N_12 
REMARK    5  A    between atoms: N_12  and  C_13 
REMARK       I    between atoms: N_27  and  C_29 
REMARK    6  A    between atoms: C_29  and  C_31 
REMARK    7  A    between atoms: C_31  and  C_32 
ROOT
ATOM      1  C   LIG d   1       3.659  -0.123  -7.085  0.00  0.00     0.112 C 
ATOM      2  C   LIG d   1       4.427  -1.247  -7.221  0.00  0.00    -0.032 C 
ATOM      3  C   LIG d   1       4.769  -1.976  -6.076  0.00  0.00    -0.040 C 
ATOM      4  C   LIG d   1       4.330  -1.584  -4.851  0.00  0.00     0.027 C 
ATOM      5  N   LIG d   1       3.495  -0.524  -4.723  0.00  0.00    -0.310 N 
ATOM      6  C   LIG d   1       3.222   0.254  -5.800  0.00  0.00     0.274 C 
ATOM      7  O   LIG d   1       2.587   1.286  -5.656  0.00  0.00    -0.266 OA
ATOM      8  C   LIG d   1       2.832  -0.176  -3.466  0.00  0.00     0.031 C 
ATOM      9  C   LIG d   1       3.547  -0.755  -2.258  0.00  0.00    -0.006 C 
ATOM     10  H   LIG d   1       2.876  -0.684  -1.401  0.00  0.00     0.033 H 
ATOM     11  C   LIG d   1       3.859  -2.232  -2.496  0.00  0.00    -0.037 C 
ATOM     12  C   LIG d   1       4.858  -2.336  -3.651  0.00  0.00     0.016 C 
ATOM     13  H   LIG d   1       5.040  -3.379  -3.913  0.00  0.00     0.038 H 
ATOM     14  C   LIG d   1       6.158  -1.693  -3.224  0.00  0.00     0.023 C 
ATOM     15  N   LIG d   1       5.862  -0.285  -2.916  0.00  0.00    -0.300 N 
ATOM     16  C   LIG d   1       4.819   0.013  -1.928  0.00  0.00     0.019 C 
ATOM     17  C   LIG d   1       6.535   0.710  -3.529  0.00  0.00     0.220 C 
ATOM     18  O   LIG d   1       6.281   1.866  -3.265  0.00  0.00    -0.275 OA
ATOM     19  H   LIG d   1       4.765  -1.566  -8.196  0.00  0.00     0.064 H 
ATOM     20  H   LIG d   1       5.386  -2.857  -6.167  0.00  0.00     0.064 H 
ATOM     21  H   LIG d   1       2.799   0.909  -3.371  0.00  0.00     0.050 H 
ATOM     22  H   LIG d   1       1.811  -0.558  -3.488  0.00  0.00     0.050 H 
ATOM     23  H   LIG d   1       4.295  -2.664  -1.595  0.00  0.00     0.028 H 
ATOM     24  H   LIG d   1       2.943  -2.764  -2.755  0.00  0.00     0.028 H 
ATOM     25  H   LIG d   1       6.879  -1.751  -4.039  0.00  0.00     0.047 H 
ATOM     26  H   LIG d   1       6.556  -2.190  -2.340  0.00  0.00     0.047 H 
ATOM     27  H   LIG d   1       4.608   1.083  -1.937  0.00  0.00     0.047 H 
ATOM     28  H   LIG d   1       5.168  -0.276  -0.936  0.00  0.00     0.047 H 
ENDROOT
BRANCH   1  29
ATOM     29  N   LIG d   1       3.320   0.645  -8.205  0.00  0.00    -0.211 N 
ATOM     30  H   LIG d   1       2.401   0.670  -8.516  0.00  0.00     0.174 HD
BRANCH  29  31
ATOM     31  S   LIG d   1       4.486   1.509  -9.002  0.00  0.00     0.072 S 
ATOM     32  O   LIG d   1       5.625   1.536  -8.152  0.00  0.00    -0.150 OA
ATOM     33  O   LIG d   1       3.861   2.694  -9.475  0.00  0.00    -0.150 OA
BRANCH  31  34
ATOM     34  C   LIG d   1       4.942   0.578 -10.427  0.00  0.00     0.109 A 
ATOM     35  C   LIG d   1       6.170  -0.054 -10.474  0.00  0.00    -0.032 A 
ATOM     36  C   LIG d   1       6.528  -0.789 -11.587  0.00  0.00    -0.018 A 
ATOM     37  H   LIG d   1       6.850   0.024  -9.637  0.00  0.00     0.064 H 
ATOM     38  C   LIG d   1       5.658  -0.884 -12.663  0.00  0.00     0.120 A 
ATOM     39  H   LIG d   1       7.487  -1.286 -11.622  0.00  0.00     0.066 H 
ATOM     40  C   LIG d   1       4.425  -0.249 -12.613  0.00  0.00    -0.018 A 
ATOM     41  C   LIG d   1       4.070   0.480 -11.495  0.00  0.00    -0.032 A 
ATOM     42  H   LIG d   1       3.743  -0.326 -13.448  0.00  0.00     0.066 H 
ATOM     43  H   LIG d   1       3.111   0.974 -11.456  0.00  0.00     0.064 H 
BRANCH  38  44
ATOM     44  O   LIG d   1       6.010  -1.603 -13.762  0.00  0.00    -0.495 OA
BRANCH  44  45
ATOM     45  C   LIG d   1       5.916  -0.944 -15.026  0.00  0.00     0.079 C 
ATOM     46  H   LIG d   1       4.932  -0.484 -15.123  0.00  0.00     0.066 H 
ATOM     47  H   LIG d   1       6.685  -0.175 -15.093  0.00  0.00     0.066 H 
ATOM     48  H   LIG d   1       6.059  -1.671 -15.826  0.00  0.00     0.066 H 
ENDBRANCH  44  45
ENDBRANCH  38  44
ENDBRANCH  31  34
ENDBRANCH  29  31
ENDBRANCH   1  29
BRANCH  17  49
ATOM     49  C   LIG d   1       7.603   0.385  -4.541  0.00  0.00     0.056 C 
ATOM     50  H   LIG d   1       8.202  -0.452  -4.182  0.00  0.00     0.041 H 
ATOM     51  H   LIG d   1       7.136   0.117  -5.489  0.00  0.00     0.041 H 
BRANCH  49  52
ATOM     52  C   LIG d   1       8.488   1.589  -4.741  0.00  0.00    -0.002 A 
ATOM     53  S   LIG d   1       9.638   2.341  -3.602  0.00  0.00    -0.101 SA
ATOM     54  C   LIG d   1      10.212   3.660  -4.659  0.00  0.00    -0.024 A 
ATOM     55  C   LIG d   1       9.495   3.446  -5.790  0.00  0.00    -0.054 A 
ATOM     56  H   LIG d   1      10.940   4.431  -4.451  0.00  0.00     0.069 H 
ATOM     57  C   LIG d   1       8.611   2.385  -5.831  0.00  0.00    -0.051 A 
ATOM     58  H   LIG d   1       9.612   4.096  -6.644  0.00  0.00     0.062 H 
ATOM     59  H   LIG d   1       8.028   2.192  -6.719  0.00  0.00     0.063 H 
ENDBRANCH  49  52
ENDBRANCH  17  49
TORSDOF 7
ENDMDL
MODEL 2
REMARK VINA RESULT:      -7.5      2.334      2.649
REMARK  7 active torsions:
REMARK  status: ('A' for Active; 'I' for Inactive)
REMARK    1  A    between atoms: C_1  and  O_2 
REMARK    2  A    between atoms: O_2  and  C_3 
REMARK    3  A    between atoms: C_6  and  S_9 
REMARK    4  A    between atoms: S_9  and  N_12 
REMARK    5  A    between atoms: N_12  and  C_13 
REMARK       I    between atoms: N_27  and  C_29 
REMARK    6  A    between atoms: C_29  and  C_31 
REMARK    7  A    between atoms: C_31  and  C_32 
ROOT
ATOM      1  C   LIG d   1       4.254  -0.509  -7.329  0.00  0.00     0.112 C 
ATOM      2  C   LIG d   1       5.027  -1.629  -7.194  0.00  0.00    -0.032 C 
ATOM      3  C   LIG d   1       5.153  -2.216  -5.930  0.00  0.00    -0.040 C 
ATOM      4  C   LIG d   1       4.503  -1.693  -4.857  0.00  0.00     0.027 C 
ATOM      5  N   LIG d   1       3.664  -0.638  -5.005  0.00  0.00    -0.310 N 
ATOM      6  C   LIG d   1       3.594   0.006  -6.197  0.00  0.00     0.274 C 
ATOM      7  O   LIG d   1       2.949   1.039  -6.289  0.00  0.00    -0.266 OA
ATOM      8  C   LIG d   1       2.787  -0.158  -3.936  0.00  0.00     0.031 C 
ATOM      9  C   LIG d   1       3.270  -0.583  -2.560  0.00  0.00    -0.006 C 
ATOM     10  H   LIG d   1       2.457  -0.424  -1.852  0.00  0.00     0.033 H 
ATOM     11  C   LIG d   1       3.612  -2.073  -2.566  0.00  0.00    -0.037 C 
ATOM     12  C   LIG d   1       4.802  -2.294  -3.503  0.00  0.00     0.016 C 
ATOM     13  H   LIG d   1       5.023  -3.357  -3.605  0.00  0.00     0.038 H 
ATOM     14  C   LIG d   1       6.007  -1.586  -2.927  0.00  0.00     0.023 C 
ATOM     15  N   LIG d   1       5.669  -0.156  -2.842  0.00  0.00    -0.300 N 
ATOM     16  C   LIG d   1       4.466   0.237  -2.099  0.00  0.00     0.019 C 
ATOM     17  C   LIG d   1       6.446   0.772  -3.436  0.00  0.00     0.220 C 
ATOM     18  O   LIG d   1       6.156   1.947  -3.358  0.00  0.00    -0.275 OA
ATOM     19  H   LIG d   1       5.533  -2.053  -8.049  0.00  0.00     0.064 H 
ATOM     20  H   LIG d   1       5.771  -3.092  -5.805  0.00  0.00     0.064 H 
ATOM     21  H   LIG d   1       2.744   0.930  -3.975  0.00  0.00     0.050 H 
ATOM     22  H   LIG d   1       1.785  -0.556  -4.097  0.00  0.00     0.050 H 
ATOM     23  H   LIG d   1       3.876  -2.392  -1.558  0.00  0.00     0.028 H 
ATOM     24  H   LIG d   1       2.755  -2.645  -2.921  0.00  0.00     0.028 H 
ATOM     25  H   LIG d   1       6.863  -1.726  -3.587  0.00  0.00     0.047 H 
ATOM     26  H   LIG d   1       6.237  -1.972  -1.934  0.00  0.00     0.047 H 
ATOM     27  H   LIG d   1       4.266   1.296  -2.270  0.00  0.00     0.047 H 
ATOM     28  H   LIG d   1       4.630   0.070  -1.033  0.00  0.00     0.047 H 
ENDROOT
BRANCH   1  29
ATOM     29  N   LIG d   1       4.125   0.120  -8.573  0.00  0.00    -0.211 N 
ATOM     30  H   LIG d   1       4.700   0.868  -8.801  0.00  0.00     0.174 HD
BRANCH  29  31
ATOM     31  S   LIG d   1       2.991  -0.412  -9.657  0.00  0.00     0.072 S 
ATOM     32  O   LIG d   1       3.169   0.354 -10.841  0.00  0.00    -0.150 OA
ATOM     33  O   LIG d   1       1.754  -0.460  -8.960  0.00  0.00    -0.150 OA
BRANCH  31  34
ATOM     34  C   LIG d   1       3.402  -2.076 -10.066  0.00  0.00     0.109 A 
ATOM     35  C   LIG d   1       2.604  -3.113  -9.622  0.00  0.00    -0.032 A 
ATOM     36  C   LIG d   1       2.920  -4.418  -9.946  0.00  0.00    -0.018 A 
ATOM     37  H   LIG d   1       1.728  -2.903  -9.024  0.00  0.00     0.064 H 
ATOM     38  C   LIG d   1       4.047  -4.688 -10.708  0.00  0.00     0.120 A 
ATOM     39  H   LIG d   1       2.294  -5.228  -9.601  0.00  0.00     0.066 H 
ATOM     40  C   LIG d   1       4.847  -3.645 -11.153  0.00  0.00    -0.018 A 
ATOM     41  C   LIG d   1       4.523  -2.342 -10.831  0.00  0.00    -0.032 A 
ATOM     42  H   LIG d   1       5.723  -3.853 -11.751  0.00  0.00     0.066 H 
ATOM     43  H   LIG d   1       5.145  -1.530 -11.177  0.00  0.00     0.064 H 
BRANCH  38  44
ATOM     44  O   LIG d   1       4.364  -5.972 -11.023  0.00  0.00    -0.495 OA
BRANCH  44  45
ATOM     45  C   LIG d   1       3.749  -7.002 -10.247  0.00  0.00     0.079 C 
ATOM     46  H   LIG d   1       2.732  -7.167 -10.604  0.00  0.00     0.066 H 
ATOM     47  H   LIG d   1       4.324  -7.923 -10.347  0.00  0.00     0.066 H 
ATOM     48  H   LIG d   1       3.724  -6.701  -9.200  0.00  0.00     0.066 H 
ENDBRANCH  44  45
ENDBRANCH  38  44
ENDBRANCH  31  34
ENDBRANCH  29  31
ENDBRANCH   1  29
BRANCH  17  49
ATOM     49  C   LIG d   1       7.677   0.349  -4.195  0.00  0.00     0.056 C 
ATOM     50  H   LIG d   1       8.261  -0.341  -3.586  0.00  0.00     0.041 H 
ATOM     51  H   LIG d   1       7.382  -0.144  -5.121  0.00  0.00     0.041 H 
BRANCH  49  52
ATOM     52  C   LIG d   1       8.509   1.564  -4.518  0.00  0.00    -0.002 A 
ATOM     53  S   LIG d   1       9.542   2.540  -3.437  0.00  0.00    -0.101 SA
ATOM     54  C   LIG d   1      10.115   3.727  -4.641  0.00  0.00    -0.024 A 
ATOM     55  C   LIG d   1       9.486   3.310  -5.767  0.00  0.00    -0.054 A 
ATOM     56  H   LIG d   1      10.786   4.562  -4.506  0.00  0.00     0.069 H 
ATOM     57  C   LIG d   1       8.662   2.202  -5.704  0.00  0.00    -0.051 A 
ATOM     58  H   LIG d   1       9.624   3.838  -6.699  0.00  0.00     0.062 H 
ATOM     59  H   LIG d   1       8.150   1.849  -6.586  0.00  0.00     0.063 H 
ENDBRANCH  49  52
ENDBRANCH  17  49
TORSDOF 7
ENDMDL
MODEL 3
REMARK VINA RESULT:      -6.8      3.844      7.143
REMARK  7 active torsions:
REMARK  status: ('A' for Active; 'I' for Inactive)
REMARK    1  A    between atoms: C_1  and  O_2 
REMARK    2  A    between atoms: O_2  and  C_3 
REMARK    3  A    between atoms: C_6  and  S_9 
REMARK    4  A    between atoms: S_9  and  N_12 
REMARK    5  A    between atoms: N_12  and  C_13 
REMARK       I    between atoms: N_27  and  C_29 
REMARK    6  A    between atoms: C_29  and  C_31 
REMARK    7  A    between atoms: C_31  and  C_32 
ROOT
ATOM      1  C   LIG d   1       4.463  -4.172  -8.747  0.00  0.00     0.112 C 
ATOM      2  C   LIG d   1       3.163  -3.780  -8.912  0.00  0.00    -0.032 C 
ATOM      3  C   LIG d   1       2.898  -2.463  -9.306  0.00  0.00    -0.040 C 
ATOM      4  C   LIG d   1       3.916  -1.593  -9.537  0.00  0.00     0.027 C 
ATOM      5  N   LIG d   1       5.206  -2.004  -9.463  0.00  0.00    -0.310 N 
ATOM      6  C   LIG d   1       5.493  -3.245  -8.997  0.00  0.00     0.274 C 
ATOM      7  O   LIG d   1       6.655  -3.561  -8.796  0.00  0.00    -0.266 OA
ATOM      8  C   LIG d   1       6.334  -1.177  -9.894  0.00  0.00     0.031 C 
ATOM      9  C   LIG d   1       5.987   0.301  -9.922  0.00  0.00    -0.006 C 
ATOM     10  H   LIG d   1       6.762   0.820 -10.486  0.00  0.00     0.033 H 
ATOM     11  C   LIG d   1       4.655   0.509 -10.642  0.00  0.00    -0.037 C 
ATOM     12  C   LIG d   1       3.549  -0.154  -9.818  0.00  0.00     0.016 C 
ATOM     13  H   LIG d   1       2.594  -0.106 -10.341  0.00  0.00     0.038 H 
ATOM     14  C   LIG d   1       3.432   0.570  -8.496  0.00  0.00     0.023 C 
ATOM     15  N   LIG d   1       4.733   0.446  -7.819  0.00  0.00    -0.300 N 
ATOM     16  C   LIG d   1       5.937   0.901  -8.524  0.00  0.00     0.019 C 
ATOM     17  C   LIG d   1       4.817  -0.076  -6.579  0.00  0.00     0.220 C 
ATOM     18  O   LIG d   1       5.896  -0.172  -6.032  0.00  0.00    -0.275 OA
ATOM     19  H   LIG d   1       2.355  -4.475  -8.741  0.00  0.00     0.064 H 
ATOM     20  H   LIG d   1       1.877  -2.136  -9.427  0.00  0.00     0.064 H 
ATOM     21  H   LIG d   1       7.167  -1.331  -9.209  0.00  0.00     0.050 H 
ATOM     22  H   LIG d   1       6.637  -1.488 -10.894  0.00  0.00     0.050 H 
ATOM     23  H   LIG d   1       4.452   1.576 -10.735  0.00  0.00     0.028 H 
ATOM     24  H   LIG d   1       4.698   0.054 -11.632  0.00  0.00     0.028 H 
ATOM     25  H   LIG d   1       2.654   0.105  -7.891  0.00  0.00     0.047 H 
ATOM     26  H   LIG d   1       3.198   1.622  -8.657  0.00  0.00     0.047 H 
ATOM     27  H   LIG d   1       6.822   0.590  -7.966  0.00  0.00     0.047 H 
ATOM     28  H   LIG d   1       5.923   1.989  -8.597  0.00  0.00     0.047 H 
ENDROOT
BRANCH   1  29
ATOM     29  N   LIG d   1       4.765  -5.474  -8.330  0.00  0.00    -0.211 N 
ATOM     30  H   LIG d   1       5.086  -6.127  -8.971  0.00  0.00     0.174 HD
BRANCH  29  31
ATOM     31  S   LIG d   1       4.573  -5.900  -6.742  0.00  0.00     0.072 S 
ATOM     32  O   LIG d   1       4.733  -7.311  -6.676  0.00  0.00    -0.150 OA
ATOM     33  O   LIG d   1       3.398  -5.246  -6.284  0.00  0.00    -0.150 OA
BRANCH  31  34
ATOM     34  C   LIG d   1       5.919  -5.198  -5.848  0.00  0.00     0.109 A 
ATOM     35  C   LIG d   1       5.807  -3.927  -5.318  0.00  0.00    -0.032 A 
ATOM     36  C   LIG d   1       6.859  -3.375  -4.612  0.00  0.00    -0.018 A 
ATOM     37  H   LIG d   1       4.894  -3.364  -5.452  0.00  0.00     0.064 H 
ATOM     38  C   LIG d   1       8.032  -4.096  -4.445  0.00  0.00     0.120 A 
ATOM     39  H   LIG d   1       6.770  -2.383  -4.194  0.00  0.00     0.066 H 
ATOM     40  C   LIG d   1       8.143  -5.372  -4.977  0.00  0.00    -0.018 A 
ATOM     41  C   LIG d   1       7.086  -5.920  -5.678  0.00  0.00    -0.032 A 
ATOM     42  H   LIG d   1       9.055  -5.936  -4.844  0.00  0.00     0.066 H 
ATOM     43  H   LIG d   1       7.172  -6.913  -6.093  0.00  0.00     0.064 H 
BRANCH  38  44
ATOM     44  O   LIG d   1       9.072  -3.553  -3.755  0.00  0.00    -0.495 OA
BRANCH  44  45
ATOM     45  C   LIG d   1      10.334  -4.214  -3.855  0.00  0.00     0.079 C 
ATOM     46  H   LIG d   1      10.740  -4.072  -4.856  0.00  0.00     0.066 H 
ATOM     47  H   LIG d   1      11.022  -3.795  -3.120  0.00  0.00     0.066 H 
ATOM     48  H   LIG d   1      10.202  -5.279  -3.663  0.00  0.00     0.066 H 
ENDBRANCH  44  45
ENDBRANCH  38  44
ENDBRANCH  31  34
ENDBRANCH  29  31
ENDBRANCH   1  29
BRANCH  17  49
ATOM     49  C   LIG d   1       3.570  -0.538  -5.870  0.00  0.00     0.056 C 
ATOM     50  H   LIG d   1       2.756   0.156  -6.077  0.00  0.00     0.041 H 
ATOM     51  H   LIG d   1       3.298  -1.532  -6.224  0.00  0.00     0.041 H 
BRANCH  49  52
ATOM     52  C   LIG d   1       3.825  -0.587  -4.386  0.00  0.00    -0.002 A 
ATOM     53  S   LIG d   1       4.252   0.741  -3.272  0.00  0.00    -0.101 SA
ATOM     54  C   LIG d   1       4.354  -0.214  -1.768  0.00  0.00    -0.024 A 
ATOM     55  C   LIG d   1       4.068  -1.464  -2.209  0.00  0.00    -0.054 A 
ATOM     56  H   LIG d   1       4.588   0.117  -0.766  0.00  0.00     0.069 H 
ATOM     57  C   LIG d   1       3.798  -1.655  -3.550  0.00  0.00    -0.051 A 
ATOM     58  H   LIG d   1       4.053  -2.297  -1.522  0.00  0.00     0.062 H 
ATOM     59  H   LIG d   1       3.566  -2.640  -3.928  0.00  0.00     0.063 H 
ENDBRANCH  49  52
ENDBRANCH  17  49
TORSDOF 7
ENDMDL
MODEL 4
REMARK VINA RESULT:      -6.7      2.570      6.790
REMARK  7 active torsions:
REMARK  status: ('A' for Active; 'I' for Inactive)
REMARK    1  A    between atoms: C_1  and  O_2 
REMARK    2  A    between atoms: O_2  and  C_3 
REMARK    3  A    between atoms: C_6  and  S_9 
REMARK    4  A    between atoms: S_9  and  N_12 
REMARK    5  A    between atoms: N_12  and  C_13 
REMARK       I    between atoms: N_27  and  C_29 
REMARK    6  A    between atoms: C_29  and  C_31 
REMARK    7  A    between atoms: C_31  and  C_32 
ROOT
ATOM      1  C   LIG d   1       8.051   0.903  -4.211  0.00  0.00     0.112 C 
ATOM      2  C   LIG d   1       7.095   1.739  -3.702  0.00  0.00    -0.032 C 
ATOM      3  C   LIG d   1       5.876   1.195  -3.279  0.00  0.00    -0.040 C 
ATOM      4  C   LIG d   1       5.652  -0.142  -3.357  0.00  0.00     0.027 C 
ATOM      5  N   LIG d   1       6.630  -0.983  -3.775  0.00  0.00    -0.310 N 
ATOM      6  C   LIG d   1       7.785  -0.479  -4.275  0.00  0.00     0.274 C 
ATOM      7  O   LIG d   1       8.604  -1.229  -4.781  0.00  0.00    -0.266 OA
ATOM      8  C   LIG d   1       6.521  -2.440  -3.690  0.00  0.00     0.031 C 
ATOM      9  C   LIG d   1       5.079  -2.906  -3.599  0.00  0.00    -0.006 C 
ATOM     10  H   LIG d   1       5.080  -3.949  -3.283  0.00  0.00     0.033 H 
ATOM     11  C   LIG d   1       4.333  -2.089  -2.544  0.00  0.00    -0.037 C 
ATOM     12  C   LIG d   1       4.264  -0.635  -3.018  0.00  0.00     0.016 C 
ATOM     13  H   LIG d   1       3.817  -0.000  -2.252  0.00  0.00     0.038 H 
ATOM     14  C   LIG d   1       3.422  -0.575  -4.271  0.00  0.00     0.023 C 
ATOM     15  N   LIG d   1       4.085  -1.420  -5.277  0.00  0.00    -0.300 N 
ATOM     16  C   LIG d   1       4.368  -2.820  -4.942  0.00  0.00     0.019 C 
ATOM     17  C   LIG d   1       4.426  -0.917  -6.481  0.00  0.00     0.220 C 
ATOM     18  O   LIG d   1       4.972  -1.624  -7.302  0.00  0.00    -0.275 OA
ATOM     19  H   LIG d   1       7.277   2.801  -3.628  0.00  0.00     0.064 H 
ATOM     20  H   LIG d   1       5.107   1.845  -2.889  0.00  0.00     0.064 H 
ATOM     21  H   LIG d   1       6.981  -2.881  -4.575  0.00  0.00     0.050 H 
ATOM     22  H   LIG d   1       7.059  -2.783  -2.806  0.00  0.00     0.050 H 
ATOM     23  H   LIG d   1       3.324  -2.483  -2.423  0.00  0.00     0.028 H 
ATOM     24  H   LIG d   1       4.867  -2.141  -1.595  0.00  0.00     0.028 H 
ATOM     25  H   LIG d   1       3.368   0.453  -4.627  0.00  0.00     0.047 H 
ATOM     26  H   LIG d   1       2.418  -0.952  -4.075  0.00  0.00     0.047 H 
ATOM     27  H   LIG d   1       5.002  -3.256  -5.716  0.00  0.00     0.047 H 
ATOM     28  H   LIG d   1       3.430  -3.375  -4.891  0.00  0.00     0.047 H 
ENDROOT
BRANCH   1  29
ATOM     29  N   LIG d   1       9.271   1.414  -4.666  0.00  0.00    -0.211 N 
ATOM     30  H   LIG d   1      10.041   1.431  -4.076  0.00  0.00     0.174 HD
BRANCH  29  31
ATOM     31  S   LIG d   1       9.402   1.991  -6.213  0.00  0.00     0.072 S 
ATOM     32  O   LIG d   1       8.156   1.739  -6.849  0.00  0.00    -0.150 OA
ATOM     33  O   LIG d   1      10.632   1.500  -6.727  0.00  0.00    -0.150 OA
BRANCH  31  34
ATOM     34  C   LIG d   1       9.567   3.742  -6.103  0.00  0.00     0.109 A 
ATOM     35  C   LIG d   1       9.878   4.478  -7.231  0.00  0.00    -0.032 A 
ATOM     36  C   LIG d   1      10.003   5.851  -7.149  0.00  0.00    -0.018 A 
ATOM     37  H   LIG d   1      10.021   3.979  -8.179  0.00  0.00     0.064 H 
ATOM     38  C   LIG d   1       9.825   6.490  -5.931  0.00  0.00     0.120 A 
ATOM     39  H   LIG d   1      10.243   6.426  -8.032  0.00  0.00     0.066 H 
ATOM     40  C   LIG d   1       9.513   5.750  -4.800  0.00  0.00    -0.018 A 
ATOM     41  C   LIG d   1       9.384   4.377  -4.889  0.00  0.00    -0.032 A 
ATOM     42  H   LIG d   1       9.370   6.247  -3.852  0.00  0.00     0.066 H 
ATOM     43  H   LIG d   1       9.141   3.801  -4.009  0.00  0.00     0.064 H 
BRANCH  38  44
ATOM     44  O   LIG d   1       9.953   7.842  -5.847  0.00  0.00    -0.495 OA
BRANCH  44  45
ATOM     45  C   LIG d   1       9.227   8.623  -6.797  0.00  0.00     0.079 C 
ATOM     46  H   LIG d   1       8.306   8.985  -6.341  0.00  0.00     0.066 H 
ATOM     47  H   LIG d   1       9.836   9.472  -7.110  0.00  0.00     0.066 H 
ATOM     48  H   LIG d   1       8.988   8.009  -7.665  0.00  0.00     0.066 H 
ENDBRANCH  44  45
ENDBRANCH  38  44
ENDBRANCH  31  34
ENDBRANCH  29  31
ENDBRANCH   1  29
BRANCH  17  49
ATOM     49  C   LIG d   1       4.128   0.523  -6.808  0.00  0.00     0.056 C 
ATOM     50  H   LIG d   1       3.220   0.833  -6.291  0.00  0.00     0.041 H 
ATOM     51  H   LIG d   1       4.960   1.149  -6.487  0.00  0.00     0.041 H 
BRANCH  49  52
ATOM     52  C   LIG d   1       3.935   0.671  -8.296  0.00  0.00    -0.002 A 
ATOM     53  S   LIG d   1       5.042   1.366  -9.511  0.00  0.00    -0.101 SA
ATOM     54  C   LIG d   1       4.017   1.128 -10.952  0.00  0.00    -0.024 A 
ATOM     55  C   LIG d   1       2.913   0.549 -10.419  0.00  0.00    -0.054 A 
ATOM     56  H   LIG d   1       4.221   1.382 -11.982  0.00  0.00     0.069 H 
ATOM     57  C   LIG d   1       2.871   0.315  -9.057  0.00  0.00    -0.051 A 
ATOM     58  H   LIG d   1       2.079   0.277 -11.048  0.00  0.00     0.062 H 
ATOM     59  H   LIG d   1       2.004  -0.144  -8.607  0.00  0.00     0.063 H 
ENDBRANCH  49  52
ENDBRANCH  17  49
TORSDOF 7
ENDMDL
MODEL 5
REMARK VINA RESULT:      -6.6      4.585      7.402
REMARK  7 active torsions:
REMARK  status: ('A' for Active; 'I' for Inactive)
REMARK    1  A    between atoms: C_1  and  O_2 
REMARK    2  A    between atoms: O_2  and  C_3 
REMARK    3  A    between atoms: C_6  and  S_9 
REMARK    4  A    between atoms: S_9  and  N_12 
REMARK    5  A    between atoms: N_12  and  C_13 
REMARK       I    between atoms: N_27  and  C_29 
REMARK    6  A    between atoms: C_29  and  C_31 
REMARK    7  A    between atoms: C_31  and  C_32 
ROOT
ATOM      1  C   LIG d   1       5.383  -3.970  -9.140  0.00  0.00     0.112 C 
ATOM      2  C   LIG d   1       4.083  -4.178  -8.768  0.00  0.00    -0.032 C 
ATOM      3  C   LIG d   1       3.176  -3.115  -8.853  0.00  0.00    -0.040 C 
ATOM      4  C   LIG d   1       3.575  -1.902  -9.315  0.00  0.00     0.027 C 
ATOM      5  N   LIG d   1       4.839  -1.717  -9.770  0.00  0.00    -0.310 N 
ATOM      6  C   LIG d   1       5.762  -2.699  -9.615  0.00  0.00     0.274 C 
ATOM      7  O   LIG d   1       6.930  -2.481  -9.894  0.00  0.00    -0.266 OA
ATOM      8  C   LIG d   1       5.270  -0.502 -10.462  0.00  0.00     0.031 C 
ATOM      9  C   LIG d   1       4.371   0.683 -10.158  0.00  0.00    -0.006 C 
ATOM     10  H   LIG d   1       4.584   1.465 -10.888  0.00  0.00     0.033 H 
ATOM     11  C   LIG d   1       2.905   0.277 -10.312  0.00  0.00    -0.037 C 
ATOM     12  C   LIG d   1       2.578  -0.768  -9.242  0.00  0.00     0.016 C 
ATOM     13  H   LIG d   1       1.566  -1.151  -9.372  0.00  0.00     0.038 H 
ATOM     14  C   LIG d   1       2.697  -0.121  -7.882  0.00  0.00     0.023 C 
ATOM     15  N   LIG d   1       4.086   0.347  -7.746  0.00  0.00    -0.300 N 
ATOM     16  C   LIG d   1       4.625   1.250  -8.769  0.00  0.00     0.019 C 
ATOM     17  C   LIG d   1       4.847  -0.047  -6.705  0.00  0.00     0.220 C 
ATOM     18  O   LIG d   1       5.989   0.346  -6.605  0.00  0.00    -0.275 OA
ATOM     19  H   LIG d   1       3.762  -5.146  -8.413  0.00  0.00     0.064 H 
ATOM     20  H   LIG d   1       2.150  -3.261  -8.550  0.00  0.00     0.064 H 
ATOM     21  H   LIG d   1       6.288  -0.262 -10.153  0.00  0.00     0.050 H 
ATOM     22  H   LIG d   1       5.262  -0.686 -11.536  0.00  0.00     0.050 H 
ATOM     23  H   LIG d   1       2.268   1.151 -10.176  0.00  0.00     0.028 H 
ATOM     24  H   LIG d   1       2.744  -0.148 -11.302  0.00  0.00     0.028 H 
ATOM     25  H   LIG d   1       2.475  -0.854  -7.107  0.00  0.00     0.047 H 
ATOM     26  H   LIG d   1       2.013   0.724  -7.800  0.00  0.00     0.047 H 
ATOM     27  H   LIG d   1       5.699   1.367  -8.617  0.00  0.00     0.047 H 
ATOM     28  H   LIG d   1       4.143   2.224  -8.681  0.00  0.00     0.047 H 
ENDROOT
BRANCH   1  29
ATOM     29  N   LIG d   1       6.323  -5.002  -9.044  0.00  0.00    -0.211 N 
ATOM     30  H   LIG d   1       6.554  -5.523  -9.830  0.00  0.00     0.174 HD
BRANCH  29  31
ATOM     31  S   LIG d   1       7.041  -5.336  -7.590  0.00  0.00     0.072 S 
ATOM     32  O   LIG d   1       6.791  -4.220  -6.747  0.00  0.00    -0.150 OA
ATOM     33  O   LIG d   1       8.356  -5.791  -7.881  0.00  0.00    -0.150 OA
BRANCH  31  34
ATOM     34  C   LIG d   1       6.180  -6.703  -6.886  0.00  0.00     0.109 A 
ATOM     35  C   LIG d   1       5.235  -7.381  -7.632  0.00  0.00    -0.032 A 
ATOM     36  C   LIG d   1       4.562  -8.457  -7.085  0.00  0.00    -0.018 A 
ATOM     37  H   LIG d   1       5.024  -7.073  -8.647  0.00  0.00     0.064 H 
ATOM     38  C   LIG d   1       4.829  -8.849  -5.782  0.00  0.00     0.120 A 
ATOM     39  H   LIG d   1       3.826  -8.989  -7.670  0.00  0.00     0.066 H 
ATOM     40  C   LIG d   1       5.778  -8.167  -5.035  0.00  0.00    -0.018 A 
ATOM     41  C   LIG d   1       6.452  -7.095  -5.589  0.00  0.00    -0.032 A 
ATOM     42  H   LIG d   1       5.991  -8.473  -4.021  0.00  0.00     0.066 H 
ATOM     43  H   LIG d   1       7.191  -6.564  -5.008  0.00  0.00     0.064 H 
BRANCH  38  44
ATOM     44  O   LIG d   1       4.163  -9.903  -5.239  0.00  0.00    -0.495 OA
BRANCH  44  45
ATOM     45  C   LIG d   1       4.030  -9.925  -3.817  0.00  0.00     0.079 C 
ATOM     46  H   LIG d   1       3.022  -9.617  -3.542  0.00  0.00     0.066 H 
ATOM     47  H   LIG d   1       4.215 -10.935  -3.451  0.00  0.00     0.066 H 
ATOM     48  H   LIG d   1       4.754  -9.240  -3.374  0.00  0.00     0.066 H 
ENDBRANCH  44  45
ENDBRANCH  38  44
ENDBRANCH  31  34
ENDBRANCH  29  31
ENDBRANCH   1  29
BRANCH  17  49
ATOM     49  C   LIG d   1       4.275  -0.975  -5.664  0.00  0.00     0.056 C 
ATOM     50  H   LIG d   1       3.259  -1.253  -5.942  0.00  0.00     0.041 H 
ATOM     51  H   LIG d   1       4.892  -1.872  -5.598  0.00  0.00     0.041 H 
BRANCH  49  52
ATOM     52  C   LIG d   1       4.259  -0.280  -4.327  0.00  0.00    -0.002 A 
ATOM     53  S   LIG d   1       5.472  -0.328  -3.018  0.00  0.00    -0.101 SA
ATOM     54  C   LIG d   1       4.643   0.755  -1.866  0.00  0.00    -0.024 A 
ATOM     55  C   LIG d   1       3.511   1.070  -2.542  0.00  0.00    -0.054 A 
ATOM     56  H   LIG d   1       4.959   1.073  -0.883  0.00  0.00     0.069 H 
ATOM     57  C   LIG d   1       3.314   0.540  -3.803  0.00  0.00    -0.051 A 
ATOM     58  H   LIG d   1       2.774   1.725  -2.101  0.00  0.00     0.062 H 
ATOM     59  H   LIG d   1       2.421   0.775  -4.363  0.00  0.00     0.063 H 
ENDBRANCH  49  52
ENDBRANCH  17  49
TORSDOF 7
ENDMDL
MODEL 6
REMARK VINA RESULT:      -6.4      8.139     11.449
REMARK  7 active torsions:
REMARK  status: ('A' for Active; 'I' for Inactive)
REMARK    1  A    between atoms: C_1  and  O_2 
REMARK    2  A    between atoms: O_2  and  C_3 
REMARK    3  A    between atoms: C_6  and  S_9 
REMARK    4  A    between atoms: S_9  and  N_12 
REMARK    5  A    between atoms: N_12  and  C_13 
REMARK       I    between atoms: N_27  and  C_29 
REMARK    6  A    between atoms: C_29  and  C_31 
REMARK    7  A    between atoms: C_31  and  C_32 
ROOT
ATOM      1  C   LIG d   1       9.921  10.495  -1.360  0.00  0.00     0.112 C 
ATOM      2  C   LIG d   1       8.826   9.706  -1.134  0.00  0.00    -0.032 C 
ATOM      3  C   LIG d   1       9.019   8.358  -0.808  0.00  0.00    -0.040 C 
ATOM      4  C   LIG d   1      10.273   7.847  -0.699  0.00  0.00     0.027 C 
ATOM      5  N   LIG d   1      11.360   8.646  -0.832  0.00  0.00    -0.310 N 
ATOM      6  C   LIG d   1      11.206   9.932  -1.237  0.00  0.00     0.274 C 
ATOM      7  O   LIG d   1      12.190  10.607  -1.494  0.00  0.00    -0.266 OA
ATOM      8  C   LIG d   1      12.721   8.203  -0.530  0.00  0.00     0.031 C 
ATOM      9  C   LIG d   1      12.857   6.691  -0.571  0.00  0.00    -0.006 C 
ATOM     10  H   LIG d   1      13.799   6.422  -0.094  0.00  0.00     0.033 H 
ATOM     11  C   LIG d   1      11.720   6.044   0.220  0.00  0.00    -0.037 C 
ATOM     12  C   LIG d   1      10.399   6.356  -0.486  0.00  0.00     0.016 C 
ATOM     13  H   LIG d   1       9.553   5.987   0.095  0.00  0.00     0.038 H 
ATOM     14  C   LIG d   1      10.406   5.684  -1.840  0.00  0.00     0.023 C 
ATOM     15  N   LIG d   1      11.543   6.240  -2.592  0.00  0.00    -0.300 N 
ATOM     16  C   LIG d   1      12.882   6.161  -1.998  0.00  0.00     0.019 C 
ATOM     17  C   LIG d   1      11.357   6.809  -3.800  0.00  0.00     0.220 C 
ATOM     18  O   LIG d   1      12.302   7.263  -4.409  0.00  0.00    -0.275 OA
ATOM     19  H   LIG d   1       7.830  10.116  -1.208  0.00  0.00     0.064 H 
ATOM     20  H   LIG d   1       8.165   7.720  -0.641  0.00  0.00     0.064 H 
ATOM     21  H   LIG d   1      13.405   8.640  -1.256  0.00  0.00     0.050 H 
ATOM     22  H   LIG d   1      12.993   8.554   0.466  0.00  0.00     0.050 H 
ATOM     23  H   LIG d   1      11.869   4.965   0.259  0.00  0.00     0.028 H 
ATOM     24  H   LIG d   1      11.700   6.451   1.231  0.00  0.00     0.028 H 
ATOM     25  H   LIG d   1       9.474   5.902  -2.362  0.00  0.00     0.047 H 
ATOM     26  H   LIG d   1      10.526   4.606  -1.731  0.00  0.00     0.047 H 
ATOM     27  H   LIG d   1      13.576   6.757  -2.593  0.00  0.00     0.047 H 
ATOM     28  H   LIG d   1      13.214   5.122  -1.993  0.00  0.00     0.047 H 
ENDROOT
BRANCH   1  29
ATOM     29  N   LIG d   1       9.765  11.841  -1.713  0.00  0.00    -0.211 N 
ATOM     30  H   LIG d   1      10.058  12.539  -1.106  0.00  0.00     0.174 HD
BRANCH  29  31
ATOM     31  S   LIG d   1       9.081  12.242  -3.166  0.00  0.00     0.072 S 
ATOM     32  O   LIG d   1       9.328  13.628  -3.364  0.00  0.00    -0.150 OA
ATOM     33  O   LIG d   1       7.770  11.695  -3.163  0.00  0.00    -0.150 OA
BRANCH  31  34
ATOM     34  C   LIG d   1       9.980  11.387  -4.418  0.00  0.00     0.109 A 
ATOM     35  C   LIG d   1       9.334  10.470  -5.226  0.00  0.00    -0.032 A 
ATOM     36  C   LIG d   1      10.034   9.802  -6.212  0.00  0.00    -0.018 A 
ATOM     37  H   LIG d   1       8.279  10.278  -5.090  0.00  0.00     0.064 H 
ATOM     38  C   LIG d   1      11.389  10.045  -6.383  0.00  0.00     0.120 A 
ATOM     39  H   LIG d   1       9.528   9.088  -6.846  0.00  0.00     0.066 H 
ATOM     40  C   LIG d   1      12.035  10.966  -5.571  0.00  0.00    -0.018 A 
ATOM     41  C   LIG d   1      11.329  11.635  -4.590  0.00  0.00    -0.032 A 
ATOM     42  H   LIG d   1      13.089  11.159  -5.706  0.00  0.00     0.066 H 
ATOM     43  H   LIG d   1      11.831  12.351  -3.958  0.00  0.00     0.064 H 
BRANCH  38  44
ATOM     44  O   LIG d   1      12.082   9.384  -7.349  0.00  0.00    -0.495 OA
BRANCH  44  45
ATOM     45  C   LIG d   1      11.443   9.233  -8.618  0.00  0.00     0.079 C 
ATOM     46  H   LIG d   1      11.886   8.390  -9.149  0.00  0.00     0.066 H 
ATOM     47  H   LIG d   1      10.379   9.050  -8.468  0.00  0.00     0.066 H 
ATOM     48  H   LIG d   1      11.577  10.143  -9.202  0.00  0.00     0.066 H 
ENDBRANCH  44  45
ENDBRANCH  38  44
ENDBRANCH  31  34
ENDBRANCH  29  31
ENDBRANCH   1  29
BRANCH  17  49
ATOM     49  C   LIG d   1       9.974   6.880  -4.395  0.00  0.00     0.056 C 
ATOM     50  H   LIG d   1       9.239   6.596  -3.642  0.00  0.00     0.041 H 
ATOM     51  H   LIG d   1       9.775   7.898  -4.730  0.00  0.00     0.041 H 
BRANCH  49  52
ATOM     52  C   LIG d   1       9.883   5.939  -5.568  0.00  0.00    -0.002 A 
ATOM     53  S   LIG d   1       9.804   4.156  -5.577  0.00  0.00    -0.101 SA
ATOM     54  C   LIG d   1       9.719   3.915  -7.343  0.00  0.00    -0.024 A 
ATOM     55  C   LIG d   1       9.762   5.191  -7.802  0.00  0.00    -0.054 A 
ATOM     56  H   LIG d   1       9.653   2.994  -7.902  0.00  0.00     0.069 H 
ATOM     57  C   LIG d   1       9.847   6.227  -6.892  0.00  0.00    -0.051 A 
ATOM     58  H   LIG d   1       9.733   5.392  -8.863  0.00  0.00     0.062 H 
ATOM     59  H   LIG d   1       9.883   7.252  -7.231  0.00  0.00     0.063 H 
ENDBRANCH  49  52
ENDBRANCH  17  49
TORSDOF 7
ENDMDL
MODEL 7
REMARK VINA RESULT:      -6.4      4.628      7.720
REMARK  7 active torsions:
REMARK  status: ('A' for Active; 'I' for Inactive)
REMARK    1  A    between atoms: C_1  and  O_2 
REMARK    2  A    between atoms: O_2  and  C_3 
REMARK    3  A    between atoms: C_6  and  S_9 
REMARK    4  A    between atoms: S_9  and  N_12 
REMARK    5  A    between atoms: N_12  and  C_13 
REMARK       I    between atoms: N_27  and  C_29 
REMARK    6  A    between atoms: C_29  and  C_31 
REMARK    7  A    between atoms: C_31  and  C_32 
ROOT
ATOM      1  C   LIG d   1       4.519  -3.905  -8.909  0.00  0.00     0.112 C 
ATOM      2  C   LIG d   1       3.170  -3.736  -9.061  0.00  0.00    -0.032 C 
ATOM      3  C   LIG d   1       2.690  -2.504  -9.519  0.00  0.00    -0.040 C 
ATOM      4  C   LIG d   1       3.550  -1.498  -9.825  0.00  0.00     0.027 C 
ATOM      5  N   LIG d   1       4.890  -1.692  -9.763  0.00  0.00    -0.310 N 
ATOM      6  C   LIG d   1       5.382  -2.842  -9.237  0.00  0.00     0.274 C 
ATOM      7  O   LIG d   1       6.582  -2.956  -9.050  0.00  0.00    -0.266 OA
ATOM      8  C   LIG d   1       5.863  -0.722 -10.268  0.00  0.00     0.031 C 
ATOM      9  C   LIG d   1       5.282   0.677 -10.368  0.00  0.00    -0.006 C 
ATOM     10  H   LIG d   1       5.954   1.279 -10.981  0.00  0.00     0.033 H 
ATOM     11  C   LIG d   1       3.922   0.628 -11.063  0.00  0.00    -0.037 C 
ATOM     12  C   LIG d   1       2.952  -0.155 -10.174  0.00  0.00     0.016 C 
ATOM     13  H   LIG d   1       1.992  -0.290 -10.674  0.00  0.00     0.038 H 
ATOM     14  C   LIG d   1       2.743   0.618  -8.892  0.00  0.00     0.023 C 
ATOM     15  N   LIG d   1       4.059   0.743  -8.244  0.00  0.00    -0.300 N 
ATOM     16  C   LIG d   1       5.161   1.342  -9.005  0.00  0.00     0.019 C 
ATOM     17  C   LIG d   1       4.247   0.315  -6.979  0.00  0.00     0.220 C 
ATOM     18  O   LIG d   1       5.337   0.424  -6.457  0.00  0.00    -0.275 OA
ATOM     19  H   LIG d   1       2.487  -4.540  -8.830  0.00  0.00     0.064 H 
ATOM     20  H   LIG d   1       1.627  -2.351  -9.630  0.00  0.00     0.064 H 
ATOM     21  H   LIG d   1       6.722  -0.701  -9.598  0.00  0.00     0.050 H 
ATOM     22  H   LIG d   1       6.195  -1.039 -11.257  0.00  0.00     0.050 H 
ATOM     23  H   LIG d   1       3.548   1.641 -11.209  0.00  0.00     0.028 H 
ATOM     24  H   LIG d   1       4.020   0.128 -12.027  0.00  0.00     0.028 H 
ATOM     25  H   LIG d   1       2.061   0.071  -8.242  0.00  0.00     0.047 H 
ATOM     26  H   LIG d   1       2.340   1.608  -9.104  0.00  0.00     0.047 H 
ATOM     27  H   LIG d   1       6.094   1.210  -8.454  0.00  0.00     0.047 H 
ATOM     28  H   LIG d   1       4.971   2.408  -9.138  0.00  0.00     0.047 H 
ENDROOT
BRANCH   1  29
ATOM     29  N   LIG d   1       5.033  -5.115  -8.429  0.00  0.00    -0.211 N 
ATOM     30  H   LIG d   1       5.905  -5.424  -8.724  0.00  0.00     0.174 HD
BRANCH  29  31
ATOM     31  S   LIG d   1       4.154  -6.023  -7.359  0.00  0.00     0.072 S 
ATOM     32  O   LIG d   1       3.495  -7.026  -8.120  0.00  0.00    -0.150 OA
ATOM     33  O   LIG d   1       3.448  -5.107  -6.533  0.00  0.00    -0.150 OA
BRANCH  31  34
ATOM     34  C   LIG d   1       5.304  -6.856  -6.316  0.00  0.00     0.109 A 
ATOM     35  C   LIG d   1       6.563  -6.323  -6.113  0.00  0.00    -0.032 A 
ATOM     36  C   LIG d   1       7.466  -6.972  -5.292  0.00  0.00    -0.018 A 
ATOM     37  H   LIG d   1       6.842  -5.396  -6.594  0.00  0.00     0.064 H 
ATOM     38  C   LIG d   1       7.110  -8.164  -4.679  0.00  0.00     0.120 A 
ATOM     39  H   LIG d   1       8.449  -6.553  -5.131  0.00  0.00     0.066 H 
ATOM     40  C   LIG d   1       5.845  -8.697  -4.884  0.00  0.00    -0.018 A 
ATOM     41  C   LIG d   1       4.945  -8.042  -5.702  0.00  0.00    -0.032 A 
ATOM     42  H   LIG d   1       5.565  -9.624  -4.404  0.00  0.00     0.066 H 
ATOM     43  H   LIG d   1       3.961  -8.456  -5.862  0.00  0.00     0.064 H 
BRANCH  38  44
ATOM     44  O   LIG d   1       7.998  -8.807  -3.875  0.00  0.00    -0.495 OA
BRANCH  44  45
ATOM     45  C   LIG d   1       7.878 -10.227  -3.780  0.00  0.00     0.079 C 
ATOM     46  H   LIG d   1       8.259 -10.686  -4.692  0.00  0.00     0.066 H 
ATOM     47  H   LIG d   1       8.456 -10.584  -2.926  0.00  0.00     0.066 H 
ATOM     48  H   LIG d   1       6.830 -10.495  -3.646  0.00  0.00     0.066 H 
ENDBRANCH  44  45
ENDBRANCH  38  44
ENDBRANCH  31  34
ENDBRANCH  29  31
ENDBRANCH   1  29
BRANCH  17  49
ATOM     49  C   LIG d   1       3.103  -0.298  -6.213  0.00  0.00     0.056 C 
ATOM     50  H   LIG d   1       2.188   0.255  -6.423  0.00  0.00     0.041 H 
ATOM     51  H   LIG d   1       2.978  -1.337  -6.518  0.00  0.00     0.041 H 
BRANCH  49  52
ATOM     52  C   LIG d   1       3.400  -0.241  -4.737  0.00  0.00    -0.002 A 
ATOM     53  S   LIG d   1       4.163  -1.472  -3.694  0.00  0.00    -0.101 SA
ATOM     54  C   LIG d   1       4.106  -0.569  -2.155  0.00  0.00    -0.024 A 
ATOM     55  C   LIG d   1       3.512   0.590  -2.532  0.00  0.00    -0.054 A 
ATOM     56  H   LIG d   1       4.451  -0.869  -1.177  0.00  0.00     0.069 H 
ATOM     57  C   LIG d   1       3.150   0.758  -3.855  0.00  0.00    -0.051 A 
ATOM     58  H   LIG d   1       3.324   1.370  -1.808  0.00  0.00     0.062 H 
ATOM     59  H   LIG d   1       2.676   1.672  -4.182  0.00  0.00     0.063 H 
ENDBRANCH  49  52
ENDBRANCH  17  49
TORSDOF 7
ENDMDL
MODEL 8
REMARK VINA RESULT:      -6.3      3.053      8.046
REMARK  7 active torsions:
REMARK  status: ('A' for Active; 'I' for Inactive)
REMARK    1  A    between atoms: C_1  and  O_2 
REMARK    2  A    between atoms: O_2  and  C_3 
REMARK    3  A    between atoms: C_6  and  S_9 
REMARK    4  A    between atoms: S_9  and  N_12 
REMARK    5  A    between atoms: N_12  and  C_13 
REMARK       I    between atoms: N_27  and  C_29 
REMARK    6  A    between atoms: C_29  and  C_31 
REMARK    7  A    between atoms: C_31  and  C_32 
ROOT
ATOM      1  C   LIG d   1       8.661   1.793  -5.412  0.00  0.00     0.112 C 
ATOM      2  C   LIG d   1       7.744   2.120  -4.451  0.00  0.00    -0.032 C 
ATOM      3  C   LIG d   1       7.085   1.091  -3.767  0.00  0.00    -0.040 C 
ATOM      4  C   LIG d   1       7.364  -0.210  -4.040  0.00  0.00     0.027 C 
ATOM      5  N   LIG d   1       8.337  -0.537  -4.926  0.00  0.00    -0.310 N 
ATOM      6  C   LIG d   1       8.926   0.433  -5.669  0.00  0.00     0.274 C 
ATOM      7  O   LIG d   1       9.697   0.125  -6.564  0.00  0.00    -0.266 OA
ATOM      8  C   LIG d   1       8.820  -1.905  -5.114  0.00  0.00     0.031 C 
ATOM      9  C   LIG d   1       7.815  -2.941  -4.644  0.00  0.00    -0.006 C 
ATOM     10  H   LIG d   1       8.327  -3.900  -4.569  0.00  0.00     0.033 H 
ATOM     11  C   LIG d   1       7.296  -2.569  -3.255  0.00  0.00    -0.037 C 
ATOM     12  C   LIG d   1       6.512  -1.259  -3.365  0.00  0.00     0.016 C 
ATOM     13  H   LIG d   1       6.198  -0.912  -2.380  0.00  0.00     0.038 H 
ATOM     14  C   LIG d   1       5.290  -1.499  -4.223  0.00  0.00     0.023 C 
ATOM     15  N   LIG d   1       5.769  -1.933  -5.545  0.00  0.00    -0.300 N 
ATOM     16  C   LIG d   1       6.659  -3.097  -5.622  0.00  0.00     0.019 C 
ATOM     17  C   LIG d   1       5.399  -1.274  -6.662  0.00  0.00     0.220 C 
ATOM     18  O   LIG d   1       5.800  -1.642  -7.745  0.00  0.00    -0.275 OA
ATOM     19  H   LIG d   1       7.532   3.154  -4.225  0.00  0.00     0.064 H 
ATOM     20  H   LIG d   1       6.349   1.335  -3.015  0.00  0.00     0.064 H 
ATOM     21  H   LIG d   1       9.025  -2.066  -6.172  0.00  0.00     0.050 H 
ATOM     22  H   LIG d   1       9.747  -2.032  -4.553  0.00  0.00     0.050 H 
ATOM     23  H   LIG d   1       6.640  -3.358  -2.886  0.00  0.00     0.028 H 
ATOM     24  H   LIG d   1       8.135  -2.438  -2.572  0.00  0.00     0.028 H 
ATOM     25  H   LIG d   1       4.723  -0.573  -4.319  0.00  0.00     0.047 H 
ATOM     26  H   LIG d   1       4.662  -2.274  -3.784  0.00  0.00     0.047 H 
ATOM     27  H   LIG d   1       7.052  -3.184  -6.635  0.00  0.00     0.047 H 
ATOM     28  H   LIG d   1       6.096  -3.998  -5.376  0.00  0.00     0.047 H 
ENDROOT
BRANCH   1  29
ATOM     29  N   LIG d   1       9.321   2.794  -6.135  0.00  0.00    -0.211 N 
ATOM     30  H   LIG d   1       8.960   3.099  -6.982  0.00  0.00     0.174 HD
BRANCH  29  31
ATOM     31  S   LIG d   1      10.718   3.458  -5.544  0.00  0.00     0.072 S 
ATOM     32  O   LIG d   1      11.267   4.248  -6.589  0.00  0.00    -0.150 OA
ATOM     33  O   LIG d   1      11.441   2.401  -4.928  0.00  0.00    -0.150 OA
BRANCH  31  34
ATOM     34  C   LIG d   1      10.261   4.572  -4.257  0.00  0.00     0.109 A 
ATOM     35  C   LIG d   1       9.556   5.721  -4.558  0.00  0.00    -0.032 A 
ATOM     36  C   LIG d   1       9.192   6.594  -3.551  0.00  0.00    -0.018 A 
ATOM     37  H   LIG d   1       9.285   5.937  -5.582  0.00  0.00     0.064 H 
ATOM     38  C   LIG d   1       9.545   6.320  -2.237  0.00  0.00     0.120 A 
ATOM     39  H   LIG d   1       8.638   7.491  -3.786  0.00  0.00     0.066 H 
ATOM     40  C   LIG d   1      10.252   5.165  -1.937  0.00  0.00    -0.018 A 
ATOM     41  C   LIG d   1      10.609   4.294  -2.948  0.00  0.00    -0.032 A 
ATOM     42  H   LIG d   1      10.524   4.948  -0.915  0.00  0.00     0.066 H 
ATOM     43  H   LIG d   1      11.160   3.395  -2.715  0.00  0.00     0.064 H 
BRANCH  38  44
ATOM     44  O   LIG d   1       9.192   7.181  -1.245  0.00  0.00    -0.495 OA
BRANCH  44  45
ATOM     45  C   LIG d   1      10.138   8.193  -0.896  0.00  0.00     0.079 C 
ATOM     46  H   LIG d   1       9.929   8.555   0.110  0.00  0.00     0.066 H 
ATOM     47  H   LIG d   1      11.145   7.775  -0.930  0.00  0.00     0.066 H 
ATOM     48  H   LIG d   1      10.064   9.018  -1.604  0.00  0.00     0.066 H 
ENDBRANCH  44  45
ENDBRANCH  38  44
ENDBRANCH  31  34
ENDBRANCH  29  31
ENDBRANCH   1  29
BRANCH  17  49
ATOM     49  C   LIG d   1       4.484  -0.081  -6.563  0.00  0.00     0.056 C 
ATOM     50  H   LIG d   1       3.586  -0.355  -6.010  0.00  0.00     0.041 H 
ATOM     51  H   LIG d   1       4.997   0.729  -6.045  0.00  0.00     0.041 H 
BRANCH  49  52
ATOM     52  C   LIG d   1       4.102   0.374  -7.949  0.00  0.00    -0.002 A 
ATOM     53  S   LIG d   1       5.000   1.430  -9.074  0.00  0.00    -0.101 SA
ATOM     54  C   LIG d   1       3.828   1.417 -10.421  0.00  0.00    -0.024 A 
ATOM     55  C   LIG d   1       2.843   0.627  -9.927  0.00  0.00    -0.054 A 
ATOM     56  H   LIG d   1       3.886   1.913 -11.378  0.00  0.00     0.069 H 
ATOM     57  C   LIG d   1       2.983   0.093  -8.660  0.00  0.00    -0.051 A 
ATOM     58  H   LIG d   1       1.961   0.419 -10.516  0.00  0.00     0.062 H 
ATOM     59  H   LIG d   1       2.213  -0.540  -8.244  0.00  0.00     0.063 H 
ENDBRANCH  49  52
ENDBRANCH  17  49
TORSDOF 7
ENDMDL
MODEL 9
REMARK VINA RESULT:      -6.3      4.947      7.155
REMARK  7 active torsions:
REMARK  status: ('A' for Active; 'I' for Inactive)
REMARK    1  A    between atoms: C_1  and  O_2 
REMARK    2  A    between atoms: O_2  and  C_3 
REMARK    3  A    between atoms: C_6  and  S_9 
REMARK    4  A    between atoms: S_9  and  N_12 
REMARK    5  A    between atoms: N_12  and  C_13 
REMARK       I    between atoms: N_27  and  C_29 
REMARK    6  A    between atoms: C_29  and  C_31 
REMARK    7  A    between atoms: C_31  and  C_32 
ROOT
ATOM      1  C   LIG d   1       2.706  -2.836 -10.312  0.00  0.00     0.112 C 
ATOM      2  C   LIG d   1       1.561  -2.210  -9.900  0.00  0.00    -0.032 C 
ATOM      3  C   LIG d   1       1.597  -0.835  -9.642  0.00  0.00    -0.040 C 
ATOM      4  C   LIG d   1       2.745  -0.129  -9.816  0.00  0.00     0.027 C 
ATOM      5  N   LIG d   1       3.856  -0.728 -10.311  0.00  0.00    -0.310 N 
ATOM      6  C   LIG d   1       3.878  -2.073 -10.482  0.00  0.00     0.274 C 
ATOM      7  O   LIG d   1       4.921  -2.627 -10.791  0.00  0.00    -0.266 OA
ATOM      8  C   LIG d   1       5.054   0.013 -10.707  0.00  0.00     0.031 C 
ATOM      9  C   LIG d   1       5.134   1.377 -10.045  0.00  0.00    -0.006 C 
ATOM     10  H   LIG d   1       5.888   1.964 -10.569  0.00  0.00     0.033 H 
ATOM     11  C   LIG d   1       3.792   2.099 -10.176  0.00  0.00    -0.037 C 
ATOM     12  C   LIG d   1       2.743   1.318  -9.380  0.00  0.00     0.016 C 
ATOM     13  H   LIG d   1       1.752   1.751  -9.520  0.00  0.00     0.038 H 
ATOM     14  C   LIG d   1       3.110   1.372  -7.915  0.00  0.00     0.023 C 
ATOM     15  N   LIG d   1       4.437   0.749  -7.779  0.00  0.00    -0.300 N 
ATOM     16  C   LIG d   1       5.545   1.276  -8.583  0.00  0.00     0.019 C 
ATOM     17  C   LIG d   1       4.629  -0.285  -6.935  0.00  0.00     0.220 C 
ATOM     18  O   LIG d   1       5.727  -0.789  -6.833  0.00  0.00    -0.275 OA
ATOM     19  H   LIG d   1       0.646  -2.768  -9.775  0.00  0.00     0.064 H 
ATOM     20  H   LIG d   1       0.705  -0.330  -9.303  0.00  0.00     0.064 H 
ATOM     21  H   LIG d   1       5.935  -0.566 -10.432  0.00  0.00     0.050 H 
ATOM     22  H   LIG d   1       5.044   0.146 -11.790  0.00  0.00     0.050 H 
ATOM     23  H   LIG d   1       3.880   3.108  -9.775  0.00  0.00     0.028 H 
ATOM     24  H   LIG d   1       3.500   2.142 -11.225  0.00  0.00     0.028 H 
ATOM     25  H   LIG d   1       2.377   0.814  -7.333  0.00  0.00     0.047 H 
ATOM     26  H   LIG d   1       3.149   2.405  -7.569  0.00  0.00     0.047 H 
ATOM     27  H   LIG d   1       6.404   0.610  -8.495  0.00  0.00     0.047 H 
ATOM     28  H   LIG d   1       5.819   2.266  -8.215  0.00  0.00     0.047 H 
ENDROOT
BRANCH   1  29
ATOM     29  N   LIG d   1       2.714  -4.214 -10.555  0.00  0.00    -0.211 N 
ATOM     30  H   LIG d   1       3.160  -4.814  -9.936  0.00  0.00     0.174 HD
BRANCH  29  31
ATOM     31  S   LIG d   1       1.963  -4.823 -11.899  0.00  0.00     0.072 S 
ATOM     32  O   LIG d   1       2.366  -6.181 -12.011  0.00  0.00    -0.150 OA
ATOM     33  O   LIG d   1       2.168  -3.880 -12.941  0.00  0.00    -0.150 OA
BRANCH  31  34
ATOM     34  C   LIG d   1       0.232  -4.837 -11.566  0.00  0.00     0.109 A 
ATOM     35  C   LIG d   1      -0.647  -4.263 -12.465  0.00  0.00    -0.032 A 
ATOM     36  C   LIG d   1      -2.005  -4.277 -12.210  0.00  0.00    -0.018 A 
ATOM     37  H   LIG d   1      -0.273  -3.806 -13.370  0.00  0.00     0.064 H 
ATOM     38  C   LIG d   1      -2.484  -4.859 -11.046  0.00  0.00     0.120 A 
ATOM     39  H   LIG d   1      -2.693  -3.832 -12.914  0.00  0.00     0.066 H 
ATOM     40  C   LIG d   1      -1.599  -5.436 -10.145  0.00  0.00    -0.018 A 
ATOM     41  C   LIG d   1      -0.243  -5.423 -10.408  0.00  0.00    -0.032 A 
ATOM     42  H   LIG d   1      -1.971  -5.893  -9.240  0.00  0.00     0.066 H 
ATOM     43  H   LIG d   1       0.446  -5.871  -9.708  0.00  0.00     0.064 H 
BRANCH  38  44
ATOM     44  O   LIG d   1      -3.820  -4.870 -10.790  0.00  0.00    -0.495 OA
BRANCH  44  45
ATOM     45  C   LIG d   1      -4.517  -6.094 -11.025  0.00  0.00     0.079 C 
ATOM     46  H   LIG d   1      -4.630  -6.246 -12.099  0.00  0.00     0.066 H 
ATOM     47  H   LIG d   1      -3.950  -6.922 -10.599  0.00  0.00     0.066 H 
ATOM     48  H   LIG d   1      -5.500  -6.047 -10.558  0.00  0.00     0.066 H 
ENDBRANCH  44  45
ENDBRANCH  38  44
ENDBRANCH  31  34
ENDBRANCH  29  31
ENDBRANCH   1  29
BRANCH  17  49
ATOM     49  C   LIG d   1       3.478  -0.813  -6.117  0.00  0.00     0.056 C 
ATOM     50  H   LIG d   1       2.549  -0.362  -6.463  0.00  0.00     0.041 H 
ATOM     51  H   LIG d   1       3.420  -1.896  -6.229  0.00  0.00     0.041 H 
BRANCH  49  52
ATOM     52  C   LIG d   1       3.695  -0.470  -4.666  0.00  0.00    -0.002 A 
ATOM     53  S   LIG d   1       4.625  -1.357  -3.427  0.00  0.00    -0.101 SA
ATOM     54  C   LIG d   1       4.337  -0.251  -2.056  0.00  0.00    -0.024 A 
ATOM     55  C   LIG d   1       3.557   0.702  -2.624  0.00  0.00    -0.054 A 
ATOM     56  H   LIG d   1       4.689  -0.323  -1.037  0.00  0.00     0.069 H 
ATOM     57  C   LIG d   1       3.228   0.590  -3.961  0.00  0.00    -0.051 A 
ATOM     58  H   LIG d   1       3.198   1.536  -2.039  0.00  0.00     0.062 H 
ATOM     59  H   LIG d   1       2.609   1.335  -4.438  0.00  0.00     0.063 H 
ENDBRANCH  49  52
ENDBRANCH  17  49
TORSDOF 7
ENDMDL
