MODEL 1
REMARK VINA RESULT:      -7.1      0.000      0.000
REMARK  8 active torsions:
REMARK  status: ('A' for Active; 'I' for Inactive)
REMARK    1  A    between atoms: C_1  and  C_2 
REMARK    2  A    between atoms: C_3  and  O_22 
REMARK    3  A    between atoms: C_9  and  O_13 
REMARK    4  A    between atoms: O_13  and  C_14 
REMARK    5  A    between atoms: C_14  and  C_15 
REMARK    6  A    between atoms: O_22  and  C_23 
REMARK    7  A    between atoms: C_28  and  O_29 
REMARK    8  A    between atoms: O_29  and  C_30 
ROOT
ATOM      1  C   LIG d   1       5.309  -2.814  -6.895  0.00  0.00     0.148 A 
ATOM      2  C   LIG d   1       5.208  -1.561  -6.410  0.00  0.00     0.213 A 
ATOM      3  C   LIG d   1       4.244  -0.669  -6.959  0.00  0.00     0.235 A 
ATOM      4  O   LIG d   1       4.127   0.473  -6.548  0.00  0.00    -0.283 OA
ATOM      5  C   LIG d   1       3.393  -1.185  -8.046  0.00  0.00     0.068 A 
ATOM      6  C   LIG d   1       2.419  -0.387  -8.648  0.00  0.00    -0.044 A 
ATOM      7  C   LIG d   1       1.650  -0.900  -9.653  0.00  0.00    -0.019 A 
ATOM      8  C   LIG d   1       1.831  -2.213 -10.079  0.00  0.00     0.124 A 
ATOM      9  C   LIG d   1       2.792  -3.018  -9.491  0.00  0.00     0.023 A 
ATOM     10  C   LIG d   1       3.583  -2.513  -8.470  0.00  0.00     0.142 A 
ATOM     11  O   LIG d   1       4.527  -3.273  -7.881  0.00  0.00    -0.456 OA
ATOM     12  H   LIG d   1       2.276   0.633  -8.322  0.00  0.00     0.063 H 
ATOM     13  H   LIG d   1       0.896  -0.283 -10.120  0.00  0.00     0.065 H 
ATOM     14  H   LIG d   1       2.927  -4.036  -9.827  0.00  0.00     0.069 H 
ENDROOT
BRANCH   2  15
ATOM     15  O   LIG d   1       6.027  -1.148  -5.403  0.00  0.00    -0.445 OA
BRANCH  15  16
ATOM     16  C   LIG d   1       5.479  -0.951  -4.174  0.00  0.00     0.170 A 
ATOM     17  C   LIG d   1       5.620   0.277  -3.535  0.00  0.00     0.162 A 
ATOM     18  C   LIG d   1       5.055   0.473  -2.286  0.00  0.00    -0.016 A 
ATOM     19  C   LIG d   1       4.356  -0.550  -1.674  0.00  0.00    -0.058 A 
ATOM     20  H   LIG d   1       5.160   1.427  -1.789  0.00  0.00     0.066 H 
ATOM     21  C   LIG d   1       4.219  -1.772  -2.307  0.00  0.00    -0.058 A 
ATOM     22  H   LIG d   1       3.916  -0.396  -0.700  0.00  0.00     0.062 H 
ATOM     23  C   LIG d   1       4.781  -1.975  -3.553  0.00  0.00    -0.016 A 
ATOM     24  H   LIG d   1       3.672  -2.569  -1.825  0.00  0.00     0.062 H 
ATOM     25  H   LIG d   1       4.672  -2.931  -4.045  0.00  0.00     0.066 H 
BRANCH  17  26
ATOM     26  O   LIG d   1       6.308   1.283  -4.139  0.00  0.00    -0.491 OA
BRANCH  26  27
ATOM     27  C   LIG d   1       7.685   1.430  -3.785  0.00  0.00     0.079 C 
ATOM     28  H   LIG d   1       8.251   0.582  -4.168  0.00  0.00     0.066 H 
ATOM     29  H   LIG d   1       7.779   1.469  -2.699  0.00  0.00     0.066 H 
ATOM     30  H   LIG d   1       8.074   2.352  -4.216  0.00  0.00     0.066 H 
ENDBRANCH  26  27
ENDBRANCH  17  26
ENDBRANCH  15  16
ENDBRANCH   2  15
BRANCH   1  31
ATOM     31  C   LIG d   1       6.343  -3.737  -6.303  0.00  0.00    -0.003 C 
ATOM     32  H   LIG d   1       5.890  -4.710  -6.109  0.00  0.00     0.031 H 
ATOM     33  H   LIG d   1       7.169  -3.855  -7.003  0.00  0.00     0.031 H 
ATOM     34  H   LIG d   1       6.714  -3.316  -5.369  0.00  0.00     0.031 H 
ENDBRANCH   1  31
BRANCH   8  35
ATOM     35  O   LIG d   1       1.058  -2.709 -11.079  0.00  0.00    -0.487 OA
BRANCH  35  36
ATOM     36  C   LIG d   1       1.367  -4.024 -11.546  0.00  0.00     0.115 C 
ATOM     37  H   LIG d   1       1.290  -4.051 -12.633  0.00  0.00     0.075 H 
ATOM     38  H   LIG d   1       2.382  -4.287 -11.246  0.00  0.00     0.075 H 
BRANCH  36  39
ATOM     39  C   LIG d   1       0.396  -5.010 -10.950  0.00  0.00    -0.010 A 
ATOM     40  C   LIG d   1       0.772  -6.328 -10.772  0.00  0.00    -0.054 A 
ATOM     41  C   LIG d   1      -0.118  -7.233 -10.224  0.00  0.00    -0.043 A 
ATOM     42  H   LIG d   1       1.761  -6.650 -11.060  0.00  0.00     0.062 H 
ATOM     43  C   LIG d   1      -1.386  -6.819  -9.856  0.00  0.00     0.041 A 
ATOM     44  H   LIG d   1       0.175  -8.263 -10.086  0.00  0.00     0.063 H 
ATOM     45  C   LIG d   1      -1.762  -5.500 -10.034  0.00  0.00    -0.043 A 
ATOM     46 CL   LIG d   1      -2.504  -7.956  -9.169  0.00  0.00    -0.084 Cl
ATOM     47  C   LIG d   1      -0.869  -4.595 -10.576  0.00  0.00    -0.054 A 
ATOM     48  H   LIG d   1      -2.751  -5.176  -9.747  0.00  0.00     0.063 H 
ATOM     49  H   LIG d   1      -1.161  -3.564 -10.711  0.00  0.00     0.062 H 
ENDBRANCH  36  39
ENDBRANCH  35  36
ENDBRANCH   8  35
TORSDOF 8
ENDMDL
MODEL 2
REMARK VINA RESULT:      -6.7      2.977      3.649
REMARK  8 active torsions:
REMARK  status: ('A' for Active; 'I' for Inactive)
REMARK    1  A    between atoms: C_1  and  C_2 
REMARK    2  A    between atoms: C_3  and  O_22 
REMARK    3  A    between atoms: C_9  and  O_13 
REMARK    4  A    between atoms: O_13  and  C_14 
REMARK    5  A    between atoms: C_14  and  C_15 
REMARK    6  A    between atoms: O_22  and  C_23 
REMARK    7  A    between atoms: C_28  and  O_29 
REMARK    8  A    between atoms: O_29  and  C_30 
ROOT
ATOM      1  C   LIG d   1       5.204  -2.830  -6.942  0.00  0.00     0.148 A 
ATOM      2  C   LIG d   1       5.143  -1.584  -6.433  0.00  0.00     0.213 A 
ATOM      3  C   LIG d   1       4.212  -0.650  -6.969  0.00  0.00     0.235 A 
ATOM      4  O   LIG d   1       4.132   0.488  -6.537  0.00  0.00    -0.283 OA
ATOM      5  C   LIG d   1       3.349  -1.116  -8.068  0.00  0.00     0.068 A 
ATOM      6  C   LIG d   1       2.405  -0.274  -8.659  0.00  0.00    -0.044 A 
ATOM      7  C   LIG d   1       1.623  -0.741  -9.676  0.00  0.00    -0.019 A 
ATOM      8  C   LIG d   1       1.761  -2.052 -10.126  0.00  0.00     0.124 A 
ATOM      9  C   LIG d   1       2.692  -2.900  -9.550  0.00  0.00     0.023 A 
ATOM     10  C   LIG d   1       3.495  -2.441  -8.516  0.00  0.00     0.142 A 
ATOM     11  O   LIG d   1       4.411  -3.244  -7.938  0.00  0.00    -0.456 OA
ATOM     12  H   LIG d   1       2.295   0.744  -8.314  0.00  0.00     0.063 H 
ATOM     13  H   LIG d   1       0.893  -0.091 -10.134  0.00  0.00     0.065 H 
ATOM     14  H   LIG d   1       2.793  -3.916  -9.905  0.00  0.00     0.069 H 
ENDROOT
BRANCH   2  15
ATOM     15  O   LIG d   1       5.971  -1.218  -5.415  0.00  0.00    -0.445 OA
BRANCH  15  16
ATOM     16  C   LIG d   1       5.423  -1.012  -4.189  0.00  0.00     0.170 A 
ATOM     17  C   LIG d   1       5.584   0.214  -3.549  0.00  0.00     0.162 A 
ATOM     18  C   LIG d   1       5.018   0.420  -2.302  0.00  0.00    -0.016 A 
ATOM     19  C   LIG d   1       4.300  -0.592  -1.692  0.00  0.00    -0.058 A 
ATOM     20  H   LIG d   1       5.138   1.372  -1.805  0.00  0.00     0.066 H 
ATOM     21  C   LIG d   1       4.143  -1.810  -2.326  0.00  0.00    -0.058 A 
ATOM     22  H   LIG d   1       3.859  -0.429  -0.720  0.00  0.00     0.062 H 
ATOM     23  C   LIG d   1       4.705  -2.023  -3.570  0.00  0.00    -0.016 A 
ATOM     24  H   LIG d   1       3.581  -2.598  -1.846  0.00  0.00     0.062 H 
ATOM     25  H   LIG d   1       4.581  -2.977  -4.062  0.00  0.00     0.066 H 
BRANCH  17  26
ATOM     26  O   LIG d   1       6.291   1.207  -4.151  0.00  0.00    -0.491 OA
BRANCH  26  27
ATOM     27  C   LIG d   1       7.660   1.351  -3.768  0.00  0.00     0.079 C 
ATOM     28  H   LIG d   1       8.303   1.084  -4.607  0.00  0.00     0.066 H 
ATOM     29  H   LIG d   1       7.873   0.694  -2.924  0.00  0.00     0.066 H 
ATOM     30  H   LIG d   1       7.850   2.385  -3.479  0.00  0.00     0.066 H 
ENDBRANCH  26  27
ENDBRANCH  17  26
ENDBRANCH  15  16
ENDBRANCH   2  15
BRANCH   1  31
ATOM     31  C   LIG d   1       6.203  -3.799  -6.363  0.00  0.00    -0.003 C 
ATOM     32  H   LIG d   1       6.427  -3.517  -5.335  0.00  0.00     0.031 H 
ATOM     33  H   LIG d   1       5.785  -4.805  -6.381  0.00  0.00     0.031 H 
ATOM     34  H   LIG d   1       7.118  -3.774  -6.954  0.00  0.00     0.031 H 
ENDBRANCH   1  31
BRANCH   8  35
ATOM     35  O   LIG d   1       0.976  -2.503 -11.138  0.00  0.00    -0.487 OA
BRANCH  35  36
ATOM     36  C   LIG d   1       1.020  -1.774 -12.367  0.00  0.00     0.115 C 
ATOM     37  H   LIG d   1       0.155  -2.035 -12.975  0.00  0.00     0.075 H 
ATOM     38  H   LIG d   1       1.006  -0.704 -12.155  0.00  0.00     0.075 H 
BRANCH  36  39
ATOM     39  C   LIG d   1       2.282  -2.121 -13.112  0.00  0.00    -0.010 A 
ATOM     40  C   LIG d   1       2.446  -3.388 -13.641  0.00  0.00    -0.054 A 
ATOM     41  C   LIG d   1       3.604  -3.707 -14.325  0.00  0.00    -0.043 A 
ATOM     42  H   LIG d   1       1.669  -4.128 -13.519  0.00  0.00     0.062 H 
ATOM     43  C   LIG d   1       4.599  -2.759 -14.480  0.00  0.00     0.041 A 
ATOM     44  H   LIG d   1       3.732  -4.697 -14.737  0.00  0.00     0.063 H 
ATOM     45  C   LIG d   1       4.435  -1.491 -13.951  0.00  0.00    -0.043 A 
ATOM     46 CL   LIG d   1       6.053  -3.160 -15.339  0.00  0.00    -0.084 Cl
ATOM     47  C   LIG d   1       3.274  -1.171 -13.273  0.00  0.00    -0.054 A 
ATOM     48  H   LIG d   1       5.211  -0.751 -14.072  0.00  0.00     0.063 H 
ATOM     49  H   LIG d   1       3.144  -0.180 -12.863  0.00  0.00     0.062 H 
ENDBRANCH  36  39
ENDBRANCH  35  36
ENDBRANCH   8  35
TORSDOF 8
ENDMDL
MODEL 3
REMARK VINA RESULT:      -6.7      4.993      6.821
REMARK  8 active torsions:
REMARK  status: ('A' for Active; 'I' for Inactive)
REMARK    1  A    between atoms: C_1  and  C_2 
REMARK    2  A    between atoms: C_3  and  O_22 
REMARK    3  A    between atoms: C_9  and  O_13 
REMARK    4  A    between atoms: O_13  and  C_14 
REMARK    5  A    between atoms: C_14  and  C_15 
REMARK    6  A    between atoms: O_22  and  C_23 
REMARK    7  A    between atoms: C_28  and  O_29 
REMARK    8  A    between atoms: O_29  and  C_30 
ROOT
ATOM      1  C   LIG d   1       7.053  -4.028  -5.024  0.00  0.00     0.148 A 
ATOM      2  C   LIG d   1       5.997  -3.370  -5.542  0.00  0.00     0.213 A 
ATOM      3  C   LIG d   1       5.038  -4.081  -6.319  0.00  0.00     0.235 A 
ATOM      4  O   LIG d   1       4.073  -3.518  -6.807  0.00  0.00    -0.283 OA
ATOM      5  C   LIG d   1       5.262  -5.525  -6.506  0.00  0.00     0.068 A 
ATOM      6  C   LIG d   1       4.376  -6.307  -7.251  0.00  0.00    -0.044 A 
ATOM      7  C   LIG d   1       4.616  -7.643  -7.403  0.00  0.00    -0.019 A 
ATOM      8  C   LIG d   1       5.737  -8.228  -6.819  0.00  0.00     0.124 A 
ATOM      9  C   LIG d   1       6.624  -7.466  -6.078  0.00  0.00     0.023 A 
ATOM     10  C   LIG d   1       6.396  -6.108  -5.913  0.00  0.00     0.142 A 
ATOM     11  O   LIG d   1       7.243  -5.342  -5.197  0.00  0.00    -0.456 OA
ATOM     12  H   LIG d   1       3.506  -5.857  -7.706  0.00  0.00     0.063 H 
ATOM     13  H   LIG d   1       3.933  -8.249  -7.979  0.00  0.00     0.065 H 
ATOM     14  H   LIG d   1       7.492  -7.928  -5.628  0.00  0.00     0.069 H 
ENDROOT
BRANCH   2  15
ATOM     15  O   LIG d   1       5.851  -2.033  -5.330  0.00  0.00    -0.445 OA
BRANCH  15  16
ATOM     16  C   LIG d   1       4.837  -1.622  -4.523  0.00  0.00     0.170 A 
ATOM     17  C   LIG d   1       4.011  -0.574  -4.919  0.00  0.00     0.162 A 
ATOM     18  C   LIG d   1       2.977  -0.163  -4.095  0.00  0.00    -0.016 A 
ATOM     19  C   LIG d   1       2.769  -0.789  -2.880  0.00  0.00    -0.058 A 
ATOM     20  H   LIG d   1       2.331   0.648  -4.401  0.00  0.00     0.066 H 
ATOM     21  C   LIG d   1       3.592  -1.827  -2.485  0.00  0.00    -0.058 A 
ATOM     22  H   LIG d   1       1.962  -0.468  -2.239  0.00  0.00     0.062 H 
ATOM     23  C   LIG d   1       4.627  -2.243  -3.302  0.00  0.00    -0.016 A 
ATOM     24  H   LIG d   1       3.426  -2.314  -1.535  0.00  0.00     0.062 H 
ATOM     25  H   LIG d   1       5.268  -3.054  -2.990  0.00  0.00     0.066 H 
BRANCH  17  26
ATOM     26  O   LIG d   1       4.217   0.040  -6.114  0.00  0.00    -0.491 OA
BRANCH  26  27
ATOM     27  C   LIG d   1       3.088   0.167  -6.981  0.00  0.00     0.079 C 
ATOM     28  H   LIG d   1       2.213  -0.276  -6.505  0.00  0.00     0.066 H 
ATOM     29  H   LIG d   1       3.290  -0.349  -7.920  0.00  0.00     0.066 H 
ATOM     30  H   LIG d   1       2.898   1.221  -7.180  0.00  0.00     0.066 H 
ENDBRANCH  26  27
ENDBRANCH  17  26
ENDBRANCH  15  16
ENDBRANCH   2  15
BRANCH   1  31
ATOM     31  C   LIG d   1       8.059  -3.253  -4.212  0.00  0.00    -0.003 C 
ATOM     32  H   LIG d   1       8.061  -3.625  -3.187  0.00  0.00     0.031 H 
ATOM     33  H   LIG d   1       9.051  -3.381  -4.645  0.00  0.00     0.031 H 
ATOM     34  H   LIG d   1       7.793  -2.197  -4.215  0.00  0.00     0.031 H 
ENDBRANCH   1  31
BRANCH   8  35
ATOM     35  O   LIG d   1       5.963  -9.557  -6.980  0.00  0.00    -0.487 OA
BRANCH  35  36
ATOM     36  C   LIG d   1       4.982 -10.450  -6.447  0.00  0.00     0.115 C 
ATOM     37  H   LIG d   1       3.995  -9.998  -6.531  0.00  0.00     0.075 H 
ATOM     38  H   LIG d   1       5.003 -11.387  -7.006  0.00  0.00     0.075 H 
BRANCH  36  39
ATOM     39  C   LIG d   1       5.287 -10.725  -4.997  0.00  0.00    -0.010 A 
ATOM     40  C   LIG d   1       4.494 -10.174  -4.008  0.00  0.00    -0.054 A 
ATOM     41  C   LIG d   1       4.773 -10.426  -2.678  0.00  0.00    -0.043 A 
ATOM     42  H   LIG d   1       3.656  -9.548  -4.275  0.00  0.00     0.062 H 
ATOM     43  C   LIG d   1       5.848 -11.228  -2.337  0.00  0.00     0.041 A 
ATOM     44  H   LIG d   1       4.153  -9.996  -1.905  0.00  0.00     0.063 H 
ATOM     45  C   LIG d   1       6.642 -11.779  -3.327  0.00  0.00    -0.043 A 
ATOM     46 CL   LIG d   1       6.199 -11.543  -0.666  0.00  0.00    -0.084 Cl
ATOM     47  C   LIG d   1       6.358 -11.531  -4.656  0.00  0.00    -0.054 A 
ATOM     48  H   LIG d   1       7.480 -12.405  -3.062  0.00  0.00     0.063 H 
ATOM     49  H   LIG d   1       6.975 -11.964  -5.430  0.00  0.00     0.062 H 
ENDBRANCH  36  39
ENDBRANCH  35  36
ENDBRANCH   8  35
TORSDOF 8
ENDMDL
MODEL 4
REMARK VINA RESULT:      -6.6      1.944      3.081
REMARK  8 active torsions:
REMARK  status: ('A' for Active; 'I' for Inactive)
REMARK    1  A    between atoms: C_1  and  C_2 
REMARK    2  A    between atoms: C_3  and  O_22 
REMARK    3  A    between atoms: C_9  and  O_13 
REMARK    4  A    between atoms: O_13  and  C_14 
REMARK    5  A    between atoms: C_14  and  C_15 
REMARK    6  A    between atoms: O_22  and  C_23 
REMARK    7  A    between atoms: C_28  and  O_29 
REMARK    8  A    between atoms: O_29  and  C_30 
ROOT
ATOM      1  C   LIG d   1       2.853   0.503  -8.407  0.00  0.00     0.148 A 
ATOM      2  C   LIG d   1       3.624  -0.329  -7.679  0.00  0.00     0.213 A 
ATOM      3  C   LIG d   1       3.659  -1.716  -8.001  0.00  0.00     0.235 A 
ATOM      4  O   LIG d   1       4.341  -2.500  -7.362  0.00  0.00    -0.283 OA
ATOM      5  C   LIG d   1       2.836  -2.164  -9.138  0.00  0.00     0.068 A 
ATOM      6  C   LIG d   1       2.805  -3.504  -9.529  0.00  0.00    -0.044 A 
ATOM      7  C   LIG d   1       2.030  -3.882 -10.588  0.00  0.00    -0.019 A 
ATOM      8  C   LIG d   1       1.272  -2.939 -11.279  0.00  0.00     0.124 A 
ATOM      9  C   LIG d   1       1.293  -1.606 -10.903  0.00  0.00     0.023 A 
ATOM     10  C   LIG d   1       2.074  -1.205  -9.829  0.00  0.00     0.142 A 
ATOM     11  O   LIG d   1       2.113   0.085  -9.442  0.00  0.00    -0.456 OA
ATOM     12  H   LIG d   1       3.390  -4.239  -8.996  0.00  0.00     0.063 H 
ATOM     13  H   LIG d   1       2.004  -4.918 -10.892  0.00  0.00     0.065 H 
ATOM     14  H   LIG d   1       0.702  -0.881 -11.444  0.00  0.00     0.069 H 
ENDROOT
BRANCH   2  15
ATOM     15  O   LIG d   1       4.361   0.151  -6.640  0.00  0.00    -0.445 OA
BRANCH  15  16
ATOM     16  C   LIG d   1       4.015  -0.229  -5.382  0.00  0.00     0.170 A 
ATOM     17  C   LIG d   1       4.949  -0.854  -4.560  0.00  0.00     0.162 A 
ATOM     18  C   LIG d   1       4.593  -1.235  -3.277  0.00  0.00    -0.016 A 
ATOM     19  C   LIG d   1       3.311  -0.998  -2.816  0.00  0.00    -0.058 A 
ATOM     20  H   LIG d   1       5.316  -1.717  -2.636  0.00  0.00     0.066 H 
ATOM     21  C   LIG d   1       2.382  -0.381  -3.633  0.00  0.00    -0.058 A 
ATOM     22  H   LIG d   1       3.035  -1.295  -1.815  0.00  0.00     0.062 H 
ATOM     23  C   LIG d   1       2.731   0.001  -4.915  0.00  0.00    -0.016 A 
ATOM     24  H   LIG d   1       1.382  -0.197  -3.269  0.00  0.00     0.062 H 
ATOM     25  H   LIG d   1       2.003   0.483  -5.551  0.00  0.00     0.066 H 
BRANCH  17  26
ATOM     26  O   LIG d   1       6.209  -1.086  -5.016  0.00  0.00    -0.491 OA
BRANCH  26  27
ATOM     27  C   LIG d   1       7.266  -0.346  -4.402  0.00  0.00     0.079 C 
ATOM     28  H   LIG d   1       6.916   0.658  -4.163  0.00  0.00     0.066 H 
ATOM     29  H   LIG d   1       8.112  -0.282  -5.088  0.00  0.00     0.066 H 
ATOM     30  H   LIG d   1       7.579  -0.850  -3.487  0.00  0.00     0.066 H 
ENDBRANCH  26  27
ENDBRANCH  17  26
ENDBRANCH  15  16
ENDBRANCH   2  15
BRANCH   1  31
ATOM     31  C   LIG d   1       2.826   1.965  -8.043  0.00  0.00    -0.003 C 
ATOM     32  H   LIG d   1       1.857   2.213  -7.609  0.00  0.00     0.031 H 
ATOM     33  H   LIG d   1       3.611   2.174  -7.318  0.00  0.00     0.031 H 
ATOM     34  H   LIG d   1       2.987   2.565  -8.938  0.00  0.00     0.031 H 
ENDBRANCH   1  31
BRANCH   8  35
ATOM     35  O   LIG d   1       0.507  -3.330 -12.330  0.00  0.00    -0.487 OA
BRANCH  35  36
ATOM     36  C   LIG d   1      -0.105  -4.619 -12.243  0.00  0.00     0.115 C 
ATOM     37  H   LIG d   1      -0.098  -5.091 -13.224  0.00  0.00     0.075 H 
ATOM     38  H   LIG d   1       0.449  -5.237 -11.536  0.00  0.00     0.075 H 
BRANCH  36  39
ATOM     39  C   LIG d   1      -1.528  -4.468 -11.769  0.00  0.00    -0.010 A 
ATOM     40  C   LIG d   1      -1.905  -4.981 -10.542  0.00  0.00    -0.054 A 
ATOM     41  C   LIG d   1      -3.210  -4.843 -10.106  0.00  0.00    -0.043 A 
ATOM     42  H   LIG d   1      -1.180  -5.489  -9.924  0.00  0.00     0.062 H 
ATOM     43  C   LIG d   1      -4.138  -4.192 -10.900  0.00  0.00     0.041 A 
ATOM     44  H   LIG d   1      -3.504  -5.244  -9.148  0.00  0.00     0.063 H 
ATOM     45  C   LIG d   1      -3.761  -3.680 -12.127  0.00  0.00    -0.043 A 
ATOM     46 CL   LIG d   1      -5.777  -4.020 -10.353  0.00  0.00    -0.084 Cl
ATOM     47  C   LIG d   1      -2.454  -3.812 -12.559  0.00  0.00    -0.054 A 
ATOM     48  H   LIG d   1      -4.484  -3.172 -12.747  0.00  0.00     0.063 H 
ATOM     49  H   LIG d   1      -2.158  -3.408 -13.516  0.00  0.00     0.062 H 
ENDBRANCH  36  39
ENDBRANCH  35  36
ENDBRANCH   8  35
TORSDOF 8
ENDMDL
MODEL 5
REMARK VINA RESULT:      -6.5      2.581      2.993
REMARK  8 active torsions:
REMARK  status: ('A' for Active; 'I' for Inactive)
REMARK    1  A    between atoms: C_1  and  C_2 
REMARK    2  A    between atoms: C_3  and  O_22 
REMARK    3  A    between atoms: C_9  and  O_13 
REMARK    4  A    between atoms: O_13  and  C_14 
REMARK    5  A    between atoms: C_14  and  C_15 
REMARK    6  A    between atoms: O_22  and  C_23 
REMARK    7  A    between atoms: C_28  and  O_29 
REMARK    8  A    between atoms: O_29  and  C_30 
ROOT
ATOM      1  C   LIG d   1       4.568  -1.971  -7.221  0.00  0.00     0.148 A 
ATOM      2  C   LIG d   1       4.363  -0.658  -6.997  0.00  0.00     0.213 A 
ATOM      3  C   LIG d   1       3.438   0.057  -7.809  0.00  0.00     0.235 A 
ATOM      4  O   LIG d   1       3.230   1.247  -7.639  0.00  0.00    -0.283 OA
ATOM      5  C   LIG d   1       2.743  -0.701  -8.865  0.00  0.00     0.068 A 
ATOM      6  C   LIG d   1       1.819  -0.087  -9.712  0.00  0.00    -0.044 A 
ATOM      7  C   LIG d   1       1.194  -0.822 -10.679  0.00  0.00    -0.019 A 
ATOM      8  C   LIG d   1       1.475  -2.178 -10.824  0.00  0.00     0.124 A 
ATOM      9  C   LIG d   1       2.389  -2.801  -9.992  0.00  0.00     0.023 A 
ATOM     10  C   LIG d   1       3.032  -2.070  -9.004  0.00  0.00     0.142 A 
ATOM     11  O   LIG d   1       3.927  -2.651  -8.181  0.00  0.00    -0.456 OA
ATOM     12  H   LIG d   1       1.599   0.965  -9.603  0.00  0.00     0.063 H 
ATOM     13  H   LIG d   1       0.479  -0.348 -11.335  0.00  0.00     0.065 H 
ATOM     14  H   LIG d   1       2.601  -3.854 -10.110  0.00  0.00     0.069 H 
ENDROOT
BRANCH   2  15
ATOM     15  O   LIG d   1       5.039  -0.018  -6.003  0.00  0.00    -0.445 OA
BRANCH  15  16
ATOM     16  C   LIG d   1       4.616  -0.199  -4.724  0.00  0.00     0.170 A 
ATOM     17  C   LIG d   1       5.539  -0.245  -3.683  0.00  0.00     0.162 A 
ATOM     18  C   LIG d   1       5.101  -0.423  -2.381  0.00  0.00    -0.016 A 
ATOM     19  C   LIG d   1       3.751  -0.560  -2.118  0.00  0.00    -0.058 A 
ATOM     20  H   LIG d   1       5.815  -0.456  -1.571  0.00  0.00     0.066 H 
ATOM     21  C   LIG d   1       2.834  -0.518  -3.152  0.00  0.00    -0.058 A 
ATOM     22  H   LIG d   1       3.411  -0.699  -1.102  0.00  0.00     0.062 H 
ATOM     23  C   LIG d   1       3.264  -0.340  -4.454  0.00  0.00    -0.016 A 
ATOM     24  H   LIG d   1       1.780  -0.624  -2.942  0.00  0.00     0.062 H 
ATOM     25  H   LIG d   1       2.545  -0.308  -5.260  0.00  0.00     0.066 H 
BRANCH  17  26
ATOM     26  O   LIG d   1       6.867  -0.111  -3.945  0.00  0.00    -0.491 OA
BRANCH  26  27
ATOM     27  C   LIG d   1       7.424   1.199  -3.813  0.00  0.00     0.079 C 
ATOM     28  H   LIG d   1       7.238   1.767  -4.724  0.00  0.00     0.066 H 
ATOM     29  H   LIG d   1       8.498   1.122  -3.646  0.00  0.00     0.066 H 
ATOM     30  H   LIG d   1       6.961   1.707  -2.967  0.00  0.00     0.066 H 
ENDBRANCH  26  27
ENDBRANCH  17  26
ENDBRANCH  15  16
ENDBRANCH   2  15
BRANCH   1  31
ATOM     31  C   LIG d   1       5.558  -2.706  -6.353  0.00  0.00    -0.003 C 
ATOM     32  H   LIG d   1       6.567  -2.365  -6.586  0.00  0.00     0.031 H 
ATOM     33  H   LIG d   1       5.341  -2.506  -5.305  0.00  0.00     0.031 H 
ATOM     34  H   LIG d   1       5.483  -3.776  -6.543  0.00  0.00     0.031 H 
ENDBRANCH   1  31
BRANCH   8  35
ATOM     35  O   LIG d   1       0.846  -2.896 -11.790  0.00  0.00    -0.487 OA
BRANCH  35  36
ATOM     36  C   LIG d   1       0.462  -2.193 -12.973  0.00  0.00     0.115 C 
ATOM     37  H   LIG d   1       0.876  -1.185 -12.948  0.00  0.00     0.075 H 
ATOM     38  H   LIG d   1       0.841  -2.721 -13.849  0.00  0.00     0.075 H 
BRANCH  36  39
ATOM     39  C   LIG d   1      -1.042  -2.116 -13.046  0.00  0.00    -0.010 A 
ATOM     40  C   LIG d   1      -1.797  -3.270 -12.957  0.00  0.00    -0.054 A 
ATOM     41  C   LIG d   1      -3.176  -3.201 -13.023  0.00  0.00    -0.043 A 
ATOM     42  H   LIG d   1      -1.310  -4.225 -12.834  0.00  0.00     0.062 H 
ATOM     43  C   LIG d   1      -3.800  -1.975 -13.181  0.00  0.00     0.041 A 
ATOM     44  H   LIG d   1      -3.766  -4.102 -12.953  0.00  0.00     0.063 H 
ATOM     45  C   LIG d   1      -3.043  -0.821 -13.271  0.00  0.00    -0.043 A 
ATOM     46 CL   LIG d   1      -5.532  -1.888 -13.265  0.00  0.00    -0.084 Cl
ATOM     47  C   LIG d   1      -1.665  -0.891 -13.198  0.00  0.00    -0.054 A 
ATOM     48  H   LIG d   1      -3.529   0.135 -13.394  0.00  0.00     0.063 H 
ATOM     49  H   LIG d   1      -1.074   0.011 -13.264  0.00  0.00     0.062 H 
ENDBRANCH  36  39
ENDBRANCH  35  36
ENDBRANCH   8  35
TORSDOF 8
ENDMDL
MODEL 6
REMARK VINA RESULT:      -6.4      1.761      2.146
REMARK  8 active torsions:
REMARK  status: ('A' for Active; 'I' for Inactive)
REMARK    1  A    between atoms: C_1  and  C_2 
REMARK    2  A    between atoms: C_3  and  O_22 
REMARK    3  A    between atoms: C_9  and  O_13 
REMARK    4  A    between atoms: O_13  and  C_14 
REMARK    5  A    between atoms: C_14  and  C_15 
REMARK    6  A    between atoms: O_22  and  C_23 
REMARK    7  A    between atoms: C_28  and  O_29 
REMARK    8  A    between atoms: O_29  and  C_30 
ROOT
ATOM      1  C   LIG d   1       5.428  -1.169  -8.130  0.00  0.00     0.148 A 
ATOM      2  C   LIG d   1       4.617  -0.520  -7.271  0.00  0.00     0.213 A 
ATOM      3  C   LIG d   1       3.274  -0.239  -7.651  0.00  0.00     0.235 A 
ATOM      4  O   LIG d   1       2.511   0.350  -6.902  0.00  0.00    -0.283 OA
ATOM      5  C   LIG d   1       2.843  -0.690  -8.985  0.00  0.00     0.068 A 
ATOM      6  C   LIG d   1       1.545  -0.461  -9.447  0.00  0.00    -0.044 A 
ATOM      7  C   LIG d   1       1.182  -0.894 -10.690  0.00  0.00    -0.019 A 
ATOM      8  C   LIG d   1       2.098  -1.562 -11.499  0.00  0.00     0.124 A 
ATOM      9  C   LIG d   1       3.389  -1.797 -11.056  0.00  0.00     0.023 A 
ATOM     10  C   LIG d   1       3.774  -1.364  -9.795  0.00  0.00     0.142 A 
ATOM     11  O   LIG d   1       5.024  -1.578  -9.339  0.00  0.00    -0.456 OA
ATOM     12  H   LIG d   1       0.831   0.057  -8.823  0.00  0.00     0.063 H 
ATOM     13  H   LIG d   1       0.179  -0.717 -11.048  0.00  0.00     0.065 H 
ATOM     14  H   LIG d   1       4.094  -2.316 -11.689  0.00  0.00     0.069 H 
ENDROOT
BRANCH   2  15
ATOM     15  O   LIG d   1       5.079  -0.131  -6.051  0.00  0.00    -0.445 OA
BRANCH  15  16
ATOM     16  C   LIG d   1       4.709  -0.860  -4.966  0.00  0.00     0.170 A 
ATOM     17  C   LIG d   1       4.066  -0.242  -3.897  0.00  0.00     0.162 A 
ATOM     18  C   LIG d   1       3.686  -0.991  -2.795  0.00  0.00    -0.016 A 
ATOM     19  C   LIG d   1       3.949  -2.348  -2.757  0.00  0.00    -0.058 A 
ATOM     20  H   LIG d   1       3.183  -0.516  -1.965  0.00  0.00     0.066 H 
ATOM     21  C   LIG d   1       4.591  -2.961  -3.817  0.00  0.00    -0.058 A 
ATOM     22  H   LIG d   1       3.651  -2.931  -1.897  0.00  0.00     0.062 H 
ATOM     23  C   LIG d   1       4.974  -2.220  -4.919  0.00  0.00    -0.016 A 
ATOM     24  H   LIG d   1       4.794  -4.021  -3.783  0.00  0.00     0.062 H 
ATOM     25  H   LIG d   1       5.475  -2.701  -5.745  0.00  0.00     0.066 H 
BRANCH  17  26
ATOM     26  O   LIG d   1       3.808   1.092  -3.937  0.00  0.00    -0.491 OA
BRANCH  26  27
ATOM     27  C   LIG d   1       3.742   1.777  -2.684  0.00  0.00     0.079 C 
ATOM     28  H   LIG d   1       4.003   2.826  -2.829  0.00  0.00     0.066 H 
ATOM     29  H   LIG d   1       4.443   1.322  -1.983  0.00  0.00     0.066 H 
ATOM     30  H   LIG d   1       2.731   1.706  -2.283  0.00  0.00     0.066 H 
ENDBRANCH  26  27
ENDBRANCH  17  26
ENDBRANCH  15  16
ENDBRANCH   2  15
BRANCH   1  31
ATOM     31  C   LIG d   1       6.849  -1.448  -7.709  0.00  0.00    -0.003 C 
ATOM     32  H   LIG d   1       7.198  -2.358  -8.197  0.00  0.00     0.031 H 
ATOM     33  H   LIG d   1       7.485  -0.614  -8.002  0.00  0.00     0.031 H 
ATOM     34  H   LIG d   1       6.889  -1.576  -6.628  0.00  0.00     0.031 H 
ENDBRANCH   1  31
BRANCH   8  35
ATOM     35  O   LIG d   1       1.723  -1.986 -12.732  0.00  0.00    -0.487 OA
BRANCH  35  36
ATOM     36  C   LIG d   1       1.622  -3.398 -12.930  0.00  0.00     0.115 C 
ATOM     37  H   LIG d   1       1.565  -3.612 -13.997  0.00  0.00     0.075 H 
ATOM     38  H   LIG d   1       2.500  -3.887 -12.507  0.00  0.00     0.075 H 
BRANCH  36  39
ATOM     39  C   LIG d   1       0.382  -3.914 -12.247  0.00  0.00    -0.010 A 
ATOM     40  C   LIG d   1      -0.858  -3.714 -12.824  0.00  0.00    -0.054 A 
ATOM     41  C   LIG d   1      -1.996  -4.187 -12.198  0.00  0.00    -0.043 A 
ATOM     42  H   LIG d   1      -0.938  -3.188 -13.763  0.00  0.00     0.062 H 
ATOM     43  C   LIG d   1      -1.893  -4.860 -10.993  0.00  0.00     0.041 A 
ATOM     44  H   LIG d   1      -2.965  -4.030 -12.648  0.00  0.00     0.063 H 
ATOM     45  C   LIG d   1      -0.652  -5.060 -10.416  0.00  0.00    -0.043 A 
ATOM     46 CL   LIG d   1      -3.323  -5.453 -10.206  0.00  0.00    -0.084 Cl
ATOM     47  C   LIG d   1       0.485  -4.592 -11.046  0.00  0.00    -0.054 A 
ATOM     48  H   LIG d   1      -0.571  -5.585  -9.477  0.00  0.00     0.063 H 
ATOM     49  H   LIG d   1       1.455  -4.751 -10.598  0.00  0.00     0.062 H 
ENDBRANCH  36  39
ENDBRANCH  35  36
ENDBRANCH   8  35
TORSDOF 8
ENDMDL
MODEL 7
REMARK VINA RESULT:      -6.4      4.095      5.146
REMARK  8 active torsions:
REMARK  status: ('A' for Active; 'I' for Inactive)
REMARK    1  A    between atoms: C_1  and  C_2 
REMARK    2  A    between atoms: C_3  and  O_22 
REMARK    3  A    between atoms: C_9  and  O_13 
REMARK    4  A    between atoms: O_13  and  C_14 
REMARK    5  A    between atoms: C_14  and  C_15 
REMARK    6  A    between atoms: O_22  and  C_23 
REMARK    7  A    between atoms: C_28  and  O_29 
REMARK    8  A    between atoms: O_29  and  C_30 
ROOT
ATOM      1  C   LIG d   1       5.612  -0.814  -8.118  0.00  0.00     0.148 A 
ATOM      2  C   LIG d   1       4.713  -0.347  -7.230  0.00  0.00     0.213 A 
ATOM      3  C   LIG d   1       3.347  -0.223  -7.611  0.00  0.00     0.235 A 
ATOM      4  O   LIG d   1       2.506   0.199  -6.836  0.00  0.00    -0.283 OA
ATOM      5  C   LIG d   1       2.992  -0.628  -8.983  0.00  0.00     0.068 A 
ATOM      6  C   LIG d   1       1.679  -0.543  -9.449  0.00  0.00    -0.044 A 
ATOM      7  C   LIG d   1       1.388  -0.927 -10.727  0.00  0.00    -0.019 A 
ATOM      8  C   LIG d   1       2.393  -1.402 -11.566  0.00  0.00     0.124 A 
ATOM      9  C   LIG d   1       3.700  -1.493 -11.118  0.00  0.00     0.023 A 
ATOM     10  C   LIG d   1       4.013  -1.107  -9.823  0.00  0.00     0.142 A 
ATOM     11  O   LIG d   1       5.277  -1.183  -9.361  0.00  0.00    -0.456 OA
ATOM     12  H   LIG d   1       0.896  -0.174  -8.802  0.00  0.00     0.063 H 
ATOM     13  H   LIG d   1       0.373  -0.862 -11.089  0.00  0.00     0.065 H 
ATOM     14  H   LIG d   1       4.475  -1.863 -11.775  0.00  0.00     0.069 H 
ENDROOT
BRANCH   2  15
ATOM     15  O   LIG d   1       5.109   0.009  -5.977  0.00  0.00    -0.445 OA
BRANCH  15  16
ATOM     16  C   LIG d   1       4.742  -0.790  -4.940  0.00  0.00     0.170 A 
ATOM     17  C   LIG d   1       4.042  -0.257  -3.861  0.00  0.00     0.162 A 
ATOM     18  C   LIG d   1       3.666  -1.077  -2.811  0.00  0.00    -0.016 A 
ATOM     19  C   LIG d   1       3.990  -2.421  -2.831  0.00  0.00    -0.058 A 
ATOM     20  H   LIG d   1       3.119  -0.667  -1.974  0.00  0.00     0.066 H 
ATOM     21  C   LIG d   1       4.689  -2.950  -3.901  0.00  0.00    -0.058 A 
ATOM     22  H   LIG d   1       3.696  -3.059  -2.011  0.00  0.00     0.062 H 
ATOM     23  C   LIG d   1       5.068  -2.137  -4.953  0.00  0.00    -0.016 A 
ATOM     24  H   LIG d   1       4.940  -4.000  -3.913  0.00  0.00     0.062 H 
ATOM     25  H   LIG d   1       5.614  -2.553  -5.786  0.00  0.00     0.066 H 
BRANCH  17  26
ATOM     26  O   LIG d   1       3.724   1.065  -3.843  0.00  0.00    -0.491 OA
BRANCH  26  27
ATOM     27  C   LIG d   1       3.767   1.724  -2.575  0.00  0.00     0.079 C 
ATOM     28  H   LIG d   1       3.965   2.786  -2.724  0.00  0.00     0.066 H 
ATOM     29  H   LIG d   1       4.559   1.289  -1.965  0.00  0.00     0.066 H 
ATOM     30  H   LIG d   1       2.809   1.600  -2.070  0.00  0.00     0.066 H 
ENDBRANCH  26  27
ENDBRANCH  17  26
ENDBRANCH  15  16
ENDBRANCH   2  15
BRANCH   1  31
ATOM     31  C   LIG d   1       7.054  -0.929  -7.694  0.00  0.00    -0.003 C 
ATOM     32  H   LIG d   1       7.457  -1.883  -8.035  0.00  0.00     0.031 H 
ATOM     33  H   LIG d   1       7.628  -0.115  -8.135  0.00  0.00     0.031 H 
ATOM     34  H   LIG d   1       7.119  -0.875  -6.608  0.00  0.00     0.031 H 
ENDBRANCH   1  31
BRANCH   8  35
ATOM     35  O   LIG d   1       2.089  -1.780 -12.834  0.00  0.00    -0.487 OA
BRANCH  35  36
ATOM     36  C   LIG d   1       3.159  -2.288 -13.634  0.00  0.00     0.115 C 
ATOM     37  H   LIG d   1       4.086  -2.258 -13.063  0.00  0.00     0.075 H 
ATOM     38  H   LIG d   1       2.940  -3.317 -13.921  0.00  0.00     0.075 H 
BRANCH  36  39
ATOM     39  C   LIG d   1       3.304  -1.442 -14.873  0.00  0.00    -0.010 A 
ATOM     40  C   LIG d   1       4.239  -0.425 -14.908  0.00  0.00    -0.054 A 
ATOM     41  C   LIG d   1       4.373   0.351 -16.045  0.00  0.00    -0.043 A 
ATOM     42  H   LIG d   1       4.864  -0.236 -14.049  0.00  0.00     0.062 H 
ATOM     43  C   LIG d   1       3.571   0.109 -17.146  0.00  0.00     0.041 A 
ATOM     44  H   LIG d   1       5.103   1.146 -16.072  0.00  0.00     0.063 H 
ATOM     45  C   LIG d   1       2.635  -0.909 -17.110  0.00  0.00    -0.043 A 
ATOM     46 CL   LIG d   1       3.739   1.085 -18.572  0.00  0.00    -0.084 Cl
ATOM     47  C   LIG d   1       2.507  -1.688 -15.976  0.00  0.00    -0.054 A 
ATOM     48  H   LIG d   1       2.009  -1.098 -17.968  0.00  0.00     0.063 H 
ATOM     49  H   LIG d   1       1.779  -2.486 -15.949  0.00  0.00     0.062 H 
ENDBRANCH  36  39
ENDBRANCH  35  36
ENDBRANCH   8  35
TORSDOF 8
ENDMDL
MODEL 8
REMARK VINA RESULT:      -6.3      6.928     11.326
REMARK  8 active torsions:
REMARK  status: ('A' for Active; 'I' for Inactive)
REMARK    1  A    between atoms: C_1  and  C_2 
REMARK    2  A    between atoms: C_3  and  O_22 
REMARK    3  A    between atoms: C_9  and  O_13 
REMARK    4  A    between atoms: O_13  and  C_14 
REMARK    5  A    between atoms: C_14  and  C_15 
REMARK    6  A    between atoms: O_22  and  C_23 
REMARK    7  A    between atoms: C_28  and  O_29 
REMARK    8  A    between atoms: O_29  and  C_30 
ROOT
ATOM      1  C   LIG d   1      11.100   5.639  -1.306  0.00  0.00     0.148 A 
ATOM      2  C   LIG d   1      11.434   6.672  -2.105  0.00  0.00     0.213 A 
ATOM      3  C   LIG d   1      11.075   6.640  -3.482  0.00  0.00     0.235 A 
ATOM      4  O   LIG d   1      11.363   7.554  -4.236  0.00  0.00    -0.283 OA
ATOM      5  C   LIG d   1      10.339   5.455  -3.958  0.00  0.00     0.068 A 
ATOM      6  C   LIG d   1       9.943   5.332  -5.291  0.00  0.00    -0.044 A 
ATOM      7  C   LIG d   1       9.263   4.219  -5.695  0.00  0.00    -0.019 A 
ATOM      8  C   LIG d   1       8.962   3.208  -4.786  0.00  0.00     0.124 A 
ATOM      9  C   LIG d   1       9.347   3.316  -3.460  0.00  0.00     0.023 A 
ATOM     10  C   LIG d   1      10.039   4.439  -3.033  0.00  0.00     0.142 A 
ATOM     11  O   LIG d   1      10.427   4.570  -1.749  0.00  0.00    -0.456 OA
ATOM     12  H   LIG d   1      10.175   6.114  -6.000  0.00  0.00     0.063 H 
ATOM     13  H   LIG d   1       8.957   4.123  -6.726  0.00  0.00     0.065 H 
ATOM     14  H   LIG d   1       9.110   2.527  -2.761  0.00  0.00     0.069 H 
ENDROOT
BRANCH   2  15
ATOM     15  O   LIG d   1      12.115   7.738  -1.599  0.00  0.00    -0.445 OA
BRANCH  15  16
ATOM     16  C   LIG d   1      11.406   8.698  -0.948  0.00  0.00     0.170 A 
ATOM     17  C   LIG d   1      11.927   9.294   0.197  0.00  0.00     0.162 A 
ATOM     18  C   LIG d   1      11.203  10.275   0.853  0.00  0.00    -0.016 A 
ATOM     19  C   LIG d   1       9.964  10.657   0.375  0.00  0.00    -0.058 A 
ATOM     20  H   LIG d   1      11.606  10.743   1.740  0.00  0.00     0.066 H 
ATOM     21  C   LIG d   1       9.444  10.062  -0.760  0.00  0.00    -0.058 A 
ATOM     22  H   LIG d   1       9.400  11.423   0.887  0.00  0.00     0.062 H 
ATOM     23  C   LIG d   1      10.161   9.082  -1.420  0.00  0.00    -0.016 A 
ATOM     24  H   LIG d   1       8.476  10.364  -1.131  0.00  0.00     0.062 H 
ATOM     25  H   LIG d   1       9.752   8.619  -2.306  0.00  0.00     0.066 H 
BRANCH  17  26
ATOM     26  O   LIG d   1      13.146   8.916   0.666  0.00  0.00    -0.491 OA
BRANCH  26  27
ATOM     27  C   LIG d   1      13.840   9.852   1.494  0.00  0.00     0.079 C 
ATOM     28  H   LIG d   1      13.119  10.424   2.079  0.00  0.00     0.066 H 
ATOM     29  H   LIG d   1      14.420  10.531   0.869  0.00  0.00     0.066 H 
ATOM     30  H   LIG d   1      14.510   9.316   2.166  0.00  0.00     0.066 H 
ENDBRANCH  26  27
ENDBRANCH  17  26
ENDBRANCH  15  16
ENDBRANCH   2  15
BRANCH   1  31
ATOM     31  C   LIG d   1      11.498   5.692   0.147  0.00  0.00    -0.003 C 
ATOM     32  H   LIG d   1      12.363   5.049   0.309  0.00  0.00     0.031 H 
ATOM     33  H   LIG d   1      11.753   6.717   0.417  0.00  0.00     0.031 H 
ATOM     34  H   LIG d   1      10.669   5.348   0.764  0.00  0.00     0.031 H 
ENDBRANCH   1  31
BRANCH   8  35
ATOM     35  O   LIG d   1       8.285   2.108  -5.203  0.00  0.00    -0.487 OA
BRANCH  35  36
ATOM     36  C   LIG d   1       8.691   0.851  -4.657  0.00  0.00     0.115 C 
ATOM     37  H   LIG d   1       9.090   0.222  -5.451  0.00  0.00     0.075 H 
ATOM     38  H   LIG d   1       9.460   1.015  -3.901  0.00  0.00     0.075 H 
BRANCH  36  39
ATOM     39  C   LIG d   1       7.504   0.170  -4.026  0.00  0.00    -0.010 A 
ATOM     40  C   LIG d   1       7.388  -1.206  -4.079  0.00  0.00    -0.054 A 
ATOM     41  C   LIG d   1       6.300  -1.831  -3.500  0.00  0.00    -0.043 A 
ATOM     42  H   LIG d   1       8.148  -1.793  -4.572  0.00  0.00     0.062 H 
ATOM     43  C   LIG d   1       5.325  -1.078  -2.868  0.00  0.00     0.041 A 
ATOM     44  H   LIG d   1       6.209  -2.906  -3.542  0.00  0.00     0.063 H 
ATOM     45  C   LIG d   1       5.441   0.299  -2.816  0.00  0.00    -0.043 A 
ATOM     46 CL   LIG d   1       3.958  -1.864  -2.142  0.00  0.00    -0.084 Cl
ATOM     47  C   LIG d   1       6.534   0.922  -3.389  0.00  0.00    -0.054 A 
ATOM     48  H   LIG d   1       4.682   0.887  -2.323  0.00  0.00     0.063 H 
ATOM     49  H   LIG d   1       6.626   1.997  -3.345  0.00  0.00     0.062 H 
ENDBRANCH  36  39
ENDBRANCH  35  36
ENDBRANCH   8  35
TORSDOF 8
ENDMDL
MODEL 9
REMARK VINA RESULT:      -6.3      3.772      4.870
REMARK  8 active torsions:
REMARK  status: ('A' for Active; 'I' for Inactive)
REMARK    1  A    between atoms: C_1  and  C_2 
REMARK    2  A    between atoms: C_3  and  O_22 
REMARK    3  A    between atoms: C_9  and  O_13 
REMARK    4  A    between atoms: O_13  and  C_14 
REMARK    5  A    between atoms: C_14  and  C_15 
REMARK    6  A    between atoms: O_22  and  C_23 
REMARK    7  A    between atoms: C_28  and  O_29 
REMARK    8  A    between atoms: O_29  and  C_30 
ROOT
ATOM      1  C   LIG d   1       2.895   0.718  -8.774  0.00  0.00     0.148 A 
ATOM      2  C   LIG d   1       3.521  -0.237  -8.057  0.00  0.00     0.213 A 
ATOM      3  C   LIG d   1       3.396  -1.601  -8.444  0.00  0.00     0.235 A 
ATOM      4  O   LIG d   1       3.945  -2.492  -7.818  0.00  0.00    -0.283 OA
ATOM      5  C   LIG d   1       2.576  -1.891  -9.633  0.00  0.00     0.068 A 
ATOM      6  C   LIG d   1       2.395  -3.198 -10.090  0.00  0.00    -0.044 A 
ATOM      7  C   LIG d   1       1.628  -3.428 -11.196  0.00  0.00    -0.019 A 
ATOM      8  C   LIG d   1       1.027  -2.367 -11.870  0.00  0.00     0.124 A 
ATOM      9  C   LIG d   1       1.197  -1.066 -11.429  0.00  0.00     0.023 A 
ATOM     10  C   LIG d   1       1.973  -0.814 -10.307  0.00  0.00     0.142 A 
ATOM     11  O   LIG d   1       2.156   0.443  -9.856  0.00  0.00    -0.456 OA
ATOM     12  H   LIG d   1       2.859  -4.024  -9.570  0.00  0.00     0.063 H 
ATOM     13  H   LIG d   1       1.486  -4.438 -11.550  0.00  0.00     0.065 H 
ATOM     14  H   LIG d   1       0.728  -0.248 -11.957  0.00  0.00     0.069 H 
ENDROOT
BRANCH   2  15
ATOM     15  O   LIG d   1       4.265   0.101  -6.968  0.00  0.00    -0.445 OA
BRANCH  15  16
ATOM     16  C   LIG d   1       3.792  -0.243  -5.740  0.00  0.00     0.170 A 
ATOM     17  C   LIG d   1       4.556  -1.046  -4.898  0.00  0.00     0.162 A 
ATOM     18  C   LIG d   1       4.071  -1.388  -3.646  0.00  0.00    -0.016 A 
ATOM     19  C   LIG d   1       2.830  -0.937  -3.238  0.00  0.00    -0.058 A 
ATOM     20  H   LIG d   1       4.663  -2.008  -2.989  0.00  0.00     0.066 H 
ATOM     21  C   LIG d   1       2.070  -0.142  -4.076  0.00  0.00    -0.058 A 
ATOM     22  H   LIG d   1       2.454  -1.204  -2.261  0.00  0.00     0.062 H 
ATOM     23  C   LIG d   1       2.547   0.203  -5.326  0.00  0.00    -0.016 A 
ATOM     24  H   LIG d   1       1.101   0.209  -3.752  0.00  0.00     0.062 H 
ATOM     25  H   LIG d   1       1.951   0.824  -5.979  0.00  0.00     0.066 H 
BRANCH  17  26
ATOM     26  O   LIG d   1       5.776  -1.489  -5.302  0.00  0.00    -0.491 OA
BRANCH  26  27
ATOM     27  C   LIG d   1       6.682  -1.913  -4.282  0.00  0.00     0.079 C 
ATOM     28  H   LIG d   1       7.619  -2.234  -4.737  0.00  0.00     0.066 H 
ATOM     29  H   LIG d   1       6.244  -2.745  -3.729  0.00  0.00     0.066 H 
ATOM     30  H   LIG d   1       6.875  -1.086  -3.599  0.00  0.00     0.066 H 
ENDBRANCH  26  27
ENDBRANCH  17  26
ENDBRANCH  15  16
ENDBRANCH   2  15
BRANCH   1  31
ATOM     31  C   LIG d   1       3.035   2.155  -8.341  0.00  0.00    -0.003 C 
ATOM     32  H   LIG d   1       3.125   2.791  -9.221  0.00  0.00     0.031 H 
ATOM     33  H   LIG d   1       2.157   2.449  -7.768  0.00  0.00     0.031 H 
ATOM     34  H   LIG d   1       3.926   2.263  -7.723  0.00  0.00     0.031 H 
ENDBRANCH   1  31
BRANCH   8  35
ATOM     35  O   LIG d   1       0.267  -2.612 -12.968  0.00  0.00    -0.487 OA
BRANCH  35  36
ATOM     36  C   LIG d   1      -1.152  -2.569 -12.798  0.00  0.00     0.115 C 
ATOM     37  H   LIG d   1      -1.582  -3.525 -13.092  0.00  0.00     0.075 H 
ATOM     38  H   LIG d   1      -1.386  -2.371 -11.751  0.00  0.00     0.075 H 
BRANCH  36  39
ATOM     39  C   LIG d   1      -1.728  -1.473 -13.656  0.00  0.00    -0.010 A 
ATOM     40  C   LIG d   1      -1.692  -1.584 -15.034  0.00  0.00    -0.054 A 
ATOM     41  C   LIG d   1      -2.221  -0.579 -15.822  0.00  0.00    -0.043 A 
ATOM     42  H   LIG d   1      -1.252  -2.455 -15.493  0.00  0.00     0.062 H 
ATOM     43  C   LIG d   1      -2.785   0.539 -15.232  0.00  0.00     0.041 A 
ATOM     44  H   LIG d   1      -2.193  -0.665 -16.898  0.00  0.00     0.063 H 
ATOM     45  C   LIG d   1      -2.820   0.650 -13.853  0.00  0.00    -0.043 A 
ATOM     46 CL   LIG d   1      -3.448   1.801 -16.222  0.00  0.00    -0.084 Cl
ATOM     47  C   LIG d   1      -2.297  -0.359 -13.066  0.00  0.00    -0.054 A 
ATOM     48  H   LIG d   1      -3.260   1.520 -13.392  0.00  0.00     0.063 H 
ATOM     49  H   LIG d   1      -2.328  -0.275 -11.990  0.00  0.00     0.062 H 
ENDBRANCH  36  39
ENDBRANCH  35  36
ENDBRANCH   8  35
TORSDOF 8
ENDMDL
