MODEL 1
REMARK VINA RESULT:      -7.2      0.000      0.000
REMARK  7 active torsions:
REMARK  status: ('A' for Active; 'I' for Inactive)
REMARK    1  A    between atoms: C_1  and  C_2 
REMARK    2  A    between atoms: C_6  and  O_25 
REMARK    3  A    between atoms: C_12  and  C_13 
REMARK    4  A    between atoms: C_13  and  C_14 
REMARK    5  A    between atoms: C_14  and  C_15 
REMARK       I    between atoms: C_15  and  N_17 
REMARK    6  A    between atoms: N_17  and  C_18 
REMARK    7  A    between atoms: C_18  and  C_19 
ROOT
ATOM      1  C   LIG d   1       3.794   0.009  -2.390  0.00  0.00    -0.012 C 
ATOM      2  H   LIG d   1       3.801   1.081  -2.196  0.00  0.00     0.032 H 
ATOM      3  H   LIG d   1       3.692  -0.531  -1.449  0.00  0.00     0.032 H 
ENDROOT
BRANCH   1   4
ATOM      4  C   LIG d   1       5.085  -0.389  -3.060  0.00  0.00     0.041 A 
ATOM      5  C   LIG d   1       5.308  -1.687  -3.393  0.00  0.00    -0.030 A 
ATOM      6  C   LIG d   1       6.574  -2.028  -4.043  0.00  0.00     0.021 A 
ATOM      7  C   LIG d   1       7.507  -1.004  -4.297  0.00  0.00     0.143 A 
ATOM      8  C   LIG d   1       6.865  -3.346  -4.411  0.00  0.00    -0.047 A 
ATOM      9  C   LIG d   1       8.710  -1.316  -4.912  0.00  0.00     0.023 A 
ATOM     10  O   LIG d   1       7.223   0.268  -3.941  0.00  0.00    -0.422 OA
ATOM     11  C   LIG d   1       8.981  -2.626  -5.268  0.00  0.00     0.120 A 
ATOM     12  H   LIG d   1       9.434  -0.540  -5.112  0.00  0.00     0.069 H 
ATOM     13  C   LIG d   1       8.054  -3.636  -5.015  0.00  0.00    -0.019 A 
ATOM     14  H   LIG d   1       8.278  -4.653  -5.299  0.00  0.00     0.065 H 
ATOM     15  C   LIG d   1       6.061   0.586  -3.350  0.00  0.00     0.341 A 
ATOM     16  O   LIG d   1       5.846   1.747  -3.051  0.00  0.00    -0.245 OA
ATOM     17  H   LIG d   1       6.150  -4.132  -4.218  0.00  0.00     0.063 H 
BRANCH   5  18
ATOM     18  C   LIG d   1       4.278  -2.749  -3.102  0.00  0.00    -0.039 C 
ATOM     19  H   LIG d   1       3.994  -3.243  -4.031  0.00  0.00     0.028 H 
ATOM     20  H   LIG d   1       4.697  -3.482  -2.413  0.00  0.00     0.028 H 
ATOM     21  H   LIG d   1       3.399  -2.288  -2.652  0.00  0.00     0.028 H 
ENDBRANCH   5  18
BRANCH  11  22
ATOM     22  O   LIG d   1      10.159  -2.930  -5.871  0.00  0.00    -0.507 OA
ATOM     23  H   LIG d   1      10.215  -3.843  -6.188  0.00  0.00     0.292 HD
ENDBRANCH  11  22
ENDBRANCH   1   4
BRANCH   1  24
ATOM     24  C   LIG d   1       2.618  -0.336  -3.307  0.00  0.00     0.028 C 
ATOM     25  H   LIG d   1       1.684  -0.048  -2.823  0.00  0.00     0.036 H 
ATOM     26  H   LIG d   1       2.612  -1.408  -3.502  0.00  0.00     0.036 H 
BRANCH  24  27
ATOM     27  C   LIG d   1       2.760   0.412  -4.607  0.00  0.00     0.214 C 
ATOM     28  O   LIG d   1       2.777   1.624  -4.611  0.00  0.00    -0.276 OA
ATOM     29  N   LIG d   1       2.867  -0.269  -5.766  0.00  0.00    -0.311 N 
ATOM     30  H   LIG d   1       2.854  -1.238  -5.763  0.00  0.00     0.149 HD
BRANCH  29  31
ATOM     31  C   LIG d   1       3.006   0.458  -7.031  0.00  0.00     0.038 C 
ATOM     32  H   LIG d   1       4.015   0.864  -7.109  0.00  0.00     0.051 H 
ATOM     33  H   LIG d   1       2.283   1.274  -7.063  0.00  0.00     0.051 H 
BRANCH  31  34
ATOM     34  C   LIG d   1       2.753  -0.483  -8.181  0.00  0.00    -0.012 A 
ATOM     35  C   LIG d   1       3.436  -1.681  -8.268  0.00  0.00     0.032 A 
ATOM     36  N   LIG d   1       3.221  -2.509  -9.271  0.00  0.00    -0.263 NA
ATOM     37  H   LIG d   1       4.154  -1.943  -7.505  0.00  0.00     0.083 H 
ATOM     38  C   LIG d   1       2.349  -2.235 -10.222  0.00  0.00     0.028 A 
ATOM     39  C   LIG d   1       1.634  -1.052 -10.205  0.00  0.00    -0.043 A 
ATOM     40  H   LIG d   1       2.196  -2.939 -11.026  0.00  0.00     0.083 H 
ATOM     41  C   LIG d   1       1.834  -0.156  -9.166  0.00  0.00    -0.054 A 
ATOM     42  H   LIG d   1       0.924  -0.831 -10.989  0.00  0.00     0.063 H 
ATOM     43  H   LIG d   1       1.285   0.774  -9.124  0.00  0.00     0.062 H 
ENDBRANCH  31  34
ENDBRANCH  29  31
ENDBRANCH  24  27
ENDBRANCH   1  24
TORSDOF 7
ENDMDL
MODEL 2
REMARK VINA RESULT:      -7.0      4.042      8.019
REMARK  7 active torsions:
REMARK  status: ('A' for Active; 'I' for Inactive)
REMARK    1  A    between atoms: C_1  and  C_2 
REMARK    2  A    between atoms: C_6  and  O_25 
REMARK    3  A    between atoms: C_12  and  C_13 
REMARK    4  A    between atoms: C_13  and  C_14 
REMARK    5  A    between atoms: C_14  and  C_15 
REMARK       I    between atoms: C_15  and  N_17 
REMARK    6  A    between atoms: N_17  and  C_18 
REMARK    7  A    between atoms: C_18  and  C_19 
ROOT
ATOM      1  C   LIG d   1       2.219   0.355  -9.666  0.00  0.00    -0.012 C 
ATOM      2  H   LIG d   1       1.154   0.135  -9.741  0.00  0.00     0.032 H 
ATOM      3  H   LIG d   1       2.358   1.424  -9.507  0.00  0.00     0.032 H 
ENDROOT
BRANCH   1   4
ATOM      4  C   LIG d   1       2.908  -0.059 -10.941  0.00  0.00     0.041 A 
ATOM      5  C   LIG d   1       2.321  -0.957 -11.773  0.00  0.00    -0.030 A 
ATOM      6  C   LIG d   1       3.027  -1.329 -13.000  0.00  0.00     0.021 A 
ATOM      7  C   LIG d   1       4.278  -0.744 -13.271  0.00  0.00     0.143 A 
ATOM      8  C   LIG d   1       2.475  -2.249 -13.899  0.00  0.00    -0.047 A 
ATOM      9  C   LIG d   1       4.955  -1.089 -14.431  0.00  0.00     0.023 A 
ATOM     10  O   LIG d   1       4.806   0.145 -12.402  0.00  0.00    -0.422 OA
ATOM     11  C   LIG d   1       4.395  -2.002 -15.309  0.00  0.00     0.120 A 
ATOM     12  H   LIG d   1       5.916  -0.647 -14.650  0.00  0.00     0.069 H 
ATOM     13  C   LIG d   1       3.155  -2.578 -15.037  0.00  0.00    -0.019 A 
ATOM     14  H   LIG d   1       2.729  -3.288 -15.729  0.00  0.00     0.065 H 
ATOM     15  C   LIG d   1       4.162   0.493 -11.277  0.00  0.00     0.341 A 
ATOM     16  O   LIG d   1       4.675   1.302 -10.525  0.00  0.00    -0.245 OA
ATOM     17  H   LIG d   1       1.515  -2.697 -13.694  0.00  0.00     0.063 H 
BRANCH   5  18
ATOM     18  C   LIG d   1       0.978  -1.557 -11.442  0.00  0.00    -0.039 C 
ATOM     19  H   LIG d   1       0.737  -1.353 -10.399  0.00  0.00     0.028 H 
ATOM     20  H   LIG d   1       0.216  -1.117 -12.084  0.00  0.00     0.028 H 
ATOM     21  H   LIG d   1       1.013  -2.634 -11.603  0.00  0.00     0.028 H 
ENDBRANCH   5  18
BRANCH  11  22
ATOM     22  O   LIG d   1       5.058  -2.339 -16.444  0.00  0.00    -0.507 OA
ATOM     23  H   LIG d   1       4.759  -3.168 -16.843  0.00  0.00     0.292 HD
ENDBRANCH  11  22
ENDBRANCH   1   4
BRANCH   1  24
ATOM     24  C   LIG d   1       2.818  -0.420  -8.489  0.00  0.00     0.028 C 
ATOM     25  H   LIG d   1       3.837  -0.718  -8.732  0.00  0.00     0.036 H 
ATOM     26  H   LIG d   1       2.215  -1.307  -8.295  0.00  0.00     0.036 H 
BRANCH  24  27
ATOM     27  C   LIG d   1       2.830   0.459  -7.265  0.00  0.00     0.214 C 
ATOM     28  O   LIG d   1       3.110   1.635  -7.365  0.00  0.00    -0.276 OA
ATOM     29  N   LIG d   1       2.528  -0.063  -6.059  0.00  0.00    -0.311 N 
ATOM     30  H   LIG d   1       2.304  -1.003  -5.980  0.00  0.00     0.149 HD
BRANCH  29  31
ATOM     31  C   LIG d   1       2.540   0.792  -4.869  0.00  0.00     0.038 C 
ATOM     32  H   LIG d   1       1.515   1.012  -4.569  0.00  0.00     0.051 H 
ATOM     33  H   LIG d   1       3.061   1.722  -5.094  0.00  0.00     0.051 H 
BRANCH  31  34
ATOM     34  C   LIG d   1       3.248   0.079  -3.746  0.00  0.00    -0.012 A 
ATOM     35  C   LIG d   1       3.362  -1.299  -3.753  0.00  0.00     0.032 A 
ATOM     36  N   LIG d   1       3.979  -1.930  -2.774  0.00  0.00    -0.263 NA
ATOM     37  H   LIG d   1       2.939  -1.865  -4.570  0.00  0.00     0.083 H 
ATOM     38  C   LIG d   1       4.516  -1.280  -1.759  0.00  0.00     0.028 A 
ATOM     39  C   LIG d   1       4.436   0.098  -1.681  0.00  0.00    -0.043 A 
ATOM     40  H   LIG d   1       5.018  -1.830  -0.978  0.00  0.00     0.083 H 
ATOM     41  C   LIG d   1       3.794   0.796  -2.692  0.00  0.00    -0.054 A 
ATOM     42  H   LIG d   1       4.874   0.624  -0.846  0.00  0.00     0.063 H 
ATOM     43  H   LIG d   1       3.721   1.873  -2.661  0.00  0.00     0.062 H 
ENDBRANCH  31  34
ENDBRANCH  29  31
ENDBRANCH  24  27
ENDBRANCH   1  24
TORSDOF 7
ENDMDL
MODEL 3
REMARK VINA RESULT:      -7.0      1.896      2.775
REMARK  7 active torsions:
REMARK  status: ('A' for Active; 'I' for Inactive)
REMARK    1  A    between atoms: C_1  and  C_2 
REMARK    2  A    between atoms: C_6  and  O_25 
REMARK    3  A    between atoms: C_12  and  C_13 
REMARK    4  A    between atoms: C_13  and  C_14 
REMARK    5  A    between atoms: C_14  and  C_15 
REMARK       I    between atoms: C_15  and  N_17 
REMARK    6  A    between atoms: N_17  and  C_18 
REMARK    7  A    between atoms: C_18  and  C_19 
ROOT
ATOM      1  C   LIG d   1       3.851  -0.411  -2.461  0.00  0.00    -0.012 C 
ATOM      2  H   LIG d   1       4.069   0.644  -2.298  0.00  0.00     0.032 H 
ATOM      3  H   LIG d   1       3.705  -0.905  -1.500  0.00  0.00     0.032 H 
ENDROOT
BRANCH   1   4
ATOM      4  C   LIG d   1       5.003  -1.057  -3.187  0.00  0.00     0.041 A 
ATOM      5  C   LIG d   1       6.076  -0.313  -3.562  0.00  0.00    -0.030 A 
ATOM      6  C   LIG d   1       7.172  -0.982  -4.264  0.00  0.00     0.021 A 
ATOM      7  C   LIG d   1       7.075  -2.362  -4.522  0.00  0.00     0.143 A 
ATOM      8  C   LIG d   1       8.305  -0.271  -4.676  0.00  0.00    -0.047 A 
ATOM      9  C   LIG d   1       8.107  -3.005  -5.187  0.00  0.00     0.023 A 
ATOM     10  O   LIG d   1       5.980  -3.045  -4.121  0.00  0.00    -0.422 OA
ATOM     11  C   LIG d   1       9.220  -2.287  -5.589  0.00  0.00     0.120 A 
ATOM     12  H   LIG d   1       8.044  -4.064  -5.391  0.00  0.00     0.069 H 
ATOM     13  C   LIG d   1       9.313  -0.920  -5.330  0.00  0.00    -0.019 A 
ATOM     14  H   LIG d   1      10.186  -0.371  -5.649  0.00  0.00     0.065 H 
ATOM     15  C   LIG d   1       4.974  -2.437  -3.473  0.00  0.00     0.341 A 
ATOM     16  O   LIG d   1       4.009  -3.095  -3.127  0.00  0.00    -0.245 OA
ATOM     17  H   LIG d   1       8.381   0.787  -4.479  0.00  0.00     0.063 H 
BRANCH   5  18
ATOM     18  C   LIG d   1       6.136   1.164  -3.263  0.00  0.00    -0.039 C 
ATOM     19  H   LIG d   1       5.325   1.673  -3.782  0.00  0.00     0.028 H 
ATOM     20  H   LIG d   1       6.037   1.321  -2.190  0.00  0.00     0.028 H 
ATOM     21  H   LIG d   1       7.092   1.563  -3.602  0.00  0.00     0.028 H 
ENDBRANCH   5  18
BRANCH  11  22
ATOM     22  O   LIG d   1      10.231  -2.918  -6.239  0.00  0.00    -0.507 OA
ATOM     23  H   LIG d   1       9.936  -3.621  -6.835  0.00  0.00     0.292 HD
ENDBRANCH  11  22
ENDBRANCH   1   4
BRANCH   1  24
ATOM     24  C   LIG d   1       2.579  -0.545  -3.303  0.00  0.00     0.028 C 
ATOM     25  H   LIG d   1       1.726  -0.178  -2.732  0.00  0.00     0.036 H 
ATOM     26  H   LIG d   1       2.422  -1.593  -3.558  0.00  0.00     0.036 H 
BRANCH  24  27
ATOM     27  C   LIG d   1       2.726   0.264  -4.565  0.00  0.00     0.214 C 
ATOM     28  O   LIG d   1       2.830   1.471  -4.503  0.00  0.00    -0.276 OA
ATOM     29  N   LIG d   1       2.742  -0.354  -5.763  0.00  0.00    -0.311 N 
ATOM     30  H   LIG d   1       2.660  -1.319  -5.812  0.00  0.00     0.149 HD
BRANCH  29  31
ATOM     31  C   LIG d   1       2.885   0.433  -6.991  0.00  0.00     0.038 C 
ATOM     32  H   LIG d   1       2.833   1.495  -6.750  0.00  0.00     0.051 H 
ATOM     33  H   LIG d   1       2.082   0.178  -7.682  0.00  0.00     0.051 H 
BRANCH  31  34
ATOM     34  C   LIG d   1       4.215   0.128  -7.630  0.00  0.00    -0.012 A 
ATOM     35  C   LIG d   1       4.726   0.956  -8.612  0.00  0.00     0.032 A 
ATOM     36  N   LIG d   1       5.889   0.695  -9.177  0.00  0.00    -0.263 NA
ATOM     37  H   LIG d   1       4.166   1.826  -8.921  0.00  0.00     0.083 H 
ATOM     38  C   LIG d   1       6.610  -0.353  -8.827  0.00  0.00     0.028 A 
ATOM     39  C   LIG d   1       6.160  -1.228  -7.857  0.00  0.00    -0.043 A 
ATOM     40  H   LIG d   1       7.559  -0.532  -9.309  0.00  0.00     0.083 H 
ATOM     41  C   LIG d   1       4.942  -0.987  -7.241  0.00  0.00    -0.054 A 
ATOM     42  H   LIG d   1       6.753  -2.087  -7.579  0.00  0.00     0.063 H 
ATOM     43  H   LIG d   1       4.567  -1.651  -6.476  0.00  0.00     0.062 H 
ENDBRANCH  31  34
ENDBRANCH  29  31
ENDBRANCH  24  27
ENDBRANCH   1  24
TORSDOF 7
ENDMDL
MODEL 4
REMARK VINA RESULT:      -6.9      2.277      6.196
REMARK  7 active torsions:
REMARK  status: ('A' for Active; 'I' for Inactive)
REMARK    1  A    between atoms: C_1  and  C_2 
REMARK    2  A    between atoms: C_6  and  O_25 
REMARK    3  A    between atoms: C_12  and  C_13 
REMARK    4  A    between atoms: C_13  and  C_14 
REMARK    5  A    between atoms: C_14  and  C_15 
REMARK       I    between atoms: C_15  and  N_17 
REMARK    6  A    between atoms: N_17  and  C_18 
REMARK    7  A    between atoms: C_18  and  C_19 
ROOT
ATOM      1  C   LIG d   1       6.978  -2.233  -6.076  0.00  0.00    -0.012 C 
ATOM      2  H   LIG d   1       7.423  -1.414  -5.511  0.00  0.00     0.032 H 
ATOM      3  H   LIG d   1       7.702  -2.614  -6.795  0.00  0.00     0.032 H 
ENDROOT
BRANCH   1   4
ATOM      4  C   LIG d   1       5.758  -1.734  -6.807  0.00  0.00     0.041 A 
ATOM      5  C   LIG d   1       5.110  -2.545  -7.683  0.00  0.00    -0.030 A 
ATOM      6  C   LIG d   1       3.929  -2.018  -8.370  0.00  0.00     0.021 A 
ATOM      7  C   LIG d   1       3.513  -0.701  -8.098  0.00  0.00     0.143 A 
ATOM      8  C   LIG d   1       3.216  -2.803  -9.283  0.00  0.00    -0.047 A 
ATOM      9  C   LIG d   1       2.396  -0.193  -8.745  0.00  0.00     0.023 A 
ATOM     10  O   LIG d   1       4.203   0.053  -7.215  0.00  0.00    -0.422 OA
ATOM     11  C   LIG d   1       1.703  -0.983  -9.646  0.00  0.00     0.120 A 
ATOM     12  H   LIG d   1       2.067   0.817  -8.545  0.00  0.00     0.069 H 
ATOM     13  C   LIG d   1       2.119  -2.287  -9.911  0.00  0.00    -0.019 A 
ATOM     14  H   LIG d   1       1.570  -2.893 -10.615  0.00  0.00     0.065 H 
ATOM     15  C   LIG d   1       5.283  -0.426  -6.579  0.00  0.00     0.341 A 
ATOM     16  O   LIG d   1       5.870   0.289  -5.787  0.00  0.00    -0.245 OA
ATOM     17  H   LIG d   1       3.533  -3.814  -9.491  0.00  0.00     0.063 H 
BRANCH   5  18
ATOM     18  C   LIG d   1       5.592  -3.950  -7.940  0.00  0.00    -0.039 C 
ATOM     19  H   LIG d   1       6.456  -4.158  -7.310  0.00  0.00     0.028 H 
ATOM     20  H   LIG d   1       4.795  -4.655  -7.710  0.00  0.00     0.028 H 
ATOM     21  H   LIG d   1       5.874  -4.049  -8.988  0.00  0.00     0.028 H 
ENDBRANCH   5  18
BRANCH  11  22
ATOM     22  O   LIG d   1       0.610  -0.484 -10.277  0.00  0.00    -0.507 OA
ATOM     23  H   LIG d   1       0.521  -0.773 -11.196  0.00  0.00     0.292 HD
ENDBRANCH  11  22
ENDBRANCH   1   4
BRANCH   1  24
ATOM     24  C   LIG d   1       6.572  -3.354  -5.115  0.00  0.00     0.028 C 
ATOM     25  H   LIG d   1       7.460  -3.905  -4.805  0.00  0.00     0.036 H 
ATOM     26  H   LIG d   1       5.881  -4.029  -5.618  0.00  0.00     0.036 H 
BRANCH  24  27
ATOM     27  C   LIG d   1       5.903  -2.758  -3.904  0.00  0.00     0.214 C 
ATOM     28  O   LIG d   1       6.559  -2.144  -3.089  0.00  0.00    -0.276 OA
ATOM     29  N   LIG d   1       4.575  -2.909  -3.726  0.00  0.00    -0.311 N 
ATOM     30  H   LIG d   1       4.051  -3.399  -4.378  0.00  0.00     0.149 HD
BRANCH  29  31
ATOM     31  C   LIG d   1       3.924  -2.329  -2.548  0.00  0.00     0.038 C 
ATOM     32  H   LIG d   1       4.517  -2.548  -1.661  0.00  0.00     0.051 H 
ATOM     33  H   LIG d   1       2.929  -2.759  -2.435  0.00  0.00     0.051 H 
BRANCH  31  34
ATOM     34  C   LIG d   1       3.811  -0.837  -2.721  0.00  0.00    -0.012 A 
ATOM     35  C   LIG d   1       3.123  -0.306  -3.796  0.00  0.00     0.032 A 
ATOM     36  N   LIG d   1       3.021   0.999  -3.954  0.00  0.00    -0.263 NA
ATOM     37  H   LIG d   1       2.664  -0.968  -4.515  0.00  0.00     0.083 H 
ATOM     38  C   LIG d   1       3.560   1.846  -3.098  0.00  0.00     0.028 A 
ATOM     39  C   LIG d   1       4.268   1.389  -2.003  0.00  0.00    -0.043 A 
ATOM     40  H   LIG d   1       3.452   2.908  -3.258  0.00  0.00     0.083 H 
ATOM     41  C   LIG d   1       4.397   0.023  -1.804  0.00  0.00    -0.054 A 
ATOM     42  H   LIG d   1       4.711   2.087  -1.308  0.00  0.00     0.063 H 
ATOM     43  H   LIG d   1       4.941  -0.364  -0.954  0.00  0.00     0.062 H 
ENDBRANCH  31  34
ENDBRANCH  29  31
ENDBRANCH  24  27
ENDBRANCH   1  24
TORSDOF 7
ENDMDL
MODEL 5
REMARK VINA RESULT:      -6.9      4.392      7.622
REMARK  7 active torsions:
REMARK  status: ('A' for Active; 'I' for Inactive)
REMARK    1  A    between atoms: C_1  and  C_2 
REMARK    2  A    between atoms: C_6  and  O_25 
REMARK    3  A    between atoms: C_12  and  C_13 
REMARK    4  A    between atoms: C_13  and  C_14 
REMARK    5  A    between atoms: C_14  and  C_15 
REMARK       I    between atoms: C_15  and  N_17 
REMARK    6  A    between atoms: N_17  and  C_18 
REMARK    7  A    between atoms: C_18  and  C_19 
ROOT
ATOM      1  C   LIG d   1       7.313  -4.356  -5.576  0.00  0.00    -0.012 C 
ATOM      2  H   LIG d   1       7.930  -3.815  -6.294  0.00  0.00     0.032 H 
ATOM      3  H   LIG d   1       6.715  -5.101  -6.100  0.00  0.00     0.032 H 
ENDROOT
BRANCH   1   4
ATOM      4  C   LIG d   1       6.401  -3.387  -4.867  0.00  0.00     0.041 A 
ATOM      5  C   LIG d   1       6.865  -2.168  -4.489  0.00  0.00    -0.030 A 
ATOM      6  C   LIG d   1       5.944  -1.259  -3.804  0.00  0.00     0.021 A 
ATOM      7  C   LIG d   1       4.622  -1.681  -3.565  0.00  0.00     0.143 A 
ATOM      8  C   LIG d   1       6.358   0.011  -3.390  0.00  0.00    -0.047 A 
ATOM      9  C   LIG d   1       3.742  -0.828  -2.916  0.00  0.00     0.023 A 
ATOM     10  O   LIG d   1       4.225  -2.908  -3.967  0.00  0.00    -0.422 OA
ATOM     11  C   LIG d   1       4.170   0.425  -2.512  0.00  0.00     0.120 A 
ATOM     12  H   LIG d   1       2.725  -1.140  -2.727  0.00  0.00     0.069 H 
ATOM     13  C   LIG d   1       5.480   0.839  -2.753  0.00  0.00    -0.019 A 
ATOM     14  H   LIG d   1       5.800   1.818  -2.433  0.00  0.00     0.065 H 
ATOM     15  C   LIG d   1       5.064  -3.743  -4.600  0.00  0.00     0.341 A 
ATOM     16  O   LIG d   1       4.659  -4.838  -4.949  0.00  0.00    -0.245 OA
ATOM     17  H   LIG d   1       7.371   0.336  -3.574  0.00  0.00     0.063 H 
BRANCH   5  18
ATOM     18  C   LIG d   1       8.288  -1.759  -4.769  0.00  0.00    -0.039 C 
ATOM     19  H   LIG d   1       8.896  -2.649  -4.933  0.00  0.00     0.028 H 
ATOM     20  H   LIG d   1       8.319  -1.130  -5.657  0.00  0.00     0.028 H 
ATOM     21  H   LIG d   1       8.680  -1.204  -3.916  0.00  0.00     0.028 H 
ENDBRANCH   5  18
BRANCH  11  22
ATOM     22  O   LIG d   1       3.307   1.260  -1.878  0.00  0.00    -0.507 OA
ATOM     23  H   LIG d   1       2.970   0.913  -1.039  0.00  0.00     0.292 HD
ENDBRANCH  11  22
ENDBRANCH   1   4
BRANCH   1  24
ATOM     24  C   LIG d   1       8.213  -5.051  -4.552  0.00  0.00     0.028 C 
ATOM     25  H   LIG d   1       7.865  -4.818  -3.545  0.00  0.00     0.036 H 
ATOM     26  H   LIG d   1       9.238  -4.701  -4.673  0.00  0.00     0.036 H 
BRANCH  24  27
ATOM     27  C   LIG d   1       8.162  -6.541  -4.768  0.00  0.00     0.214 C 
ATOM     28  O   LIG d   1       9.096  -7.236  -4.429  0.00  0.00    -0.276 OA
ATOM     29  N   LIG d   1       7.077  -7.101  -5.340  0.00  0.00    -0.311 N 
ATOM     30  H   LIG d   1       6.330  -6.546  -5.611  0.00  0.00     0.149 HD
BRANCH  29  31
ATOM     31  C   LIG d   1       7.027  -8.551  -5.551  0.00  0.00     0.038 C 
ATOM     32  H   LIG d   1       8.004  -8.983  -5.336  0.00  0.00     0.051 H 
ATOM     33  H   LIG d   1       6.756  -8.758  -6.586  0.00  0.00     0.051 H 
BRANCH  31  34
ATOM     34  C   LIG d   1       5.998  -9.156  -4.631  0.00  0.00    -0.012 A 
ATOM     35  C   LIG d   1       4.650  -9.033  -4.912  0.00  0.00     0.032 A 
ATOM     36  N   LIG d   1       3.743  -9.559  -4.112  0.00  0.00    -0.263 NA
ATOM     37  H   LIG d   1       4.335  -8.500  -5.796  0.00  0.00     0.083 H 
ATOM     38  C   LIG d   1       4.081 -10.224  -3.023  0.00  0.00     0.028 A 
ATOM     39  C   LIG d   1       5.409 -10.382  -2.675  0.00  0.00    -0.043 A 
ATOM     40  H   LIG d   1       3.311 -10.645  -2.394  0.00  0.00     0.083 H 
ATOM     41  C   LIG d   1       6.391  -9.842  -3.492  0.00  0.00    -0.054 A 
ATOM     42  H   LIG d   1       5.679 -10.923  -1.781  0.00  0.00     0.063 H 
ATOM     43  H   LIG d   1       7.437  -9.954  -3.248  0.00  0.00     0.062 H 
ENDBRANCH  31  34
ENDBRANCH  29  31
ENDBRANCH  24  27
ENDBRANCH   1  24
TORSDOF 7
ENDMDL
MODEL 6
REMARK VINA RESULT:      -6.9      2.920      5.329
REMARK  7 active torsions:
REMARK  status: ('A' for Active; 'I' for Inactive)
REMARK    1  A    between atoms: C_1  and  C_2 
REMARK    2  A    between atoms: C_6  and  O_25 
REMARK    3  A    between atoms: C_12  and  C_13 
REMARK    4  A    between atoms: C_13  and  C_14 
REMARK    5  A    between atoms: C_14  and  C_15 
REMARK       I    between atoms: C_15  and  N_17 
REMARK    6  A    between atoms: N_17  and  C_18 
REMARK    7  A    between atoms: C_18  and  C_19 
ROOT
ATOM      1  C   LIG d   1       3.292  -0.903  -2.803  0.00  0.00    -0.012 C 
ATOM      2  H   LIG d   1       2.675  -1.726  -2.442  0.00  0.00     0.032 H 
ATOM      3  H   LIG d   1       2.761   0.039  -2.660  0.00  0.00     0.032 H 
ENDROOT
BRANCH   1   4
ATOM      4  C   LIG d   1       3.584  -1.098  -4.269  0.00  0.00     0.041 A 
ATOM      5  C   LIG d   1       3.242  -0.137  -5.165  0.00  0.00    -0.030 A 
ATOM      6  C   LIG d   1       3.546  -0.370  -6.578  0.00  0.00     0.021 A 
ATOM      7  C   LIG d   1       4.177  -1.572  -6.952  0.00  0.00     0.143 A 
ATOM      8  C   LIG d   1       3.220   0.581  -7.552  0.00  0.00    -0.047 A 
ATOM      9  C   LIG d   1       4.468  -1.802  -8.288  0.00  0.00     0.023 A 
ATOM     10  O   LIG d   1       4.491  -2.486  -6.009  0.00  0.00    -0.422 OA
ATOM     11  C   LIG d   1       4.138  -0.850  -9.238  0.00  0.00     0.120 A 
ATOM     12  H   LIG d   1       4.952  -2.720  -8.586  0.00  0.00     0.069 H 
ATOM     13  C   LIG d   1       3.514   0.339  -8.863  0.00  0.00    -0.019 A 
ATOM     14  H   LIG d   1       3.262   1.072  -9.614  0.00  0.00     0.065 H 
ATOM     15  C   LIG d   1       4.219  -2.276  -4.711  0.00  0.00     0.341 A 
ATOM     16  O   LIG d   1       4.525  -3.128  -3.896  0.00  0.00    -0.245 OA
ATOM     17  H   LIG d   1       2.737   1.504  -7.268  0.00  0.00     0.063 H 
BRANCH   5  18
ATOM     18  C   LIG d   1       2.569   1.135  -4.719  0.00  0.00    -0.039 C 
ATOM     19  H   LIG d   1       1.920   0.923  -3.869  0.00  0.00     0.028 H 
ATOM     20  H   LIG d   1       3.324   1.863  -4.427  0.00  0.00     0.028 H 
ATOM     21  H   LIG d   1       1.974   1.537  -5.539  0.00  0.00     0.028 H 
ENDBRANCH   5  18
BRANCH  11  22
ATOM     22  O   LIG d   1       4.424  -1.076 -10.545  0.00  0.00    -0.507 OA
ATOM     23  H   LIG d   1       5.097  -0.483 -10.909  0.00  0.00     0.292 HD
ENDBRANCH  11  22
ENDBRANCH   1   4
BRANCH   1  24
ATOM     24  C   LIG d   1       4.607  -0.871  -2.021  0.00  0.00     0.028 C 
ATOM     25  H   LIG d   1       5.176  -1.777  -2.230  0.00  0.00     0.036 H 
ATOM     26  H   LIG d   1       4.394  -0.813  -0.954  0.00  0.00     0.036 H 
BRANCH  24  27
ATOM     27  C   LIG d   1       5.411   0.333  -2.440  0.00  0.00     0.214 C 
ATOM     28  O   LIG d   1       5.051   1.445  -2.115  0.00  0.00    -0.276 OA
ATOM     29  N   LIG d   1       6.529   0.173  -3.177  0.00  0.00    -0.311 N 
ATOM     30  H   LIG d   1       6.816  -0.716  -3.436  0.00  0.00     0.149 HD
BRANCH  29  31
ATOM     31  C   LIG d   1       7.310   1.344  -3.584  0.00  0.00     0.038 C 
ATOM     32  H   LIG d   1       8.233   1.384  -3.006  0.00  0.00     0.051 H 
ATOM     33  H   LIG d   1       6.729   2.249  -3.404  0.00  0.00     0.051 H 
BRANCH  31  34
ATOM     34  C   LIG d   1       7.640   1.242  -5.051  0.00  0.00    -0.012 A 
ATOM     35  C   LIG d   1       8.467   2.173  -5.649  0.00  0.00     0.032 A 
ATOM     36  N   LIG d   1       8.760   2.091  -6.932  0.00  0.00    -0.263 NA
ATOM     37  H   LIG d   1       8.879   2.978  -5.058  0.00  0.00     0.083 H 
ATOM     38  C   LIG d   1       8.285   1.122  -7.690  0.00  0.00     0.028 A 
ATOM     39  C   LIG d   1       7.446   0.158  -7.163  0.00  0.00    -0.043 A 
ATOM     40  H   LIG d   1       8.550   1.084  -8.736  0.00  0.00     0.083 H 
ATOM     41  C   LIG d   1       7.116   0.213  -5.818  0.00  0.00    -0.054 A 
ATOM     42  H   LIG d   1       7.057  -0.630  -7.790  0.00  0.00     0.063 H 
ATOM     43  H   LIG d   1       6.466  -0.530  -5.377  0.00  0.00     0.062 H 
ENDBRANCH  31  34
ENDBRANCH  29  31
ENDBRANCH  24  27
ENDBRANCH   1  24
TORSDOF 7
ENDMDL
MODEL 7
REMARK VINA RESULT:      -6.8      5.798      8.040
REMARK  7 active torsions:
REMARK  status: ('A' for Active; 'I' for Inactive)
REMARK    1  A    between atoms: C_1  and  C_2 
REMARK    2  A    between atoms: C_6  and  O_25 
REMARK    3  A    between atoms: C_12  and  C_13 
REMARK    4  A    between atoms: C_13  and  C_14 
REMARK    5  A    between atoms: C_14  and  C_15 
REMARK       I    between atoms: C_15  and  N_17 
REMARK    6  A    between atoms: N_17  and  C_18 
REMARK    7  A    between atoms: C_18  and  C_19 
ROOT
ATOM      1  C   LIG d   1       9.990   2.988  -4.449  0.00  0.00    -0.012 C 
ATOM      2  H   LIG d   1      10.861   2.928  -3.797  0.00  0.00     0.032 H 
ATOM      3  H   LIG d   1      10.125   2.319  -5.299  0.00  0.00     0.032 H 
ENDROOT
BRANCH   1   4
ATOM      4  C   LIG d   1       9.828   4.403  -4.944  0.00  0.00     0.041 A 
ATOM      5  C   LIG d   1       9.814   4.661  -6.277  0.00  0.00    -0.030 A 
ATOM      6  C   LIG d   1       9.653   6.050  -6.711  0.00  0.00     0.021 A 
ATOM      7  C   LIG d   1       9.519   7.058  -5.738  0.00  0.00     0.143 A 
ATOM      8  C   LIG d   1       9.630   6.383  -8.070  0.00  0.00    -0.047 A 
ATOM      9  C   LIG d   1       9.367   8.376  -6.139  0.00  0.00     0.023 A 
ATOM     10  O   LIG d   1       9.541   6.733  -4.427  0.00  0.00    -0.422 OA
ATOM     11  C   LIG d   1       9.348   8.688  -7.488  0.00  0.00     0.120 A 
ATOM     12  H   LIG d   1       9.264   9.159  -5.401  0.00  0.00     0.069 H 
ATOM     13  C   LIG d   1       9.479   7.685  -8.448  0.00  0.00    -0.019 A 
ATOM     14  H   LIG d   1       9.462   7.941  -9.497  0.00  0.00     0.065 H 
ATOM     15  C   LIG d   1       9.683   5.461  -4.023  0.00  0.00     0.341 A 
ATOM     16  O   LIG d   1       9.692   5.215  -2.830  0.00  0.00    -0.245 OA
ATOM     17  H   LIG d   1       9.731   5.611  -8.818  0.00  0.00     0.063 H 
BRANCH   5  18
ATOM     18  C   LIG d   1       9.959   3.548  -7.283  0.00  0.00    -0.039 C 
ATOM     19  H   LIG d   1      10.954   3.111  -7.199  0.00  0.00     0.028 H 
ATOM     20  H   LIG d   1       9.208   2.783  -7.090  0.00  0.00     0.028 H 
ATOM     21  H   LIG d   1       9.822   3.948  -8.288  0.00  0.00     0.028 H 
ENDBRANCH   5  18
BRANCH  11  22
ATOM     22  O   LIG d   1       9.198   9.979  -7.879  0.00  0.00    -0.507 OA
ATOM     23  H   LIG d   1       9.584  10.174  -8.745  0.00  0.00     0.292 HD
ENDBRANCH  11  22
ENDBRANCH   1   4
BRANCH   1  24
ATOM     24  C   LIG d   1       8.740   2.575  -3.668  0.00  0.00     0.028 C 
ATOM     25  H   LIG d   1       8.073   3.432  -3.570  0.00  0.00     0.036 H 
ATOM     26  H   LIG d   1       9.030   2.225  -2.678  0.00  0.00     0.036 H 
BRANCH  24  27
ATOM     27  C   LIG d   1       8.030   1.469  -4.406  0.00  0.00     0.214 C 
ATOM     28  O   LIG d   1       7.628   1.654  -5.535  0.00  0.00    -0.276 OA
ATOM     29  N   LIG d   1       7.843   0.275  -3.809  0.00  0.00    -0.311 N 
ATOM     30  H   LIG d   1       8.164   0.128  -2.907  0.00  0.00     0.149 HD
BRANCH  29  31
ATOM     31  C   LIG d   1       7.153  -0.801  -4.527  0.00  0.00     0.038 C 
ATOM     32  H   LIG d   1       7.826  -1.650  -4.643  0.00  0.00     0.051 H 
ATOM     33  H   LIG d   1       6.846  -0.443  -5.510  0.00  0.00     0.051 H 
BRANCH  31  34
ATOM     34  C   LIG d   1       5.938  -1.226  -3.744  0.00  0.00    -0.012 A 
ATOM     35  C   LIG d   1       5.265  -2.388  -4.073  0.00  0.00     0.032 A 
ATOM     36  N   LIG d   1       4.201  -2.767  -3.393  0.00  0.00    -0.263 NA
ATOM     37  H   LIG d   1       5.616  -2.993  -4.895  0.00  0.00     0.083 H 
ATOM     38  C   LIG d   1       3.740  -2.063  -2.377  0.00  0.00     0.028 A 
ATOM     39  C   LIG d   1       4.356  -0.887  -1.995  0.00  0.00    -0.043 A 
ATOM     40  H   LIG d   1       2.867  -2.407  -1.842  0.00  0.00     0.083 H 
ATOM     41  C   LIG d   1       5.478  -0.457  -2.686  0.00  0.00    -0.054 A 
ATOM     42  H   LIG d   1       3.972  -0.313  -1.165  0.00  0.00     0.063 H 
ATOM     43  H   LIG d   1       5.984   0.456  -2.407  0.00  0.00     0.062 H 
ENDBRANCH  31  34
ENDBRANCH  29  31
ENDBRANCH  24  27
ENDBRANCH   1  24
TORSDOF 7
ENDMDL
MODEL 8
REMARK VINA RESULT:      -6.8      6.071      8.674
REMARK  7 active torsions:
REMARK  status: ('A' for Active; 'I' for Inactive)
REMARK    1  A    between atoms: C_1  and  C_2 
REMARK    2  A    between atoms: C_6  and  O_25 
REMARK    3  A    between atoms: C_12  and  C_13 
REMARK    4  A    between atoms: C_13  and  C_14 
REMARK    5  A    between atoms: C_14  and  C_15 
REMARK       I    between atoms: C_15  and  N_17 
REMARK    6  A    between atoms: N_17  and  C_18 
REMARK    7  A    between atoms: C_18  and  C_19 
ROOT
ATOM      1  C   LIG d   1      10.192   4.436  -4.767  0.00  0.00    -0.012 C 
ATOM      2  H   LIG d   1      10.803   3.563  -4.993  0.00  0.00     0.032 H 
ATOM      3  H   LIG d   1      10.425   5.235  -5.472  0.00  0.00     0.032 H 
ENDROOT
BRANCH   1   4
ATOM      4  C   LIG d   1      10.482   4.904  -3.363  0.00  0.00     0.041 A 
ATOM      5  C   LIG d   1      10.322   6.212  -3.035  0.00  0.00    -0.030 A 
ATOM      6  C   LIG d   1      10.615   6.621  -1.660  0.00  0.00     0.021 A 
ATOM      7  C   LIG d   1      11.047   5.650  -0.737  0.00  0.00     0.143 A 
ATOM      8  C   LIG d   1      10.470   7.954  -1.257  0.00  0.00    -0.047 A 
ATOM      9  C   LIG d   1      11.327   6.027   0.567  0.00  0.00     0.023 A 
ATOM     10  O   LIG d   1      11.184   4.365  -1.129  0.00  0.00    -0.422 OA
ATOM     11  C   LIG d   1      11.179   7.350   0.948  0.00  0.00     0.120 A 
ATOM     12  H   LIG d   1      11.659   5.291   1.285  0.00  0.00     0.069 H 
ATOM     13  C   LIG d   1      10.750   8.308   0.030  0.00  0.00    -0.019 A 
ATOM     14  H   LIG d   1      10.639   9.336   0.340  0.00  0.00     0.065 H 
ATOM     15  C   LIG d   1      10.913   3.983  -2.387  0.00  0.00     0.341 A 
ATOM     16  O   LIG d   1      11.047   2.812  -2.693  0.00  0.00    -0.245 OA
ATOM     17  H   LIG d   1      10.138   8.699  -1.964  0.00  0.00     0.063 H 
BRANCH   5  18
ATOM     18  C   LIG d   1       9.856   7.217  -4.058  0.00  0.00    -0.039 C 
ATOM     19  H   LIG d   1      10.147   6.883  -5.053  0.00  0.00     0.028 H 
ATOM     20  H   LIG d   1       8.772   7.309  -4.008  0.00  0.00     0.028 H 
ATOM     21  H   LIG d   1      10.314   8.184  -3.850  0.00  0.00     0.028 H 
ENDBRANCH   5  18
BRANCH  11  22
ATOM     22  O   LIG d   1      11.453   7.718   2.226  0.00  0.00    -0.507 OA
ATOM     23  H   LIG d   1      11.622   6.974   2.821  0.00  0.00     0.292 HD
ENDBRANCH  11  22
ENDBRANCH   1   4
BRANCH   1  24
ATOM     24  C   LIG d   1       8.711   4.067  -4.885  0.00  0.00     0.028 C 
ATOM     25  H   LIG d   1       8.301   4.498  -5.798  0.00  0.00     0.036 H 
ATOM     26  H   LIG d   1       8.171   4.458  -4.023  0.00  0.00     0.036 H 
BRANCH  24  27
ATOM     27  C   LIG d   1       8.570   2.568  -4.929  0.00  0.00     0.214 C 
ATOM     28  O   LIG d   1       9.403   1.897  -5.502  0.00  0.00    -0.276 OA
ATOM     29  N   LIG d   1       7.518   1.972  -4.333  0.00  0.00    -0.311 N 
ATOM     30  H   LIG d   1       6.853   2.509  -3.875  0.00  0.00     0.149 HD
BRANCH  29  31
ATOM     31  C   LIG d   1       7.381   0.514  -4.376  0.00  0.00     0.038 C 
ATOM     32  H   LIG d   1       8.316   0.052  -4.060  0.00  0.00     0.051 H 
ATOM     33  H   LIG d   1       7.147   0.201  -5.393  0.00  0.00     0.051 H 
BRANCH  31  34
ATOM     34  C   LIG d   1       6.272   0.087  -3.450  0.00  0.00    -0.012 A 
ATOM     35  C   LIG d   1       5.959  -1.252  -3.303  0.00  0.00     0.032 A 
ATOM     36  N   LIG d   1       4.989  -1.633  -2.496  0.00  0.00    -0.263 NA
ATOM     37  H   LIG d   1       6.516  -1.993  -3.856  0.00  0.00     0.083 H 
ATOM     38  C   LIG d   1       4.287  -0.763  -1.796  0.00  0.00     0.028 A 
ATOM     39  C   LIG d   1       4.538   0.592  -1.896  0.00  0.00    -0.043 A 
ATOM     40  H   LIG d   1       3.503  -1.113  -1.141  0.00  0.00     0.083 H 
ATOM     41  C   LIG d   1       5.550   1.031  -2.736  0.00  0.00    -0.054 A 
ATOM     42  H   LIG d   1       3.957   1.300  -1.324  0.00  0.00     0.063 H 
ATOM     43  H   LIG d   1       5.773   2.084  -2.831  0.00  0.00     0.062 H 
ENDBRANCH  31  34
ENDBRANCH  29  31
ENDBRANCH  24  27
ENDBRANCH   1  24
TORSDOF 7
ENDMDL
MODEL 9
REMARK VINA RESULT:      -6.8      4.336      7.466
REMARK  7 active torsions:
REMARK  status: ('A' for Active; 'I' for Inactive)
REMARK    1  A    between atoms: C_1  and  C_2 
REMARK    2  A    between atoms: C_6  and  O_25 
REMARK    3  A    between atoms: C_12  and  C_13 
REMARK    4  A    between atoms: C_13  and  C_14 
REMARK    5  A    between atoms: C_14  and  C_15 
REMARK       I    between atoms: C_15  and  N_17 
REMARK    6  A    between atoms: N_17  and  C_18 
REMARK    7  A    between atoms: C_18  and  C_19 
ROOT
ATOM      1  C   LIG d   1       7.584  -4.178  -5.704  0.00  0.00    -0.012 C 
ATOM      2  H   LIG d   1       8.389  -3.814  -6.343  0.00  0.00     0.032 H 
ATOM      3  H   LIG d   1       6.801  -4.619  -6.321  0.00  0.00     0.032 H 
ENDROOT
BRANCH   1   4
ATOM      4  C   LIG d   1       7.013  -3.030  -4.911  0.00  0.00     0.041 A 
ATOM      5  C   LIG d   1       5.704  -3.039  -4.547  0.00  0.00    -0.030 A 
ATOM      6  C   LIG d   1       5.193  -1.903  -3.777  0.00  0.00     0.021 A 
ATOM      7  C   LIG d   1       6.070  -0.853  -3.445  0.00  0.00     0.143 A 
ATOM      8  C   LIG d   1       3.855  -1.852  -3.370  0.00  0.00    -0.047 A 
ATOM      9  C   LIG d   1       5.595   0.227  -2.717  0.00  0.00     0.023 A 
ATOM     10  O   LIG d   1       7.361  -0.907  -3.839  0.00  0.00    -0.422 OA
ATOM     11  C   LIG d   1       4.268   0.262  -2.324  0.00  0.00     0.120 A 
ATOM     12  H   LIG d   1       6.259   1.038  -2.457  0.00  0.00     0.069 H 
ATOM     13  C   LIG d   1       3.403  -0.781  -2.654  0.00  0.00    -0.019 A 
ATOM     14  H   LIG d   1       2.371  -0.742  -2.341  0.00  0.00     0.065 H 
ATOM     15  C   LIG d   1       7.837  -1.948  -4.541  0.00  0.00     0.341 A 
ATOM     16  O   LIG d   1       9.010  -1.955  -4.869  0.00  0.00    -0.245 OA
ATOM     17  H   LIG d   1       3.181  -2.657  -3.623  0.00  0.00     0.063 H 
BRANCH   5  18
ATOM     18  C   LIG d   1       4.803  -4.186  -4.924  0.00  0.00    -0.039 C 
ATOM     19  H   LIG d   1       4.101  -3.860  -5.691  0.00  0.00     0.028 H 
ATOM     20  H   LIG d   1       5.403  -5.010  -5.306  0.00  0.00     0.028 H 
ATOM     21  H   LIG d   1       4.250  -4.517  -4.044  0.00  0.00     0.028 H 
ENDBRANCH   5  18
BRANCH  11  22
ATOM     22  O   LIG d   1       3.805   1.319  -1.610  0.00  0.00    -0.507 OA
ATOM     23  H   LIG d   1       4.493   1.800  -1.128  0.00  0.00     0.292 HD
ENDBRANCH  11  22
ENDBRANCH   1   4
BRANCH   1  24
ATOM     24  C   LIG d   1       8.135  -5.235  -4.744  0.00  0.00     0.028 C 
ATOM     25  H   LIG d   1       7.718  -5.074  -3.749  0.00  0.00     0.036 H 
ATOM     26  H   LIG d   1       9.221  -5.156  -4.701  0.00  0.00     0.036 H 
BRANCH  24  27
ATOM     27  C   LIG d   1       7.749  -6.607  -5.234  0.00  0.00     0.214 C 
ATOM     28  O   LIG d   1       7.304  -6.748  -6.353  0.00  0.00    -0.276 OA
ATOM     29  N   LIG d   1       7.900  -7.677  -4.427  0.00  0.00    -0.311 N 
ATOM     30  H   LIG d   1       8.256  -7.564  -3.533  0.00  0.00     0.149 HD
BRANCH  29  31
ATOM     31  C   LIG d   1       7.525  -9.011  -4.904  0.00  0.00     0.038 C 
ATOM     32  H   LIG d   1       8.307  -9.723  -4.642  0.00  0.00     0.051 H 
ATOM     33  H   LIG d   1       7.402  -8.988  -5.987  0.00  0.00     0.051 H 
BRANCH  31  34
ATOM     34  C   LIG d   1       6.228  -9.428  -4.259  0.00  0.00    -0.012 A 
ATOM     35  C   LIG d   1       5.019  -9.056  -4.815  0.00  0.00     0.032 A 
ATOM     36  N   LIG d   1       3.880  -9.417  -4.256  0.00  0.00    -0.263 NA
ATOM     37  H   LIG d   1       5.006  -8.464  -5.718  0.00  0.00     0.083 H 
ATOM     38  C   LIG d   1       3.848 -10.146  -3.157  0.00  0.00     0.028 A 
ATOM     39  C   LIG d   1       5.017 -10.549  -2.542  0.00  0.00    -0.043 A 
ATOM     40  H   LIG d   1       2.896 -10.426  -2.731  0.00  0.00     0.083 H 
ATOM     41  C   LIG d   1       6.234 -10.189  -3.100  0.00  0.00    -0.054 A 
ATOM     42  H   LIG d   1       4.984 -11.142  -1.640  0.00  0.00     0.063 H 
ATOM     43  H   LIG d   1       7.164 -10.494  -2.644  0.00  0.00     0.062 H 
ENDBRANCH  31  34
ENDBRANCH  29  31
ENDBRANCH  24  27
ENDBRANCH   1  24
TORSDOF 7
ENDMDL
MODEL 10
REMARK VINA RESULT:      -6.7      3.093      5.075
REMARK  7 active torsions:
REMARK  status: ('A' for Active; 'I' for Inactive)
REMARK    1  A    between atoms: C_1  and  C_2 
REMARK    2  A    between atoms: C_6  and  O_25 
REMARK    3  A    between atoms: C_12  and  C_13 
REMARK    4  A    between atoms: C_13  and  C_14 
REMARK    5  A    between atoms: C_14  and  C_15 
REMARK       I    between atoms: C_15  and  N_17 
REMARK    6  A    between atoms: N_17  and  C_18 
REMARK    7  A    between atoms: C_18  and  C_19 
ROOT
ATOM      1  C   LIG d   1       4.887  -4.292  -7.881  0.00  0.00    -0.012 C 
ATOM      2  H   LIG d   1       5.397  -5.248  -7.764  0.00  0.00     0.032 H 
ATOM      3  H   LIG d   1       5.456  -3.657  -8.560  0.00  0.00     0.032 H 
ENDROOT
BRANCH   1   4
ATOM      4  C   LIG d   1       4.770  -3.616  -6.539  0.00  0.00     0.041 A 
ATOM      5  C   LIG d   1       5.035  -2.290  -6.419  0.00  0.00    -0.030 A 
ATOM      6  C   LIG d   1       4.908  -1.676  -5.096  0.00  0.00     0.021 A 
ATOM      7  C   LIG d   1       4.517  -2.477  -4.007  0.00  0.00     0.143 A 
ATOM      8  C   LIG d   1       5.167  -0.314  -4.905  0.00  0.00    -0.047 A 
ATOM      9  C   LIG d   1       4.394  -1.905  -2.749  0.00  0.00     0.023 A 
ATOM     10  O   LIG d   1       4.266  -3.791  -4.195  0.00  0.00    -0.422 OA
ATOM     11  C   LIG d   1       4.656  -0.556  -2.578  0.00  0.00     0.120 A 
ATOM     12  H   LIG d   1       4.095  -2.510  -1.906  0.00  0.00     0.069 H 
ATOM     13  C   LIG d   1       5.042   0.234  -3.661  0.00  0.00    -0.019 A 
ATOM     14  H   LIG d   1       5.242   1.284  -3.514  0.00  0.00     0.065 H 
ATOM     15  C   LIG d   1       4.377  -4.358  -5.406  0.00  0.00     0.341 A 
ATOM     16  O   LIG d   1       4.136  -5.546  -5.529  0.00  0.00    -0.245 OA
ATOM     17  H   LIG d   1       5.466   0.302  -5.739  0.00  0.00     0.063 H 
BRANCH   5  18
ATOM     18  C   LIG d   1       5.450  -1.471  -7.614  0.00  0.00    -0.039 C 
ATOM     19  H   LIG d   1       4.794  -1.698  -8.455  0.00  0.00     0.028 H 
ATOM     20  H   LIG d   1       5.378  -0.412  -7.372  0.00  0.00     0.028 H 
ATOM     21  H   LIG d   1       6.479  -1.714  -7.881  0.00  0.00     0.028 H 
ENDBRANCH   5  18
BRANCH  11  22
ATOM     22  O   LIG d   1       4.534   0.003  -1.348  0.00  0.00    -0.507 OA
ATOM     23  H   LIG d   1       5.364   0.347  -0.988  0.00  0.00     0.292 HD
ENDBRANCH  11  22
ENDBRANCH   1   4
BRANCH   1  24
ATOM     24  C   LIG d   1       3.487  -4.529  -8.456  0.00  0.00     0.028 C 
ATOM     25  H   LIG d   1       2.747  -4.427  -7.662  0.00  0.00     0.036 H 
ATOM     26  H   LIG d   1       3.434  -5.533  -8.877  0.00  0.00     0.036 H 
BRANCH  24  27
ATOM     27  C   LIG d   1       3.210  -3.515  -9.535  0.00  0.00     0.214 C 
ATOM     28  O   LIG d   1       3.765  -3.605 -10.609  0.00  0.00    -0.276 OA
ATOM     29  N   LIG d   1       2.344  -2.507  -9.305  0.00  0.00    -0.311 N 
ATOM     30  H   LIG d   1       1.900  -2.436  -8.446  0.00  0.00     0.149 HD
BRANCH  29  31
ATOM     31  C   LIG d   1       2.074  -1.521 -10.355  0.00  0.00     0.038 C 
ATOM     32  H   LIG d   1       0.999  -1.358 -10.432  0.00  0.00     0.051 H 
ATOM     33  H   LIG d   1       2.455  -1.891 -11.307  0.00  0.00     0.051 H 
BRANCH  31  34
ATOM     34  C   LIG d   1       2.756  -0.222 -10.010  0.00  0.00    -0.012 A 
ATOM     35  C   LIG d   1       3.638   0.362 -10.899  0.00  0.00     0.032 A 
ATOM     36  N   LIG d   1       4.239   1.498 -10.605  0.00  0.00    -0.263 NA
ATOM     37  H   LIG d   1       3.837  -0.117 -11.846  0.00  0.00     0.083 H 
ATOM     38  C   LIG d   1       4.022   2.122  -9.463  0.00  0.00     0.028 A 
ATOM     39  C   LIG d   1       3.157   1.594  -8.523  0.00  0.00    -0.043 A 
ATOM     40  H   LIG d   1       4.529   3.053  -9.258  0.00  0.00     0.083 H 
ATOM     41  C   LIG d   1       2.507   0.401  -8.797  0.00  0.00    -0.054 A 
ATOM     42  H   LIG d   1       2.987   2.107  -7.588  0.00  0.00     0.063 H 
ATOM     43  H   LIG d   1       1.822  -0.033  -8.083  0.00  0.00     0.062 H 
ENDBRANCH  31  34
ENDBRANCH  29  31
ENDBRANCH  24  27
ENDBRANCH   1  24
TORSDOF 7
ENDMDL
