MODEL 1
REMARK VINA RESULT:      -5.3      0.000      0.000
REMARK  7 active torsions:
REMARK  status: ('A' for Active; 'I' for Inactive)
REMARK    1  A    between atoms: C_1  and  C_2 
REMARK    2  A    between atoms: C_2  and  C_3 
REMARK    3  A    between atoms: C_5  and  C_18 
REMARK    4  A    between atoms: N_7  and  S_8 
REMARK    5  A    between atoms: S_8  and  C_11 
REMARK    6  A    between atoms: C_14  and  C_17 
REMARK    7  A    between atoms: C_18  and  C_19 
ROOT
ATOM      1  C   LIG d   1       4.856  -0.559  -3.547  0.00  0.00     0.049 A 
ATOM      2  H   LIG d   1       5.806  -0.149  -3.892  0.00  0.00     0.050 H 
ATOM      3  C   LIG d   1       4.298  -1.777  -4.287  0.00  0.00     0.049 A 
ATOM      4  H   LIG d   1       3.745  -2.513  -3.705  0.00  0.00     0.050 H 
ATOM      5  N   LIG d   1       3.702  -0.448  -4.444  0.00  0.00    -0.167 N 
ENDROOT
BRANCH   5   6
ATOM      6  S   LIG d   1       2.542   0.507  -5.142  0.00  0.00     0.061 S 
ATOM      7  O   LIG d   1       1.302  -0.161  -4.957  0.00  0.00    -0.153 OA
ATOM      8  O   LIG d   1       2.773   1.830  -4.676  0.00  0.00    -0.153 OA
BRANCH   6   9
ATOM      9  C   LIG d   1       2.854   0.521  -6.876  0.00  0.00     0.105 A 
ATOM     10  C   LIG d   1       3.117  -0.662  -7.540  0.00  0.00    -0.035 A 
ATOM     11  C   LIG d   1       3.361  -0.651  -8.901  0.00  0.00    -0.057 A 
ATOM     12  H   LIG d   1       3.132  -1.595  -6.997  0.00  0.00     0.064 H 
ATOM     13  C   LIG d   1       3.342   0.544  -9.597  0.00  0.00    -0.050 A 
ATOM     14  H   LIG d   1       3.567  -1.575  -9.421  0.00  0.00     0.062 H 
ATOM     15  C   LIG d   1       3.078   1.726  -8.933  0.00  0.00    -0.057 A 
ATOM     16  C   LIG d   1       2.830   1.715  -7.573  0.00  0.00    -0.035 A 
ATOM     17  H   LIG d   1       3.063   2.660  -9.476  0.00  0.00     0.062 H 
ATOM     18  H   LIG d   1       2.620   2.639  -7.055  0.00  0.00     0.064 H 
BRANCH  13  19
ATOM     19  C   LIG d   1       3.608   0.556 -11.081  0.00  0.00    -0.040 C 
ATOM     20  H   LIG d   1       4.618   0.196 -11.272  0.00  0.00     0.028 H 
ATOM     21  H   LIG d   1       2.890  -0.093 -11.583  0.00  0.00     0.028 H 
ATOM     22  H   LIG d   1       3.507   1.573 -11.460  0.00  0.00     0.028 H 
ENDBRANCH  13  19
ENDBRANCH   6   9
ENDBRANCH   5   6
BRANCH   1  23
ATOM     23  C   LIG d   1       4.597  -0.463  -2.043  0.00  0.00    -0.037 C 
ATOM     24  H   LIG d   1       3.659  -0.962  -1.803  0.00  0.00     0.028 H 
ATOM     25  H   LIG d   1       5.413  -0.943  -1.503  0.00  0.00     0.028 H 
BRANCH  23  26
ATOM     26  C   LIG d   1       4.512   1.009  -1.634  0.00  0.00    -0.064 C 
ATOM     27  H   LIG d   1       3.468   1.322  -1.616  0.00  0.00     0.023 H 
ATOM     28  H   LIG d   1       4.946   1.136  -0.642  0.00  0.00     0.023 H 
ATOM     29  H   LIG d   1       5.062   1.618  -2.352  0.00  0.00     0.023 H 
ENDBRANCH  23  26
ENDBRANCH   1  23
BRANCH   3  30
ATOM     30  C   LIG d   1       5.116  -2.334  -5.454  0.00  0.00    -0.037 C 
ATOM     31  H   LIG d   1       4.949  -1.723  -6.341  0.00  0.00     0.028 H 
ATOM     32  H   LIG d   1       6.175  -2.319  -5.196  0.00  0.00     0.028 H 
BRANCH  30  33
ATOM     33  C   LIG d   1       4.682  -3.774  -5.739  0.00  0.00    -0.064 C 
ATOM     34  H   LIG d   1       3.709  -3.958  -5.282  0.00  0.00     0.023 H 
ATOM     35  H   LIG d   1       4.611  -3.925  -6.817  0.00  0.00     0.023 H 
ATOM     36  H   LIG d   1       5.416  -4.464  -5.323  0.00  0.00     0.023 H 
ENDBRANCH  30  33
ENDBRANCH   3  30
TORSDOF 7
ENDMDL
MODEL 2
REMARK VINA RESULT:      -5.1      1.945      2.339
REMARK  7 active torsions:
REMARK  status: ('A' for Active; 'I' for Inactive)
REMARK    1  A    between atoms: C_1  and  C_2 
REMARK    2  A    between atoms: C_2  and  C_3 
REMARK    3  A    between atoms: C_5  and  C_18 
REMARK    4  A    between atoms: N_7  and  S_8 
REMARK    5  A    between atoms: S_8  and  C_11 
REMARK    6  A    between atoms: C_14  and  C_17 
REMARK    7  A    between atoms: C_18  and  C_19 
ROOT
ATOM      1  C   LIG d   1       5.013  -2.382  -3.521  0.00  0.00     0.049 A 
ATOM      2  H   LIG d   1       6.043  -2.483  -3.178  0.00  0.00     0.050 H 
ATOM      3  C   LIG d   1       4.557  -3.279  -4.673  0.00  0.00     0.049 A 
ATOM      4  H   LIG d   1       3.523  -3.624  -4.668  0.00  0.00     0.050 H 
ATOM      5  N   LIG d   1       4.795  -1.847  -4.868  0.00  0.00    -0.167 N 
ENDROOT
BRANCH   5   6
ATOM      6  S   LIG d   1       4.807  -0.543  -5.889  0.00  0.00     0.061 S 
ATOM      7  O   LIG d   1       4.118   0.504  -5.220  0.00  0.00    -0.153 OA
ATOM      8  O   LIG d   1       6.145  -0.402  -6.350  0.00  0.00    -0.153 OA
BRANCH   6   9
ATOM      9  C   LIG d   1       3.833  -0.972  -7.293  0.00  0.00     0.105 A 
ATOM     10  C   LIG d   1       4.057  -2.166  -7.951  0.00  0.00    -0.035 A 
ATOM     11  C   LIG d   1       3.292  -2.503  -9.052  0.00  0.00    -0.057 A 
ATOM     12  H   LIG d   1       4.830  -2.836  -7.606  0.00  0.00     0.064 H 
ATOM     13  C   LIG d   1       2.302  -1.644  -9.495  0.00  0.00    -0.050 A 
ATOM     14  H   LIG d   1       3.467  -3.435  -9.567  0.00  0.00     0.062 H 
ATOM     15  C   LIG d   1       2.078  -0.451  -8.836  0.00  0.00    -0.057 A 
ATOM     16  C   LIG d   1       2.840  -0.116  -7.733  0.00  0.00    -0.035 A 
ATOM     17  H   LIG d   1       1.305   0.220  -9.182  0.00  0.00     0.062 H 
ATOM     18  H   LIG d   1       2.661   0.816  -7.216  0.00  0.00     0.064 H 
BRANCH  13  19
ATOM     19  C   LIG d   1       1.469  -2.011 -10.695  0.00  0.00    -0.040 C 
ATOM     20  H   LIG d   1       0.444  -2.206 -10.381  0.00  0.00     0.028 H 
ATOM     21  H   LIG d   1       1.479  -1.188 -11.410  0.00  0.00     0.028 H 
ATOM     22  H   LIG d   1       1.880  -2.905 -11.165  0.00  0.00     0.028 H 
ENDBRANCH  13  19
ENDBRANCH   6   9
ENDBRANCH   5   6
BRANCH   1  23
ATOM     23  C   LIG d   1       3.985  -2.032  -2.444  0.00  0.00    -0.037 C 
ATOM     24  H   LIG d   1       2.987  -2.028  -2.882  0.00  0.00     0.028 H 
ATOM     25  H   LIG d   1       4.029  -2.774  -1.646  0.00  0.00     0.028 H 
BRANCH  23  26
ATOM     26  C   LIG d   1       4.298  -0.649  -1.871  0.00  0.00    -0.064 C 
ATOM     27  H   LIG d   1       4.523  -0.738  -0.808  0.00  0.00     0.023 H 
ATOM     28  H   LIG d   1       5.160  -0.228  -2.390  0.00  0.00     0.023 H 
ATOM     29  H   LIG d   1       3.436   0.005  -2.007  0.00  0.00     0.023 H 
ENDBRANCH  23  26
ENDBRANCH   1  23
BRANCH   3  30
ATOM     30  C   LIG d   1       5.577  -4.258  -5.258  0.00  0.00    -0.037 C 
ATOM     31  H   LIG d   1       6.031  -3.822  -6.148  0.00  0.00     0.028 H 
ATOM     32  H   LIG d   1       6.352  -4.460  -4.518  0.00  0.00     0.028 H 
BRANCH  30  33
ATOM     33  C   LIG d   1       4.875  -5.565  -5.631  0.00  0.00    -0.064 C 
ATOM     34  H   LIG d   1       5.616  -6.358  -5.740  0.00  0.00     0.023 H 
ATOM     35  H   LIG d   1       4.169  -5.835  -4.844  0.00  0.00     0.023 H 
ATOM     36  H   LIG d   1       4.339  -5.435  -6.571  0.00  0.00     0.023 H 
ENDBRANCH  30  33
ENDBRANCH   3  30
TORSDOF 7
ENDMDL
MODEL 3
REMARK VINA RESULT:      -5.1      2.627      5.270
REMARK  7 active torsions:
REMARK  status: ('A' for Active; 'I' for Inactive)
REMARK    1  A    between atoms: C_1  and  C_2 
REMARK    2  A    between atoms: C_2  and  C_3 
REMARK    3  A    between atoms: C_5  and  C_18 
REMARK    4  A    between atoms: N_7  and  S_8 
REMARK    5  A    between atoms: S_8  and  C_11 
REMARK    6  A    between atoms: C_14  and  C_17 
REMARK    7  A    between atoms: C_18  and  C_19 
ROOT
ATOM      1  C   LIG d   1       5.865   1.104  -8.627  0.00  0.00     0.049 A 
ATOM      2  H   LIG d   1       6.001   2.107  -9.033  0.00  0.00     0.050 H 
ATOM      3  C   LIG d   1       5.300   0.031  -9.560  0.00  0.00     0.049 A 
ATOM      4  H   LIG d   1       5.657  -0.991  -9.431  0.00  0.00     0.050 H 
ATOM      5  N   LIG d   1       4.493   0.610  -8.483  0.00  0.00    -0.167 N 
ENDROOT
BRANCH   5   6
ATOM      6  S   LIG d   1       3.049   0.666  -7.674  0.00  0.00     0.061 S 
ATOM      7  O   LIG d   1       2.776   2.038  -7.424  0.00  0.00    -0.153 OA
ATOM      8  O   LIG d   1       2.151  -0.172  -8.390  0.00  0.00    -0.153 OA
BRANCH   6   9
ATOM      9  C   LIG d   1       3.302  -0.092  -6.104  0.00  0.00     0.105 A 
ATOM     10  C   LIG d   1       4.243  -1.095  -5.964  0.00  0.00    -0.035 A 
ATOM     11  C   LIG d   1       4.442  -1.689  -4.732  0.00  0.00    -0.057 A 
ATOM     12  H   LIG d   1       4.823  -1.414  -6.817  0.00  0.00     0.064 H 
ATOM     13  C   LIG d   1       3.700  -1.280  -3.639  0.00  0.00    -0.050 A 
ATOM     14  H   LIG d   1       5.177  -2.473  -4.622  0.00  0.00     0.062 H 
ATOM     15  C   LIG d   1       2.760  -0.277  -3.779  0.00  0.00    -0.057 A 
ATOM     16  C   LIG d   1       2.563   0.320  -5.010  0.00  0.00    -0.035 A 
ATOM     17  H   LIG d   1       2.179   0.042  -2.926  0.00  0.00     0.062 H 
ATOM     18  H   LIG d   1       1.831   1.107  -5.118  0.00  0.00     0.064 H 
BRANCH  13  19
ATOM     19  C   LIG d   1       3.917  -1.928  -2.296  0.00  0.00    -0.040 C 
ATOM     20  H   LIG d   1       4.805  -2.559  -2.335  0.00  0.00     0.028 H 
ATOM     21  H   LIG d   1       4.053  -1.156  -1.538  0.00  0.00     0.028 H 
ATOM     22  H   LIG d   1       3.050  -2.538  -2.042  0.00  0.00     0.028 H 
ENDBRANCH  13  19
ENDBRANCH   6   9
ENDBRANCH   5   6
BRANCH   1  23
ATOM     23  C   LIG d   1       6.890   0.666  -7.579  0.00  0.00    -0.037 C 
ATOM     24  H   LIG d   1       6.397   0.546  -6.616  0.00  0.00     0.028 H 
ATOM     25  H   LIG d   1       7.334  -0.283  -7.882  0.00  0.00     0.028 H 
BRANCH  23  26
ATOM     26  C   LIG d   1       7.986   1.727  -7.464  0.00  0.00    -0.064 C 
ATOM     27  H   LIG d   1       7.533   2.696  -7.255  0.00  0.00     0.023 H 
ATOM     28  H   LIG d   1       8.665   1.461  -6.653  0.00  0.00     0.023 H 
ATOM     29  H   LIG d   1       8.542   1.780  -8.400  0.00  0.00     0.023 H 
ENDBRANCH  23  26
ENDBRANCH   1  23
BRANCH   3  30
ATOM     30  C   LIG d   1       4.972   0.441 -10.997  0.00  0.00    -0.037 C 
ATOM     31  H   LIG d   1       4.818   1.519 -11.042  0.00  0.00     0.028 H 
ATOM     32  H   LIG d   1       5.800   0.165 -11.652  0.00  0.00     0.028 H 
BRANCH  30  33
ATOM     33  C   LIG d   1       3.700  -0.275 -11.454  0.00  0.00    -0.064 C 
ATOM     34  H   LIG d   1       3.442  -1.053 -10.735  0.00  0.00     0.023 H 
ATOM     35  H   LIG d   1       2.882   0.444 -11.521  0.00  0.00     0.023 H 
ATOM     36  H   LIG d   1       3.868  -0.726 -12.433  0.00  0.00     0.023 H 
ENDBRANCH  30  33
ENDBRANCH   3  30
TORSDOF 7
ENDMDL
MODEL 4
REMARK VINA RESULT:      -5.1      2.112      3.725
REMARK  7 active torsions:
REMARK  status: ('A' for Active; 'I' for Inactive)
REMARK    1  A    between atoms: C_1  and  C_2 
REMARK    2  A    between atoms: C_2  and  C_3 
REMARK    3  A    between atoms: C_5  and  C_18 
REMARK    4  A    between atoms: N_7  and  S_8 
REMARK    5  A    between atoms: S_8  and  C_11 
REMARK    6  A    between atoms: C_14  and  C_17 
REMARK    7  A    between atoms: C_18  and  C_19 
ROOT
ATOM      1  C   LIG d   1       4.584  -3.463  -4.813  0.00  0.00     0.049 A 
ATOM      2  H   LIG d   1       3.521  -3.667  -4.943  0.00  0.00     0.050 H 
ATOM      3  C   LIG d   1       5.007  -2.653  -3.586  0.00  0.00     0.049 A 
ATOM      4  H   LIG d   1       5.964  -2.895  -3.125  0.00  0.00     0.050 H 
ATOM      5  N   LIG d   1       5.028  -2.071  -4.930  0.00  0.00    -0.167 N 
ENDROOT
BRANCH   5   6
ATOM      6  S   LIG d   1       5.336  -0.763  -5.898  0.00  0.00     0.061 S 
ATOM      7  O   LIG d   1       5.045   0.393  -5.124  0.00  0.00    -0.153 OA
ATOM      8  O   LIG d   1       6.611  -0.986  -6.486  0.00  0.00    -0.153 OA
BRANCH   6   9
ATOM      9  C   LIG d   1       4.162  -0.798  -7.211  0.00  0.00     0.105 A 
ATOM     10  C   LIG d   1       3.389   0.316  -7.477  0.00  0.00    -0.035 A 
ATOM     11  C   LIG d   1       2.467   0.288  -8.508  0.00  0.00    -0.057 A 
ATOM     12  H   LIG d   1       3.504   1.208  -6.881  0.00  0.00     0.064 H 
ATOM     13  C   LIG d   1       2.319  -0.854  -9.272  0.00  0.00    -0.050 A 
ATOM     14  H   LIG d   1       1.863   1.159  -8.716  0.00  0.00     0.062 H 
ATOM     15  C   LIG d   1       3.093  -1.968  -9.006  0.00  0.00    -0.057 A 
ATOM     16  C   LIG d   1       4.017  -1.939  -7.979  0.00  0.00    -0.035 A 
ATOM     17  H   LIG d   1       2.977  -2.861  -9.603  0.00  0.00     0.062 H 
ATOM     18  H   LIG d   1       4.624  -2.809  -7.774  0.00  0.00     0.064 H 
BRANCH  13  19
ATOM     19  C   LIG d   1       1.315  -0.884 -10.396  0.00  0.00    -0.040 C 
ATOM     20  H   LIG d   1       1.356  -1.852 -10.894  0.00  0.00     0.028 H 
ATOM     21  H   LIG d   1       0.315  -0.726  -9.993  0.00  0.00     0.028 H 
ATOM     22  H   LIG d   1       1.547  -0.096 -11.112  0.00  0.00     0.028 H 
ENDBRANCH  13  19
ENDBRANCH   6   9
ENDBRANCH   5   6
BRANCH   1  23
ATOM     23  C   LIG d   1       5.536  -4.554  -5.306  0.00  0.00    -0.037 C 
ATOM     24  H   LIG d   1       6.032  -4.220  -6.216  0.00  0.00     0.028 H 
ATOM     25  H   LIG d   1       6.282  -4.758  -4.538  0.00  0.00     0.028 H 
BRANCH  23  26
ATOM     26  C   LIG d   1       4.742  -5.829  -5.595  0.00  0.00    -0.064 C 
ATOM     27  H   LIG d   1       3.691  -5.578  -5.743  0.00  0.00     0.023 H 
ATOM     28  H   LIG d   1       5.132  -6.304  -6.496  0.00  0.00     0.023 H 
ATOM     29  H   LIG d   1       4.836  -6.516  -4.753  0.00  0.00     0.023 H 
ENDBRANCH  23  26
ENDBRANCH   1  23
BRANCH   3  30
ATOM     30  C   LIG d   1       3.908  -2.193  -2.626  0.00  0.00    -0.037 C 
ATOM     31  H   LIG d   1       3.002  -1.970  -3.189  0.00  0.00     0.028 H 
ATOM     32  H   LIG d   1       3.701  -2.983  -1.904  0.00  0.00     0.028 H 
BRANCH  30  33
ATOM     33  C   LIG d   1       4.371  -0.936  -1.886  0.00  0.00    -0.064 C 
ATOM     34  H   LIG d   1       3.833  -0.851  -0.941  0.00  0.00     0.023 H 
ATOM     35  H   LIG d   1       5.442  -1.003  -1.690  0.00  0.00     0.023 H 
ATOM     36  H   LIG d   1       4.168  -0.057  -2.499  0.00  0.00     0.023 H 
ENDBRANCH  30  33
ENDBRANCH   3  30
TORSDOF 7
ENDMDL
MODEL 5
REMARK VINA RESULT:      -5.1      2.614      5.691
REMARK  7 active torsions:
REMARK  status: ('A' for Active; 'I' for Inactive)
REMARK    1  A    between atoms: C_1  and  C_2 
REMARK    2  A    between atoms: C_2  and  C_3 
REMARK    3  A    between atoms: C_5  and  C_18 
REMARK    4  A    between atoms: N_7  and  S_8 
REMARK    5  A    between atoms: S_8  and  C_11 
REMARK    6  A    between atoms: C_14  and  C_17 
REMARK    7  A    between atoms: C_18  and  C_19 
ROOT
ATOM      1  C   LIG d   1       5.244  -0.053  -9.600  0.00  0.00     0.049 A 
ATOM      2  H   LIG d   1       5.587  -1.079  -9.463  0.00  0.00     0.050 H 
ATOM      3  C   LIG d   1       5.836   1.021  -8.686  0.00  0.00     0.049 A 
ATOM      4  H   LIG d   1       5.983   2.017  -9.105  0.00  0.00     0.050 H 
ATOM      5  N   LIG d   1       4.459   0.551  -8.520  0.00  0.00    -0.167 N 
ENDROOT
BRANCH   5   6
ATOM      6  S   LIG d   1       3.026   0.640  -7.693  0.00  0.00     0.061 S 
ATOM      7  O   LIG d   1       2.780   2.018  -7.454  0.00  0.00    -0.153 OA
ATOM      8  O   LIG d   1       2.105  -0.190  -8.390  0.00  0.00    -0.153 OA
BRANCH   6   9
ATOM      9  C   LIG d   1       3.286  -0.107  -6.119  0.00  0.00     0.105 A 
ATOM     10  C   LIG d   1       4.233  -1.103  -5.974  0.00  0.00    -0.035 A 
ATOM     11  C   LIG d   1       4.437  -1.689  -4.739  0.00  0.00    -0.057 A 
ATOM     12  H   LIG d   1       4.813  -1.425  -6.826  0.00  0.00     0.064 H 
ATOM     13  C   LIG d   1       3.694  -1.278  -3.647  0.00  0.00    -0.050 A 
ATOM     14  H   LIG d   1       5.176  -2.468  -4.625  0.00  0.00     0.062 H 
ATOM     15  C   LIG d   1       2.748  -0.280  -3.792  0.00  0.00    -0.057 A 
ATOM     16  C   LIG d   1       2.547   0.308  -5.026  0.00  0.00    -0.035 A 
ATOM     17  H   LIG d   1       2.168   0.041  -2.940  0.00  0.00     0.062 H 
ATOM     18  H   LIG d   1       1.810   1.090  -5.138  0.00  0.00     0.064 H 
BRANCH  13  19
ATOM     19  C   LIG d   1       3.917  -1.916  -2.301  0.00  0.00    -0.040 C 
ATOM     20  H   LIG d   1       3.016  -2.447  -1.996  0.00  0.00     0.028 H 
ATOM     21  H   LIG d   1       4.749  -2.618  -2.365  0.00  0.00     0.028 H 
ATOM     22  H   LIG d   1       4.149  -1.144  -1.566  0.00  0.00     0.028 H 
ENDBRANCH  13  19
ENDBRANCH   6   9
ENDBRANCH   5   6
BRANCH   1  23
ATOM     23  C   LIG d   1       4.900   0.347 -11.036  0.00  0.00    -0.037 C 
ATOM     24  H   LIG d   1       4.659   1.409 -11.069  0.00  0.00     0.028 H 
ATOM     25  H   LIG d   1       5.753   0.146 -11.683  0.00  0.00     0.028 H 
BRANCH  23  26
ATOM     26  C   LIG d   1       3.695  -0.464 -11.516  0.00  0.00    -0.064 C 
ATOM     27  H   LIG d   1       2.898  -0.405 -10.774  0.00  0.00     0.023 H 
ATOM     28  H   LIG d   1       3.339  -0.060 -12.463  0.00  0.00     0.023 H 
ATOM     29  H   LIG d   1       3.988  -1.505 -11.652  0.00  0.00     0.023 H 
ENDBRANCH  23  26
ENDBRANCH   1  23
BRANCH   3  30
ATOM     30  C   LIG d   1       6.871   0.580  -7.650  0.00  0.00    -0.037 C 
ATOM     31  H   LIG d   1       6.379   0.414  -6.691  0.00  0.00     0.028 H 
ATOM     32  H   LIG d   1       7.345  -0.345  -7.980  0.00  0.00     0.028 H 
BRANCH  30  33
ATOM     33  C   LIG d   1       7.935   1.669  -7.495  0.00  0.00    -0.064 C 
ATOM     34  H   LIG d   1       7.470   2.650  -7.601  0.00  0.00     0.023 H 
ATOM     35  H   LIG d   1       8.395   1.590  -6.508  0.00  0.00     0.023 H 
ATOM     36  H   LIG d   1       8.699   1.543  -8.262  0.00  0.00     0.023 H 
ENDBRANCH  30  33
ENDBRANCH   3  30
TORSDOF 7
ENDMDL
MODEL 6
REMARK VINA RESULT:      -4.9      2.431      5.686
REMARK  7 active torsions:
REMARK  status: ('A' for Active; 'I' for Inactive)
REMARK    1  A    between atoms: C_1  and  C_2 
REMARK    2  A    between atoms: C_2  and  C_3 
REMARK    3  A    between atoms: C_5  and  C_18 
REMARK    4  A    between atoms: N_7  and  S_8 
REMARK    5  A    between atoms: S_8  and  C_11 
REMARK    6  A    between atoms: C_14  and  C_17 
REMARK    7  A    between atoms: C_18  and  C_19 
ROOT
ATOM      1  C   LIG d   1       3.689  -2.048  -9.354  0.00  0.00     0.049 A 
ATOM      2  H   LIG d   1       4.429  -2.030 -10.155  0.00  0.00     0.050 H 
ATOM      3  C   LIG d   1       2.383  -1.282  -9.576  0.00  0.00     0.049 A 
ATOM      4  H   LIG d   1       1.474  -1.697  -9.142  0.00  0.00     0.050 H 
ATOM      5  N   LIG d   1       3.412  -0.790  -8.656  0.00  0.00    -0.167 N 
ENDROOT
BRANCH   5   6
ATOM      6  S   LIG d   1       3.910   0.371  -7.585  0.00  0.00     0.061 S 
ATOM      7  O   LIG d   1       5.275   0.635  -7.878  0.00  0.00    -0.153 OA
ATOM      8  O   LIG d   1       2.916   1.387  -7.598  0.00  0.00    -0.153 OA
BRANCH   6   9
ATOM      9  C   LIG d   1       3.870  -0.353  -5.979  0.00  0.00     0.105 A 
ATOM     10  C   LIG d   1       4.761  -1.357  -5.651  0.00  0.00    -0.035 A 
ATOM     11  C   LIG d   1       4.730  -1.925  -4.390  0.00  0.00    -0.057 A 
ATOM     12  H   LIG d   1       5.481  -1.700  -6.379  0.00  0.00     0.064 H 
ATOM     13  C   LIG d   1       3.808  -1.487  -3.458  0.00  0.00    -0.050 A 
ATOM     14  H   LIG d   1       5.425  -2.710  -4.134  0.00  0.00     0.062 H 
ATOM     15  C   LIG d   1       2.919  -0.481  -3.785  0.00  0.00    -0.057 A 
ATOM     16  C   LIG d   1       2.952   0.089  -5.044  0.00  0.00    -0.035 A 
ATOM     17  H   LIG d   1       2.198  -0.139  -3.056  0.00  0.00     0.062 H 
ATOM     18  H   LIG d   1       2.258   0.877  -5.298  0.00  0.00     0.064 H 
BRANCH  13  19
ATOM     19  C   LIG d   1       3.775  -2.105  -2.084  0.00  0.00    -0.040 C 
ATOM     20  H   LIG d   1       2.742  -2.307  -1.801  0.00  0.00     0.028 H 
ATOM     21  H   LIG d   1       4.339  -3.038  -2.092  0.00  0.00     0.028 H 
ATOM     22  H   LIG d   1       4.221  -1.417  -1.365  0.00  0.00     0.028 H 
ENDBRANCH  13  19
ENDBRANCH   6   9
ENDBRANCH   5   6
BRANCH   1  23
ATOM     23  C   LIG d   1       3.624  -3.341  -8.539  0.00  0.00    -0.037 C 
ATOM     24  H   LIG d   1       3.173  -3.136  -7.569  0.00  0.00     0.028 H 
ATOM     25  H   LIG d   1       3.023  -4.077  -9.072  0.00  0.00     0.028 H 
BRANCH  23  26
ATOM     26  C   LIG d   1       5.039  -3.888  -8.339  0.00  0.00    -0.064 C 
ATOM     27  H   LIG d   1       5.059  -4.530  -7.458  0.00  0.00     0.023 H 
ATOM     28  H   LIG d   1       5.332  -4.466  -9.215  0.00  0.00     0.023 H 
ATOM     29  H   LIG d   1       5.734  -3.059  -8.201  0.00  0.00     0.023 H 
ENDBRANCH  23  26
ENDBRANCH   1  23
BRANCH   3  30
ATOM     30  C   LIG d   1       2.207  -0.550 -10.908  0.00  0.00    -0.037 C 
ATOM     31  H   LIG d   1       1.983   0.500 -10.719  0.00  0.00     0.028 H 
ATOM     32  H   LIG d   1       3.126  -0.627 -11.490  0.00  0.00     0.028 H 
BRANCH  30  33
ATOM     33  C   LIG d   1       1.055  -1.185 -11.690  0.00  0.00    -0.064 C 
ATOM     34  H   LIG d   1       0.305  -1.559 -10.993  0.00  0.00     0.023 H 
ATOM     35  H   LIG d   1       0.603  -0.436 -12.342  0.00  0.00     0.023 H 
ATOM     36  H   LIG d   1       1.435  -2.009 -12.293  0.00  0.00     0.023 H 
ENDBRANCH  30  33
ENDBRANCH   3  30
TORSDOF 7
ENDMDL
MODEL 7
REMARK VINA RESULT:      -4.9      2.482      3.147
REMARK  7 active torsions:
REMARK  status: ('A' for Active; 'I' for Inactive)
REMARK    1  A    between atoms: C_1  and  C_2 
REMARK    2  A    between atoms: C_2  and  C_3 
REMARK    3  A    between atoms: C_5  and  C_18 
REMARK    4  A    between atoms: N_7  and  S_8 
REMARK    5  A    between atoms: S_8  and  C_11 
REMARK    6  A    between atoms: C_14  and  C_17 
REMARK    7  A    between atoms: C_18  and  C_19 
ROOT
ATOM      1  C   LIG d   1       5.705   0.652  -3.480  0.00  0.00     0.049 A 
ATOM      2  H   LIG d   1       5.587   1.476  -4.185  0.00  0.00     0.050 H 
ATOM      3  C   LIG d   1       7.010  -0.146  -3.533  0.00  0.00     0.049 A 
ATOM      4  H   LIG d   1       7.404  -0.534  -2.594  0.00  0.00     0.050 H 
ATOM      5  N   LIG d   1       5.749  -0.708  -4.025  0.00  0.00    -0.167 N 
ENDROOT
BRANCH   5   6
ATOM      6  S   LIG d   1       4.943  -1.981  -4.712  0.00  0.00     0.061 S 
ATOM      7  O   LIG d   1       5.934  -2.908  -5.135  0.00  0.00    -0.153 OA
ATOM      8  O   LIG d   1       3.903  -2.336  -3.810  0.00  0.00    -0.153 OA
BRANCH   6   9
ATOM      9  C   LIG d   1       4.162  -1.377  -6.171  0.00  0.00     0.105 A 
ATOM     10  C   LIG d   1       3.437  -0.202  -6.130  0.00  0.00    -0.035 A 
ATOM     11  C   LIG d   1       2.824   0.273  -7.275  0.00  0.00    -0.057 A 
ATOM     12  H   LIG d   1       3.347   0.347  -5.204  0.00  0.00     0.064 H 
ATOM     13  C   LIG d   1       2.937  -0.429  -8.461  0.00  0.00    -0.050 A 
ATOM     14  H   LIG d   1       2.256   1.191  -7.243  0.00  0.00     0.062 H 
ATOM     15  C   LIG d   1       3.664  -1.604  -8.502  0.00  0.00    -0.057 A 
ATOM     16  C   LIG d   1       4.280  -2.076  -7.358  0.00  0.00    -0.035 A 
ATOM     17  H   LIG d   1       3.753  -2.152  -9.428  0.00  0.00     0.062 H 
ATOM     18  H   LIG d   1       4.851  -2.992  -7.391  0.00  0.00     0.064 H 
BRANCH  13  19
ATOM     19  C   LIG d   1       2.270   0.088  -9.709  0.00  0.00    -0.040 C 
ATOM     20  H   LIG d   1       2.311  -0.674 -10.486  0.00  0.00     0.028 H 
ATOM     21  H   LIG d   1       1.229   0.329  -9.491  0.00  0.00     0.028 H 
ATOM     22  H   LIG d   1       2.786   0.985 -10.053  0.00  0.00     0.028 H 
ENDBRANCH  13  19
ENDBRANCH   6   9
ENDBRANCH   5   6
BRANCH   1  23
ATOM     23  C   LIG d   1       5.047   0.847  -2.112  0.00  0.00    -0.037 C 
ATOM     24  H   LIG d   1       5.255  -0.017  -1.483  0.00  0.00     0.028 H 
ATOM     25  H   LIG d   1       5.448   1.745  -1.642  0.00  0.00     0.028 H 
BRANCH  23  26
ATOM     26  C   LIG d   1       3.536   0.998  -2.292  0.00  0.00    -0.064 C 
ATOM     27  H   LIG d   1       3.282   2.056  -2.366  0.00  0.00     0.023 H 
ATOM     28  H   LIG d   1       3.225   0.486  -3.203  0.00  0.00     0.023 H 
ATOM     29  H   LIG d   1       3.022   0.561  -1.435  0.00  0.00     0.023 H 
ENDBRANCH  23  26
ENDBRANCH   1  23
BRANCH   3  30
ATOM     30  C   LIG d   1       8.056   0.273  -4.567  0.00  0.00    -0.037 C 
ATOM     31  H   LIG d   1       7.570   0.817  -5.377  0.00  0.00     0.028 H 
ATOM     32  H   LIG d   1       8.800   0.915  -4.093  0.00  0.00     0.028 H 
BRANCH  30  33
ATOM     33  C   LIG d   1       8.744  -0.973  -5.130  0.00  0.00    -0.064 C 
ATOM     34  H   LIG d   1       8.449  -1.112  -6.171  0.00  0.00     0.023 H 
ATOM     35  H   LIG d   1       9.826  -0.848  -5.073  0.00  0.00     0.023 H 
ATOM     36  H   LIG d   1       8.448  -1.846  -4.549  0.00  0.00     0.023 H 
ENDBRANCH  30  33
ENDBRANCH   3  30
TORSDOF 7
ENDMDL
MODEL 8
REMARK VINA RESULT:      -4.9      2.471      5.724
REMARK  7 active torsions:
REMARK  status: ('A' for Active; 'I' for Inactive)
REMARK    1  A    between atoms: C_1  and  C_2 
REMARK    2  A    between atoms: C_2  and  C_3 
REMARK    3  A    between atoms: C_5  and  C_18 
REMARK    4  A    between atoms: N_7  and  S_8 
REMARK    5  A    between atoms: S_8  and  C_11 
REMARK    6  A    between atoms: C_14  and  C_17 
REMARK    7  A    between atoms: C_18  and  C_19 
ROOT
ATOM      1  C   LIG d   1       2.438  -1.307  -9.547  0.00  0.00     0.049 A 
ATOM      2  H   LIG d   1       1.530  -1.741  -9.129  0.00  0.00     0.050 H 
ATOM      3  C   LIG d   1       3.755  -2.050  -9.310  0.00  0.00     0.049 A 
ATOM      4  H   LIG d   1       4.506  -2.014 -10.100  0.00  0.00     0.050 H 
ATOM      5  N   LIG d   1       3.445  -0.801  -8.610  0.00  0.00    -0.167 N 
ENDROOT
BRANCH   5   6
ATOM      6  S   LIG d   1       3.906   0.361  -7.524  0.00  0.00     0.061 S 
ATOM      7  O   LIG d   1       5.268   0.656  -7.800  0.00  0.00    -0.153 OA
ATOM      8  O   LIG d   1       2.891   1.356  -7.540  0.00  0.00    -0.153 OA
BRANCH   6   9
ATOM      9  C   LIG d   1       3.864  -0.375  -5.924  0.00  0.00     0.105 A 
ATOM     10  C   LIG d   1       4.718  -1.418  -5.620  0.00  0.00    -0.035 A 
ATOM     11  C   LIG d   1       4.685  -1.996  -4.364  0.00  0.00    -0.057 A 
ATOM     12  H   LIG d   1       5.411  -1.783  -6.364  0.00  0.00     0.064 H 
ATOM     13  C   LIG d   1       3.798  -1.529  -3.412  0.00  0.00    -0.050 A 
ATOM     14  H   LIG d   1       5.352  -2.812  -4.127  0.00  0.00     0.062 H 
ATOM     15  C   LIG d   1       2.945  -0.485  -3.715  0.00  0.00    -0.057 A 
ATOM     16  C   LIG d   1       2.980   0.095  -4.969  0.00  0.00    -0.035 A 
ATOM     17  H   LIG d   1       2.252  -0.121  -2.971  0.00  0.00     0.062 H 
ATOM     18  H   LIG d   1       2.316   0.913  -5.204  0.00  0.00     0.064 H 
BRANCH  13  19
ATOM     19  C   LIG d   1       3.763  -2.159  -2.043  0.00  0.00    -0.040 C 
ATOM     20  H   LIG d   1       4.591  -1.777  -1.446  0.00  0.00     0.028 H 
ATOM     21  H   LIG d   1       2.820  -1.913  -1.555  0.00  0.00     0.028 H 
ATOM     22  H   LIG d   1       3.852  -3.241  -2.138  0.00  0.00     0.028 H 
ENDBRANCH  13  19
ENDBRANCH   6   9
ENDBRANCH   5   6
BRANCH   1  23
ATOM     23  C   LIG d   1       2.271  -0.566 -10.875  0.00  0.00    -0.037 C 
ATOM     24  H   LIG d   1       2.174   0.503 -10.685  0.00  0.00     0.028 H 
ATOM     25  H   LIG d   1       3.143  -0.746 -11.504  0.00  0.00     0.028 H 
BRANCH  23  26
ATOM     26  C   LIG d   1       1.016  -1.074 -11.587  0.00  0.00    -0.064 C 
ATOM     27  H   LIG d   1       0.182  -0.405 -11.376  0.00  0.00     0.023 H 
ATOM     28  H   LIG d   1       1.195  -1.102 -12.663  0.00  0.00     0.023 H 
ATOM     29  H   LIG d   1       0.777  -2.077 -11.233  0.00  0.00     0.023 H 
ENDBRANCH  23  26
ENDBRANCH   1  23
BRANCH   3  30
ATOM     30  C   LIG d   1       3.701  -3.351  -8.508  0.00  0.00    -0.037 C 
ATOM     31  H   LIG d   1       4.096  -3.178  -7.507  0.00  0.00     0.028 H 
ATOM     32  H   LIG d   1       2.667  -3.692  -8.437  0.00  0.00     0.028 H 
BRANCH  30  33
ATOM     33  C   LIG d   1       4.542  -4.419  -9.210  0.00  0.00    -0.064 C 
ATOM     34  H   LIG d   1       4.809  -4.073 -10.210  0.00  0.00     0.023 H 
ATOM     35  H   LIG d   1       5.451  -4.602  -8.635  0.00  0.00     0.023 H 
ATOM     36  H   LIG d   1       3.968  -5.343  -9.286  0.00  0.00     0.023 H 
ENDBRANCH  30  33
ENDBRANCH   3  30
TORSDOF 7
ENDMDL
MODEL 9
REMARK VINA RESULT:      -4.9      4.143      6.219
REMARK  7 active torsions:
REMARK  status: ('A' for Active; 'I' for Inactive)
REMARK    1  A    between atoms: C_1  and  C_2 
REMARK    2  A    between atoms: C_2  and  C_3 
REMARK    3  A    between atoms: C_5  and  C_18 
REMARK    4  A    between atoms: N_7  and  S_8 
REMARK    5  A    between atoms: S_8  and  C_11 
REMARK    6  A    between atoms: C_14  and  C_17 
REMARK    7  A    between atoms: C_18  and  C_19 
ROOT
ATOM      1  C   LIG d   1       7.558  -5.228  -5.018  0.00  0.00     0.049 A 
ATOM      2  H   LIG d   1       7.777  -5.421  -3.967  0.00  0.00     0.050 H 
ATOM      3  C   LIG d   1       7.980  -3.874  -5.593  0.00  0.00     0.049 A 
ATOM      4  H   LIG d   1       8.302  -3.846  -6.634  0.00  0.00     0.050 H 
ATOM      5  N   LIG d   1       6.573  -4.187  -5.326  0.00  0.00    -0.167 N 
ENDROOT
BRANCH   5   6
ATOM      6  S   LIG d   1       4.990  -3.703  -5.353  0.00  0.00     0.061 S 
ATOM      7  O   LIG d   1       4.738  -3.209  -6.661  0.00  0.00    -0.153 OA
ATOM      8  O   LIG d   1       4.233  -4.761  -4.779  0.00  0.00    -0.153 OA
BRANCH   6   9
ATOM      9  C   LIG d   1       4.845  -2.330  -4.259  0.00  0.00     0.105 A 
ATOM     10  C   LIG d   1       5.304  -1.086  -4.648  0.00  0.00    -0.035 A 
ATOM     11  C   LIG d   1       5.190  -0.007  -3.789  0.00  0.00    -0.057 A 
ATOM     12  H   LIG d   1       5.750  -0.954  -5.622  0.00  0.00     0.064 H 
ATOM     13  C   LIG d   1       4.618  -0.175  -2.542  0.00  0.00    -0.050 A 
ATOM     14  H   LIG d   1       5.548   0.965  -4.093  0.00  0.00     0.062 H 
ATOM     15  C   LIG d   1       4.159  -1.419  -2.154  0.00  0.00    -0.057 A 
ATOM     16  C   LIG d   1       4.269  -2.496  -3.013  0.00  0.00    -0.035 A 
ATOM     17  H   LIG d   1       3.712  -1.550  -1.179  0.00  0.00     0.062 H 
ATOM     18  H   LIG d   1       3.906  -3.467  -2.710  0.00  0.00     0.064 H 
BRANCH  13  19
ATOM     19  C   LIG d   1       4.494   1.000  -1.606  0.00  0.00    -0.040 C 
ATOM     20  H   LIG d   1       5.212   1.769  -1.891  0.00  0.00     0.028 H 
ATOM     21  H   LIG d   1       3.484   1.407  -1.665  0.00  0.00     0.028 H 
ATOM     22  H   LIG d   1       4.696   0.675  -0.585  0.00  0.00     0.028 H 
ENDBRANCH  13  19
ENDBRANCH   6   9
ENDBRANCH   5   6
BRANCH   1  23
ATOM     23  C   LIG d   1       7.618  -6.443  -5.944  0.00  0.00    -0.037 C 
ATOM     24  H   LIG d   1       7.336  -6.145  -6.953  0.00  0.00     0.028 H 
ATOM     25  H   LIG d   1       8.632  -6.843  -5.952  0.00  0.00     0.028 H 
BRANCH  23  26
ATOM     26  C   LIG d   1       6.651  -7.516  -5.440  0.00  0.00    -0.064 C 
ATOM     27  H   LIG d   1       5.743  -7.500  -6.043  0.00  0.00     0.023 H 
ATOM     28  H   LIG d   1       7.122  -8.496  -5.520  0.00  0.00     0.023 H 
ATOM     29  H   LIG d   1       6.399  -7.318  -4.398  0.00  0.00     0.023 H 
ENDBRANCH  23  26
ENDBRANCH   1  23
BRANCH   3  30
ATOM     30  C   LIG d   1       8.684  -2.892  -4.655  0.00  0.00    -0.037 C 
ATOM     31  H   LIG d   1       8.102  -2.782  -3.740  0.00  0.00     0.028 H 
ATOM     32  H   LIG d   1       9.677  -3.271  -4.411  0.00  0.00     0.028 H 
BRANCH  30  33
ATOM     33  C   LIG d   1       8.812  -1.532  -5.344  0.00  0.00    -0.064 C 
ATOM     34  H   LIG d   1       8.981  -0.759  -4.594  0.00  0.00     0.023 H 
ATOM     35  H   LIG d   1       9.654  -1.554  -6.038  0.00  0.00     0.023 H 
ATOM     36  H   LIG d   1       7.896  -1.313  -5.892  0.00  0.00     0.023 H 
ENDBRANCH  30  33
ENDBRANCH   3  30
TORSDOF 7
ENDMDL
MODEL 10
REMARK VINA RESULT:      -4.8      4.192      5.828
REMARK  7 active torsions:
REMARK  status: ('A' for Active; 'I' for Inactive)
REMARK    1  A    between atoms: C_1  and  C_2 
REMARK    2  A    between atoms: C_2  and  C_3 
REMARK    3  A    between atoms: C_5  and  C_18 
REMARK    4  A    between atoms: N_7  and  S_8 
REMARK    5  A    between atoms: S_8  and  C_11 
REMARK    6  A    between atoms: C_14  and  C_17 
REMARK    7  A    between atoms: C_18  and  C_19 
ROOT
ATOM      1  C   LIG d   1       7.960  -3.845  -5.641  0.00  0.00     0.049 A 
ATOM      2  H   LIG d   1       8.254  -3.828  -6.691  0.00  0.00     0.050 H 
ATOM      3  C   LIG d   1       7.568  -5.194  -5.035  0.00  0.00     0.049 A 
ATOM      4  H   LIG d   1       7.818  -5.371  -3.988  0.00  0.00     0.050 H 
ATOM      5  N   LIG d   1       6.565  -4.168  -5.330  0.00  0.00    -0.167 N 
ENDROOT
BRANCH   5   6
ATOM      6  S   LIG d   1       4.976  -3.702  -5.320  0.00  0.00     0.061 S 
ATOM      7  O   LIG d   1       4.687  -3.215  -6.624  0.00  0.00    -0.153 OA
ATOM      8  O   LIG d   1       4.246  -4.767  -4.725  0.00  0.00    -0.153 OA
BRANCH   6   9
ATOM      9  C   LIG d   1       4.843  -2.327  -4.227  0.00  0.00     0.105 A 
ATOM     10  C   LIG d   1       4.184  -2.465  -3.020  0.00  0.00    -0.035 A 
ATOM     11  C   LIG d   1       4.080  -1.385  -2.162  0.00  0.00    -0.057 A 
ATOM     12  H   LIG d   1       3.751  -3.415  -2.747  0.00  0.00     0.064 H 
ATOM     13  C   LIG d   1       4.636  -0.168  -2.512  0.00  0.00    -0.050 A 
ATOM     14  H   LIG d   1       3.566  -1.493  -1.219  0.00  0.00     0.062 H 
ATOM     15  C   LIG d   1       5.295  -0.031  -3.719  0.00  0.00    -0.057 A 
ATOM     16  C   LIG d   1       5.402  -1.111  -4.575  0.00  0.00    -0.035 A 
ATOM     17  H   LIG d   1       5.728   0.920  -3.992  0.00  0.00     0.062 H 
ATOM     18  H   LIG d   1       5.921  -1.004  -5.516  0.00  0.00     0.064 H 
BRANCH  13  19
ATOM     19  C   LIG d   1       4.522   1.008  -1.577  0.00  0.00    -0.040 C 
ATOM     20  H   LIG d   1       4.225   0.659  -0.588  0.00  0.00     0.028 H 
ATOM     21  H   LIG d   1       5.487   1.512  -1.509  0.00  0.00     0.028 H 
ATOM     22  H   LIG d   1       3.775   1.704  -1.956  0.00  0.00     0.028 H 
ENDBRANCH  13  19
ENDBRANCH   6   9
ENDBRANCH   5   6
BRANCH   1  23
ATOM     23  C   LIG d   1       8.674  -2.840  -4.734  0.00  0.00    -0.037 C 
ATOM     24  H   LIG d   1       7.938  -2.196  -4.256  0.00  0.00     0.028 H 
ATOM     25  H   LIG d   1       9.239  -3.377  -3.972  0.00  0.00     0.028 H 
BRANCH  23  26
ATOM     26  C   LIG d   1       9.631  -1.989  -5.571  0.00  0.00    -0.064 C 
ATOM     27  H   LIG d   1       9.249  -0.970  -5.637  0.00  0.00     0.023 H 
ATOM     28  H   LIG d   1      10.614  -1.978  -5.100  0.00  0.00     0.023 H 
ATOM     29  H   LIG d   1       9.712  -2.412  -6.573  0.00  0.00     0.023 H 
ENDBRANCH  23  26
ENDBRANCH   1  23
BRANCH   3  30
ATOM     30  C   LIG d   1       7.621  -6.423  -5.944  0.00  0.00    -0.037 C 
ATOM     31  H   LIG d   1       7.357  -6.135  -6.962  0.00  0.00     0.028 H 
ATOM     32  H   LIG d   1       8.629  -6.839  -5.935  0.00  0.00     0.028 H 
BRANCH  30  33
ATOM     33  C   LIG d   1       6.632  -7.475  -5.439  0.00  0.00    -0.064 C 
ATOM     34  H   LIG d   1       5.628  -7.048  -5.414  0.00  0.00     0.023 H 
ATOM     35  H   LIG d   1       6.643  -8.335  -6.109  0.00  0.00     0.023 H 
ATOM     36  H   LIG d   1       6.918  -7.792  -4.436  0.00  0.00     0.023 H 
ENDBRANCH  30  33
ENDBRANCH   3  30
TORSDOF 7
ENDMDL
