MODEL 1
REMARK VINA RESULT:      -6.4      0.000      0.000
REMARK  5 active torsions:
REMARK  status: ('A' for Active; 'I' for Inactive)
REMARK    1  A    between atoms: C_3  and  C_14 
REMARK    2  A    between atoms: C_5  and  N_7 
REMARK       I    between atoms: N_7  and  C_8 
REMARK       I    between atoms: C_8  and  N_10 
REMARK    3  A    between atoms: N_10  and  C_11 
REMARK    4  A    between atoms: C_11  and  C_12 
REMARK    5  A    between atoms: C_12  and  O_13 
ROOT
ATOM      1  C   LIG d   1       3.245   1.746  -3.108  0.00  0.00    -0.059 A 
ATOM      2  C   LIG d   1       3.777   0.691  -2.388  0.00  0.00    -0.050 A 
ATOM      3  C   LIG d   1       3.866  -0.564  -2.960  0.00  0.00     0.057 A 
ATOM      4  C   LIG d   1       3.425  -0.769  -4.254  0.00  0.00    -0.029 A 
ATOM      5  C   LIG d   1       2.892   0.289  -4.979  0.00  0.00     0.035 A 
ATOM      6  C   LIG d   1       2.803   1.548  -4.400  0.00  0.00    -0.040 A 
ATOM      7  H   LIG d   1       3.173   2.724  -2.657  0.00  0.00     0.062 H 
ATOM      8  H   LIG d   1       4.122   0.848  -1.377  0.00  0.00     0.062 H 
ATOM      9  H   LIG d   1       3.495  -1.749  -4.700  0.00  0.00     0.064 H 
ATOM     10  H   LIG d   1       2.389   2.373  -4.962  0.00  0.00     0.064 H 
ENDROOT
BRANCH   5  11
ATOM     11  N   LIG d   1       2.444   0.085  -6.289  0.00  0.00    -0.270 N 
ATOM     12  C   LIG d   1       3.289   0.256  -7.325  0.00  0.00     0.304 C 
ATOM     13  O   LIG d   1       4.464   0.493  -7.118  0.00  0.00    -0.253 OA
ATOM     14  N   LIG d   1       2.832   0.164  -8.589  0.00  0.00    -0.297 N 
ATOM     15  H   LIG d   1       1.895  -0.025  -8.754  0.00  0.00     0.150 HD
ATOM     16  H   LIG d   1       1.525  -0.181  -6.451  0.00  0.00     0.156 HD
BRANCH  14  17
ATOM     17  C   LIG d   1       3.750   0.351  -9.715  0.00  0.00     0.036 C 
ATOM     18  H   LIG d   1       4.754   0.046  -9.420  0.00  0.00     0.049 H 
ATOM     19  H   LIG d   1       3.419  -0.255 -10.559  0.00  0.00     0.049 H 
BRANCH  17  20
ATOM     20  C   LIG d   1       3.766   1.827 -10.122  0.00  0.00     0.060 C 
ATOM     21  H   LIG d   1       3.831   1.904 -11.207  0.00  0.00     0.057 H 
ATOM     22  H   LIG d   1       2.849   2.307  -9.778  0.00  0.00     0.057 H 
BRANCH  20  23
ATOM     23  O   LIG d   1       4.894   2.473  -9.528  0.00  0.00    -0.394 OA
ATOM     24  H   LIG d   1       5.687   1.920  -9.489  0.00  0.00     0.209 HD
ENDBRANCH  20  23
ENDBRANCH  17  20
ENDBRANCH  14  17
ENDBRANCH   5  11
BRANCH   3  25
ATOM     25  C   LIG d   1       4.445  -1.711  -2.173  0.00  0.00     0.417 C 
ATOM     26  F   LIG d   1       4.724  -1.288  -0.868  0.00  0.00    -0.166 F 
ATOM     27  F   LIG d   1       3.524  -2.763  -2.135  0.00  0.00    -0.166 F 
ATOM     28  F   LIG d   1       5.626  -2.147  -2.783  0.00  0.00    -0.166 F 
ENDBRANCH   3  25
TORSDOF 5
ENDMDL
MODEL 2
REMARK VINA RESULT:      -6.2      4.533      5.678
REMARK  5 active torsions:
REMARK  status: ('A' for Active; 'I' for Inactive)
REMARK    1  A    between atoms: C_3  and  C_14 
REMARK    2  A    between atoms: C_5  and  N_7 
REMARK       I    between atoms: N_7  and  C_8 
REMARK       I    between atoms: C_8  and  N_10 
REMARK    3  A    between atoms: N_10  and  C_11 
REMARK    4  A    between atoms: C_11  and  C_12 
REMARK    5  A    between atoms: C_12  and  O_13 
ROOT
ATOM      1  C   LIG d   1       3.796  -1.745  -2.321  0.00  0.00    -0.059 A 
ATOM      2  C   LIG d   1       2.862  -1.142  -3.145  0.00  0.00    -0.050 A 
ATOM      3  C   LIG d   1       3.272  -0.282  -4.146  0.00  0.00     0.057 A 
ATOM      4  C   LIG d   1       4.617  -0.022  -4.327  0.00  0.00    -0.029 A 
ATOM      5  C   LIG d   1       5.557  -0.626  -3.503  0.00  0.00     0.035 A 
ATOM      6  C   LIG d   1       5.141  -1.490  -2.497  0.00  0.00    -0.040 A 
ATOM      7  H   LIG d   1       3.472  -2.414  -1.537  0.00  0.00     0.062 H 
ATOM      8  H   LIG d   1       1.810  -1.345  -3.004  0.00  0.00     0.062 H 
ATOM      9  H   LIG d   1       4.937   0.650  -5.109  0.00  0.00     0.064 H 
ATOM     10  H   LIG d   1       5.870  -1.961  -1.854  0.00  0.00     0.064 H 
ENDROOT
BRANCH   5  11
ATOM     11  N   LIG d   1       6.920  -0.364  -3.684  0.00  0.00    -0.270 N 
ATOM     12  C   LIG d   1       7.385   0.895  -3.573  0.00  0.00     0.304 C 
ATOM     13  O   LIG d   1       6.640   1.790  -3.221  0.00  0.00    -0.253 OA
ATOM     14  N   LIG d   1       8.676   1.164  -3.852  0.00  0.00    -0.297 N 
ATOM     15  H   LIG d   1       9.270   0.450  -4.133  0.00  0.00     0.150 HD
ATOM     16  H   LIG d   1       7.530  -1.091  -3.889  0.00  0.00     0.156 HD
BRANCH  14  17
ATOM     17  C   LIG d   1       9.181   2.533  -3.732  0.00  0.00     0.036 C 
ATOM     18  H   LIG d   1       9.369   2.940  -4.726  0.00  0.00     0.049 H 
ATOM     19  H   LIG d   1       8.442   3.150  -3.221  0.00  0.00     0.049 H 
BRANCH  17  20
ATOM     20  C   LIG d   1      10.484   2.528  -2.929  0.00  0.00     0.060 C 
ATOM     21  H   LIG d   1      10.496   1.668  -2.260  0.00  0.00     0.057 H 
ATOM     22  H   LIG d   1      11.331   2.469  -3.613  0.00  0.00     0.057 H 
BRANCH  20  23
ATOM     23  O   LIG d   1      10.575   3.731  -2.163  0.00  0.00    -0.394 OA
ATOM     24  H   LIG d   1      10.736   3.585  -1.220  0.00  0.00     0.209 HD
ENDBRANCH  20  23
ENDBRANCH  17  20
ENDBRANCH  14  17
ENDBRANCH   5  11
BRANCH   3  25
ATOM     25  C   LIG d   1       2.252   0.373  -5.040  0.00  0.00     0.417 C 
ATOM     26  F   LIG d   1       2.303   1.761  -4.867  0.00  0.00    -0.166 F 
ATOM     27  F   LIG d   1       2.531   0.059  -6.374  0.00  0.00    -0.166 F 
ATOM     28  F   LIG d   1       0.975  -0.091  -4.708  0.00  0.00    -0.166 F 
ENDBRANCH   3  25
TORSDOF 5
ENDMDL
MODEL 3
REMARK VINA RESULT:      -5.9      4.605      5.614
REMARK  5 active torsions:
REMARK  status: ('A' for Active; 'I' for Inactive)
REMARK    1  A    between atoms: C_3  and  C_14 
REMARK    2  A    between atoms: C_5  and  N_7 
REMARK       I    between atoms: N_7  and  C_8 
REMARK       I    between atoms: C_8  and  N_10 
REMARK    3  A    between atoms: N_10  and  C_11 
REMARK    4  A    between atoms: C_11  and  C_12 
REMARK    5  A    between atoms: C_12  and  O_13 
ROOT
ATOM      1  C   LIG d   1       5.355  -1.288  -5.818  0.00  0.00    -0.059 A 
ATOM      2  C   LIG d   1       4.461  -1.544  -4.794  0.00  0.00    -0.050 A 
ATOM      3  C   LIG d   1       4.802  -1.255  -3.486  0.00  0.00     0.057 A 
ATOM      4  C   LIG d   1       6.037  -0.707  -3.197  0.00  0.00    -0.029 A 
ATOM      5  C   LIG d   1       6.936  -0.447  -4.223  0.00  0.00     0.035 A 
ATOM      6  C   LIG d   1       6.591  -0.740  -5.536  0.00  0.00    -0.040 A 
ATOM      7  H   LIG d   1       5.087  -1.519  -6.838  0.00  0.00     0.062 H 
ATOM      8  H   LIG d   1       3.495  -1.973  -5.018  0.00  0.00     0.062 H 
ATOM      9  H   LIG d   1       6.302  -0.481  -2.176  0.00  0.00     0.064 H 
ATOM     10  H   LIG d   1       7.288  -0.540  -6.336  0.00  0.00     0.064 H 
ENDROOT
BRANCH   5  11
ATOM     11  N   LIG d   1       8.188   0.107  -3.934  0.00  0.00    -0.270 N 
ATOM     12  C   LIG d   1       8.375   1.438  -4.029  0.00  0.00     0.304 C 
ATOM     13  O   LIG d   1       7.432   2.168  -4.272  0.00  0.00    -0.253 OA
ATOM     14  N   LIG d   1       9.605   1.960  -3.855  0.00  0.00    -0.297 N 
ATOM     15  H   LIG d   1      10.356   1.378  -3.661  0.00  0.00     0.150 HD
ATOM     16  H   LIG d   1       8.922  -0.468  -3.664  0.00  0.00     0.156 HD
BRANCH  14  17
ATOM     17  C   LIG d   1       9.807   3.407  -3.959  0.00  0.00     0.036 C 
ATOM     18  H   LIG d   1      10.546   3.617  -4.733  0.00  0.00     0.049 H 
ATOM     19  H   LIG d   1       8.863   3.889  -4.218  0.00  0.00     0.049 H 
BRANCH  17  20
ATOM     20  C   LIG d   1      10.305   3.952  -2.618  0.00  0.00     0.060 C 
ATOM     21  H   LIG d   1      11.024   4.751  -2.794  0.00  0.00     0.057 H 
ATOM     22  H   LIG d   1       9.461   4.341  -2.049  0.00  0.00     0.057 H 
BRANCH  20  23
ATOM     23  O   LIG d   1      10.931   2.899  -1.881  0.00  0.00    -0.394 OA
ATOM     24  H   LIG d   1      11.698   2.512  -2.325  0.00  0.00     0.209 HD
ENDBRANCH  20  23
ENDBRANCH  17  20
ENDBRANCH  14  17
ENDBRANCH   5  11
BRANCH   3  25
ATOM     25  C   LIG d   1       3.825  -1.537  -2.374  0.00  0.00     0.417 C 
ATOM     26  F   LIG d   1       4.314  -0.999  -1.177  0.00  0.00    -0.166 F 
ATOM     27  F   LIG d   1       2.591  -0.953  -2.677  0.00  0.00    -0.166 F 
ATOM     28  F   LIG d   1       3.666  -2.919  -2.233  0.00  0.00    -0.166 F 
ENDBRANCH   3  25
TORSDOF 5
ENDMDL
MODEL 4
REMARK VINA RESULT:      -5.9      5.184      6.084
REMARK  5 active torsions:
REMARK  status: ('A' for Active; 'I' for Inactive)
REMARK    1  A    between atoms: C_3  and  C_14 
REMARK    2  A    between atoms: C_5  and  N_7 
REMARK       I    between atoms: N_7  and  C_8 
REMARK       I    between atoms: C_8  and  N_10 
REMARK    3  A    between atoms: N_10  and  C_11 
REMARK    4  A    between atoms: C_11  and  C_12 
REMARK    5  A    between atoms: C_12  and  O_13 
ROOT
ATOM      1  C   LIG d   1       7.216  -1.339  -4.097  0.00  0.00    -0.059 A 
ATOM      2  C   LIG d   1       6.161  -1.273  -3.205  0.00  0.00    -0.050 A 
ATOM      3  C   LIG d   1       5.648  -0.047  -2.827  0.00  0.00     0.057 A 
ATOM      4  C   LIG d   1       6.188   1.118  -3.340  0.00  0.00    -0.029 A 
ATOM      5  C   LIG d   1       7.246   1.054  -4.237  0.00  0.00     0.035 A 
ATOM      6  C   LIG d   1       7.759  -0.180  -4.614  0.00  0.00    -0.040 A 
ATOM      7  H   LIG d   1       7.617  -2.299  -4.387  0.00  0.00     0.062 H 
ATOM      8  H   LIG d   1       5.738  -2.182  -2.802  0.00  0.00     0.062 H 
ATOM      9  H   LIG d   1       5.786   2.075  -3.044  0.00  0.00     0.064 H 
ATOM     10  H   LIG d   1       8.583  -0.233  -5.311  0.00  0.00     0.064 H 
ENDROOT
BRANCH   5  11
ATOM     11  N   LIG d   1       7.794   2.231  -4.758  0.00  0.00    -0.270 N 
ATOM     12  C   LIG d   1       8.883   2.780  -4.185  0.00  0.00     0.304 C 
ATOM     13  O   LIG d   1       9.447   2.202  -3.275  0.00  0.00    -0.253 OA
ATOM     14  N   LIG d   1       9.347   3.968  -4.619  0.00  0.00    -0.297 N 
ATOM     15  H   LIG d   1       8.897   4.429  -5.344  0.00  0.00     0.150 HD
ATOM     16  H   LIG d   1       7.390   2.653  -5.533  0.00  0.00     0.156 HD
BRANCH  14  17
ATOM     17  C   LIG d   1      10.531   4.564  -3.995  0.00  0.00     0.036 C 
ATOM     18  H   LIG d   1      11.225   3.776  -3.705  0.00  0.00     0.049 H 
ATOM     19  H   LIG d   1      11.017   5.235  -4.704  0.00  0.00     0.049 H 
BRANCH  17  20
ATOM     20  C   LIG d   1      10.110   5.354  -2.753  0.00  0.00     0.060 C 
ATOM     21  H   LIG d   1      10.623   6.315  -2.742  0.00  0.00     0.057 H 
ATOM     22  H   LIG d   1       9.033   5.517  -2.775  0.00  0.00     0.057 H 
BRANCH  20  23
ATOM     23  O   LIG d   1      10.456   4.615  -1.579  0.00  0.00    -0.394 OA
ATOM     24  H   LIG d   1      11.043   5.089  -0.975  0.00  0.00     0.209 HD
ENDBRANCH  20  23
ENDBRANCH  17  20
ENDBRANCH  14  17
ENDBRANCH   5  11
BRANCH   3  25
ATOM     25  C   LIG d   1       4.500   0.022  -1.854  0.00  0.00     0.417 C 
ATOM     26  F   LIG d   1       3.306   0.230  -2.555  0.00  0.00    -0.166 F 
ATOM     27  F   LIG d   1       4.419  -1.180  -1.143  0.00  0.00    -0.166 F 
ATOM     28  F   LIG d   1       4.707   1.079  -0.962  0.00  0.00    -0.166 F 
ENDBRANCH   3  25
TORSDOF 5
ENDMDL
MODEL 5
REMARK VINA RESULT:      -5.7      4.191      5.082
REMARK  5 active torsions:
REMARK  status: ('A' for Active; 'I' for Inactive)
REMARK    1  A    between atoms: C_3  and  C_14 
REMARK    2  A    between atoms: C_5  and  N_7 
REMARK       I    between atoms: N_7  and  C_8 
REMARK       I    between atoms: C_8  and  N_10 
REMARK    3  A    between atoms: N_10  and  C_11 
REMARK    4  A    between atoms: C_11  and  C_12 
REMARK    5  A    between atoms: C_12  and  O_13 
ROOT
ATOM      1  C   LIG d   1       7.569   0.679  -4.083  0.00  0.00    -0.059 A 
ATOM      2  C   LIG d   1       6.469   1.168  -3.401  0.00  0.00    -0.050 A 
ATOM      3  C   LIG d   1       5.476   0.306  -2.977  0.00  0.00     0.057 A 
ATOM      4  C   LIG d   1       5.579  -1.049  -3.233  0.00  0.00    -0.029 A 
ATOM      5  C   LIG d   1       6.682  -1.542  -3.916  0.00  0.00     0.035 A 
ATOM      6  C   LIG d   1       7.678  -0.672  -4.342  0.00  0.00    -0.040 A 
ATOM      7  H   LIG d   1       8.341   1.356  -4.417  0.00  0.00     0.062 H 
ATOM      8  H   LIG d   1       6.387   2.226  -3.200  0.00  0.00     0.062 H 
ATOM      9  H   LIG d   1       4.803  -1.721  -2.901  0.00  0.00     0.064 H 
ATOM     10  H   LIG d   1       8.537  -1.054  -4.874  0.00  0.00     0.064 H 
ENDROOT
BRANCH   5  11
ATOM     11  N   LIG d   1       6.789  -2.913  -4.177  0.00  0.00    -0.270 N 
ATOM     12  C   LIG d   1       6.215  -3.437  -5.278  0.00  0.00     0.304 C 
ATOM     13  O   LIG d   1       5.688  -2.706  -6.095  0.00  0.00    -0.253 OA
ATOM     14  N   LIG d   1       6.226  -4.770  -5.474  0.00  0.00    -0.297 N 
ATOM     15  H   LIG d   1       6.647  -5.353  -4.822  0.00  0.00     0.150 HD
ATOM     16  H   LIG d   1       7.277  -3.486  -3.564  0.00  0.00     0.156 HD
BRANCH  14  17
ATOM     17  C   LIG d   1       5.602  -5.339  -6.670  0.00  0.00     0.036 C 
ATOM     18  H   LIG d   1       5.408  -4.546  -7.392  0.00  0.00     0.049 H 
ATOM     19  H   LIG d   1       6.270  -6.079  -7.113  0.00  0.00     0.049 H 
BRANCH  17  20
ATOM     20  C   LIG d   1       4.281  -6.012  -6.287  0.00  0.00     0.060 C 
ATOM     21  H   LIG d   1       4.019  -6.755  -7.039  0.00  0.00     0.057 H 
ATOM     22  H   LIG d   1       4.391  -6.499  -5.318  0.00  0.00     0.057 H 
BRANCH  20  23
ATOM     23  O   LIG d   1       3.250  -5.025  -6.210  0.00  0.00    -0.394 OA
ATOM     24  H   LIG d   1       3.540  -4.183  -5.832  0.00  0.00     0.209 HD
ENDBRANCH  20  23
ENDBRANCH  17  20
ENDBRANCH  14  17
ENDBRANCH   5  11
BRANCH   3  25
ATOM     25  C   LIG d   1       4.279   0.842  -2.235  0.00  0.00     0.417 C 
ATOM     26  F   LIG d   1       3.812   1.995  -2.876  0.00  0.00    -0.166 F 
ATOM     27  F   LIG d   1       3.269  -0.125  -2.218  0.00  0.00    -0.166 F 
ATOM     28  F   LIG d   1       4.647   1.156  -0.922  0.00  0.00    -0.166 F 
ENDBRANCH   3  25
TORSDOF 5
ENDMDL
MODEL 6
REMARK VINA RESULT:      -5.7      1.935      2.413
REMARK  5 active torsions:
REMARK  status: ('A' for Active; 'I' for Inactive)
REMARK    1  A    between atoms: C_3  and  C_14 
REMARK    2  A    between atoms: C_5  and  N_7 
REMARK       I    between atoms: N_7  and  C_8 
REMARK       I    between atoms: C_8  and  N_10 
REMARK    3  A    between atoms: N_10  and  C_11 
REMARK    4  A    between atoms: C_11  and  C_12 
REMARK    5  A    between atoms: C_12  and  O_13 
ROOT
ATOM      1  C   LIG d   1       6.912  -0.294  -4.680  0.00  0.00    -0.059 A 
ATOM      2  C   LIG d   1       6.298  -0.030  -3.469  0.00  0.00    -0.050 A 
ATOM      3  C   LIG d   1       4.932  -0.194  -3.334  0.00  0.00     0.057 A 
ATOM      4  C   LIG d   1       4.176  -0.621  -4.410  0.00  0.00    -0.029 A 
ATOM      5  C   LIG d   1       4.790  -0.887  -5.626  0.00  0.00     0.035 A 
ATOM      6  C   LIG d   1       6.163  -0.721  -5.758  0.00  0.00    -0.040 A 
ATOM      7  H   LIG d   1       7.979  -0.161  -4.784  0.00  0.00     0.062 H 
ATOM      8  H   LIG d   1       6.887   0.304  -2.628  0.00  0.00     0.062 H 
ATOM      9  H   LIG d   1       3.109  -0.748  -4.303  0.00  0.00     0.064 H 
ATOM     10  H   LIG d   1       6.644  -0.927  -6.703  0.00  0.00     0.064 H 
ENDROOT
BRANCH   5  11
ATOM     11  N   LIG d   1       4.027  -1.319  -6.716  0.00  0.00    -0.270 N 
ATOM     12  C   LIG d   1       3.547  -0.424  -7.601  0.00  0.00     0.304 C 
ATOM     13  O   LIG d   1       3.856   0.749  -7.508  0.00  0.00    -0.253 OA
ATOM     14  N   LIG d   1       2.725  -0.828  -8.590  0.00  0.00    -0.297 N 
ATOM     15  H   LIG d   1       2.478  -1.763  -8.664  0.00  0.00     0.150 HD
ATOM     16  H   LIG d   1       3.844  -2.265  -6.835  0.00  0.00     0.156 HD
BRANCH  14  17
ATOM     17  C   LIG d   1       2.202   0.147  -9.551  0.00  0.00     0.036 C 
ATOM     18  H   LIG d   1       1.219  -0.174  -9.896  0.00  0.00     0.049 H 
ATOM     19  H   LIG d   1       2.120   1.123  -9.072  0.00  0.00     0.049 H 
BRANCH  17  20
ATOM     20  C   LIG d   1       3.154   0.245 -10.746  0.00  0.00     0.060 C 
ATOM     21  H   LIG d   1       3.804  -0.629 -10.767  0.00  0.00     0.057 H 
ATOM     22  H   LIG d   1       2.573   0.288 -11.668  0.00  0.00     0.057 H 
BRANCH  20  23
ATOM     23  O   LIG d   1       3.947   1.428 -10.627  0.00  0.00    -0.394 OA
ATOM     24  H   LIG d   1       3.695   1.996  -9.885  0.00  0.00     0.209 HD
ENDBRANCH  20  23
ENDBRANCH  17  20
ENDBRANCH  14  17
ENDBRANCH   5  11
BRANCH   3  25
ATOM     25  C   LIG d   1       4.266   0.095  -2.014  0.00  0.00     0.417 C 
ATOM     26  F   LIG d   1       2.920   0.411  -2.230  0.00  0.00    -0.166 F 
ATOM     27  F   LIG d   1       4.354  -1.032  -1.190  0.00  0.00    -0.166 F 
ATOM     28  F   LIG d   1       4.904   1.176  -1.396  0.00  0.00    -0.166 F 
ENDBRANCH   3  25
TORSDOF 5
ENDMDL
MODEL 7
REMARK VINA RESULT:      -5.5      4.354      6.895
REMARK  5 active torsions:
REMARK  status: ('A' for Active; 'I' for Inactive)
REMARK    1  A    between atoms: C_3  and  C_14 
REMARK    2  A    between atoms: C_5  and  N_7 
REMARK       I    between atoms: N_7  and  C_8 
REMARK       I    between atoms: C_8  and  N_10 
REMARK    3  A    between atoms: N_10  and  C_11 
REMARK    4  A    between atoms: C_11  and  C_12 
REMARK    5  A    between atoms: C_12  and  O_13 
ROOT
ATOM      1  C   LIG d   1       3.585   2.427  -9.614  0.00  0.00    -0.059 A 
ATOM      2  C   LIG d   1       3.704   1.593 -10.711  0.00  0.00    -0.050 A 
ATOM      3  C   LIG d   1       3.392   0.251 -10.599  0.00  0.00     0.057 A 
ATOM      4  C   LIG d   1       2.961  -0.262  -9.390  0.00  0.00    -0.029 A 
ATOM      5  C   LIG d   1       2.839   0.574  -8.288  0.00  0.00     0.035 A 
ATOM      6  C   LIG d   1       3.154   1.922  -8.404  0.00  0.00    -0.040 A 
ATOM      7  H   LIG d   1       3.833   3.474  -9.704  0.00  0.00     0.062 H 
ATOM      8  H   LIG d   1       4.042   1.992 -11.657  0.00  0.00     0.062 H 
ATOM      9  H   LIG d   1       2.718  -1.310  -9.304  0.00  0.00     0.064 H 
ATOM     10  H   LIG d   1       3.061   2.574  -7.548  0.00  0.00     0.064 H 
ENDROOT
BRANCH   5  11
ATOM     11  N   LIG d   1       2.402   0.058  -7.063  0.00  0.00    -0.270 N 
ATOM     12  C   LIG d   1       3.264  -0.056  -6.033  0.00  0.00     0.304 C 
ATOM     13  O   LIG d   1       4.395   0.379  -6.136  0.00  0.00    -0.253 OA
ATOM     14  N   LIG d   1       2.872  -0.650  -4.889  0.00  0.00    -0.297 N 
ATOM     15  H   LIG d   1       1.970  -0.997  -4.806  0.00  0.00     0.150 HD
ATOM     16  H   LIG d   1       1.478  -0.218  -6.955  0.00  0.00     0.156 HD
BRANCH  14  17
ATOM     17  C   LIG d   1       3.809  -0.774  -3.770  0.00  0.00     0.036 C 
ATOM     18  H   LIG d   1       3.666  -1.737  -3.280  0.00  0.00     0.049 H 
ATOM     19  H   LIG d   1       4.832  -0.703  -4.142  0.00  0.00     0.049 H 
BRANCH  17  20
ATOM     20  C   LIG d   1       3.555   0.351  -2.764  0.00  0.00     0.060 C 
ATOM     21  H   LIG d   1       2.483   0.529  -2.680  0.00  0.00     0.057 H 
ATOM     22  H   LIG d   1       3.953   0.064  -1.791  0.00  0.00     0.057 H 
BRANCH  20  23
ATOM     23  O   LIG d   1       4.204   1.544  -3.210  0.00  0.00    -0.394 OA
ATOM     24  H   LIG d   1       4.663   2.027  -2.510  0.00  0.00     0.209 HD
ENDBRANCH  20  23
ENDBRANCH  17  20
ENDBRANCH  14  17
ENDBRANCH   5  11
BRANCH   3  25
ATOM     25  C   LIG d   1       3.524  -0.655 -11.796  0.00  0.00     0.417 C 
ATOM     26  F   LIG d   1       2.255  -0.922 -12.320  0.00  0.00    -0.166 F 
ATOM     27  F   LIG d   1       4.309  -0.029 -12.771  0.00  0.00    -0.166 F 
ATOM     28  F   LIG d   1       4.131  -1.854 -11.408  0.00  0.00    -0.166 F 
ENDBRANCH   3  25
TORSDOF 5
ENDMDL
MODEL 8
REMARK VINA RESULT:      -5.4      5.307      7.456
REMARK  5 active torsions:
REMARK  status: ('A' for Active; 'I' for Inactive)
REMARK    1  A    between atoms: C_3  and  C_14 
REMARK    2  A    between atoms: C_5  and  N_7 
REMARK       I    between atoms: N_7  and  C_8 
REMARK       I    between atoms: C_8  and  N_10 
REMARK    3  A    between atoms: N_10  and  C_11 
REMARK    4  A    between atoms: C_11  and  C_12 
REMARK    5  A    between atoms: C_12  and  O_13 
ROOT
ATOM      1  C   LIG d   1       3.810  -0.162 -11.975  0.00  0.00    -0.059 A 
ATOM      2  C   LIG d   1       4.015   0.659 -10.880  0.00  0.00    -0.050 A 
ATOM      3  C   LIG d   1       3.121   0.644  -9.826  0.00  0.00     0.057 A 
ATOM      4  C   LIG d   1       2.019  -0.190  -9.864  0.00  0.00    -0.029 A 
ATOM      5  C   LIG d   1       1.812  -1.015 -10.961  0.00  0.00     0.035 A 
ATOM      6  C   LIG d   1       2.713  -0.998 -12.019  0.00  0.00    -0.040 A 
ATOM      7  H   LIG d   1       4.508  -0.145 -12.799  0.00  0.00     0.062 H 
ATOM      8  H   LIG d   1       4.875   1.312 -10.850  0.00  0.00     0.062 H 
ATOM      9  H   LIG d   1       1.322  -0.201  -9.040  0.00  0.00     0.064 H 
ATOM     10  H   LIG d   1       2.554  -1.638 -12.874  0.00  0.00     0.064 H 
ENDROOT
BRANCH   5  11
ATOM     11  N   LIG d   1       0.698  -1.861 -11.001  0.00  0.00    -0.270 N 
ATOM     12  C   LIG d   1       0.792  -3.122 -10.538  0.00  0.00     0.304 C 
ATOM     13  O   LIG d   1       1.815  -3.496  -9.995  0.00  0.00    -0.253 OA
ATOM     14  N   LIG d   1      -0.247  -3.969 -10.674  0.00  0.00    -0.297 N 
ATOM     15  H   LIG d   1      -1.063  -3.671 -11.106  0.00  0.00     0.150 HD
ATOM     16  H   LIG d   1      -0.142  -1.538 -11.364  0.00  0.00     0.156 HD
BRANCH  14  17
ATOM     17  C   LIG d   1      -0.145  -5.341 -10.169  0.00  0.00     0.036 C 
ATOM     18  H   LIG d   1       0.222  -5.993 -10.962  0.00  0.00     0.049 H 
ATOM     19  H   LIG d   1       0.547  -5.368  -9.327  0.00  0.00     0.049 H 
BRANCH  17  20
ATOM     20  C   LIG d   1      -1.524  -5.821  -9.712  0.00  0.00     0.060 C 
ATOM     21  H   LIG d   1      -2.249  -5.018  -9.836  0.00  0.00     0.057 H 
ATOM     22  H   LIG d   1      -1.826  -6.680 -10.313  0.00  0.00     0.057 H 
BRANCH  20  23
ATOM     23  O   LIG d   1      -1.463  -6.202  -8.336  0.00  0.00    -0.394 OA
ATOM     24  H   LIG d   1      -1.412  -7.157  -8.194  0.00  0.00     0.209 HD
ENDBRANCH  20  23
ENDBRANCH  17  20
ENDBRANCH  14  17
ENDBRANCH   5  11
BRANCH   3  25
ATOM     25  C   LIG d   1       3.346   1.539  -8.636  0.00  0.00     0.417 C 
ATOM     26  F   LIG d   1       4.522   2.276  -8.822  0.00  0.00    -0.166 F 
ATOM     27  F   LIG d   1       2.264   2.415  -8.498  0.00  0.00    -0.166 F 
ATOM     28  F   LIG d   1       3.464   0.759  -7.481  0.00  0.00    -0.166 F 
ENDBRANCH   3  25
TORSDOF 5
ENDMDL
MODEL 9
REMARK VINA RESULT:      -5.3      4.104      4.780
REMARK  5 active torsions:
REMARK  status: ('A' for Active; 'I' for Inactive)
REMARK    1  A    between atoms: C_3  and  C_14 
REMARK    2  A    between atoms: C_5  and  N_7 
REMARK       I    between atoms: N_7  and  C_8 
REMARK       I    between atoms: C_8  and  N_10 
REMARK    3  A    between atoms: N_10  and  C_11 
REMARK    4  A    between atoms: C_11  and  C_12 
REMARK    5  A    between atoms: C_12  and  O_13 
ROOT
ATOM      1  C   LIG d   1       6.104  -3.108  -5.049  0.00  0.00    -0.059 A 
ATOM      2  C   LIG d   1       5.046  -2.937  -4.173  0.00  0.00    -0.050 A 
ATOM      3  C   LIG d   1       5.055  -1.890  -3.272  0.00  0.00     0.057 A 
ATOM      4  C   LIG d   1       6.120  -1.009  -3.242  0.00  0.00    -0.029 A 
ATOM      5  C   LIG d   1       7.182  -1.178  -4.120  0.00  0.00     0.035 A 
ATOM      6  C   LIG d   1       7.171  -2.232  -5.025  0.00  0.00    -0.040 A 
ATOM      7  H   LIG d   1       6.097  -3.929  -5.749  0.00  0.00     0.062 H 
ATOM      8  H   LIG d   1       4.213  -3.625  -4.195  0.00  0.00     0.062 H 
ATOM      9  H   LIG d   1       6.125  -0.192  -2.537  0.00  0.00     0.064 H 
ATOM     10  H   LIG d   1       7.996  -2.365  -5.709  0.00  0.00     0.064 H 
ENDROOT
BRANCH   5  11
ATOM     11  N   LIG d   1       8.261  -0.288  -4.092  0.00  0.00    -0.270 N 
ATOM     12  C   LIG d   1       8.183   0.888  -4.746  0.00  0.00     0.304 C 
ATOM     13  O   LIG d   1       7.141   1.219  -5.279  0.00  0.00    -0.253 OA
ATOM     14  N   LIG d   1       9.259   1.697  -4.809  0.00  0.00    -0.297 N 
ATOM     15  H   LIG d   1      10.090   1.433  -4.384  0.00  0.00     0.150 HD
ATOM     16  H   LIG d   1       9.067  -0.518  -3.602  0.00  0.00     0.156 HD
BRANCH  14  17
ATOM     17  C   LIG d   1       9.174   2.974  -5.520  0.00  0.00     0.036 C 
ATOM     18  H   LIG d   1       8.142   3.325  -5.516  0.00  0.00     0.049 H 
ATOM     19  H   LIG d   1       9.810   3.709  -5.026  0.00  0.00     0.049 H 
BRANCH  17  20
ATOM     20  C   LIG d   1       9.642   2.787  -6.965  0.00  0.00     0.060 C 
ATOM     21  H   LIG d   1      10.107   3.706  -7.320  0.00  0.00     0.057 H 
ATOM     22  H   LIG d   1      10.366   1.973  -7.009  0.00  0.00     0.057 H 
BRANCH  20  23
ATOM     23  O   LIG d   1       8.520   2.469  -7.792  0.00  0.00    -0.394 OA
ATOM     24  H   LIG d   1       7.696   2.340  -7.302  0.00  0.00     0.209 HD
ENDBRANCH  20  23
ENDBRANCH  17  20
ENDBRANCH  14  17
ENDBRANCH   5  11
BRANCH   3  25
ATOM     25  C   LIG d   1       3.901  -1.708  -2.319  0.00  0.00     0.417 C 
ATOM     26  F   LIG d   1       2.847  -1.067  -2.980  0.00  0.00    -0.166 F 
ATOM     27  F   LIG d   1       3.473  -2.958  -1.860  0.00  0.00    -0.166 F 
ATOM     28  F   LIG d   1       4.313  -0.928  -1.233  0.00  0.00    -0.166 F 
ENDBRANCH   3  25
TORSDOF 5
ENDMDL
MODEL 10
REMARK VINA RESULT:      -5.1     10.100     11.098
REMARK  5 active torsions:
REMARK  status: ('A' for Active; 'I' for Inactive)
REMARK    1  A    between atoms: C_3  and  C_14 
REMARK    2  A    between atoms: C_5  and  N_7 
REMARK       I    between atoms: N_7  and  C_8 
REMARK       I    between atoms: C_8  and  N_10 
REMARK    3  A    between atoms: N_10  and  C_11 
REMARK    4  A    between atoms: C_11  and  C_12 
REMARK    5  A    between atoms: C_12  and  O_13 
ROOT
ATOM      1  C   LIG d   1      11.782   5.948   0.301  0.00  0.00    -0.059 A 
ATOM      2  C   LIG d   1      11.627   4.977  -0.673  0.00  0.00    -0.050 A 
ATOM      3  C   LIG d   1      10.723   5.164  -1.701  0.00  0.00     0.057 A 
ATOM      4  C   LIG d   1       9.969   6.321  -1.759  0.00  0.00    -0.029 A 
ATOM      5  C   LIG d   1      10.123   7.297  -0.784  0.00  0.00     0.035 A 
ATOM      6  C   LIG d   1      11.033   7.106   0.248  0.00  0.00    -0.040 A 
ATOM      7  H   LIG d   1      12.486   5.797   1.105  0.00  0.00     0.062 H 
ATOM      8  H   LIG d   1      12.215   4.072  -0.629  0.00  0.00     0.062 H 
ATOM      9  H   LIG d   1       9.263   6.466  -2.562  0.00  0.00     0.064 H 
ATOM     10  H   LIG d   1      11.154   7.864   1.009  0.00  0.00     0.064 H 
ENDROOT
BRANCH   5  11
ATOM     11  N   LIG d   1       9.362   8.470  -0.840  0.00  0.00    -0.270 N 
ATOM     12  C   LIG d   1       9.828   9.546  -1.504  0.00  0.00     0.304 C 
ATOM     13  O   LIG d   1      10.865   9.467  -2.135  0.00  0.00    -0.253 OA
ATOM     14  N   LIG d   1       9.147  10.707  -1.469  0.00  0.00    -0.297 N 
ATOM     15  H   LIG d   1       8.320  10.770  -0.965  0.00  0.00     0.150 HD
ATOM     16  H   LIG d   1       8.497   8.508  -0.400  0.00  0.00     0.156 HD
BRANCH  14  17
ATOM     17  C   LIG d   1       9.655  11.877  -2.191  0.00  0.00     0.036 C 
ATOM     18  H   LIG d   1       9.744  12.718  -1.503  0.00  0.00     0.049 H 
ATOM     19  H   LIG d   1      10.633  11.646  -2.613  0.00  0.00     0.049 H 
BRANCH  17  20
ATOM     20  C   LIG d   1       8.686  12.241  -3.318  0.00  0.00     0.060 C 
ATOM     21  H   LIG d   1       8.574  13.324  -3.366  0.00  0.00     0.057 H 
ATOM     22  H   LIG d   1       9.079  11.875  -4.267  0.00  0.00     0.057 H 
BRANCH  20  23
ATOM     23  O   LIG d   1       7.414  11.640  -3.066  0.00  0.00    -0.394 OA
ATOM     24  H   LIG d   1       6.941  12.023  -2.315  0.00  0.00     0.209 HD
ENDBRANCH  20  23
ENDBRANCH  17  20
ENDBRANCH  14  17
ENDBRANCH   5  11
BRANCH   3  25
ATOM     25  C   LIG d   1      10.557   4.104  -2.759  0.00  0.00     0.417 C 
ATOM     26  F   LIG d   1      11.494   4.311  -3.777  0.00  0.00    -0.166 F 
ATOM     27  F   LIG d   1      10.756   2.842  -2.191  0.00  0.00    -0.166 F 
ATOM     28  F   LIG d   1       9.265   4.177  -3.293  0.00  0.00    -0.166 F 
ENDBRANCH   3  25
TORSDOF 5
ENDMDL
