MODEL 1
REMARK VINA RESULT:      -6.0      0.000      0.000
REMARK  5 active torsions:
REMARK  status: ('A' for Active; 'I' for Inactive)
REMARK    1  A    between atoms: C_1  and  C_2 
REMARK    2  A    between atoms: C_2  and  C_3 
REMARK    3  A    between atoms: C_3  and  C_4 
REMARK    4  A    between atoms: C_4  and  N_5 
REMARK    5  A    between atoms: C_17  and  N_18 
ROOT
ATOM      1  N   LIG d   1       5.818  -0.598  -4.108  0.00  0.00    -0.277 N 
ATOM      2  C   LIG d   1       6.430  -1.868  -3.710  0.00  0.00     0.022 A 
ATOM      3  C   LIG d   1       6.042  -2.869  -4.812  0.00  0.00    -0.002 A 
ATOM      4  C   LIG d   1       5.212  -2.057  -5.780  0.00  0.00     0.063 A 
ATOM      5  C   LIG d   1       5.121  -0.750  -5.300  0.00  0.00     0.277 A 
ATOM      6  N   LIG d   1       4.433   0.166  -5.974  0.00  0.00    -0.191 N 
ATOM      7  C   LIG d   1       3.805  -0.115  -7.120  0.00  0.00     0.217 A 
ATOM      8  C   LIG d   1       3.086   0.876  -7.810  0.00  0.00     0.011 A 
ATOM      9  C   LIG d   1       2.454   0.566  -8.975  0.00  0.00    -0.042 A 
ATOM     10  C   LIG d   1       2.506  -0.724  -9.499  0.00  0.00     0.019 A 
ATOM     11  C   LIG d   1       3.195  -1.710  -8.855  0.00  0.00    -0.033 A 
ATOM     12  C   LIG d   1       3.856  -1.423  -7.655  0.00  0.00     0.068 A 
ATOM     13  C   LIG d   1       4.591  -2.415  -6.960  0.00  0.00     0.049 A 
ATOM     14 BR   LIG d   1       1.614  -1.112 -11.121  0.00  0.00    -0.050 Br
ATOM     15  H   LIG d   1       7.513  -1.765  -3.658  0.00  0.00     0.047 H 
ATOM     16  H   LIG d   1       6.034  -2.194  -2.748  0.00  0.00     0.047 H 
ATOM     17  H   LIG d   1       6.934  -3.255  -5.305  0.00  0.00     0.033 H 
ATOM     18  H   LIG d   1       5.452  -3.684  -4.395  0.00  0.00     0.033 H 
ATOM     19  H   LIG d   1       3.034   1.881  -7.418  0.00  0.00     0.068 H 
ATOM     20  H   LIG d   1       1.903   1.331  -9.502  0.00  0.00     0.063 H 
ATOM     21  H   LIG d   1       3.229  -2.707  -9.269  0.00  0.00     0.064 H 
ATOM     22  H   LIG d   1       4.386   1.069  -5.624  0.00  0.00     0.455 HD
ENDROOT
BRANCH   1  23
ATOM     23  C   LIG d   1       5.920   0.652  -3.351  0.00  0.00     0.017 C 
ATOM     24  H   LIG d   1       5.587   1.482  -3.975  0.00  0.00     0.046 H 
ATOM     25  H   LIG d   1       6.957   0.813  -3.055  0.00  0.00     0.046 H 
BRANCH  23  26
ATOM     26  C   LIG d   1       5.040   0.566  -2.103  0.00  0.00    -0.037 C 
ATOM     27  H   LIG d   1       5.431   1.233  -1.335  0.00  0.00     0.028 H 
ATOM     28  H   LIG d   1       5.038  -0.458  -1.729  0.00  0.00     0.028 H 
BRANCH  26  29
ATOM     29  C   LIG d   1       3.610   0.980  -2.458  0.00  0.00    -0.054 C 
ATOM     30  H   LIG d   1       3.624   1.607  -3.349  0.00  0.00     0.026 H 
ATOM     31  H   LIG d   1       3.177   1.538  -1.628  0.00  0.00     0.026 H 
BRANCH  29  32
ATOM     32  C   LIG d   1       2.769  -0.269  -2.726  0.00  0.00    -0.065 C 
ATOM     33  H   LIG d   1       2.920  -0.594  -3.756  0.00  0.00     0.023 H 
ATOM     34  H   LIG d   1       3.072  -1.065  -2.045  0.00  0.00     0.023 H 
ATOM     35  H   LIG d   1       1.716  -0.038  -2.569  0.00  0.00     0.023 H 
ENDBRANCH  29  32
ENDBRANCH  26  29
ENDBRANCH  23  26
ENDBRANCH   1  23
BRANCH  13  36
ATOM     36  N   LIG d   1       4.671  -3.713  -7.442  0.00  0.00    -0.357 N 
ATOM     37  H   LIG d   1       5.458  -4.250  -7.262  0.00  0.00     0.142 HD
ATOM     38  H   LIG d   1       3.939  -4.085  -7.959  0.00  0.00     0.142 HD
ENDBRANCH  13  36
TORSDOF 5
ENDMDL
MODEL 2
REMARK VINA RESULT:      -5.4      3.165      5.895
REMARK  5 active torsions:
REMARK  status: ('A' for Active; 'I' for Inactive)
REMARK    1  A    between atoms: C_1  and  C_2 
REMARK    2  A    between atoms: C_2  and  C_3 
REMARK    3  A    between atoms: C_3  and  C_4 
REMARK    4  A    between atoms: C_4  and  N_5 
REMARK    5  A    between atoms: C_17  and  N_18 
ROOT
ATOM      1  N   LIG d   1       3.242   0.159  -6.479  0.00  0.00    -0.277 N 
ATOM      2  C   LIG d   1       2.263   0.636  -5.500  0.00  0.00     0.022 A 
ATOM      3  C   LIG d   1       2.787   0.158  -4.135  0.00  0.00    -0.002 A 
ATOM      4  C   LIG d   1       4.066  -0.578  -4.462  0.00  0.00     0.063 A 
ATOM      5  C   LIG d   1       4.260  -0.540  -5.844  0.00  0.00     0.277 A 
ATOM      6  N   LIG d   1       5.321  -1.126  -6.389  0.00  0.00    -0.191 N 
ATOM      7  C   LIG d   1       6.234  -1.772  -5.656  0.00  0.00     0.217 A 
ATOM      8  C   LIG d   1       7.346  -2.381  -6.262  0.00  0.00     0.011 A 
ATOM      9  C   LIG d   1       8.263  -3.032  -5.494  0.00  0.00    -0.042 A 
ATOM     10  C   LIG d   1       8.118  -3.106  -4.110  0.00  0.00     0.019 A 
ATOM     11  C   LIG d   1       7.050  -2.527  -3.490  0.00  0.00    -0.033 A 
ATOM     12  C   LIG d   1       6.090  -1.849  -4.252  0.00  0.00     0.068 A 
ATOM     13  C   LIG d   1       4.972  -1.223  -3.645  0.00  0.00     0.049 A 
ATOM     14 BR   LIG d   1       9.414  -4.021  -3.082  0.00  0.00    -0.050 Br
ATOM     15  H   LIG d   1       2.206   1.724  -5.521  0.00  0.00     0.047 H 
ATOM     16  H   LIG d   1       1.283   0.201  -5.702  0.00  0.00     0.047 H 
ATOM     17  H   LIG d   1       2.992   1.009  -3.487  0.00  0.00     0.033 H 
ATOM     18  H   LIG d   1       2.070  -0.516  -3.666  0.00  0.00     0.033 H 
ATOM     19  H   LIG d   1       7.473  -2.333  -7.333  0.00  0.00     0.068 H 
ATOM     20  H   LIG d   1       9.116  -3.498  -5.965  0.00  0.00     0.063 H 
ATOM     21  H   LIG d   1       6.946  -2.591  -2.417  0.00  0.00     0.064 H 
ATOM     22  H   LIG d   1       5.437  -1.085  -7.351  0.00  0.00     0.455 HD
ENDROOT
BRANCH   1  23
ATOM     23  C   LIG d   1       3.155   0.381  -7.924  0.00  0.00     0.017 C 
ATOM     24  H   LIG d   1       2.369  -0.248  -8.342  0.00  0.00     0.046 H 
ATOM     25  H   LIG d   1       4.108   0.128  -8.389  0.00  0.00     0.046 H 
BRANCH  23  26
ATOM     26  C   LIG d   1       2.829   1.852  -8.196  0.00  0.00    -0.037 C 
ATOM     27  H   LIG d   1       2.855   2.409  -7.259  0.00  0.00     0.028 H 
ATOM     28  H   LIG d   1       1.835   1.928  -8.637  0.00  0.00     0.028 H 
BRANCH  26  29
ATOM     29  C   LIG d   1       3.863   2.432  -9.163  0.00  0.00    -0.054 C 
ATOM     30  H   LIG d   1       4.856   2.362  -8.719  0.00  0.00     0.026 H 
ATOM     31  H   LIG d   1       3.628   3.477  -9.363  0.00  0.00     0.026 H 
BRANCH  29  32
ATOM     32  C   LIG d   1       3.833   1.643 -10.474  0.00  0.00    -0.065 C 
ATOM     33  H   LIG d   1       3.476   2.288 -11.277  0.00  0.00     0.023 H 
ATOM     34  H   LIG d   1       4.837   1.290 -10.709  0.00  0.00     0.023 H 
ATOM     35  H   LIG d   1       3.162   0.790 -10.369  0.00  0.00     0.023 H 
ENDBRANCH  29  32
ENDBRANCH  26  29
ENDBRANCH  23  26
ENDBRANCH   1  23
BRANCH  13  36
ATOM     36  N   LIG d   1       4.785  -1.272  -2.271  0.00  0.00    -0.357 N 
ATOM     37  H   LIG d   1       4.421  -0.504  -1.804  0.00  0.00     0.142 HD
ATOM     38  H   LIG d   1       5.018  -2.075  -1.778  0.00  0.00     0.142 HD
ENDBRANCH  13  36
TORSDOF 5
ENDMDL
MODEL 3
REMARK VINA RESULT:      -5.4      3.718      5.275
REMARK  5 active torsions:
REMARK  status: ('A' for Active; 'I' for Inactive)
REMARK    1  A    between atoms: C_1  and  C_2 
REMARK    2  A    between atoms: C_2  and  C_3 
REMARK    3  A    between atoms: C_3  and  C_4 
REMARK    4  A    between atoms: C_4  and  N_5 
REMARK    5  A    between atoms: C_17  and  N_18 
ROOT
ATOM      1  N   LIG d   1       5.481  -1.401  -4.181  0.00  0.00    -0.277 N 
ATOM      2  C   LIG d   1       4.899  -2.149  -5.298  0.00  0.00     0.022 A 
ATOM      3  C   LIG d   1       5.508  -1.526  -6.565  0.00  0.00    -0.002 A 
ATOM      4  C   LIG d   1       6.419  -0.437  -6.047  0.00  0.00     0.063 A 
ATOM      5  C   LIG d   1       6.345  -0.422  -4.653  0.00  0.00     0.277 A 
ATOM      6  N   LIG d   1       7.056   0.457  -3.953  0.00  0.00    -0.191 N 
ATOM      7  C   LIG d   1       7.856   1.354  -4.538  0.00  0.00     0.217 A 
ATOM      8  C   LIG d   1       8.595   2.270  -3.770  0.00  0.00     0.011 A 
ATOM      9  C   LIG d   1       9.404   3.174  -4.388  0.00  0.00    -0.042 A 
ATOM     10  C   LIG d   1       9.513   3.208  -5.777  0.00  0.00     0.019 A 
ATOM     11  C   LIG d   1       8.809   2.334  -6.553  0.00  0.00    -0.033 A 
ATOM     12  C   LIG d   1       7.969   1.392  -5.947  0.00  0.00     0.068 A 
ATOM     13  C   LIG d   1       7.230   0.458  -6.715  0.00  0.00     0.049 A 
ATOM     14 BR   LIG d   1      10.648   4.480  -6.595  0.00  0.00    -0.050 Br
ATOM     15  H   LIG d   1       5.168  -3.203  -5.229  0.00  0.00     0.047 H 
ATOM     16  H   LIG d   1       3.814  -2.035  -5.304  0.00  0.00     0.047 H 
ATOM     17  H   LIG d   1       6.080  -2.270  -7.117  0.00  0.00     0.033 H 
ATOM     18  H   LIG d   1       4.726  -1.101  -7.194  0.00  0.00     0.033 H 
ATOM     19  H   LIG d   1       8.522   2.257  -2.693  0.00  0.00     0.068 H 
ATOM     20  H   LIG d   1       9.970   3.875  -3.794  0.00  0.00     0.063 H 
ATOM     21  H   LIG d   1       8.900   2.369  -7.628  0.00  0.00     0.064 H 
ATOM     22  H   LIG d   1       6.991   0.448  -2.985  0.00  0.00     0.455 HD
ENDROOT
BRANCH   1  23
ATOM     23  C   LIG d   1       5.188  -1.648  -2.767  0.00  0.00     0.017 C 
ATOM     24  H   LIG d   1       5.791  -0.982  -2.150  0.00  0.00     0.046 H 
ATOM     25  H   LIG d   1       5.425  -2.684  -2.523  0.00  0.00     0.046 H 
BRANCH  23  26
ATOM     26  C   LIG d   1       3.704  -1.386  -2.500  0.00  0.00    -0.037 C 
ATOM     27  H   LIG d   1       3.440  -1.764  -1.513  0.00  0.00     0.028 H 
ATOM     28  H   LIG d   1       3.105  -1.893  -3.257  0.00  0.00     0.028 H 
BRANCH  26  29
ATOM     29  C   LIG d   1       3.434   0.118  -2.560  0.00  0.00    -0.054 C 
ATOM     30  H   LIG d   1       2.420   0.320  -2.215  0.00  0.00     0.026 H 
ATOM     31  H   LIG d   1       3.543   0.467  -3.587  0.00  0.00     0.026 H 
BRANCH  29  32
ATOM     32  C   LIG d   1       4.434   0.852  -1.664  0.00  0.00    -0.065 C 
ATOM     33  H   LIG d   1       5.317   0.229  -1.520  0.00  0.00     0.023 H 
ATOM     34  H   LIG d   1       4.724   1.791  -2.135  0.00  0.00     0.023 H 
ATOM     35  H   LIG d   1       3.972   1.057  -0.698  0.00  0.00     0.023 H 
ENDBRANCH  29  32
ENDBRANCH  26  29
ENDBRANCH  23  26
ENDBRANCH   1  23
BRANCH  13  36
ATOM     36  N   LIG d   1       7.305   0.455  -8.101  0.00  0.00    -0.357 N 
ATOM     37  H   LIG d   1       7.789  -0.250  -8.559  0.00  0.00     0.142 HD
ATOM     38  H   LIG d   1       6.873   1.158  -8.612  0.00  0.00     0.142 HD
ENDBRANCH  13  36
TORSDOF 5
ENDMDL
MODEL 4
REMARK VINA RESULT:      -5.3      2.870      5.664
REMARK  5 active torsions:
REMARK  status: ('A' for Active; 'I' for Inactive)
REMARK    1  A    between atoms: C_1  and  C_2 
REMARK    2  A    between atoms: C_2  and  C_3 
REMARK    3  A    between atoms: C_3  and  C_4 
REMARK    4  A    between atoms: C_4  and  N_5 
REMARK    5  A    between atoms: C_17  and  N_18 
ROOT
ATOM      1  N   LIG d   1       3.760  -1.946  -9.406  0.00  0.00    -0.277 N 
ATOM      2  C   LIG d   1       4.946  -2.654  -9.893  0.00  0.00     0.022 A 
ATOM      3  C   LIG d   1       5.953  -2.606  -8.732  0.00  0.00    -0.002 A 
ATOM      4  C   LIG d   1       5.232  -1.847  -7.642  0.00  0.00     0.063 A 
ATOM      5  C   LIG d   1       3.967  -1.491  -8.110  0.00  0.00     0.277 A 
ATOM      6  N   LIG d   1       3.133  -0.805  -7.335  0.00  0.00    -0.191 N 
ATOM      7  C   LIG d   1       3.460  -0.427  -6.096  0.00  0.00     0.217 A 
ATOM      8  C   LIG d   1       2.555   0.297  -5.300  0.00  0.00     0.011 A 
ATOM      9  C   LIG d   1       2.911   0.671  -4.040  0.00  0.00    -0.042 A 
ATOM     10  C   LIG d   1       4.164   0.348  -3.522  0.00  0.00     0.019 A 
ATOM     11  C   LIG d   1       5.066  -0.353  -4.268  0.00  0.00    -0.033 A 
ATOM     12  C   LIG d   1       4.730  -0.753  -5.566  0.00  0.00     0.068 A 
ATOM     13  C   LIG d   1       5.634  -1.492  -6.370  0.00  0.00     0.049 A 
ATOM     14 BR   LIG d   1       4.617   0.888  -1.768  0.00  0.00    -0.050 Br
ATOM     15  H   LIG d   1       4.696  -3.688 -10.133  0.00  0.00     0.047 H 
ATOM     16  H   LIG d   1       5.354  -2.151 -10.769  0.00  0.00     0.047 H 
ATOM     17  H   LIG d   1       6.196  -3.614  -8.397  0.00  0.00     0.033 H 
ATOM     18  H   LIG d   1       6.856  -2.075  -9.033  0.00  0.00     0.033 H 
ATOM     19  H   LIG d   1       1.581   0.556  -5.687  0.00  0.00     0.068 H 
ATOM     20  H   LIG d   1       2.212   1.227  -3.433  0.00  0.00     0.063 H 
ATOM     21  H   LIG d   1       6.034  -0.597  -3.857  0.00  0.00     0.064 H 
ATOM     22  H   LIG d   1       2.257  -0.571  -7.680  0.00  0.00     0.455 HD
ENDROOT
BRANCH   1  23
ATOM     23  C   LIG d   1       2.533  -1.740 -10.180  0.00  0.00     0.017 C 
ATOM     24  H   LIG d   1       1.688  -2.164  -9.639  0.00  0.00     0.046 H 
ATOM     25  H   LIG d   1       2.629  -2.231 -11.149  0.00  0.00     0.046 H 
BRANCH  23  26
ATOM     26  C   LIG d   1       2.307  -0.241 -10.388  0.00  0.00    -0.037 C 
ATOM     27  H   LIG d   1       2.246   0.255  -9.419  0.00  0.00     0.028 H 
ATOM     28  H   LIG d   1       1.376  -0.087 -10.934  0.00  0.00     0.028 H 
BRANCH  26  29
ATOM     29  C   LIG d   1       3.471   0.344 -11.190  0.00  0.00    -0.054 C 
ATOM     30  H   LIG d   1       3.142   0.558 -12.206  0.00  0.00     0.026 H 
ATOM     31  H   LIG d   1       4.290  -0.373 -11.217  0.00  0.00     0.026 H 
BRANCH  29  32
ATOM     32  C   LIG d   1       3.948   1.638 -10.525  0.00  0.00    -0.065 C 
ATOM     33  H   LIG d   1       4.975   1.843 -10.827  0.00  0.00     0.023 H 
ATOM     34  H   LIG d   1       3.306   2.463 -10.834  0.00  0.00     0.023 H 
ATOM     35  H   LIG d   1       3.903   1.527  -9.442  0.00  0.00     0.023 H 
ENDBRANCH  29  32
ENDBRANCH  26  29
ENDBRANCH  23  26
ENDBRANCH   1  23
BRANCH  13  36
ATOM     36  N   LIG d   1       6.892  -1.836  -5.897  0.00  0.00    -0.357 N 
ATOM     37  H   LIG d   1       7.136  -1.639  -4.979  0.00  0.00     0.142 HD
ATOM     38  H   LIG d   1       7.528  -2.273  -6.485  0.00  0.00     0.142 HD
ENDBRANCH  13  36
TORSDOF 5
ENDMDL
MODEL 5
REMARK VINA RESULT:      -5.2      8.273     11.127
REMARK  5 active torsions:
REMARK  status: ('A' for Active; 'I' for Inactive)
REMARK    1  A    between atoms: C_1  and  C_2 
REMARK    2  A    between atoms: C_2  and  C_3 
REMARK    3  A    between atoms: C_3  and  C_4 
REMARK    4  A    between atoms: C_4  and  N_5 
REMARK    5  A    between atoms: C_17  and  N_18 
ROOT
ATOM      1  N   LIG d   1       9.627   3.912  -3.657  0.00  0.00    -0.277 N 
ATOM      2  C   LIG d   1       9.192   4.428  -4.957  0.00  0.00     0.022 A 
ATOM      3  C   LIG d   1       9.275   5.959  -4.834  0.00  0.00    -0.002 A 
ATOM      4  C   LIG d   1       9.767   6.195  -3.425  0.00  0.00     0.063 A 
ATOM      5  C   LIG d   1       9.943   4.959  -2.802  0.00  0.00     0.277 A 
ATOM      6  N   LIG d   1      10.368   4.896  -1.544  0.00  0.00    -0.191 N 
ATOM      7  C   LIG d   1      10.638   5.990  -0.827  0.00  0.00     0.217 A 
ATOM      8  C   LIG d   1      11.087   5.891   0.501  0.00  0.00     0.011 A 
ATOM      9  C   LIG d   1      11.357   7.020   1.211  0.00  0.00    -0.042 A 
ATOM     10  C   LIG d   1      11.195   8.282   0.642  0.00  0.00     0.019 A 
ATOM     11  C   LIG d   1      10.761   8.415  -0.644  0.00  0.00    -0.033 A 
ATOM     12  C   LIG d   1      10.475   7.272  -1.401  0.00  0.00     0.068 A 
ATOM     13  C   LIG d   1      10.033   7.367  -2.744  0.00  0.00     0.049 A 
ATOM     14 BR   LIG d   1      11.581   9.825   1.664  0.00  0.00    -0.050 Br
ATOM     15  H   LIG d   1       9.857   4.077  -5.745  0.00  0.00     0.047 H 
ATOM     16  H   LIG d   1       8.166   4.121  -5.162  0.00  0.00     0.047 H 
ATOM     17  H   LIG d   1       9.984   6.361  -5.557  0.00  0.00     0.033 H 
ATOM     18  H   LIG d   1       8.291   6.406  -4.974  0.00  0.00     0.033 H 
ATOM     19  H   LIG d   1      11.217   4.920   0.958  0.00  0.00     0.068 H 
ATOM     20  H   LIG d   1      11.702   6.938   2.231  0.00  0.00     0.063 H 
ATOM     21  H   LIG d   1      10.637   9.398  -1.075  0.00  0.00     0.064 H 
ATOM     22  H   LIG d   1      10.485   4.025  -1.132  0.00  0.00     0.455 HD
ENDROOT
BRANCH   1  23
ATOM     23  C   LIG d   1       9.709   2.491  -3.308  0.00  0.00     0.017 C 
ATOM     24  H   LIG d   1       9.343   2.346  -2.292  0.00  0.00     0.046 H 
ATOM     25  H   LIG d   1      10.746   2.161  -3.372  0.00  0.00     0.046 H 
BRANCH  23  26
ATOM     26  C   LIG d   1       8.853   1.676  -4.280  0.00  0.00    -0.037 C 
ATOM     27  H   LIG d   1       9.295   0.689  -4.414  0.00  0.00     0.028 H 
ATOM     28  H   LIG d   1       8.807   2.189  -5.241  0.00  0.00     0.028 H 
BRANCH  26  29
ATOM     29  C   LIG d   1       7.439   1.529  -3.713  0.00  0.00    -0.054 C 
ATOM     30  H   LIG d   1       6.734   2.055  -4.356  0.00  0.00     0.026 H 
ATOM     31  H   LIG d   1       7.403   1.954  -2.711  0.00  0.00     0.026 H 
BRANCH  29  32
ATOM     32  C   LIG d   1       7.067   0.046  -3.652  0.00  0.00    -0.065 C 
ATOM     33  H   LIG d   1       6.152  -0.122  -4.221  0.00  0.00     0.023 H 
ATOM     34  H   LIG d   1       7.874  -0.549  -4.078  0.00  0.00     0.023 H 
ATOM     35  H   LIG d   1       6.907  -0.245  -2.614  0.00  0.00     0.023 H 
ENDBRANCH  29  32
ENDBRANCH  26  29
ENDBRANCH  23  26
ENDBRANCH   1  23
BRANCH  13  36
ATOM     36  N   LIG d   1       9.856   8.601  -3.353  0.00  0.00    -0.357 N 
ATOM     37  H   LIG d   1      10.520   9.298  -3.238  0.00  0.00     0.142 HD
ATOM     38  H   LIG d   1       9.068   8.767  -3.894  0.00  0.00     0.142 HD
ENDBRANCH  13  36
TORSDOF 5
ENDMDL
MODEL 6
REMARK VINA RESULT:      -5.2      3.141      4.544
REMARK  5 active torsions:
REMARK  status: ('A' for Active; 'I' for Inactive)
REMARK    1  A    between atoms: C_1  and  C_2 
REMARK    2  A    between atoms: C_2  and  C_3 
REMARK    3  A    between atoms: C_3  and  C_4 
REMARK    4  A    between atoms: C_4  and  N_5 
REMARK    5  A    between atoms: C_17  and  N_18 
ROOT
ATOM      1  N   LIG d   1       4.875  -1.807  -4.605  0.00  0.00    -0.277 N 
ATOM      2  C   LIG d   1       4.622  -0.607  -5.406  0.00  0.00     0.022 A 
ATOM      3  C   LIG d   1       4.278  -1.122  -6.814  0.00  0.00    -0.002 A 
ATOM      4  C   LIG d   1       4.369  -2.626  -6.693  0.00  0.00     0.063 A 
ATOM      5  C   LIG d   1       4.726  -2.947  -5.383  0.00  0.00     0.277 A 
ATOM      6  N   LIG d   1       4.876  -4.218  -5.021  0.00  0.00    -0.191 N 
ATOM      7  C   LIG d   1       4.701  -5.229  -5.877  0.00  0.00     0.217 A 
ATOM      8  C   LIG d   1       4.866  -6.562  -5.463  0.00  0.00     0.011 A 
ATOM      9  C   LIG d   1       4.681  -7.575  -6.353  0.00  0.00    -0.042 A 
ATOM     10  C   LIG d   1       4.329  -7.313  -7.676  0.00  0.00     0.019 A 
ATOM     11  C   LIG d   1       4.161  -6.031  -8.111  0.00  0.00    -0.033 A 
ATOM     12  C   LIG d   1       4.343  -4.967  -7.219  0.00  0.00     0.068 A 
ATOM     13  C   LIG d   1       4.166  -3.622  -7.629  0.00  0.00     0.049 A 
ATOM     14 BR   LIG d   1       4.083  -8.750  -8.879  0.00  0.00    -0.050 Br
ATOM     15  H   LIG d   1       3.781  -0.048  -4.993  0.00  0.00     0.047 H 
ATOM     16  H   LIG d   1       5.513   0.020  -5.440  0.00  0.00     0.047 H 
ATOM     17  H   LIG d   1       3.269  -0.822  -7.093  0.00  0.00     0.033 H 
ATOM     18  H   LIG d   1       5.002  -0.754  -7.540  0.00  0.00     0.033 H 
ATOM     19  H   LIG d   1       5.140  -6.782  -4.442  0.00  0.00     0.068 H 
ATOM     20  H   LIG d   1       4.810  -8.597  -6.030  0.00  0.00     0.063 H 
ATOM     21  H   LIG d   1       3.889  -5.839  -9.138  0.00  0.00     0.064 H 
ATOM     22  H   LIG d   1       5.122  -4.417  -4.104  0.00  0.00     0.455 HD
ENDROOT
BRANCH   1  23
ATOM     23  C   LIG d   1       5.241  -1.803  -3.187  0.00  0.00     0.017 C 
ATOM     24  H   LIG d   1       6.122  -1.177  -3.041  0.00  0.00     0.046 H 
ATOM     25  H   LIG d   1       5.462  -2.822  -2.866  0.00  0.00     0.046 H 
BRANCH  23  26
ATOM     26  C   LIG d   1       4.079  -1.249  -2.361  0.00  0.00    -0.037 C 
ATOM     27  H   LIG d   1       3.809  -1.966  -1.585  0.00  0.00     0.028 H 
ATOM     28  H   LIG d   1       3.221  -1.077  -3.011  0.00  0.00     0.028 H 
BRANCH  26  29
ATOM     29  C   LIG d   1       4.499   0.071  -1.712  0.00  0.00    -0.054 C 
ATOM     30  H   LIG d   1       5.561   0.240  -1.886  0.00  0.00     0.026 H 
ATOM     31  H   LIG d   1       4.309   0.026  -0.640  0.00  0.00     0.026 H 
BRANCH  29  32
ATOM     32  C   LIG d   1       3.693   1.219  -2.324  0.00  0.00    -0.065 C 
ATOM     33  H   LIG d   1       2.820   1.421  -1.703  0.00  0.00     0.023 H 
ATOM     34  H   LIG d   1       4.315   2.112  -2.378  0.00  0.00     0.023 H 
ATOM     35  H   LIG d   1       3.368   0.940  -3.326  0.00  0.00     0.023 H 
ENDBRANCH  29  32
ENDBRANCH  26  29
ENDBRANCH  23  26
ENDBRANCH   1  23
BRANCH  13  36
ATOM     36  N   LIG d   1       3.817  -3.313  -8.935  0.00  0.00    -0.357 N 
ATOM     37  H   LIG d   1       2.933  -3.534  -9.266  0.00  0.00     0.142 HD
ATOM     38  H   LIG d   1       4.457  -2.874  -9.518  0.00  0.00     0.142 HD
ENDBRANCH  13  36
TORSDOF 5
ENDMDL
MODEL 7
REMARK VINA RESULT:      -5.2      2.081      3.447
REMARK  5 active torsions:
REMARK  status: ('A' for Active; 'I' for Inactive)
REMARK    1  A    between atoms: C_1  and  C_2 
REMARK    2  A    between atoms: C_2  and  C_3 
REMARK    3  A    between atoms: C_3  and  C_4 
REMARK    4  A    between atoms: C_4  and  N_5 
REMARK    5  A    between atoms: C_17  and  N_18 
ROOT
ATOM      1  N   LIG d   1       3.534  -0.636  -5.032  0.00  0.00    -0.277 N 
ATOM      2  C   LIG d   1       2.721   0.503  -4.598  0.00  0.00     0.022 A 
ATOM      3  C   LIG d   1       2.393   1.281  -5.884  0.00  0.00    -0.002 A 
ATOM      4  C   LIG d   1       3.070   0.493  -6.981  0.00  0.00     0.063 A 
ATOM      5  C   LIG d   1       3.718  -0.602  -6.408  0.00  0.00     0.277 A 
ATOM      6  N   LIG d   1       4.397  -1.454  -7.170  0.00  0.00    -0.191 N 
ATOM      7  C   LIG d   1       4.495  -1.304  -8.494  0.00  0.00     0.217 A 
ATOM      8  C   LIG d   1       5.220  -2.223  -9.273  0.00  0.00     0.011 A 
ATOM      9  C   LIG d   1       5.305  -2.049 -10.620  0.00  0.00    -0.042 A 
ATOM     10  C   LIG d   1       4.684  -0.971 -11.246  0.00  0.00     0.019 A 
ATOM     11  C   LIG d   1       3.972  -0.060 -10.521  0.00  0.00    -0.033 A 
ATOM     12  C   LIG d   1       3.865  -0.211  -9.133  0.00  0.00     0.068 A 
ATOM     13  C   LIG d   1       3.126   0.706  -8.344  0.00  0.00     0.049 A 
ATOM     14 BR   LIG d   1       4.828  -0.767 -13.120  0.00  0.00    -0.050 Br
ATOM     15  H   LIG d   1       1.804   0.154  -4.124  0.00  0.00     0.047 H 
ATOM     16  H   LIG d   1       3.288   1.131  -3.910  0.00  0.00     0.047 H 
ATOM     17  H   LIG d   1       1.316   1.312  -6.045  0.00  0.00     0.033 H 
ATOM     18  H   LIG d   1       2.801   2.290  -5.832  0.00  0.00     0.033 H 
ATOM     19  H   LIG d   1       5.709  -3.064  -8.803  0.00  0.00     0.068 H 
ATOM     20  H   LIG d   1       5.863  -2.758 -11.213  0.00  0.00     0.063 H 
ATOM     21  H   LIG d   1       3.495   0.773 -11.015  0.00  0.00     0.064 H 
ATOM     22  H   LIG d   1       4.836  -2.210  -6.750  0.00  0.00     0.455 HD
ENDROOT
BRANCH   1  23
ATOM     23  C   LIG d   1       4.081  -1.660  -4.139  0.00  0.00     0.017 C 
ATOM     24  H   LIG d   1       5.161  -1.534  -4.061  0.00  0.00     0.046 H 
ATOM     25  H   LIG d   1       3.859  -2.649  -4.542  0.00  0.00     0.046 H 
BRANCH  23  26
ATOM     26  C   LIG d   1       3.449  -1.519  -2.752  0.00  0.00    -0.037 C 
ATOM     27  H   LIG d   1       3.021  -2.475  -2.449  0.00  0.00     0.028 H 
ATOM     28  H   LIG d   1       2.665  -0.763  -2.786  0.00  0.00     0.028 H 
BRANCH  26  29
ATOM     29  C   LIG d   1       4.521  -1.097  -1.745  0.00  0.00    -0.054 C 
ATOM     30  H   LIG d   1       5.492  -1.472  -2.068  0.00  0.00     0.026 H 
ATOM     31  H   LIG d   1       4.281  -1.509  -0.765  0.00  0.00     0.026 H 
BRANCH  29  32
ATOM     32  C   LIG d   1       4.565   0.430  -1.659  0.00  0.00    -0.065 C 
ATOM     33  H   LIG d   1       3.564   0.832  -1.817  0.00  0.00     0.023 H 
ATOM     34  H   LIG d   1       4.926   0.728  -0.675  0.00  0.00     0.023 H 
ATOM     35  H   LIG d   1       5.237   0.817  -2.425  0.00  0.00     0.023 H 
ENDBRANCH  29  32
ENDBRANCH  26  29
ENDBRANCH  23  26
ENDBRANCH   1  23
BRANCH  13  36
ATOM     36  N   LIG d   1       2.492   1.795  -8.922  0.00  0.00    -0.357 N 
ATOM     37  H   LIG d   1       2.998   2.420  -9.465  0.00  0.00     0.142 HD
ATOM     38  H   LIG d   1       1.541   1.932  -8.785  0.00  0.00     0.142 HD
ENDBRANCH  13  36
TORSDOF 5
ENDMDL
MODEL 8
REMARK VINA RESULT:      -5.2      8.746     11.060
REMARK  5 active torsions:
REMARK  status: ('A' for Active; 'I' for Inactive)
REMARK    1  A    between atoms: C_1  and  C_2 
REMARK    2  A    between atoms: C_2  and  C_3 
REMARK    3  A    between atoms: C_3  and  C_4 
REMARK    4  A    between atoms: C_4  and  N_5 
REMARK    5  A    between atoms: C_17  and  N_18 
ROOT
ATOM      1  N   LIG d   1       9.889   9.193  -1.109  0.00  0.00    -0.277 N 
ATOM      2  C   LIG d   1      10.509   9.238   0.217  0.00  0.00     0.022 A 
ATOM      3  C   LIG d   1      10.989   7.802   0.491  0.00  0.00    -0.002 A 
ATOM      4  C   LIG d   1      10.587   7.032  -0.746  0.00  0.00     0.063 A 
ATOM      5  C   LIG d   1       9.948   7.906  -1.626  0.00  0.00     0.277 A 
ATOM      6  N   LIG d   1       9.490   7.466  -2.794  0.00  0.00    -0.191 N 
ATOM      7  C   LIG d   1       9.613   6.190  -3.173  0.00  0.00     0.217 A 
ATOM      8  C   LIG d   1       9.120   5.756  -4.416  0.00  0.00     0.011 A 
ATOM      9  C   LIG d   1       9.258   4.451  -4.780  0.00  0.00    -0.042 A 
ATOM     10  C   LIG d   1       9.882   3.533  -3.939  0.00  0.00     0.019 A 
ATOM     11  C   LIG d   1      10.372   3.921  -2.726  0.00  0.00    -0.033 A 
ATOM     12  C   LIG d   1      10.247   5.255  -2.323  0.00  0.00     0.068 A 
ATOM     13  C   LIG d   1      10.752   5.702  -1.076  0.00  0.00     0.049 A 
ATOM     14 BR   LIG d   1      10.052   1.730  -4.484  0.00  0.00    -0.050 Br
ATOM     15  H   LIG d   1      11.356   9.924   0.215  0.00  0.00     0.047 H 
ATOM     16  H   LIG d   1       9.778   9.542   0.967  0.00  0.00     0.047 H 
ATOM     17  H   LIG d   1      12.070   7.780   0.619  0.00  0.00     0.033 H 
ATOM     18  H   LIG d   1      10.491   7.397   1.371  0.00  0.00     0.033 H 
ATOM     19  H   LIG d   1       8.632   6.454  -5.079  0.00  0.00     0.068 H 
ATOM     20  H   LIG d   1       8.877   4.123  -5.736  0.00  0.00     0.063 H 
ATOM     21  H   LIG d   1      10.854   3.201  -2.081  0.00  0.00     0.064 H 
ATOM     22  H   LIG d   1       9.052   8.092  -3.392  0.00  0.00     0.455 HD
ENDROOT
BRANCH   1  23
ATOM     23  C   LIG d   1       9.286  10.342  -1.788  0.00  0.00     0.017 C 
ATOM     24  H   LIG d   1       9.213  11.178  -1.093  0.00  0.00     0.046 H 
ATOM     25  H   LIG d   1       8.288  10.073  -2.139  0.00  0.00     0.046 H 
BRANCH  23  26
ATOM     26  C   LIG d   1      10.155  10.744  -2.982  0.00  0.00    -0.037 C 
ATOM     27  H   LIG d   1      10.820   9.920  -3.241  0.00  0.00     0.028 H 
ATOM     28  H   LIG d   1      10.748  11.621  -2.720  0.00  0.00     0.028 H 
BRANCH  26  29
ATOM     29  C   LIG d   1       9.259  11.073  -4.177  0.00  0.00    -0.054 C 
ATOM     30  H   LIG d   1       9.497  12.070  -4.546  0.00  0.00     0.026 H 
ATOM     31  H   LIG d   1       8.215  11.040  -3.868  0.00  0.00     0.026 H 
BRANCH  29  32
ATOM     32  C   LIG d   1       9.495  10.048  -5.288  0.00  0.00    -0.065 C 
ATOM     33  H   LIG d   1       9.662  10.568  -6.232  0.00  0.00     0.023 H 
ATOM     34  H   LIG d   1      10.369   9.444  -5.046  0.00  0.00     0.023 H 
ATOM     35  H   LIG d   1       8.621   9.403  -5.378  0.00  0.00     0.023 H 
ENDBRANCH  29  32
ENDBRANCH  26  29
ENDBRANCH  23  26
ENDBRANCH   1  23
BRANCH  13  36
ATOM     36  N   LIG d   1      11.380   4.824  -0.205  0.00  0.00    -0.357 N 
ATOM     37  H   LIG d   1      11.901   4.083  -0.553  0.00  0.00     0.142 HD
ATOM     38  H   LIG d   1      11.300   4.950   0.754  0.00  0.00     0.142 HD
ENDBRANCH  13  36
TORSDOF 5
ENDMDL
MODEL 9
REMARK VINA RESULT:      -5.1      4.055      6.349
REMARK  5 active torsions:
REMARK  status: ('A' for Active; 'I' for Inactive)
REMARK    1  A    between atoms: C_1  and  C_2 
REMARK    2  A    between atoms: C_2  and  C_3 
REMARK    3  A    between atoms: C_3  and  C_4 
REMARK    4  A    between atoms: C_4  and  N_5 
REMARK    5  A    between atoms: C_17  and  N_18 
ROOT
ATOM      1  N   LIG d   1       6.537  -0.829  -4.044  0.00  0.00    -0.277 N 
ATOM      2  C   LIG d   1       5.576  -0.765  -5.146  0.00  0.00     0.022 A 
ATOM      3  C   LIG d   1       5.679  -2.126  -5.856  0.00  0.00    -0.002 A 
ATOM      4  C   LIG d   1       6.730  -2.878  -5.071  0.00  0.00     0.063 A 
ATOM      5  C   LIG d   1       7.185  -2.057  -4.038  0.00  0.00     0.277 A 
ATOM      6  N   LIG d   1       8.124  -2.490  -3.201  0.00  0.00    -0.191 N 
ATOM      7  C   LIG d   1       8.668  -3.706  -3.308  0.00  0.00     0.217 A 
ATOM      8  C   LIG d   1       9.658  -4.135  -2.408  0.00  0.00     0.011 A 
ATOM      9  C   LIG d   1      10.197  -5.378  -2.536  0.00  0.00    -0.042 A 
ATOM     10  C   LIG d   1       9.784  -6.238  -3.552  0.00  0.00     0.019 A 
ATOM     11  C   LIG d   1       8.827  -5.854  -4.444  0.00  0.00    -0.033 A 
ATOM     12  C   LIG d   1       8.252  -4.582  -4.337  0.00  0.00     0.068 A 
ATOM     13  C   LIG d   1       7.245  -4.148  -5.236  0.00  0.00     0.049 A 
ATOM     14 BR   LIG d   1      10.561  -7.957  -3.695  0.00  0.00    -0.050 Br
ATOM     15  H   LIG d   1       4.567  -0.617  -4.760  0.00  0.00     0.047 H 
ATOM     16  H   LIG d   1       5.840   0.040  -5.832  0.00  0.00     0.047 H 
ATOM     17  H   LIG d   1       4.725  -2.650  -5.815  0.00  0.00     0.033 H 
ATOM     18  H   LIG d   1       5.999  -1.993  -6.889  0.00  0.00     0.033 H 
ATOM     19  H   LIG d   1       9.990  -3.480  -1.615  0.00  0.00     0.068 H 
ATOM     20  H   LIG d   1      10.957  -5.703  -1.841  0.00  0.00     0.063 H 
ATOM     21  H   LIG d   1       8.514  -6.528  -5.228  0.00  0.00     0.064 H 
ATOM     22  H   LIG d   1       8.423  -1.904  -2.489  0.00  0.00     0.455 HD
ENDROOT
BRANCH   1  23
ATOM     23  C   LIG d   1       6.786   0.253  -3.088  0.00  0.00     0.017 C 
ATOM     24  H   LIG d   1       7.682   0.799  -3.382  0.00  0.00     0.046 H 
ATOM     25  H   LIG d   1       6.927  -0.168  -2.092  0.00  0.00     0.046 H 
BRANCH  23  26
ATOM     26  C   LIG d   1       5.589   1.207  -3.074  0.00  0.00    -0.037 C 
ATOM     27  H   LIG d   1       5.038   1.111  -4.009  0.00  0.00     0.028 H 
ATOM     28  H   LIG d   1       5.944   2.232  -2.963  0.00  0.00     0.028 H 
BRANCH  26  29
ATOM     29  C   LIG d   1       4.672   0.855  -1.901  0.00  0.00    -0.054 C 
ATOM     30  H   LIG d   1       4.521   1.738  -1.280  0.00  0.00     0.026 H 
ATOM     31  H   LIG d   1       5.129   0.066  -1.306  0.00  0.00     0.026 H 
BRANCH  29  32
ATOM     32  C   LIG d   1       3.322   0.373  -2.437  0.00  0.00    -0.065 C 
ATOM     33  H   LIG d   1       3.315   0.449  -3.525  0.00  0.00     0.023 H 
ATOM     34  H   LIG d   1       3.165  -0.665  -2.144  0.00  0.00     0.023 H 
ATOM     35  H   LIG d   1       2.526   0.992  -2.025  0.00  0.00     0.023 H 
ENDBRANCH  29  32
ENDBRANCH  26  29
ENDBRANCH  23  26
ENDBRANCH   1  23
BRANCH  13  36
ATOM     36  N   LIG d   1       6.803  -4.968  -6.263  0.00  0.00    -0.357 N 
ATOM     37  H   LIG d   1       7.169  -4.868  -7.156  0.00  0.00     0.142 HD
ATOM     38  H   LIG d   1       6.128  -5.643  -6.089  0.00  0.00     0.142 HD
ENDBRANCH  13  36
TORSDOF 5
ENDMDL
