MODEL 1
REMARK VINA RESULT:      -8.1      0.000      0.000
REMARK  6 active torsions:
REMARK  status: ('A' for Active; 'I' for Inactive)
REMARK    1  A    between atoms: C_1  and  N_2 
REMARK    2  A    between atoms: C_7  and  O_36 
REMARK    3  A    between atoms: C_10  and  S_11 
REMARK    4  A    between atoms: S_11  and  N_14 
REMARK       I    between atoms: N_17  and  C_20 
REMARK    5  A    between atoms: C_20  and  C_22 
REMARK    6  A    between atoms: O_36  and  C_37 
ROOT
ATOM      1  N   LIG d   1      11.396   3.698  -4.165  0.00  0.00    -0.173 N 
ATOM      2  C   LIG d   1      10.795   2.800  -3.170  0.00  0.00     0.036 C 
ATOM      3  C   LIG d   1       9.268   2.892  -3.286  0.00  0.00     0.029 C 
ATOM      4  N   LIG d   1       8.894   2.735  -4.698  0.00  0.00    -0.296 N 
ATOM      5  C   LIG d   1       9.495   3.633  -5.694  0.00  0.00     0.029 C 
ATOM      6  C   LIG d   1      11.018   3.546  -5.577  0.00  0.00     0.036 C 
ATOM      7  C   LIG d   1       8.016   1.784  -5.074  0.00  0.00     0.260 C 
ATOM      8  O   LIG d   1       7.779   1.609  -6.250  0.00  0.00    -0.271 OA
ATOM      9  H   LIG d   1      11.115   1.776  -3.361  0.00  0.00     0.046 H 
ATOM     10  H   LIG d   1      11.105   3.103  -2.169  0.00  0.00     0.046 H 
ATOM     11  H   LIG d   1       8.808   2.099  -2.696  0.00  0.00     0.048 H 
ATOM     12  H   LIG d   1       8.931   3.863  -2.923  0.00  0.00     0.048 H 
ATOM     13  H   LIG d   1       9.185   3.331  -6.694  0.00  0.00     0.048 H 
ATOM     14  H   LIG d   1       9.175   4.658  -5.503  0.00  0.00     0.048 H 
ATOM     15  H   LIG d   1      11.474   4.341  -6.166  0.00  0.00     0.046 H 
ATOM     16  H   LIG d   1      11.354   2.576  -5.944  0.00  0.00     0.046 H 
ENDROOT
BRANCH   1  17
ATOM     17  S   LIG d   1      12.474   4.867  -3.703  0.00  0.00     0.065 S 
ATOM     18  O   LIG d   1      12.991   5.438  -4.898  0.00  0.00    -0.153 OA
ATOM     19  O   LIG d   1      13.311   4.281  -2.716  0.00  0.00    -0.153 OA
BRANCH  17  20
ATOM     20  C   LIG d   1      11.556   6.135  -2.895  0.00  0.00     0.154 A 
ATOM     21  C   LIG d   1      11.129   7.240  -3.616  0.00  0.00    -0.008 A 
ATOM     22  C   LIG d   1      11.476   7.319  -5.081  0.00  0.00    -0.013 C 
ATOM     23  C   LIG d   1      10.407   8.234  -2.990  0.00  0.00     0.017 A 
ATOM     24  C   LIG d   1      10.589   8.353  -5.773  0.00  0.00     0.003 C 
ATOM     25  H   LIG d   1      11.320   6.344  -5.543  0.00  0.00     0.033 H 
ATOM     26  H   LIG d   1      12.520   7.606  -5.191  0.00  0.00     0.033 H 
ATOM     27  N   LIG d   1      10.639   9.604  -4.999  0.00  0.00    -0.301 N 
ATOM     28  H   LIG d   1       9.562   7.990  -5.813  0.00  0.00     0.043 H 
ATOM     29  H   LIG d   1      10.956   8.534  -6.784  0.00  0.00     0.043 H 
ATOM     30  C   LIG d   1       9.913   9.447  -3.734  0.00  0.00     0.028 C 
ATOM     31  H   LIG d   1      10.067  10.334  -3.120  0.00  0.00     0.048 H 
ATOM     32  H   LIG d   1       8.849   9.334  -3.943  0.00  0.00     0.048 H 
ATOM     33  C   LIG d   1      10.113   8.126  -1.634  0.00  0.00     0.170 A 
ATOM     34  C   LIG d   1      10.539   7.022  -0.911  0.00  0.00     0.210 A 
ATOM     35  O   LIG d   1      10.385   6.683   0.404  0.00  0.00    -0.449 OA
ATOM     36  C   LIG d   1      11.265   6.020  -1.547  0.00  0.00     0.196 A 
ATOM     37  C   LIG d   1      11.371   5.664   0.655  0.00  0.00     0.234 C 
ATOM     38  O   LIG d   1      11.566   5.051  -0.633  0.00  0.00    -0.451 OA
ATOM     39  H   LIG d   1      10.994   4.935   1.373  0.00  0.00     0.117 H 
ATOM     40  H   LIG d   1      12.300   6.109   1.012  0.00  0.00     0.117 H 
BRANCH  27  41
ATOM     41  C   LIG d   1      10.103  10.728  -5.778  0.00  0.00    -0.012 C 
ATOM     42  H   LIG d   1       9.600  10.347  -6.666  0.00  0.00     0.039 H 
ATOM     43  H   LIG d   1       9.392  11.286  -5.168  0.00  0.00     0.039 H 
ATOM     44  H   LIG d   1      10.920  11.386  -6.076  0.00  0.00     0.039 H 
ENDBRANCH  27  41
BRANCH  33  45
ATOM     45  O   LIG d   1       9.404   9.108  -1.016  0.00  0.00    -0.491 OA
BRANCH  45  46
ATOM     46  C   LIG d   1      10.130   9.988  -0.156  0.00  0.00     0.079 C 
ATOM     47  H   LIG d   1      10.394  10.894  -0.701  0.00  0.00     0.066 H 
ATOM     48  H   LIG d   1       9.511  10.249   0.703  0.00  0.00     0.066 H 
ATOM     49  H   LIG d   1      11.039   9.494   0.188  0.00  0.00     0.066 H 
ENDBRANCH  45  46
ENDBRANCH  33  45
ENDBRANCH  17  20
ENDBRANCH   1  17
BRANCH   7  50
ATOM     50  C   LIG d   1       7.330   0.939  -4.033  0.00  0.00     0.209 C 
ATOM     51  H   LIG d   1       8.063   0.570  -3.316  0.00  0.00     0.087 H 
ATOM     52  O   LIG d   1       6.675  -0.168  -4.665  0.00  0.00    -0.472 OA
ATOM     53  C   LIG d   1       5.770  -0.853  -3.912  0.00  0.00     0.163 A 
ATOM     54  C   LIG d   1       5.245  -0.299  -2.752  0.00  0.00     0.162 A 
ATOM     55  C   LIG d   1       5.369  -2.118  -4.317  0.00  0.00    -0.016 A 
ATOM     56  O   LIG d   1       5.628   0.938  -2.334  0.00  0.00    -0.484 OA
ATOM     57  C   LIG d   1       4.318  -1.012  -2.005  0.00  0.00    -0.016 A 
ATOM     58  C   LIG d   1       6.269   1.775  -3.304  0.00  0.00     0.135 C 
ATOM     59  H   LIG d   1       6.745   2.618  -2.805  0.00  0.00     0.074 H 
ATOM     60  H   LIG d   1       5.532   2.138  -4.020  0.00  0.00     0.074 H 
ATOM     61  C   LIG d   1       3.921  -2.271  -2.414  0.00  0.00    -0.058 A 
ATOM     62  H   LIG d   1       3.906  -0.583  -1.104  0.00  0.00     0.066 H 
ATOM     63  C   LIG d   1       4.447  -2.823  -3.568  0.00  0.00    -0.058 A 
ATOM     64  H   LIG d   1       3.199  -2.824  -1.832  0.00  0.00     0.062 H 
ATOM     65  H   LIG d   1       4.135  -3.808  -3.884  0.00  0.00     0.062 H 
ATOM     66  H   LIG d   1       5.778  -2.552  -5.216  0.00  0.00     0.066 H 
ENDBRANCH   7  50
TORSDOF 6
ENDMDL
MODEL 2
REMARK VINA RESULT:      -8.1      8.358     13.773
REMARK  6 active torsions:
REMARK  status: ('A' for Active; 'I' for Inactive)
REMARK    1  A    between atoms: C_1  and  N_2 
REMARK    2  A    between atoms: C_7  and  O_36 
REMARK    3  A    between atoms: C_10  and  S_11 
REMARK    4  A    between atoms: S_11  and  N_14 
REMARK       I    between atoms: N_17  and  C_20 
REMARK    5  A    between atoms: C_20  and  C_22 
REMARK    6  A    between atoms: O_36  and  C_37 
ROOT
ATOM      1  N   LIG d   1       5.546  -7.144  -6.439  0.00  0.00    -0.173 N 
ATOM      2  C   LIG d   1       5.826  -6.116  -5.427  0.00  0.00     0.036 C 
ATOM      3  C   LIG d   1       6.206  -4.814  -6.143  0.00  0.00     0.029 C 
ATOM      4  N   LIG d   1       5.200  -4.534  -7.176  0.00  0.00    -0.296 N 
ATOM      5  C   LIG d   1       4.919  -5.562  -8.188  0.00  0.00     0.029 C 
ATOM      6  C   LIG d   1       4.543  -6.863  -7.476  0.00  0.00     0.036 C 
ATOM      7  C   LIG d   1       4.544  -3.357  -7.194  0.00  0.00     0.260 C 
ATOM      8  O   LIG d   1       3.657  -3.170  -7.999  0.00  0.00    -0.271 OA
ATOM      9  H   LIG d   1       4.938  -5.952  -4.817  0.00  0.00     0.046 H 
ATOM     10  H   LIG d   1       6.653  -6.441  -4.795  0.00  0.00     0.046 H 
ATOM     11  H   LIG d   1       6.231  -3.995  -5.424  0.00  0.00     0.048 H 
ATOM     12  H   LIG d   1       7.187  -4.925  -6.608  0.00  0.00     0.048 H 
ATOM     13  H   LIG d   1       4.093  -5.237  -8.820  0.00  0.00     0.048 H 
ATOM     14  H   LIG d   1       5.808  -5.726  -8.798  0.00  0.00     0.048 H 
ATOM     15  H   LIG d   1       4.523  -7.679  -8.197  0.00  0.00     0.046 H 
ATOM     16  H   LIG d   1       3.561  -6.752  -7.015  0.00  0.00     0.046 H 
ENDROOT
BRANCH   1  17
ATOM     17  S   LIG d   1       6.352  -8.590  -6.417  0.00  0.00     0.065 S 
ATOM     18  O   LIG d   1       7.720  -8.297  -6.669  0.00  0.00    -0.153 OA
ATOM     19  O   LIG d   1       5.603  -9.486  -7.227  0.00  0.00    -0.153 OA
BRANCH  17  20
ATOM     20  C   LIG d   1       6.266  -9.210  -4.770  0.00  0.00     0.154 A 
ATOM     21  C   LIG d   1       7.341  -9.033  -3.911  0.00  0.00    -0.008 A 
ATOM     22  C   LIG d   1       8.560  -8.313  -4.428  0.00  0.00    -0.013 C 
ATOM     23  C   LIG d   1       7.277  -9.514  -2.620  0.00  0.00     0.017 A 
ATOM     24  C   LIG d   1       9.431  -7.855  -3.258  0.00  0.00     0.003 C 
ATOM     25  H   LIG d   1       8.248  -7.443  -5.007  0.00  0.00     0.033 H 
ATOM     26  H   LIG d   1       9.134  -8.984  -5.065  0.00  0.00     0.033 H 
ATOM     27  N   LIG d   1       9.652  -9.003  -2.364  0.00  0.00    -0.301 N 
ATOM     28  H   LIG d   1       8.924  -7.060  -2.712  0.00  0.00     0.043 H 
ATOM     29  H   LIG d   1      10.389  -7.493  -3.633  0.00  0.00     0.043 H 
ATOM     30  C   LIG d   1       8.416  -9.336  -1.650  0.00  0.00     0.028 C 
ATOM     31  H   LIG d   1       8.561 -10.261  -1.092  0.00  0.00     0.048 H 
ATOM     32  H   LIG d   1       8.175  -8.531  -0.955  0.00  0.00     0.048 H 
ATOM     33  C   LIG d   1       6.136 -10.178  -2.185  0.00  0.00     0.170 A 
ATOM     34  C   LIG d   1       5.060 -10.358  -3.041  0.00  0.00     0.210 A 
ATOM     35  O   LIG d   1       3.848 -10.963  -2.864  0.00  0.00    -0.449 OA
ATOM     36  C   LIG d   1       5.126  -9.869  -4.342  0.00  0.00     0.196 A 
ATOM     37  C   LIG d   1       3.337 -11.197  -4.189  0.00  0.00     0.234 C 
ATOM     38  O   LIG d   1       3.956 -10.167  -4.981  0.00  0.00    -0.451 OA
ATOM     39  H   LIG d   1       2.252 -11.093  -4.205  0.00  0.00     0.117 H 
ATOM     40  H   LIG d   1       3.634 -12.184  -4.545  0.00  0.00     0.117 H 
BRANCH  27  41
ATOM     41  C   LIG d   1      10.748  -8.735  -1.423  0.00  0.00    -0.012 C 
ATOM     42  H   LIG d   1      11.478  -8.075  -1.894  0.00  0.00     0.039 H 
ATOM     43  H   LIG d   1      10.350  -8.257  -0.528  0.00  0.00     0.039 H 
ATOM     44  H   LIG d   1      11.231  -9.673  -1.149  0.00  0.00     0.039 H 
ENDBRANCH  27  41
BRANCH  33  45
ATOM     45  O   LIG d   1       6.075 -10.656  -0.913  0.00  0.00    -0.491 OA
BRANCH  45  46
ATOM     46  C   LIG d   1       6.328 -12.050  -0.731  0.00  0.00     0.079 C 
ATOM     47  H   LIG d   1       7.327 -12.188  -0.318  0.00  0.00     0.066 H 
ATOM     48  H   LIG d   1       5.591 -12.466  -0.043  0.00  0.00     0.066 H 
ATOM     49  H   LIG d   1       6.258 -12.562  -1.691  0.00  0.00     0.066 H 
ENDBRANCH  45  46
ENDBRANCH  33  45
ENDBRANCH  17  20
ENDBRANCH   1  17
BRANCH   7  50
ATOM     50  C   LIG d   1       4.914  -2.274  -6.215  0.00  0.00     0.209 C 
ATOM     51  H   LIG d   1       5.997  -2.157  -6.187  0.00  0.00     0.087 H 
ATOM     52  O   LIG d   1       4.432  -2.617  -4.911  0.00  0.00    -0.472 OA
ATOM     53  C   LIG d   1       4.419  -1.621  -3.982  0.00  0.00     0.163 A 
ATOM     54  C   LIG d   1       4.509  -0.289  -4.366  0.00  0.00     0.162 A 
ATOM     55  C   LIG d   1       4.309  -1.946  -2.638  0.00  0.00    -0.016 A 
ATOM     56  O   LIG d   1       4.622   0.052  -5.679  0.00  0.00    -0.484 OA
ATOM     57  C   LIG d   1       4.485   0.710  -3.403  0.00  0.00    -0.016 A 
ATOM     58  C   LIG d   1       4.262  -0.950  -6.637  0.00  0.00     0.135 C 
ATOM     59  H   LIG d   1       4.623  -0.661  -7.623  0.00  0.00     0.074 H 
ATOM     60  H   LIG d   1       3.179  -1.065  -6.659  0.00  0.00     0.074 H 
ATOM     61  C   LIG d   1       4.375   0.379  -2.065  0.00  0.00    -0.058 A 
ATOM     62  H   LIG d   1       4.553   1.746  -3.698  0.00  0.00     0.066 H 
ATOM     63  C   LIG d   1       4.287  -0.947  -1.684  0.00  0.00    -0.058 A 
ATOM     64  H   LIG d   1       4.356   1.158  -1.318  0.00  0.00     0.062 H 
ATOM     65  H   LIG d   1       4.202  -1.202  -0.638  0.00  0.00     0.062 H 
ATOM     66  H   LIG d   1       4.242  -2.981  -2.337  0.00  0.00     0.066 H 
ENDBRANCH   7  50
TORSDOF 6
ENDMDL
MODEL 3
REMARK VINA RESULT:      -8.0      1.315      1.814
REMARK  6 active torsions:
REMARK  status: ('A' for Active; 'I' for Inactive)
REMARK    1  A    between atoms: C_1  and  N_2 
REMARK    2  A    between atoms: C_7  and  O_36 
REMARK    3  A    between atoms: C_10  and  S_11 
REMARK    4  A    between atoms: S_11  and  N_14 
REMARK       I    between atoms: N_17  and  C_20 
REMARK    5  A    between atoms: C_20  and  C_22 
REMARK    6  A    between atoms: O_36  and  C_37 
ROOT
ATOM      1  N   LIG d   1      10.997   4.163  -4.138  0.00  0.00    -0.173 N 
ATOM      2  C   LIG d   1       9.532   4.131  -4.033  0.00  0.00     0.036 C 
ATOM      3  C   LIG d   1       8.982   3.209  -5.129  0.00  0.00     0.029 C 
ATOM      4  N   LIG d   1       9.722   1.941  -5.092  0.00  0.00    -0.296 N 
ATOM      5  C   LIG d   1      11.188   1.973  -5.197  0.00  0.00     0.029 C 
ATOM      6  C   LIG d   1      11.738   2.894  -4.107  0.00  0.00     0.036 C 
ATOM      7  C   LIG d   1       9.070   0.768  -4.962  0.00  0.00     0.260 C 
ATOM      8  O   LIG d   1       9.695  -0.264  -4.848  0.00  0.00    -0.271 OA
ATOM      9  H   LIG d   1       9.244   3.747  -3.054  0.00  0.00     0.046 H 
ATOM     10  H   LIG d   1       9.133   5.137  -4.167  0.00  0.00     0.046 H 
ATOM     11  H   LIG d   1       7.923   3.020  -4.951  0.00  0.00     0.048 H 
ATOM     12  H   LIG d   1       9.113   3.681  -6.103  0.00  0.00     0.048 H 
ATOM     13  H   LIG d   1      11.586   0.967  -5.063  0.00  0.00     0.048 H 
ATOM     14  H   LIG d   1      11.476   2.356  -6.175  0.00  0.00     0.048 H 
ATOM     15  H   LIG d   1      12.795   3.083  -4.289  0.00  0.00     0.046 H 
ATOM     16  H   LIG d   1      11.610   2.420  -3.133  0.00  0.00     0.046 H 
ENDROOT
BRANCH   1  17
ATOM     17  S   LIG d   1      11.799   5.603  -4.298  0.00  0.00     0.065 S 
ATOM     18  O   LIG d   1      11.474   6.108  -5.586  0.00  0.00    -0.153 OA
ATOM     19  O   LIG d   1      13.139   5.370  -3.887  0.00  0.00    -0.153 OA
BRANCH  17  20
ATOM     20  C   LIG d   1      11.101   6.721  -3.128  0.00  0.00     0.154 A 
ATOM     21  C   LIG d   1      10.652   7.964  -3.548  0.00  0.00    -0.008 A 
ATOM     22  C   LIG d   1      10.784   8.319  -5.008  0.00  0.00    -0.013 C 
ATOM     23  C   LIG d   1      10.102   8.842  -2.638  0.00  0.00     0.017 A 
ATOM     24  C   LIG d   1       9.880   9.506  -5.341  0.00  0.00     0.003 C 
ATOM     25  H   LIG d   1      10.493   7.462  -5.616  0.00  0.00     0.033 H 
ATOM     26  H   LIG d   1      11.819   8.580  -5.225  0.00  0.00     0.033 H 
ATOM     27  N   LIG d   1      10.133  10.574  -4.360  0.00  0.00    -0.301 N 
ATOM     28  H   LIG d   1       8.836   9.199  -5.286  0.00  0.00     0.043 H 
ATOM     29  H   LIG d   1      10.107   9.869  -6.344  0.00  0.00     0.043 H 
ATOM     30  C   LIG d   1       9.592  10.198  -3.050  0.00  0.00     0.028 C 
ATOM     31  H   LIG d   1       9.897  10.938  -2.310  0.00  0.00     0.048 H 
ATOM     32  H   LIG d   1       8.503  10.172  -3.105  0.00  0.00     0.048 H 
ATOM     33  C   LIG d   1      10.004   8.478  -1.299  0.00  0.00     0.170 A 
ATOM     34  C   LIG d   1      10.453   7.236  -0.876  0.00  0.00     0.210 A 
ATOM     35  O   LIG d   1      10.471   6.648   0.357  0.00  0.00    -0.449 OA
ATOM     36  C   LIG d   1      11.005   6.352  -1.797  0.00  0.00     0.196 A 
ATOM     37  C   LIG d   1      11.408   5.560   0.251  0.00  0.00     0.234 C 
ATOM     38  O   LIG d   1      11.367   5.209  -1.144  0.00  0.00    -0.451 OA
ATOM     39  H   LIG d   1      11.090   4.719   0.868  0.00  0.00     0.117 H 
ATOM     40  H   LIG d   1      12.408   5.888   0.535  0.00  0.00     0.117 H 
BRANCH  27  41
ATOM     41  C   LIG d   1       9.569  11.852  -4.816  0.00  0.00    -0.012 C 
ATOM     42  H   LIG d   1      10.263  12.659  -4.584  0.00  0.00     0.039 H 
ATOM     43  H   LIG d   1       9.404  11.812  -5.893  0.00  0.00     0.039 H 
ATOM     44  H   LIG d   1       8.620  12.032  -4.310  0.00  0.00     0.039 H 
ENDBRANCH  27  41
BRANCH  33  45
ATOM     45  O   LIG d   1       9.466   9.345  -0.401  0.00  0.00    -0.491 OA
BRANCH  45  46
ATOM     46  C   LIG d   1      10.378  10.113   0.387  0.00  0.00     0.079 C 
ATOM     47  H   LIG d   1      11.388   9.727   0.253  0.00  0.00     0.066 H 
ATOM     48  H   LIG d   1      10.342  11.156   0.071  0.00  0.00     0.066 H 
ATOM     49  H   LIG d   1      10.099  10.042   1.439  0.00  0.00     0.066 H 
ENDBRANCH  45  46
ENDBRANCH  33  45
ENDBRANCH  17  20
ENDBRANCH   1  17
BRANCH   7  50
ATOM     50  C   LIG d   1       7.564   0.741  -4.959  0.00  0.00     0.209 C 
ATOM     51  H   LIG d   1       7.179   1.553  -5.577  0.00  0.00     0.087 H 
ATOM     52  O   LIG d   1       7.081   0.887  -3.619  0.00  0.00    -0.472 OA
ATOM     53  C   LIG d   1       5.770   0.587  -3.405  0.00  0.00     0.163 A 
ATOM     54  C   LIG d   1       5.051  -0.159  -4.330  0.00  0.00     0.162 A 
ATOM     55  C   LIG d   1       5.151   1.032  -2.246  0.00  0.00    -0.016 A 
ATOM     56  O   LIG d   1       5.637  -0.601  -5.476  0.00  0.00    -0.484 OA
ATOM     57  C   LIG d   1       3.718  -0.460  -4.088  0.00  0.00    -0.016 A 
ATOM     58  C   LIG d   1       7.069  -0.604  -5.507  0.00  0.00     0.135 C 
ATOM     59  H   LIG d   1       7.414  -0.733  -6.532  0.00  0.00     0.074 H 
ATOM     60  H   LIG d   1       7.448  -1.415  -4.885  0.00  0.00     0.074 H 
ATOM     61  C   LIG d   1       3.107  -0.015  -2.931  0.00  0.00    -0.058 A 
ATOM     62  H   LIG d   1       3.157  -1.042  -4.804  0.00  0.00     0.066 H 
ATOM     63  C   LIG d   1       3.823   0.730  -2.012  0.00  0.00    -0.058 A 
ATOM     64  H   LIG d   1       2.070  -0.251  -2.744  0.00  0.00     0.062 H 
ATOM     65  H   LIG d   1       3.342   1.076  -1.108  0.00  0.00     0.062 H 
ATOM     66  H   LIG d   1       5.706   1.614  -1.527  0.00  0.00     0.066 H 
ENDBRANCH   7  50
TORSDOF 6
ENDMDL
MODEL 4
REMARK VINA RESULT:      -7.7      1.813      3.353
REMARK  6 active torsions:
REMARK  status: ('A' for Active; 'I' for Inactive)
REMARK    1  A    between atoms: C_1  and  N_2 
REMARK    2  A    between atoms: C_7  and  O_36 
REMARK    3  A    between atoms: C_10  and  S_11 
REMARK    4  A    between atoms: S_11  and  N_14 
REMARK       I    between atoms: N_17  and  C_20 
REMARK    5  A    between atoms: C_20  and  C_22 
REMARK    6  A    between atoms: O_36  and  C_37 
ROOT
ATOM      1  N   LIG d   1      11.273   3.218  -3.407  0.00  0.00    -0.173 N 
ATOM      2  C   LIG d   1       9.844   3.250  -3.067  0.00  0.00     0.036 C 
ATOM      3  C   LIG d   1       9.040   2.772  -4.284  0.00  0.00     0.029 C 
ATOM      4  N   LIG d   1       9.624   1.515  -4.769  0.00  0.00    -0.296 N 
ATOM      5  C   LIG d   1      11.053   1.483  -5.109  0.00  0.00     0.029 C 
ATOM      6  C   LIG d   1      11.857   1.961  -3.899  0.00  0.00     0.036 C 
ATOM      7  C   LIG d   1       8.863   0.410  -4.899  0.00  0.00     0.260 C 
ATOM      8  O   LIG d   1       9.373  -0.643  -5.220  0.00  0.00    -0.271 OA
ATOM      9  H   LIG d   1       9.654   2.589  -2.222  0.00  0.00     0.046 H 
ATOM     10  H   LIG d   1       9.551   4.268  -2.812  0.00  0.00     0.046 H 
ATOM     11  H   LIG d   1       8.002   2.606  -3.994  0.00  0.00     0.048 H 
ATOM     12  H   LIG d   1       9.086   3.525  -5.071  0.00  0.00     0.048 H 
ATOM     13  H   LIG d   1      11.346   0.464  -5.364  0.00  0.00     0.048 H 
ATOM     14  H   LIG d   1      11.243   2.144  -5.955  0.00  0.00     0.048 H 
ATOM     15  H   LIG d   1      12.893   2.129  -4.192  0.00  0.00     0.046 H 
ATOM     16  H   LIG d   1      11.813   1.206  -3.113  0.00  0.00     0.046 H 
ENDROOT
BRANCH   1  17
ATOM     17  S   LIG d   1      12.207   4.575  -3.248  0.00  0.00     0.065 S 
ATOM     18  O   LIG d   1      13.359   4.373  -4.056  0.00  0.00    -0.153 OA
ATOM     19  O   LIG d   1      12.293   4.849  -1.856  0.00  0.00    -0.153 OA
BRANCH  17  20
ATOM     20  C   LIG d   1      11.314   5.912  -3.969  0.00  0.00     0.154 A 
ATOM     21  C   LIG d   1      11.047   7.046  -3.217  0.00  0.00    -0.008 A 
ATOM     22  C   LIG d   1      11.534   7.092  -1.791  0.00  0.00    -0.013 C 
ATOM     23  C   LIG d   1      10.351   8.096  -3.778  0.00  0.00     0.017 A 
ATOM     24  C   LIG d   1      11.523   8.533  -1.281  0.00  0.00     0.003 C 
ATOM     25  H   LIG d   1      12.551   6.701  -1.743  0.00  0.00     0.033 H 
ATOM     26  H   LIG d   1      10.883   6.482  -1.166  0.00  0.00     0.033 H 
ATOM     27  N   LIG d   1      10.202   9.117  -1.564  0.00  0.00    -0.301 N 
ATOM     28  H   LIG d   1      12.294   9.109  -1.792  0.00  0.00     0.043 H 
ATOM     29  H   LIG d   1      11.706   8.543  -0.206  0.00  0.00     0.043 H 
ATOM     30  C   LIG d   1      10.048   9.352  -3.003  0.00  0.00     0.028 C 
ATOM     31  H   LIG d   1       9.025   9.664  -3.208  0.00  0.00     0.048 H 
ATOM     32  H   LIG d   1      10.733  10.141  -3.313  0.00  0.00     0.048 H 
ATOM     33  C   LIG d   1       9.914   8.011  -5.095  0.00  0.00     0.170 A 
ATOM     34  C   LIG d   1      10.178   6.877  -5.850  0.00  0.00     0.210 A 
ATOM     35  O   LIG d   1       9.865   6.550  -7.139  0.00  0.00    -0.449 OA
ATOM     36  C   LIG d   1      10.883   5.821  -5.281  0.00  0.00     0.196 A 
ATOM     37  C   LIG d   1      10.032   5.123  -7.224  0.00  0.00     0.234 C 
ATOM     38  O   LIG d   1      11.015   4.832  -6.214  0.00  0.00    -0.451 OA
ATOM     39  H   LIG d   1      10.400   4.838  -8.210  0.00  0.00     0.117 H 
ATOM     40  H   LIG d   1       9.093   4.614  -7.003  0.00  0.00     0.117 H 
BRANCH  27  41
ATOM     41  C   LIG d   1      10.001  10.358  -0.803  0.00  0.00    -0.012 C 
ATOM     42  H   LIG d   1      10.647  11.139  -1.205  0.00  0.00     0.039 H 
ATOM     43  H   LIG d   1       8.960  10.670  -0.884  0.00  0.00     0.039 H 
ATOM     44  H   LIG d   1      10.248  10.186   0.245  0.00  0.00     0.039 H 
ENDBRANCH  27  41
BRANCH  33  45
ATOM     45  O   LIG d   1       9.224   9.045  -5.646  0.00  0.00    -0.491 OA
BRANCH  45  46
ATOM     46  C   LIG d   1       9.939   9.898  -6.543  0.00  0.00     0.079 C 
ATOM     47  H   LIG d   1      10.789   9.357  -6.960  0.00  0.00     0.066 H 
ATOM     48  H   LIG d   1       9.278  10.213  -7.350  0.00  0.00     0.066 H 
ATOM     49  H   LIG d   1      10.297  10.775  -6.003  0.00  0.00     0.066 H 
ENDBRANCH  45  46
ENDBRANCH  33  45
ENDBRANCH  17  20
ENDBRANCH   1  17
BRANCH   7  50
ATOM     50  C   LIG d   1       7.380   0.482  -4.646  0.00  0.00     0.209 C 
ATOM     51  H   LIG d   1       7.105   1.498  -4.359  0.00  0.00     0.087 H 
ATOM     52  O   LIG d   1       7.024  -0.428  -3.599  0.00  0.00    -0.472 OA
ATOM     53  C   LIG d   1       5.698  -0.702  -3.453  0.00  0.00     0.163 A 
ATOM     54  C   LIG d   1       4.796  -0.420  -4.471  0.00  0.00     0.162 A 
ATOM     55  C   LIG d   1       5.249  -1.274  -2.272  0.00  0.00    -0.016 A 
ATOM     56  O   LIG d   1       5.215   0.146  -5.636  0.00  0.00    -0.484 OA
ATOM     57  C   LIG d   1       3.451  -0.715  -4.303  0.00  0.00    -0.016 A 
ATOM     58  C   LIG d   1       6.618   0.080  -5.916  0.00  0.00     0.135 C 
ATOM     59  H   LIG d   1       6.864   0.766  -6.725  0.00  0.00     0.074 H 
ATOM     60  H   LIG d   1       6.888  -0.937  -6.199  0.00  0.00     0.074 H 
ATOM     61  C   LIG d   1       3.010  -1.287  -3.125  0.00  0.00    -0.058 A 
ATOM     62  H   LIG d   1       2.748  -0.500  -5.094  0.00  0.00     0.066 H 
ATOM     63  C   LIG d   1       3.908  -1.565  -2.111  0.00  0.00    -0.058 A 
ATOM     64  H   LIG d   1       1.963  -1.517  -2.996  0.00  0.00     0.062 H 
ATOM     65  H   LIG d   1       3.559  -2.011  -1.190  0.00  0.00     0.062 H 
ATOM     66  H   LIG d   1       5.947  -1.492  -1.478  0.00  0.00     0.066 H 
ENDBRANCH   7  50
TORSDOF 6
ENDMDL
MODEL 5
REMARK VINA RESULT:      -7.7      1.943      2.882
REMARK  6 active torsions:
REMARK  status: ('A' for Active; 'I' for Inactive)
REMARK    1  A    between atoms: C_1  and  N_2 
REMARK    2  A    between atoms: C_7  and  O_36 
REMARK    3  A    between atoms: C_10  and  S_11 
REMARK    4  A    between atoms: S_11  and  N_14 
REMARK       I    between atoms: N_17  and  C_20 
REMARK    5  A    between atoms: C_20  and  C_22 
REMARK    6  A    between atoms: O_36  and  C_37 
ROOT
ATOM      1  N   LIG d   1      11.261   3.156  -3.404  0.00  0.00    -0.173 N 
ATOM      2  C   LIG d   1       9.830   3.245  -3.082  0.00  0.00     0.036 C 
ATOM      3  C   LIG d   1       9.025   2.715  -4.276  0.00  0.00     0.029 C 
ATOM      4  N   LIG d   1       9.581   1.415  -4.678  0.00  0.00    -0.296 N 
ATOM      5  C   LIG d   1      11.011   1.326  -5.000  0.00  0.00     0.029 C 
ATOM      6  C   LIG d   1      11.816   1.858  -3.812  0.00  0.00     0.036 C 
ATOM      7  C   LIG d   1       8.793   0.324  -4.749  0.00  0.00     0.260 C 
ATOM      8  O   LIG d   1       9.277  -0.758  -4.999  0.00  0.00    -0.271 OA
ATOM      9  H   LIG d   1       9.615   2.642  -2.200  0.00  0.00     0.046 H 
ATOM     10  H   LIG d   1       9.561   4.284  -2.893  0.00  0.00     0.046 H 
ATOM     11  H   LIG d   1       7.981   2.593  -3.988  0.00  0.00     0.048 H 
ATOM     12  H   LIG d   1       9.098   3.417  -5.107  0.00  0.00     0.048 H 
ATOM     13  H   LIG d   1      11.280   0.287  -5.189  0.00  0.00     0.048 H 
ATOM     14  H   LIG d   1      11.226   1.929  -5.882  0.00  0.00     0.048 H 
ATOM     15  H   LIG d   1      12.858   1.980  -4.104  0.00  0.00     0.046 H 
ATOM     16  H   LIG d   1      11.746   1.153  -2.983  0.00  0.00     0.046 H 
ENDROOT
BRANCH   1  17
ATOM     17  S   LIG d   1      12.229   4.496  -3.318  0.00  0.00     0.065 S 
ATOM     18  O   LIG d   1      13.318   4.269  -4.202  0.00  0.00    -0.153 OA
ATOM     19  O   LIG d   1      12.415   4.775  -1.937  0.00  0.00    -0.153 OA
BRANCH  17  20
ATOM     20  C   LIG d   1      11.312   5.846  -3.984  0.00  0.00     0.154 A 
ATOM     21  C   LIG d   1      10.997   5.863  -5.334  0.00  0.00    -0.008 A 
ATOM     22  C   LIG d   1      11.459   4.714  -6.193  0.00  0.00    -0.013 C 
ATOM     23  C   LIG d   1      10.277   6.915  -5.860  0.00  0.00     0.017 A 
ATOM     24  C   LIG d   1      10.680   4.697  -7.508  0.00  0.00     0.003 C 
ATOM     25  H   LIG d   1      11.293   3.775  -5.664  0.00  0.00     0.033 H 
ATOM     26  H   LIG d   1      12.522   4.824  -6.404  0.00  0.00     0.033 H 
ATOM     27  N   LIG d   1      10.731   6.045  -8.097  0.00  0.00    -0.301 N 
ATOM     28  H   LIG d   1       9.643   4.421  -7.317  0.00  0.00     0.043 H 
ATOM     29  H   LIG d   1      11.133   3.981  -8.194  0.00  0.00     0.043 H 
ATOM     30  C   LIG d   1       9.902   6.971  -7.318  0.00  0.00     0.028 C 
ATOM     31  H   LIG d   1      10.050   7.985  -7.689  0.00  0.00     0.048 H 
ATOM     32  H   LIG d   1       8.853   6.696  -7.431  0.00  0.00     0.048 H 
ATOM     33  C   LIG d   1       9.874   7.959  -5.034  0.00  0.00     0.170 A 
ATOM     34  C   LIG d   1      10.189   7.945  -3.683  0.00  0.00     0.210 A 
ATOM     35  O   LIG d   1       9.918   8.830  -2.678  0.00  0.00    -0.449 OA
ATOM     36  C   LIG d   1      10.913   6.881  -3.156  0.00  0.00     0.196 A 
ATOM     37  C   LIG d   1      10.831   8.496  -1.616  0.00  0.00     0.234 C 
ATOM     38  O   LIG d   1      11.095   7.096  -1.819  0.00  0.00    -0.451 OA
ATOM     39  H   LIG d   1      10.364   8.661  -0.644  0.00  0.00     0.117 H 
ATOM     40  H   LIG d   1      11.749   9.076  -1.704  0.00  0.00     0.117 H 
BRANCH  27  41
ATOM     41  C   LIG d   1      10.311   6.021  -9.505  0.00  0.00    -0.012 C 
ATOM     42  H   LIG d   1       9.874   6.983  -9.771  0.00  0.00     0.039 H 
ATOM     43  H   LIG d   1      11.177   5.828 -10.139  0.00  0.00     0.039 H 
ATOM     44  H   LIG d   1       9.572   5.233  -9.651  0.00  0.00     0.039 H 
ENDBRANCH  27  41
BRANCH  33  45
ATOM     45  O   LIG d   1       9.168   8.998  -5.554  0.00  0.00    -0.491 OA
BRANCH  45  46
ATOM     46  C   LIG d   1       9.875  10.222  -5.763  0.00  0.00     0.079 C 
ATOM     47  H   LIG d   1      10.268  10.247  -6.779  0.00  0.00     0.066 H 
ATOM     48  H   LIG d   1       9.196  11.063  -5.616  0.00  0.00     0.066 H 
ATOM     49  H   LIG d   1      10.700  10.293  -5.053  0.00  0.00     0.066 H 
ENDBRANCH  45  46
ENDBRANCH  33  45
ENDBRANCH  17  20
ENDBRANCH   1  17
BRANCH   7  50
ATOM     50  C   LIG d   1       7.309   0.450  -4.517  0.00  0.00     0.209 C 
ATOM     51  H   LIG d   1       7.076   1.454  -4.162  0.00  0.00     0.087 H 
ATOM     52  O   LIG d   1       6.889  -0.514  -3.544  0.00  0.00    -0.472 OA
ATOM     53  C   LIG d   1       5.549  -0.734  -3.441  0.00  0.00     0.163 A 
ATOM     54  C   LIG d   1       4.683  -0.337  -4.452  0.00  0.00     0.162 A 
ATOM     55  C   LIG d   1       5.050  -1.366  -2.312  0.00  0.00    -0.016 A 
ATOM     56  O   LIG d   1       5.152   0.290  -5.565  0.00  0.00    -0.484 OA
ATOM     57  C   LIG d   1       3.323  -0.578  -4.329  0.00  0.00    -0.016 A 
ATOM     58  C   LIG d   1       6.555   0.176  -5.825  0.00  0.00     0.135 C 
ATOM     59  H   LIG d   1       6.850   0.905  -6.578  0.00  0.00     0.074 H 
ATOM     60  H   LIG d   1       6.784  -0.830  -6.176  0.00  0.00     0.074 H 
ATOM     61  C   LIG d   1       2.830  -1.210  -3.202  0.00  0.00    -0.058 A 
ATOM     62  H   LIG d   1       2.647  -0.273  -5.113  0.00  0.00     0.066 H 
ATOM     63  C   LIG d   1       3.694  -1.603  -2.195  0.00  0.00    -0.058 A 
ATOM     64  H   LIG d   1       1.771  -1.398  -3.108  0.00  0.00     0.062 H 
ATOM     65  H   LIG d   1       3.305  -2.096  -1.315  0.00  0.00     0.062 H 
ATOM     66  H   LIG d   1       5.720  -1.673  -1.524  0.00  0.00     0.066 H 
ENDBRANCH   7  50
TORSDOF 6
ENDMDL
MODEL 6
REMARK VINA RESULT:      -7.7      1.478      3.093
REMARK  6 active torsions:
REMARK  status: ('A' for Active; 'I' for Inactive)
REMARK    1  A    between atoms: C_1  and  N_2 
REMARK    2  A    between atoms: C_7  and  O_36 
REMARK    3  A    between atoms: C_10  and  S_11 
REMARK    4  A    between atoms: S_11  and  N_14 
REMARK       I    between atoms: N_17  and  C_20 
REMARK    5  A    between atoms: C_20  and  C_22 
REMARK    6  A    between atoms: O_36  and  C_37 
ROOT
ATOM      1  N   LIG d   1      11.326   3.559  -4.604  0.00  0.00    -0.173 N 
ATOM      2  C   LIG d   1      10.769   2.703  -3.547  0.00  0.00     0.036 C 
ATOM      3  C   LIG d   1       9.239   2.804  -3.590  0.00  0.00     0.029 C 
ATOM      4  N   LIG d   1       8.793   2.600  -4.975  0.00  0.00    -0.296 N 
ATOM      5  C   LIG d   1       9.350   3.456  -6.032  0.00  0.00     0.029 C 
ATOM      6  C   LIG d   1      10.876   3.359  -5.988  0.00  0.00     0.036 C 
ATOM      7  C   LIG d   1       7.890   1.644  -5.272  0.00  0.00     0.260 C 
ATOM      8  O   LIG d   1       7.593   1.429  -6.427  0.00  0.00    -0.271 OA
ATOM      9  H   LIG d   1      11.072   1.670  -3.716  0.00  0.00     0.046 H 
ATOM     10  H   LIG d   1      11.131   3.039  -2.575  0.00  0.00     0.046 H 
ATOM     11  H   LIG d   1       8.804   2.038  -2.949  0.00  0.00     0.048 H 
ATOM     12  H   LIG d   1       8.928   3.791  -3.247  0.00  0.00     0.048 H 
ATOM     13  H   LIG d   1       8.988   3.120  -7.003  0.00  0.00     0.048 H 
ATOM     14  H   LIG d   1       9.047   4.489  -5.862  0.00  0.00     0.048 H 
ATOM     15  H   LIG d   1      11.308   4.128  -6.628  0.00  0.00     0.046 H 
ATOM     16  H   LIG d   1      11.186   2.373  -6.335  0.00  0.00     0.046 H 
ENDROOT
BRANCH   1  17
ATOM     17  S   LIG d   1      12.435   4.733  -4.239  0.00  0.00     0.065 S 
ATOM     18  O   LIG d   1      12.949   5.205  -5.478  0.00  0.00    -0.153 OA
ATOM     19  O   LIG d   1      13.271   4.202  -3.221  0.00  0.00    -0.153 OA
BRANCH  17  20
ATOM     20  C   LIG d   1      11.553   6.077  -3.516  0.00  0.00     0.154 A 
ATOM     21  C   LIG d   1      11.476   6.185  -2.136  0.00  0.00    -0.008 A 
ATOM     22  C   LIG d   1      12.153   5.133  -1.295  0.00  0.00    -0.013 C 
ATOM     23  C   LIG d   1      10.790   7.236  -1.565  0.00  0.00     0.017 A 
ATOM     24  C   LIG d   1      12.317   5.637   0.139  0.00  0.00     0.003 C 
ATOM     25  H   LIG d   1      13.135   4.911  -1.713  0.00  0.00     0.033 H 
ATOM     26  H   LIG d   1      11.548   4.227  -1.293  0.00  0.00     0.033 H 
ATOM     27  N   LIG d   1      11.017   6.143   0.608  0.00  0.00    -0.301 N 
ATOM     28  H   LIG d   1      13.052   6.440   0.164  0.00  0.00     0.043 H 
ATOM     29  H   LIG d   1      12.643   4.817   0.780  0.00  0.00     0.043 H 
ATOM     30  C   LIG d   1      10.688   7.401  -0.071  0.00  0.00     0.028 C 
ATOM     31  H   LIG d   1       9.672   7.695   0.190  0.00  0.00     0.048 H 
ATOM     32  H   LIG d   1      11.381   8.176   0.255  0.00  0.00     0.048 H 
ATOM     33  C   LIG d   1      10.174   8.183  -2.377  0.00  0.00     0.170 A 
ATOM     34  C   LIG d   1      10.249   8.077  -3.758  0.00  0.00     0.210 A 
ATOM     35  O   LIG d   1       9.742   8.857  -4.758  0.00  0.00    -0.449 OA
ATOM     36  C   LIG d   1      10.944   7.016  -4.330  0.00  0.00     0.196 A 
ATOM     37  C   LIG d   1       9.789   8.041  -5.944  0.00  0.00     0.234 C 
ATOM     38  O   LIG d   1      10.875   7.131  -5.690  0.00  0.00    -0.451 OA
ATOM     39  H   LIG d   1       9.999   8.653  -6.822  0.00  0.00     0.117 H 
ATOM     40  H   LIG d   1       8.854   7.495  -6.070  0.00  0.00     0.117 H 
BRANCH  27  41
ATOM     41  C   LIG d   1      11.013   6.315   2.066  0.00  0.00    -0.012 C 
ATOM     42  H   LIG d   1      12.040   6.377   2.427  0.00  0.00     0.039 H 
ATOM     43  H   LIG d   1      10.481   7.231   2.323  0.00  0.00     0.039 H 
ATOM     44  H   LIG d   1      10.515   5.464   2.532  0.00  0.00     0.039 H 
ENDBRANCH  27  41
BRANCH  33  45
ATOM     45  O   LIG d   1       9.494   9.217  -1.814  0.00  0.00    -0.491 OA
BRANCH  45  46
ATOM     46  C   LIG d   1      10.132  10.496  -1.826  0.00  0.00     0.079 C 
ATOM     47  H   LIG d   1       9.378  11.279  -1.758  0.00  0.00     0.066 H 
ATOM     48  H   LIG d   1      10.811  10.571  -0.977  0.00  0.00     0.066 H 
ATOM     49  H   LIG d   1      10.695  10.613  -2.753  0.00  0.00     0.066 H 
ENDBRANCH  45  46
ENDBRANCH  33  45
ENDBRANCH  17  20
ENDBRANCH   1  17
BRANCH   7  50
ATOM     50  C   LIG d   1       7.251   0.843  -4.167  0.00  0.00     0.209 C 
ATOM     51  H   LIG d   1       8.020   0.474  -3.488  0.00  0.00     0.087 H 
ATOM     52  O   LIG d   1       6.531  -0.261  -4.726  0.00  0.00    -0.472 OA
ATOM     53  C   LIG d   1       5.660  -0.904  -3.900  0.00  0.00     0.163 A 
ATOM     54  C   LIG d   1       5.222  -0.307  -2.725  0.00  0.00     0.162 A 
ATOM     55  C   LIG d   1       5.203  -2.167  -4.245  0.00  0.00    -0.016 A 
ATOM     56  O   LIG d   1       5.661   0.930  -2.366  0.00  0.00    -0.484 OA
ATOM     57  C   LIG d   1       4.327  -0.977  -1.903  0.00  0.00    -0.016 A 
ATOM     58  C   LIG d   1       6.259   1.725  -3.396  0.00  0.00     0.135 C 
ATOM     59  H   LIG d   1       6.787   2.568  -2.950  0.00  0.00     0.074 H 
ATOM     60  H   LIG d   1       5.488   2.089  -4.074  0.00  0.00     0.074 H 
ATOM     61  C   LIG d   1       3.875  -2.235  -2.251  0.00  0.00    -0.058 A 
ATOM     62  H   LIG d   1       3.984  -0.515  -0.989  0.00  0.00     0.066 H 
ATOM     63  C   LIG d   1       4.313  -2.829  -3.421  0.00  0.00    -0.058 A 
ATOM     64  H   LIG d   1       3.178  -2.754  -1.611  0.00  0.00     0.062 H 
ATOM     65  H   LIG d   1       3.958  -3.814  -3.690  0.00  0.00     0.062 H 
ATOM     66  H   LIG d   1       5.543  -2.635  -5.156  0.00  0.00     0.066 H 
ENDBRANCH   7  50
TORSDOF 6
ENDMDL
MODEL 7
REMARK VINA RESULT:      -7.6      8.339     13.037
REMARK  6 active torsions:
REMARK  status: ('A' for Active; 'I' for Inactive)
REMARK    1  A    between atoms: C_1  and  N_2 
REMARK    2  A    between atoms: C_7  and  O_36 
REMARK    3  A    between atoms: C_10  and  S_11 
REMARK    4  A    between atoms: S_11  and  N_14 
REMARK       I    between atoms: N_17  and  C_20 
REMARK    5  A    between atoms: C_20  and  C_22 
REMARK    6  A    between atoms: O_36  and  C_37 
ROOT
ATOM      1  N   LIG d   1       6.761  -6.142  -6.279  0.00  0.00    -0.173 N 
ATOM      2  C   LIG d   1       6.752  -5.047  -5.299  0.00  0.00     0.036 C 
ATOM      3  C   LIG d   1       6.804  -3.712  -6.055  0.00  0.00     0.029 C 
ATOM      4  N   LIG d   1       5.781  -3.728  -7.108  0.00  0.00    -0.296 N 
ATOM      5  C   LIG d   1       5.790  -4.823  -8.088  0.00  0.00     0.029 C 
ATOM      6  C   LIG d   1       5.741  -6.154  -7.337  0.00  0.00     0.036 C 
ATOM      7  C   LIG d   1       4.849  -2.756  -7.175  0.00  0.00     0.260 C 
ATOM      8  O   LIG d   1       3.960  -2.824  -7.996  0.00  0.00    -0.271 OA
ATOM      9  H   LIG d   1       5.838  -5.095  -4.706  0.00  0.00     0.046 H 
ATOM     10  H   LIG d   1       7.620  -5.133  -4.647  0.00  0.00     0.046 H 
ATOM     11  H   LIG d   1       6.606  -2.893  -5.363  0.00  0.00     0.048 H 
ATOM     12  H   LIG d   1       7.790  -3.585  -6.503  0.00  0.00     0.048 H 
ATOM     13  H   LIG d   1       4.921  -4.737  -8.741  0.00  0.00     0.048 H 
ATOM     14  H   LIG d   1       6.703  -4.775  -8.682  0.00  0.00     0.048 H 
ATOM     15  H   LIG d   1       5.942  -6.971  -8.030  0.00  0.00     0.046 H 
ATOM     16  H   LIG d   1       4.754  -6.283  -6.892  0.00  0.00     0.046 H 
ENDROOT
BRANCH   1  17
ATOM     17  S   LIG d   1       7.905  -7.335  -6.198  0.00  0.00     0.065 S 
ATOM     18  O   LIG d   1       9.170  -6.686  -6.200  0.00  0.00    -0.153 OA
ATOM     19  O   LIG d   1       7.548  -8.308  -7.170  0.00  0.00    -0.153 OA
BRANCH  17  20
ATOM     20  C   LIG d   1       7.740  -8.111  -4.625  0.00  0.00     0.154 A 
ATOM     21  C   LIG d   1       6.625  -8.891  -4.356  0.00  0.00    -0.008 A 
ATOM     22  C   LIG d   1       5.581  -9.044  -5.433  0.00  0.00    -0.013 C 
ATOM     23  C   LIG d   1       6.492  -9.503  -3.128  0.00  0.00     0.017 A 
ATOM     24  C   LIG d   1       4.679 -10.237  -5.119  0.00  0.00     0.003 C 
ATOM     25  H   LIG d   1       6.072  -9.206  -6.393  0.00  0.00     0.033 H 
ATOM     26  H   LIG d   1       4.978  -8.138  -5.484  0.00  0.00     0.033 H 
ATOM     27  N   LIG d   1       4.205 -10.112  -3.731  0.00  0.00    -0.301 N 
ATOM     28  H   LIG d   1       5.242 -11.163  -5.230  0.00  0.00     0.043 H 
ATOM     29  H   LIG d   1       3.825 -10.240  -5.798  0.00  0.00     0.043 H 
ATOM     30  C   LIG d   1       5.304 -10.367  -2.795  0.00  0.00     0.028 C 
ATOM     31  H   LIG d   1       4.971 -10.147  -1.781  0.00  0.00     0.048 H 
ATOM     32  H   LIG d   1       5.593 -11.417  -2.858  0.00  0.00     0.048 H 
ATOM     33  C   LIG d   1       7.476  -9.331  -2.159  0.00  0.00     0.170 A 
ATOM     34  C   LIG d   1       8.592  -8.550  -2.424  0.00  0.00     0.210 A 
ATOM     35  O   LIG d   1       9.678  -8.228  -1.661  0.00  0.00    -0.449 OA
ATOM     36  C   LIG d   1       8.723  -7.937  -3.666  0.00  0.00     0.196 A 
ATOM     37  C   LIG d   1      10.274  -7.086  -2.303  0.00  0.00     0.234 C 
ATOM     38  O   LIG d   1       9.893  -7.231  -3.683  0.00  0.00    -0.451 OA
ATOM     39  H   LIG d   1      11.359  -7.111  -2.200  0.00  0.00     0.117 H 
ATOM     40  H   LIG d   1       9.870  -6.161  -1.889  0.00  0.00     0.117 H 
BRANCH  27  41
ATOM     41  C   LIG d   1       3.076 -11.016  -3.476  0.00  0.00    -0.012 C 
ATOM     42  H   LIG d   1       2.671 -11.368  -4.425  0.00  0.00     0.039 H 
ATOM     43  H   LIG d   1       3.417 -11.867  -2.887  0.00  0.00     0.039 H 
ATOM     44  H   LIG d   1       2.300 -10.482  -2.926  0.00  0.00     0.039 H 
ENDBRANCH  27  41
BRANCH  33  45
ATOM     45  O   LIG d   1       7.343  -9.931  -0.946  0.00  0.00    -0.491 OA
BRANCH  45  46
ATOM     46  C   LIG d   1       8.145 -11.088  -0.703  0.00  0.00     0.079 C 
ATOM     47  H   LIG d   1       7.571 -11.984  -0.937  0.00  0.00     0.066 H 
ATOM     48  H   LIG d   1       9.035 -11.052  -1.333  0.00  0.00     0.066 H 
ATOM     49  H   LIG d   1       8.443 -11.111   0.345  0.00  0.00     0.066 H 
ENDBRANCH  45  46
ENDBRANCH  33  45
ENDBRANCH  17  20
ENDBRANCH   1  17
BRANCH   7  50
ATOM     50  C   LIG d   1       4.913  -1.586  -6.228  0.00  0.00     0.209 C 
ATOM     51  H   LIG d   1       5.876  -1.084  -6.327  0.00  0.00     0.087 H 
ATOM     52  O   LIG d   1       4.745  -2.044  -4.882  0.00  0.00    -0.472 OA
ATOM     53  C   LIG d   1       4.481  -1.095  -3.941  0.00  0.00     0.163 A 
ATOM     54  C   LIG d   1       4.036   0.168  -4.311  0.00  0.00     0.162 A 
ATOM     55  C   LIG d   1       4.655  -1.401  -2.600  0.00  0.00    -0.016 A 
ATOM     56  O   LIG d   1       3.863   0.490  -5.622  0.00  0.00    -0.484 OA
ATOM     57  C   LIG d   1       3.765   1.116  -3.335  0.00  0.00    -0.016 A 
ATOM     58  C   LIG d   1       3.781  -0.600  -6.547  0.00  0.00     0.135 C 
ATOM     59  H   LIG d   1       3.894  -0.227  -7.564  0.00  0.00     0.074 H 
ATOM     60  H   LIG d   1       2.819  -1.100  -6.441  0.00  0.00     0.074 H 
ATOM     61  C   LIG d   1       3.940   0.806  -2.000  0.00  0.00    -0.058 A 
ATOM     62  H   LIG d   1       3.417   2.098  -3.619  0.00  0.00     0.066 H 
ATOM     63  C   LIG d   1       4.385  -0.451  -1.633  0.00  0.00    -0.058 A 
ATOM     64  H   LIG d   1       3.728   1.545  -1.242  0.00  0.00     0.062 H 
ATOM     65  H   LIG d   1       4.521  -0.691  -0.588  0.00  0.00     0.062 H 
ATOM     66  H   LIG d   1       5.004  -2.381  -2.310  0.00  0.00     0.066 H 
ENDBRANCH   7  50
TORSDOF 6
ENDMDL
MODEL 8
REMARK VINA RESULT:      -7.5      3.435      5.331
REMARK  6 active torsions:
REMARK  status: ('A' for Active; 'I' for Inactive)
REMARK    1  A    between atoms: C_1  and  N_2 
REMARK    2  A    between atoms: C_7  and  O_36 
REMARK    3  A    between atoms: C_10  and  S_11 
REMARK    4  A    between atoms: S_11  and  N_14 
REMARK       I    between atoms: N_17  and  C_20 
REMARK    5  A    between atoms: C_20  and  C_22 
REMARK    6  A    between atoms: O_36  and  C_37 
ROOT
ATOM      1  N   LIG d   1       8.507   1.911  -5.033  0.00  0.00    -0.173 N 
ATOM      2  C   LIG d   1       8.044   1.520  -6.371  0.00  0.00     0.036 C 
ATOM      3  C   LIG d   1       7.572   0.061  -6.319  0.00  0.00     0.029 C 
ATOM      4  N   LIG d   1       6.658  -0.097  -5.180  0.00  0.00    -0.296 N 
ATOM      5  C   LIG d   1       7.121   0.295  -3.841  0.00  0.00     0.029 C 
ATOM      6  C   LIG d   1       7.596   1.748  -3.891  0.00  0.00     0.036 C 
ATOM      7  C   LIG d   1       5.417  -0.591  -5.358  0.00  0.00     0.260 C 
ATOM      8  O   LIG d   1       4.644  -0.638  -4.426  0.00  0.00    -0.271 OA
ATOM      9  H   LIG d   1       7.217   2.161  -6.674  0.00  0.00     0.046 H 
ATOM     10  H   LIG d   1       8.863   1.614  -7.084  0.00  0.00     0.046 H 
ATOM     11  H   LIG d   1       7.050  -0.188  -7.244  0.00  0.00     0.048 H 
ATOM     12  H   LIG d   1       8.432  -0.597  -6.193  0.00  0.00     0.048 H 
ATOM     13  H   LIG d   1       6.302   0.200  -3.128  0.00  0.00     0.048 H 
ATOM     14  H   LIG d   1       7.949  -0.347  -3.538  0.00  0.00     0.048 H 
ATOM     15  H   LIG d   1       8.119   1.993  -2.967  0.00  0.00     0.046 H 
ATOM     16  H   LIG d   1       6.735   2.406  -4.014  0.00  0.00     0.046 H 
ENDROOT
BRANCH   1  17
ATOM     17  S   LIG d   1      10.032   2.518  -4.813  0.00  0.00     0.065 S 
ATOM     18  O   LIG d   1      10.845   1.955  -5.835  0.00  0.00    -0.153 OA
ATOM     19  O   LIG d   1      10.334   2.370  -3.433  0.00  0.00    -0.153 OA
BRANCH  17  20
ATOM     20  C   LIG d   1       9.956   4.250  -5.129  0.00  0.00     0.154 A 
ATOM     21  C   LIG d   1       9.951   5.143  -4.068  0.00  0.00    -0.008 A 
ATOM     22  C   LIG d   1      10.007   4.591  -2.666  0.00  0.00    -0.013 C 
ATOM     23  C   LIG d   1       9.894   6.499  -4.309  0.00  0.00     0.017 A 
ATOM     24  C   LIG d   1      10.411   5.693  -1.687  0.00  0.00     0.003 C 
ATOM     25  H   LIG d   1      10.740   3.784  -2.623  0.00  0.00     0.033 H 
ATOM     26  H   LIG d   1       9.027   4.203  -2.390  0.00  0.00     0.033 H 
ATOM     27  N   LIG d   1       9.548   6.863  -1.919  0.00  0.00    -0.301 N 
ATOM     28  H   LIG d   1      11.452   5.969  -1.853  0.00  0.00     0.043 H 
ATOM     29  H   LIG d   1      10.282   5.340  -0.663  0.00  0.00     0.043 H 
ATOM     30  C   LIG d   1       9.897   7.507  -3.189  0.00  0.00     0.028 C 
ATOM     31  H   LIG d   1       9.171   8.289  -3.407  0.00  0.00     0.048 H 
ATOM     32  H   LIG d   1      10.890   7.950  -3.106  0.00  0.00     0.048 H 
ATOM     33  C   LIG d   1       9.837   6.967  -5.618  0.00  0.00     0.170 A 
ATOM     34  C   LIG d   1       9.841   6.076  -6.681  0.00  0.00     0.210 A 
ATOM     35  O   LIG d   1       9.793   6.274  -8.032  0.00  0.00    -0.449 OA
ATOM     36  C   LIG d   1       9.901   4.709  -6.434  0.00  0.00     0.196 A 
ATOM     37  C   LIG d   1       9.414   5.003  -8.593  0.00  0.00     0.234 C 
ATOM     38  O   LIG d   1       9.892   4.047  -7.629  0.00  0.00    -0.451 OA
ATOM     39  H   LIG d   1       9.900   4.850  -9.558  0.00  0.00     0.117 H 
ATOM     40  H   LIG d   1       8.331   4.937  -8.694  0.00  0.00     0.117 H 
BRANCH  27  41
ATOM     41  C   LIG d   1       9.640   7.814  -0.803  0.00  0.00    -0.012 C 
ATOM     42  H   LIG d   1       9.054   8.703  -1.035  0.00  0.00     0.039 H 
ATOM     43  H   LIG d   1       9.253   7.350   0.103  0.00  0.00     0.039 H 
ATOM     44  H   LIG d   1      10.682   8.096  -0.651  0.00  0.00     0.039 H 
ENDBRANCH  27  41
BRANCH  33  45
ATOM     45  O   LIG d   1       9.777   8.304  -5.856  0.00  0.00    -0.491 OA
BRANCH  45  46
ATOM     46  C   LIG d   1      10.979   8.939  -6.298  0.00  0.00     0.079 C 
ATOM     47  H   LIG d   1      11.777   8.200  -6.367  0.00  0.00     0.066 H 
ATOM     48  H   LIG d   1      10.813   9.387  -7.278  0.00  0.00     0.066 H 
ATOM     49  H   LIG d   1      11.263   9.715  -5.587  0.00  0.00     0.066 H 
ENDBRANCH  45  46
ENDBRANCH  33  45
ENDBRANCH  17  20
ENDBRANCH   1  17
BRANCH   7  50
ATOM     50  C   LIG d   1       4.991  -1.084  -6.716  0.00  0.00     0.209 C 
ATOM     51  H   LIG d   1       5.788  -0.908  -7.439  0.00  0.00     0.087 H 
ATOM     52  O   LIG d   1       3.805  -0.396  -7.130  0.00  0.00    -0.472 OA
ATOM     53  C   LIG d   1       3.127  -0.926  -8.185  0.00  0.00     0.163 A 
ATOM     54  C   LIG d   1       3.354  -2.236  -8.591  0.00  0.00     0.162 A 
ATOM     55  C   LIG d   1       2.197  -0.147  -8.857  0.00  0.00    -0.016 A 
ATOM     56  O   LIG d   1       4.265  -3.016  -7.949  0.00  0.00    -0.484 OA
ATOM     57  C   LIG d   1       2.646  -2.758  -9.664  0.00  0.00    -0.016 A 
ATOM     58  C   LIG d   1       4.679  -2.585  -6.648  0.00  0.00     0.135 C 
ATOM     59  H   LIG d   1       5.572  -3.132  -6.346  0.00  0.00     0.074 H 
ATOM     60  H   LIG d   1       3.878  -2.761  -5.931  0.00  0.00     0.074 H 
ATOM     61  C   LIG d   1       1.719  -1.976 -10.328  0.00  0.00    -0.058 A 
ATOM     62  H   LIG d   1       2.818  -3.776  -9.980  0.00  0.00     0.066 H 
ATOM     63  C   LIG d   1       1.496  -0.672  -9.925  0.00  0.00    -0.058 A 
ATOM     64  H   LIG d   1       1.169  -2.385 -11.163  0.00  0.00     0.062 H 
ATOM     65  H   LIG d   1       0.772  -0.064 -10.447  0.00  0.00     0.062 H 
ATOM     66  H   LIG d   1       2.021   0.872  -8.546  0.00  0.00     0.066 H 
ENDBRANCH   7  50
TORSDOF 6
ENDMDL
MODEL 9
REMARK VINA RESULT:      -7.4      3.371      4.536
REMARK  6 active torsions:
REMARK  status: ('A' for Active; 'I' for Inactive)
REMARK    1  A    between atoms: C_1  and  N_2 
REMARK    2  A    between atoms: C_7  and  O_36 
REMARK    3  A    between atoms: C_10  and  S_11 
REMARK    4  A    between atoms: S_11  and  N_14 
REMARK       I    between atoms: N_17  and  C_20 
REMARK    5  A    between atoms: C_20  and  C_22 
REMARK    6  A    between atoms: O_36  and  C_37 
ROOT
ATOM      1  N   LIG d   1       8.603   2.057  -5.138  0.00  0.00    -0.173 N 
ATOM      2  C   LIG d   1       8.121   1.634  -6.460  0.00  0.00     0.036 C 
ATOM      3  C   LIG d   1       7.656   0.175  -6.368  0.00  0.00     0.029 C 
ATOM      4  N   LIG d   1       6.761   0.039  -5.211  0.00  0.00    -0.296 N 
ATOM      5  C   LIG d   1       7.243   0.461  -3.889  0.00  0.00     0.029 C 
ATOM      6  C   LIG d   1       7.710   1.915  -3.979  0.00  0.00     0.036 C 
ATOM      7  C   LIG d   1       5.519  -0.464  -5.359  0.00  0.00     0.260 C 
ATOM      8  O   LIG d   1       4.761  -0.494  -4.414  0.00  0.00    -0.271 OA
ATOM      9  H   LIG d   1       7.286   2.265  -6.764  0.00  0.00     0.046 H 
ATOM     10  H   LIG d   1       8.928   1.716  -7.188  0.00  0.00     0.046 H 
ATOM     11  H   LIG d   1       7.121  -0.096  -7.279  0.00  0.00     0.048 H 
ATOM     12  H   LIG d   1       8.520  -0.477  -6.241  0.00  0.00     0.048 H 
ATOM     13  H   LIG d   1       6.436   0.380  -3.162  0.00  0.00     0.048 H 
ATOM     14  H   LIG d   1       8.078  -0.170  -3.586  0.00  0.00     0.048 H 
ATOM     15  H   LIG d   1       8.247   2.183  -3.069  0.00  0.00     0.046 H 
ATOM     16  H   LIG d   1       6.845   2.567  -4.102  0.00  0.00     0.046 H 
ENDROOT
BRANCH   1  17
ATOM     17  S   LIG d   1      10.129   2.674  -4.956  0.00  0.00     0.065 S 
ATOM     18  O   LIG d   1      10.830   2.385  -6.158  0.00  0.00    -0.153 OA
ATOM     19  O   LIG d   1      10.591   2.247  -3.683  0.00  0.00    -0.153 OA
BRANCH  17  20
ATOM     20  C   LIG d   1       9.975   4.428  -4.873  0.00  0.00     0.154 A 
ATOM     21  C   LIG d   1       9.908   5.168  -6.044  0.00  0.00    -0.008 A 
ATOM     22  C   LIG d   1       9.974   4.436  -7.360  0.00  0.00    -0.013 C 
ATOM     23  C   LIG d   1       9.785   6.540  -5.985  0.00  0.00     0.017 A 
ATOM     24  C   LIG d   1       9.472   5.340  -8.486  0.00  0.00     0.003 C 
ATOM     25  H   LIG d   1       9.350   3.543  -7.310  0.00  0.00     0.033 H 
ATOM     26  H   LIG d   1      11.004   4.146  -7.562  0.00  0.00     0.033 H 
ATOM     27  N   LIG d   1      10.172   6.632  -8.395  0.00  0.00    -0.301 N 
ATOM     28  H   LIG d   1       8.399   5.498  -8.379  0.00  0.00     0.043 H 
ATOM     29  H   LIG d   1       9.683   4.876  -9.450  0.00  0.00     0.043 H 
ATOM     30  C   LIG d   1       9.697   7.385  -7.230  0.00  0.00     0.028 C 
ATOM     31  H   LIG d   1      10.311   8.276  -7.104  0.00  0.00     0.048 H 
ATOM     32  H   LIG d   1       8.661   7.681  -7.392  0.00  0.00     0.048 H 
ATOM     33  C   LIG d   1       9.734   7.178  -4.750  0.00  0.00     0.170 A 
ATOM     34  C   LIG d   1       9.802   6.440  -3.577  0.00  0.00     0.210 A 
ATOM     35  O   LIG d   1       9.775   6.816  -2.264  0.00  0.00    -0.449 OA
ATOM     36  C   LIG d   1       9.924   5.056  -3.641  0.00  0.00     0.196 A 
ATOM     37  C   LIG d   1      10.288   5.689  -1.530  0.00  0.00     0.234 C 
ATOM     38  O   LIG d   1       9.970   4.562  -2.368  0.00  0.00    -0.451 OA
ATOM     39  H   LIG d   1       9.790   5.601  -0.564  0.00  0.00     0.117 H 
ATOM     40  H   LIG d   1      11.367   5.777  -1.400  0.00  0.00     0.117 H 
BRANCH  27  41
ATOM     41  C   LIG d   1      10.003   7.410  -9.629  0.00  0.00    -0.012 C 
ATOM     42  H   LIG d   1       9.784   6.736 -10.457  0.00  0.00     0.039 H 
ATOM     43  H   LIG d   1       9.179   8.113  -9.506  0.00  0.00     0.039 H 
ATOM     44  H   LIG d   1      10.921   7.960  -9.841  0.00  0.00     0.039 H 
ENDBRANCH  27  41
BRANCH  33  45
ATOM     45  O   LIG d   1       9.617   8.531  -4.692  0.00  0.00    -0.491 OA
BRANCH  45  46
ATOM     46  C   LIG d   1      10.793   9.270  -4.357  0.00  0.00     0.079 C 
ATOM     47  H   LIG d   1      10.566  10.336  -4.360  0.00  0.00     0.066 H 
ATOM     48  H   LIG d   1      11.137   8.975  -3.365  0.00  0.00     0.066 H 
ATOM     49  H   LIG d   1      11.574   9.063  -5.089  0.00  0.00     0.066 H 
ENDBRANCH  45  46
ENDBRANCH  33  45
ENDBRANCH  17  20
ENDBRANCH   1  17
BRANCH   7  50
ATOM     50  C   LIG d   1       5.074  -0.989  -6.699  0.00  0.00     0.209 C 
ATOM     51  H   LIG d   1       5.859  -0.824  -7.438  0.00  0.00     0.087 H 
ATOM     52  O   LIG d   1       3.878  -0.316  -7.108  0.00  0.00    -0.472 OA
ATOM     53  C   LIG d   1       3.186  -0.873  -8.141  0.00  0.00     0.163 A 
ATOM     54  C   LIG d   1       3.413  -2.190  -8.521  0.00  0.00     0.162 A 
ATOM     55  C   LIG d   1       2.241  -0.113  -8.814  0.00  0.00    -0.016 A 
ATOM     56  O   LIG d   1       4.339  -2.952  -7.878  0.00  0.00    -0.484 OA
ATOM     57  C   LIG d   1       2.691  -2.739  -9.571  0.00  0.00    -0.016 A 
ATOM     58  C   LIG d   1       4.772  -2.490  -6.593  0.00  0.00     0.135 C 
ATOM     59  H   LIG d   1       5.672  -3.026  -6.294  0.00  0.00     0.074 H 
ATOM     60  H   LIG d   1       3.983  -2.654  -5.859  0.00  0.00     0.074 H 
ATOM     61  C   LIG d   1       1.749  -1.977 -10.237  0.00  0.00    -0.058 A 
ATOM     62  H   LIG d   1       2.863  -3.762  -9.868  0.00  0.00     0.066 H 
ATOM     63  C   LIG d   1       1.526  -0.665  -9.859  0.00  0.00    -0.058 A 
ATOM     64  H   LIG d   1       1.188  -2.406 -11.053  0.00  0.00     0.062 H 
ATOM     65  H   LIG d   1       0.790  -0.072 -10.382  0.00  0.00     0.062 H 
ATOM     66  H   LIG d   1       2.064   0.911  -8.522  0.00  0.00     0.066 H 
ENDBRANCH   7  50
TORSDOF 6
ENDMDL
MODEL 10
REMARK VINA RESULT:      -7.1      8.042     13.391
REMARK  6 active torsions:
REMARK  status: ('A' for Active; 'I' for Inactive)
REMARK    1  A    between atoms: C_1  and  N_2 
REMARK    2  A    between atoms: C_7  and  O_36 
REMARK    3  A    between atoms: C_10  and  S_11 
REMARK    4  A    between atoms: S_11  and  N_14 
REMARK       I    between atoms: N_17  and  C_20 
REMARK    5  A    between atoms: C_20  and  C_22 
REMARK    6  A    between atoms: O_36  and  C_37 
ROOT
ATOM      1  N   LIG d   1       4.817  -6.893  -6.707  0.00  0.00    -0.173 N 
ATOM      2  C   LIG d   1       5.189  -6.007  -5.595  0.00  0.00     0.036 C 
ATOM      3  C   LIG d   1       5.884  -4.765  -6.170  0.00  0.00     0.029 C 
ATOM      4  N   LIG d   1       5.059  -4.227  -7.259  0.00  0.00    -0.296 N 
ATOM      5  C   LIG d   1       4.687  -5.113  -8.371  0.00  0.00     0.029 C 
ATOM      6  C   LIG d   1       3.997  -6.353  -7.800  0.00  0.00     0.036 C 
ATOM      7  C   LIG d   1       4.650  -2.943  -7.240  0.00  0.00     0.260 C 
ATOM      8  O   LIG d   1       3.900  -2.532  -8.100  0.00  0.00    -0.271 OA
ATOM      9  H   LIG d   1       4.294  -5.705  -5.053  0.00  0.00     0.046 H 
ATOM     10  H   LIG d   1       5.870  -6.529  -4.923  0.00  0.00     0.046 H 
ATOM     11  H   LIG d   1       5.995  -4.014  -5.388  0.00  0.00     0.048 H 
ATOM     12  H   LIG d   1       6.866  -5.042  -6.557  0.00  0.00     0.048 H 
ATOM     13  H   LIG d   1       4.007  -4.590  -9.043  0.00  0.00     0.048 H 
ATOM     14  H   LIG d   1       5.583  -5.414  -8.914  0.00  0.00     0.048 H 
ATOM     15  H   LIG d   1       3.890  -7.103  -8.583  0.00  0.00     0.046 H 
ATOM     16  H   LIG d   1       3.014  -6.076  -7.417  0.00  0.00     0.046 H 
ENDROOT
BRANCH   1  17
ATOM     17  S   LIG d   1       5.321  -8.470  -6.732  0.00  0.00     0.065 S 
ATOM     18  O   LIG d   1       5.786  -8.728  -8.050  0.00  0.00    -0.153 OA
ATOM     19  O   LIG d   1       4.289  -9.236  -6.126  0.00  0.00    -0.153 OA
BRANCH  17  20
ATOM     20  C   LIG d   1       6.723  -8.587  -5.671  0.00  0.00     0.154 A 
ATOM     21  C   LIG d   1       6.640  -9.323  -4.499  0.00  0.00    -0.008 A 
ATOM     22  C   LIG d   1       5.334 -10.000  -4.169  0.00  0.00    -0.013 C 
ATOM     23  C   LIG d   1       7.735  -9.420  -3.667  0.00  0.00     0.017 A 
ATOM     24  C   LIG d   1       5.557 -11.072  -3.102  0.00  0.00     0.003 C 
ATOM     25  H   LIG d   1       4.930 -10.465  -5.068  0.00  0.00     0.033 H 
ATOM     26  H   LIG d   1       4.626  -9.260  -3.797  0.00  0.00     0.033 H 
ATOM     27  N   LIG d   1       6.308 -10.472  -1.987  0.00  0.00    -0.301 N 
ATOM     28  H   LIG d   1       6.128 -11.898  -3.525  0.00  0.00     0.043 H 
ATOM     29  H   LIG d   1       4.594 -11.435  -2.741  0.00  0.00     0.043 H 
ATOM     30  C   LIG d   1       7.694 -10.217  -2.389  0.00  0.00     0.028 C 
ATOM     31  H   LIG d   1       8.200  -9.659  -1.601  0.00  0.00     0.048 H 
ATOM     32  H   LIG d   1       8.205 -11.168  -2.541  0.00  0.00     0.048 H 
ATOM     33  C   LIG d   1       8.920  -8.774  -4.006  0.00  0.00     0.170 A 
ATOM     34  C   LIG d   1       9.007  -8.037  -5.177  0.00  0.00     0.210 A 
ATOM     35  O   LIG d   1      10.033  -7.322  -5.727  0.00  0.00    -0.449 OA
ATOM     36  C   LIG d   1       7.900  -7.943  -6.015  0.00  0.00     0.196 A 
ATOM     37  C   LIG d   1       9.420  -6.459  -6.703  0.00  0.00     0.234 C 
ATOM     38  O   LIG d   1       8.232  -7.172  -7.092  0.00  0.00    -0.451 OA
ATOM     39  H   LIG d   1      10.080  -6.319  -7.559  0.00  0.00     0.117 H 
ATOM     40  H   LIG d   1       9.162  -5.499  -6.256  0.00  0.00     0.117 H 
BRANCH  27  41
ATOM     41  C   LIG d   1       6.254 -11.328  -0.795  0.00  0.00    -0.012 C 
ATOM     42  H   LIG d   1       5.591 -10.879  -0.055  0.00  0.00     0.039 H 
ATOM     43  H   LIG d   1       5.876 -12.312  -1.071  0.00  0.00     0.039 H 
ATOM     44  H   LIG d   1       7.254 -11.428  -0.373  0.00  0.00     0.039 H 
ENDBRANCH  27  41
BRANCH  33  45
ATOM     45  O   LIG d   1       9.999  -8.867  -3.183  0.00  0.00    -0.491 OA
BRANCH  45  46
ATOM     46  C   LIG d   1      10.308  -7.721  -2.387  0.00  0.00     0.079 C 
ATOM     47  H   LIG d   1      10.228  -7.979  -1.331  0.00  0.00     0.066 H 
ATOM     48  H   LIG d   1      11.324  -7.391  -2.604  0.00  0.00     0.066 H 
ATOM     49  H   LIG d   1       9.608  -6.918  -2.618  0.00  0.00     0.066 H 
ENDBRANCH  45  46
ENDBRANCH  33  45
ENDBRANCH  17  20
ENDBRANCH   1  17
BRANCH   7  50
ATOM     50  C   LIG d   1       5.123  -2.018  -6.149  0.00  0.00     0.209 C 
ATOM     51  H   LIG d   1       6.200  -2.122  -6.019  0.00  0.00     0.087 H 
ATOM     52  O   LIG d   1       4.457  -2.338  -4.922  0.00  0.00    -0.472 OA
ATOM     53  C   LIG d   1       4.545  -1.420  -3.920  0.00  0.00     0.163 A 
ATOM     54  C   LIG d   1       4.928  -0.111  -4.187  0.00  0.00     0.162 A 
ATOM     55  C   LIG d   1       4.242  -1.799  -2.621  0.00  0.00    -0.016 A 
ATOM     56  O   LIG d   1       5.234   0.281  -5.454  0.00  0.00    -0.484 OA
ATOM     57  C   LIG d   1       5.003   0.810  -3.153  0.00  0.00    -0.016 A 
ATOM     58  C   LIG d   1       4.784  -0.567  -6.517  0.00  0.00     0.135 C 
ATOM     59  H   LIG d   1       5.290  -0.296  -7.442  0.00  0.00     0.074 H 
ATOM     60  H   LIG d   1       3.707  -0.462  -6.640  0.00  0.00     0.074 H 
ATOM     61  C   LIG d   1       4.699   0.427  -1.860  0.00  0.00    -0.058 A 
ATOM     62  H   LIG d   1       5.298   1.829  -3.357  0.00  0.00     0.066 H 
ATOM     63  C   LIG d   1       4.320  -0.877  -1.596  0.00  0.00    -0.058 A 
ATOM     64  H   LIG d   1       4.757   1.146  -1.057  0.00  0.00     0.062 H 
ATOM     65  H   LIG d   1       4.084  -1.173  -0.584  0.00  0.00     0.062 H 
ATOM     66  H   LIG d   1       3.947  -2.816  -2.411  0.00  0.00     0.066 H 
ENDBRANCH   7  50
TORSDOF 6
ENDMDL
