MODEL 1
REMARK VINA RESULT:      -6.0      0.000      0.000
REMARK  6 active torsions:
REMARK  status: ('A' for Active; 'I' for Inactive)
REMARK    1  A    between atoms: C_2  and  C_25 
REMARK    2  A    between atoms: N_5  and  C_6 
REMARK    3  A    between atoms: C_6  and  C_7 
REMARK    4  A    between atoms: C_15  and  C_17 
REMARK       I    between atoms: C_17  and  N_19 
REMARK    5  A    between atoms: C_25  and  C_26 
REMARK    6  A    between atoms: C_26  and  O_27 
ROOT
ATOM      1  C   LIG d   1       5.137  -5.601  -6.751  0.00  0.00    -0.001 C 
ATOM      2  H   LIG d   1       4.257  -5.800  -7.360  0.00  0.00     0.087 H 
ATOM      3  C   LIG d   1       4.711  -5.339  -5.305  0.00  0.00    -0.004 C 
ATOM      4  C   LIG d   1       5.165  -3.930  -4.901  0.00  0.00    -0.015 C 
ATOM      5  H   LIG d   1       4.864  -3.720  -3.875  0.00  0.00     0.031 H 
ATOM      6  C   LIG d   1       6.688  -3.847  -5.051  0.00  0.00    -0.009 C 
ATOM      7  C   LIG d   1       7.061  -4.150  -6.505  0.00  0.00    -0.031 C 
ATOM      8  C   LIG d   1       4.954  -3.246  -7.289  0.00  0.00    -0.020 C 
ATOM      9  C   LIG d   1       4.523  -2.917  -5.857  0.00  0.00     0.079 C 
ATOM     10  H   LIG d   1       3.437  -2.977  -5.780  0.00  0.00     0.045 H 
ATOM     11  H   LIG d   1       3.626  -5.410  -5.226  0.00  0.00     0.032 H 
ATOM     12  H   LIG d   1       5.173  -6.076  -4.648  0.00  0.00     0.032 H 
ATOM     13  H   LIG d   1       7.026  -2.844  -4.788  0.00  0.00     0.032 H 
ATOM     14  H   LIG d   1       7.162  -4.574  -4.391  0.00  0.00     0.032 H 
ATOM     15  H   LIG d   1       7.711  -5.024  -6.538  0.00  0.00     0.081 H 
ATOM     16  H   LIG d   1       7.579  -3.293  -6.934  0.00  0.00     0.081 H 
ATOM     17  H   LIG d   1       4.074  -3.461  -7.893  0.00  0.00     0.082 H 
ATOM     18  H   LIG d   1       5.488  -2.395  -7.712  0.00  0.00     0.082 H 
ATOM     19  N   LIG d   1       5.846  -4.425  -7.301  0.00  0.00     0.239 N 
ATOM     20  H   LIG d   1       6.121  -4.625  -8.270  0.00  0.00     0.204 HD
ENDROOT
BRANCH   1  21
ATOM     21  C   LIG d   1       6.073  -6.811  -6.796  0.00  0.00     0.086 C 
ATOM     22  H   LIG d   1       6.310  -7.049  -7.834  0.00  0.00     0.057 H 
ATOM     23  H   LIG d   1       6.993  -6.579  -6.259  0.00  0.00     0.057 H 
BRANCH  21  24
ATOM     24  N   LIG d   1       5.417  -7.961  -6.169  0.00  0.00    -0.246 N 
ATOM     25  C   LIG d   1       5.675  -8.444  -4.933  0.00  0.00     0.049 A 
ATOM     26  C   LIG d   1       4.848  -9.502  -4.761  0.00  0.00     0.085 A 
ATOM     27  H   LIG d   1       6.395  -8.063  -4.224  0.00  0.00     0.085 H 
ATOM     28  N   LIG d   1       4.138  -9.616  -5.890  0.00  0.00    -0.134 NA
ATOM     29  N   LIG d   1       4.500  -8.689  -6.704  0.00  0.00    -0.065 NA
BRANCH  26  30
ATOM     30  C   LIG d   1       4.748 -10.381  -3.541  0.00  0.00     0.016 C 
ATOM     31  H   LIG d   1       5.488 -11.179  -3.607  0.00  0.00     0.035 H 
ATOM     32  H   LIG d   1       4.935  -9.785  -2.648  0.00  0.00     0.035 H 
BRANCH  30  33
ATOM     33  C   LIG d   1       3.346 -10.989  -3.464  0.00  0.00     0.050 C 
ATOM     34  H   LIG d   1       3.094 -11.445  -4.420  0.00  0.00     0.056 H 
ATOM     35  H   LIG d   1       3.322 -11.748  -2.681  0.00  0.00     0.056 H 
BRANCH  33  36
ATOM     36  O   LIG d   1       2.398  -9.962  -3.161  0.00  0.00    -0.395 OA
ATOM     37  H   LIG d   1       2.366  -9.721  -2.226  0.00  0.00     0.209 HD
ENDBRANCH  33  36
ENDBRANCH  30  33
ENDBRANCH  26  30
ENDBRANCH  21  24
ENDBRANCH   1  21
BRANCH   9  38
ATOM     38  C   LIG d   1       4.978  -1.526  -5.499  0.00  0.00     0.224 C 
ATOM     39  O   LIG d   1       5.730  -0.925  -6.237  0.00  0.00    -0.275 OA
ATOM     40  N   LIG d   1       4.548  -0.948  -4.360  0.00  0.00    -0.297 N 
ATOM     41  C   LIG d   1       3.634  -1.657  -3.449  0.00  0.00     0.038 C 
ATOM     42  C   LIG d   1       4.978   0.409  -3.990  0.00  0.00     0.038 C 
ATOM     43  C   LIG d   1       4.215  -1.589  -2.033  0.00  0.00     0.064 C 
ATOM     44  H   LIG d   1       2.654  -1.179  -3.468  0.00  0.00     0.049 H 
ATOM     45  H   LIG d   1       3.542  -2.698  -3.760  0.00  0.00     0.049 H 
ATOM     46  O   LIG d   1       4.505  -0.227  -1.708  0.00  0.00    -0.377 OA
ATOM     47  H   LIG d   1       5.131  -2.178  -1.986  0.00  0.00     0.058 H 
ATOM     48  H   LIG d   1       3.489  -1.986  -1.323  0.00  0.00     0.058 H 
ATOM     49  C   LIG d   1       5.493   0.377  -2.546  0.00  0.00     0.064 C 
ATOM     50  H   LIG d   1       5.687   1.394  -2.206  0.00  0.00     0.058 H 
ATOM     51  H   LIG d   1       6.414  -0.205  -2.500  0.00  0.00     0.058 H 
ATOM     52  H   LIG d   1       4.133   1.094  -4.062  0.00  0.00     0.049 H 
ATOM     53  H   LIG d   1       5.775   0.736  -4.657  0.00  0.00     0.049 H 
ENDBRANCH   9  38
TORSDOF 6
ENDMDL
MODEL 2
REMARK VINA RESULT:      -6.0      6.089      9.021
REMARK  6 active torsions:
REMARK  status: ('A' for Active; 'I' for Inactive)
REMARK    1  A    between atoms: C_2  and  C_25 
REMARK    2  A    between atoms: N_5  and  C_6 
REMARK    3  A    between atoms: C_6  and  C_7 
REMARK    4  A    between atoms: C_15  and  C_17 
REMARK       I    between atoms: C_17  and  N_19 
REMARK    5  A    between atoms: C_25  and  C_26 
REMARK    6  A    between atoms: C_26  and  O_27 
ROOT
ATOM      1  C   LIG d   1       8.699   1.823  -5.206  0.00  0.00    -0.001 C 
ATOM      2  H   LIG d   1       8.123   2.080  -6.095  0.00  0.00     0.087 H 
ATOM      3  C   LIG d   1       8.252   2.703  -4.036  0.00  0.00    -0.004 C 
ATOM      4  C   LIG d   1       9.454   3.515  -3.539  0.00  0.00    -0.015 C 
ATOM      5  H   LIG d   1       9.157   4.155  -2.708  0.00  0.00     0.031 H 
ATOM      6  C   LIG d   1      10.557   2.541  -3.107  0.00  0.00    -0.009 C 
ATOM      7  C   LIG d   1      10.941   1.666  -4.304  0.00  0.00    -0.031 C 
ATOM      8  C   LIG d   1      10.381   3.444  -5.851  0.00  0.00    -0.020 C 
ATOM      9  C   LIG d   1       9.982   4.369  -4.698  0.00  0.00     0.079 C 
ATOM     10  H   LIG d   1       9.203   5.054  -5.033  0.00  0.00     0.045 H 
ATOM     11  H   LIG d   1       7.465   3.380  -4.368  0.00  0.00     0.032 H 
ATOM     12  H   LIG d   1       7.875   2.074  -3.229  0.00  0.00     0.032 H 
ATOM     13  H   LIG d   1      11.429   3.103  -2.771  0.00  0.00     0.032 H 
ATOM     14  H   LIG d   1      10.194   1.913  -2.294  0.00  0.00     0.032 H 
ATOM     15  H   LIG d   1      10.759   0.619  -4.061  0.00  0.00     0.081 H 
ATOM     16  H   LIG d   1      11.997   1.808  -4.535  0.00  0.00     0.081 H 
ATOM     17  H   LIG d   1       9.793   3.689  -6.735  0.00  0.00     0.082 H 
ATOM     18  H   LIG d   1      11.440   3.574  -6.071  0.00  0.00     0.082 H 
ATOM     19  N   LIG d   1      10.136   2.031  -5.488  0.00  0.00     0.239 N 
ATOM     20  H   LIG d   1      10.411   1.432  -6.276  0.00  0.00     0.204 HD
ENDROOT
BRANCH   1  21
ATOM     21  C   LIG d   1       8.470   0.352  -4.856  0.00  0.00     0.086 C 
ATOM     22  H   LIG d   1       8.667  -0.266  -5.733  0.00  0.00     0.057 H 
ATOM     23  H   LIG d   1       9.143   0.061  -4.050  0.00  0.00     0.057 H 
BRANCH  21  24
ATOM     24  N   LIG d   1       7.082   0.161  -4.428  0.00  0.00    -0.246 N 
ATOM     25  C   LIG d   1       6.680  -0.315  -3.228  0.00  0.00     0.049 A 
ATOM     26  C   LIG d   1       5.327  -0.324  -3.259  0.00  0.00     0.085 A 
ATOM     27  H   LIG d   1       7.312  -0.625  -2.408  0.00  0.00     0.085 H 
ATOM     28  N   LIG d   1       4.972   0.135  -4.465  0.00  0.00    -0.134 NA
ATOM     29  N   LIG d   1       6.035   0.413  -5.133  0.00  0.00    -0.065 NA
BRANCH  26  30
ATOM     30  C   LIG d   1       4.402  -0.768  -2.155  0.00  0.00     0.016 C 
ATOM     31  H   LIG d   1       4.953  -0.821  -1.217  0.00  0.00     0.035 H 
ATOM     32  H   LIG d   1       3.585  -0.053  -2.057  0.00  0.00     0.035 H 
BRANCH  30  33
ATOM     33  C   LIG d   1       3.833  -2.149  -2.492  0.00  0.00     0.050 C 
ATOM     34  H   LIG d   1       4.600  -2.907  -2.337  0.00  0.00     0.056 H 
ATOM     35  H   LIG d   1       2.980  -2.357  -1.845  0.00  0.00     0.056 H 
BRANCH  33  36
ATOM     36  O   LIG d   1       3.412  -2.170  -3.858  0.00  0.00    -0.395 OA
ATOM     37  H   LIG d   1       2.608  -2.683  -4.013  0.00  0.00     0.209 HD
ENDBRANCH  33  36
ENDBRANCH  30  33
ENDBRANCH  26  30
ENDBRANCH  21  24
ENDBRANCH   1  21
BRANCH   9  38
ATOM     38  C   LIG d   1      11.183   5.156  -4.242  0.00  0.00     0.224 C 
ATOM     39  O   LIG d   1      12.299   4.783  -4.538  0.00  0.00    -0.275 OA
ATOM     40  N   LIG d   1      11.018   6.273  -3.508  0.00  0.00    -0.297 N 
ATOM     41  C   LIG d   1       9.674   6.745  -3.138  0.00  0.00     0.038 C 
ATOM     42  C   LIG d   1      12.177   7.057  -3.052  0.00  0.00     0.038 C 
ATOM     43  C   LIG d   1       9.652   7.005  -1.628  0.00  0.00     0.064 C 
ATOM     44  H   LIG d   1       9.449   7.668  -3.673  0.00  0.00     0.049 H 
ATOM     45  H   LIG d   1       8.936   5.984  -3.392  0.00  0.00     0.049 H 
ATOM     46  O   LIG d   1      10.743   7.860  -1.281  0.00  0.00    -0.377 OA
ATOM     47  H   LIG d   1       9.746   6.058  -1.094  0.00  0.00     0.058 H 
ATOM     48  H   LIG d   1       8.711   7.484  -1.355  0.00  0.00     0.058 H 
ATOM     49  C   LIG d   1      12.032   7.302  -1.545  0.00  0.00     0.064 C 
ATOM     50  H   LIG d   1      12.804   7.996  -1.213  0.00  0.00     0.058 H 
ATOM     51  H   LIG d   1      12.136   6.358  -1.010  0.00  0.00     0.058 H 
ATOM     52  H   LIG d   1      12.203   8.012  -3.577  0.00  0.00     0.049 H 
ATOM     53  H   LIG d   1      13.095   6.504  -3.247  0.00  0.00     0.049 H 
ENDBRANCH   9  38
TORSDOF 6
ENDMDL
MODEL 3
REMARK VINA RESULT:      -5.8      6.163      9.219
REMARK  6 active torsions:
REMARK  status: ('A' for Active; 'I' for Inactive)
REMARK    1  A    between atoms: C_2  and  C_25 
REMARK    2  A    between atoms: N_5  and  C_6 
REMARK    3  A    between atoms: C_6  and  C_7 
REMARK    4  A    between atoms: C_15  and  C_17 
REMARK       I    between atoms: C_17  and  N_19 
REMARK    5  A    between atoms: C_25  and  C_26 
REMARK    6  A    between atoms: C_26  and  O_27 
ROOT
ATOM      1  C   LIG d   1       2.758  -0.744  -8.421  0.00  0.00    -0.001 C 
ATOM      2  H   LIG d   1       2.525  -1.594  -7.782  0.00  0.00     0.087 H 
ATOM      3  C   LIG d   1       1.712  -0.638  -9.533  0.00  0.00    -0.004 C 
ATOM      4  C   LIG d   1       2.416  -0.762 -10.890  0.00  0.00    -0.015 C 
ATOM      5  H   LIG d   1       1.687  -0.696 -11.699  0.00  0.00     0.031 H 
ATOM      6  C   LIG d   1       3.457   0.358 -11.005  0.00  0.00    -0.009 C 
ATOM      7  C   LIG d   1       4.456   0.225  -9.851  0.00  0.00    -0.031 C 
ATOM      8  C   LIG d   1       4.149  -2.178  -9.792  0.00  0.00    -0.020 C 
ATOM      9  C   LIG d   1       3.142  -2.112 -10.944  0.00  0.00     0.079 C 
ATOM     10  H   LIG d   1       2.418  -2.921 -10.843  0.00  0.00     0.045 H 
ATOM     11  H   LIG d   1       0.982  -1.441  -9.426  0.00  0.00     0.032 H 
ATOM     12  H   LIG d   1       1.206   0.326  -9.469  0.00  0.00     0.032 H 
ATOM     13  H   LIG d   1       3.984   0.271 -11.956  0.00  0.00     0.032 H 
ATOM     14  H   LIG d   1       2.961   1.327 -10.950  0.00  0.00     0.032 H 
ATOM     15  H   LIG d   1       4.435   1.131  -9.246  0.00  0.00     0.081 H 
ATOM     16  H   LIG d   1       5.459   0.078 -10.253  0.00  0.00     0.081 H 
ATOM     17  H   LIG d   1       3.905  -3.019  -9.143  0.00  0.00     0.082 H 
ATOM     18  H   LIG d   1       5.153  -2.307 -10.195  0.00  0.00     0.082 H 
ATOM     19  N   LIG d   1       4.107  -0.931  -8.998  0.00  0.00     0.239 N 
ATOM     20  H   LIG d   1       4.790  -0.999  -8.234  0.00  0.00     0.204 HD
ENDROOT
BRANCH   1  21
ATOM     21  C   LIG d   1       2.749   0.539  -7.588  0.00  0.00     0.086 C 
ATOM     22  H   LIG d   1       3.294   1.321  -8.117  0.00  0.00     0.057 H 
ATOM     23  H   LIG d   1       1.720   0.860  -7.426  0.00  0.00     0.057 H 
BRANCH  21  24
ATOM     24  N   LIG d   1       3.391   0.288  -6.295  0.00  0.00    -0.246 N 
ATOM     25  C   LIG d   1       2.775   0.283  -5.091  0.00  0.00     0.049 A 
ATOM     26  C   LIG d   1       3.734   0.008  -4.177  0.00  0.00     0.085 A 
ATOM     27  H   LIG d   1       1.727   0.460  -4.897  0.00  0.00     0.085 H 
ATOM     28  N   LIG d   1       4.878  -0.133  -4.858  0.00  0.00    -0.134 NA
ATOM     29  N   LIG d   1       4.640   0.040  -6.110  0.00  0.00    -0.065 NA
BRANCH  26  30
ATOM     30  C   LIG d   1       3.553  -0.111  -2.685  0.00  0.00     0.016 C 
ATOM     31  H   LIG d   1       2.495  -0.236  -2.456  0.00  0.00     0.035 H 
ATOM     32  H   LIG d   1       4.109  -0.976  -2.321  0.00  0.00     0.035 H 
BRANCH  30  33
ATOM     33  C   LIG d   1       4.078   1.155  -2.006  0.00  0.00     0.050 C 
ATOM     34  H   LIG d   1       3.475   2.009  -2.311  0.00  0.00     0.056 H 
ATOM     35  H   LIG d   1       4.019   1.037  -0.923  0.00  0.00     0.056 H 
BRANCH  33  36
ATOM     36  O   LIG d   1       5.438   1.372  -2.388  0.00  0.00    -0.395 OA
ATOM     37  H   LIG d   1       5.551   2.040  -3.078  0.00  0.00     0.209 HD
ENDBRANCH  33  36
ENDBRANCH  30  33
ENDBRANCH  26  30
ENDBRANCH  21  24
ENDBRANCH   1  21
BRANCH   9  38
ATOM     38  C   LIG d   1       3.867  -2.245 -12.258  0.00  0.00     0.224 C 
ATOM     39  O   LIG d   1       5.032  -1.918 -12.343  0.00  0.00    -0.275 OA
ATOM     40  N   LIG d   1       3.222  -2.729 -13.337  0.00  0.00    -0.297 N 
ATOM     41  C   LIG d   1       1.809  -3.133 -13.258  0.00  0.00     0.038 C 
ATOM     42  C   LIG d   1       3.910  -2.869 -14.630  0.00  0.00     0.038 C 
ATOM     43  C   LIG d   1       1.049  -2.460 -14.405  0.00  0.00     0.064 C 
ATOM     44  H   LIG d   1       1.732  -4.217 -13.352  0.00  0.00     0.049 H 
ATOM     45  H   LIG d   1       1.391  -2.817 -12.303  0.00  0.00     0.049 H 
ATOM     46  O   LIG d   1       1.719  -2.732 -15.638  0.00  0.00    -0.377 OA
ATOM     47  H   LIG d   1       1.016  -1.382 -14.238  0.00  0.00     0.058 H 
ATOM     48  H   LIG d   1       0.032  -2.852 -14.448  0.00  0.00     0.058 H 
ATOM     49  C   LIG d   1       3.046  -2.208 -15.711  0.00  0.00     0.064 C 
ATOM     50  H   LIG d   1       3.468  -2.419 -16.694  0.00  0.00     0.058 H 
ATOM     51  H   LIG d   1       3.022  -1.130 -15.550  0.00  0.00     0.058 H 
ATOM     52  H   LIG d   1       4.043  -3.925 -14.863  0.00  0.00     0.049 H 
ATOM     53  H   LIG d   1       4.882  -2.377 -14.585  0.00  0.00     0.049 H 
ENDBRANCH   9  38
TORSDOF 6
ENDMDL
MODEL 4
REMARK VINA RESULT:      -5.7      5.981      9.236
REMARK  6 active torsions:
REMARK  status: ('A' for Active; 'I' for Inactive)
REMARK    1  A    between atoms: C_2  and  C_25 
REMARK    2  A    between atoms: N_5  and  C_6 
REMARK    3  A    between atoms: C_6  and  C_7 
REMARK    4  A    between atoms: C_15  and  C_17 
REMARK       I    between atoms: C_17  and  N_19 
REMARK    5  A    between atoms: C_25  and  C_26 
REMARK    6  A    between atoms: C_26  and  O_27 
ROOT
ATOM      1  C   LIG d   1       3.896  -0.349  -8.683  0.00  0.00    -0.001 C 
ATOM      2  H   LIG d   1       3.664   0.702  -8.515  0.00  0.00     0.087 H 
ATOM      3  C   LIG d   1       4.901  -0.475  -9.831  0.00  0.00    -0.004 C 
ATOM      4  C   LIG d   1       4.274  -1.316 -10.950  0.00  0.00    -0.015 C 
ATOM      5  H   LIG d   1       4.971  -1.412 -11.782  0.00  0.00     0.031 H 
ATOM      6  C   LIG d   1       3.910  -2.693 -10.382  0.00  0.00    -0.009 C 
ATOM      7  C   LIG d   1       2.932  -2.506  -9.219  0.00  0.00    -0.031 C 
ATOM      8  C   LIG d   1       2.034  -0.495 -10.227  0.00  0.00    -0.020 C 
ATOM      9  C   LIG d   1       2.987  -0.625 -11.418  0.00  0.00     0.079 C 
ATOM     10  H   LIG d   1       3.223   0.366 -11.807  0.00  0.00     0.045 H 
ATOM     11  H   LIG d   1       5.146   0.516 -10.212  0.00  0.00     0.032 H 
ATOM     12  H   LIG d   1       5.808  -0.962  -9.471  0.00  0.00     0.032 H 
ATOM     13  H   LIG d   1       3.442  -3.297 -11.160  0.00  0.00     0.032 H 
ATOM     14  H   LIG d   1       4.812  -3.192 -10.027  0.00  0.00     0.032 H 
ATOM     15  H   LIG d   1       3.368  -2.916  -8.308  0.00  0.00     0.081 H 
ATOM     16  H   LIG d   1       1.999  -3.024  -9.441  0.00  0.00     0.081 H 
ATOM     17  H   LIG d   1       1.816   0.558 -10.049  0.00  0.00     0.082 H 
ATOM     18  H   LIG d   1       1.108  -1.027 -10.443  0.00  0.00     0.082 H 
ATOM     19  N   LIG d   1       2.647  -1.070  -9.011  0.00  0.00     0.239 N 
ATOM     20  H   LIG d   1       1.989  -0.971  -8.227  0.00  0.00     0.204 HD
ENDROOT
BRANCH   1  21
ATOM     21  C   LIG d   1       4.496  -0.950  -7.410  0.00  0.00     0.086 C 
ATOM     22  H   LIG d   1       4.320  -2.026  -7.397  0.00  0.00     0.057 H 
ATOM     23  H   LIG d   1       5.568  -0.757  -7.388  0.00  0.00     0.057 H 
BRANCH  21  24
ATOM     24  N   LIG d   1       3.866  -0.339  -6.237  0.00  0.00    -0.246 N 
ATOM     25  C   LIG d   1       4.044  -0.721  -4.952  0.00  0.00     0.049 A 
ATOM     26  C   LIG d   1       3.281   0.108  -4.202  0.00  0.00     0.085 A 
ATOM     27  H   LIG d   1       4.672  -1.524  -4.595  0.00  0.00     0.085 H 
ATOM     28  N   LIG d   1       2.673   0.941  -5.056  0.00  0.00    -0.134 NA
ATOM     29  N   LIG d   1       3.041   0.649  -6.253  0.00  0.00    -0.065 NA
BRANCH  26  30
ATOM     30  C   LIG d   1       3.137   0.093  -2.702  0.00  0.00     0.016 C 
ATOM     31  H   LIG d   1       2.173   0.519  -2.425  0.00  0.00     0.035 H 
ATOM     32  H   LIG d   1       3.196  -0.934  -2.343  0.00  0.00     0.035 H 
BRANCH  30  33
ATOM     33  C   LIG d   1       4.261   0.919  -2.074  0.00  0.00     0.050 C 
ATOM     34  H   LIG d   1       3.899   1.392  -1.162  0.00  0.00     0.056 H 
ATOM     35  H   LIG d   1       5.101   0.265  -1.835  0.00  0.00     0.056 H 
BRANCH  33  36
ATOM     36  O   LIG d   1       4.686   1.924  -2.996  0.00  0.00    -0.395 OA
ATOM     37  H   LIG d   1       5.343   1.618  -3.636  0.00  0.00     0.209 HD
ENDBRANCH  33  36
ENDBRANCH  30  33
ENDBRANCH  26  30
ENDBRANCH  21  24
ENDBRANCH   1  21
BRANCH   9  38
ATOM     38  C   LIG d   1       2.336  -1.448 -12.499  0.00  0.00     0.224 C 
ATOM     39  O   LIG d   1       1.314  -2.059 -12.264  0.00  0.00    -0.275 OA
ATOM     40  N   LIG d   1       2.886  -1.504 -13.728  0.00  0.00    -0.297 N 
ATOM     41  C   LIG d   1       4.124  -0.772 -14.037  0.00  0.00     0.038 C 
ATOM     42  C   LIG d   1       2.267  -2.301 -14.799  0.00  0.00     0.038 C 
ATOM     43  C   LIG d   1       5.110  -1.744 -14.693  0.00  0.00     0.064 C 
ATOM     44  H   LIG d   1       3.903   0.047 -14.724  0.00  0.00     0.049 H 
ATOM     45  H   LIG d   1       4.554  -0.374 -13.118  0.00  0.00     0.049 H 
ATOM     46  O   LIG d   1       4.468  -2.398 -15.790  0.00  0.00    -0.377 OA
ATOM     47  H   LIG d   1       5.430  -2.487 -13.961  0.00  0.00     0.058 H 
ATOM     48  H   LIG d   1       5.979  -1.193 -15.055  0.00  0.00     0.058 H 
ATOM     49  C   LIG d   1       3.345  -3.199 -15.418  0.00  0.00     0.064 C 
ATOM     50  H   LIG d   1       2.942  -3.696 -16.301  0.00  0.00     0.058 H 
ATOM     51  H   LIG d   1       3.657  -3.949 -14.690  0.00  0.00     0.058 H 
ATOM     52  H   LIG d   1       1.861  -1.637 -15.562  0.00  0.00     0.049 H 
ATOM     53  H   LIG d   1       1.469  -2.917 -14.384  0.00  0.00     0.049 H 
ENDBRANCH   9  38
TORSDOF 6
ENDMDL
MODEL 5
REMARK VINA RESULT:      -5.4     12.910     14.778
REMARK  6 active torsions:
REMARK  status: ('A' for Active; 'I' for Inactive)
REMARK    1  A    between atoms: C_2  and  C_25 
REMARK    2  A    between atoms: N_5  and  C_6 
REMARK    3  A    between atoms: C_6  and  C_7 
REMARK    4  A    between atoms: C_15  and  C_17 
REMARK       I    between atoms: C_17  and  N_19 
REMARK    5  A    between atoms: C_25  and  C_26 
REMARK    6  A    between atoms: C_26  and  O_27 
ROOT
ATOM      1  C   LIG d   1      10.333   6.707  -6.230  0.00  0.00    -0.001 C 
ATOM      2  H   LIG d   1      11.239   6.163  -5.966  0.00  0.00     0.087 H 
ATOM      3  C   LIG d   1       9.677   6.050  -7.447  0.00  0.00    -0.004 C 
ATOM      4  C   LIG d   1       9.603   7.076  -8.585  0.00  0.00    -0.015 C 
ATOM      5  H   LIG d   1       9.144   6.626  -9.466  0.00  0.00     0.031 H 
ATOM      6  C   LIG d   1       8.787   8.282  -8.103  0.00  0.00    -0.009 C 
ATOM      7  C   LIG d   1       9.468   8.878  -6.868  0.00  0.00    -0.031 C 
ATOM      8  C   LIG d   1      11.644   8.163  -7.656  0.00  0.00    -0.020 C 
ATOM      9  C   LIG d   1      11.025   7.547  -8.913  0.00  0.00     0.079 C 
ATOM     10  H   LIG d   1      11.626   6.698  -9.238  0.00  0.00     0.045 H 
ATOM     11  H   LIG d   1      10.273   5.194  -7.765  0.00  0.00     0.032 H 
ATOM     12  H   LIG d   1       8.672   5.718  -7.186  0.00  0.00     0.032 H 
ATOM     13  H   LIG d   1       8.743   9.032  -8.893  0.00  0.00     0.032 H 
ATOM     14  H   LIG d   1       7.777   7.962  -7.848  0.00  0.00     0.032 H 
ATOM     15  H   LIG d   1       8.781   8.841  -6.022  0.00  0.00     0.081 H 
ATOM     16  H   LIG d   1       9.745   9.913  -7.068  0.00  0.00     0.081 H 
ATOM     17  H   LIG d   1      12.541   7.608  -7.382  0.00  0.00     0.082 H 
ATOM     18  H   LIG d   1      11.905   9.203  -7.851  0.00  0.00     0.082 H 
ATOM     19  N   LIG d   1      10.686   8.112  -6.530  0.00  0.00     0.239 N 
ATOM     20  H   LIG d   1      11.124   8.530  -5.700  0.00  0.00     0.204 HD
ENDROOT
BRANCH   1  21
ATOM     21  C   LIG d   1       9.360   6.682  -5.050  0.00  0.00     0.086 C 
ATOM     22  H   LIG d   1       8.693   7.542  -5.110  0.00  0.00     0.057 H 
ATOM     23  H   LIG d   1       8.772   5.765  -5.083  0.00  0.00     0.057 H 
BRANCH  21  24
ATOM     24  N   LIG d   1      10.112   6.736  -3.794  0.00  0.00    -0.246 N 
ATOM     25  C   LIG d   1       9.584   6.686  -2.550  0.00  0.00     0.049 A 
ATOM     26  C   LIG d   1      10.629   6.764  -1.693  0.00  0.00     0.085 A 
ATOM     27  H   LIG d   1       8.539   6.599  -2.292  0.00  0.00     0.085 H 
ATOM     28  N   LIG d   1      11.731   6.864  -2.446  0.00  0.00    -0.134 NA
ATOM     29  N   LIG d   1      11.390   6.845  -3.685  0.00  0.00    -0.065 NA
BRANCH  26  30
ATOM     30  C   LIG d   1      10.564   6.747  -0.187  0.00  0.00     0.016 C 
ATOM     31  H   LIG d   1      10.879   7.716   0.201  0.00  0.00     0.035 H 
ATOM     32  H   LIG d   1       9.542   6.544   0.130  0.00  0.00     0.035 H 
BRANCH  30  33
ATOM     33  C   LIG d   1      11.491   5.655   0.351  0.00  0.00     0.050 C 
ATOM     34  H   LIG d   1      12.510   6.037   0.406  0.00  0.00     0.056 H 
ATOM     35  H   LIG d   1      11.161   5.357   1.346  0.00  0.00     0.056 H 
BRANCH  33  36
ATOM     36  O   LIG d   1      11.453   4.525  -0.523  0.00  0.00    -0.395 OA
ATOM     37  H   LIG d   1      11.419   3.675  -0.065  0.00  0.00     0.209 HD
ENDBRANCH  33  36
ENDBRANCH  30  33
ENDBRANCH  26  30
ENDBRANCH  21  24
ENDBRANCH   1  21
BRANCH   9  38
ATOM     38  C   LIG d   1      10.976   8.579 -10.010  0.00  0.00     0.224 C 
ATOM     39  O   LIG d   1      11.122   9.753  -9.744  0.00  0.00    -0.275 OA
ATOM     40  N   LIG d   1      10.771   8.197 -11.286  0.00  0.00    -0.297 N 
ATOM     41  C   LIG d   1      10.592   6.779 -11.632  0.00  0.00     0.038 C 
ATOM     42  C   LIG d   1      10.720   9.187 -12.373  0.00  0.00     0.038 C 
ATOM     43  C   LIG d   1       9.329   6.646 -12.490  0.00  0.00     0.064 C 
ATOM     44  H   LIG d   1      11.457   6.427 -12.196  0.00  0.00     0.049 H 
ATOM     45  H   LIG d   1      10.482   6.190 -10.722  0.00  0.00     0.049 H 
ATOM     46  O   LIG d   1       9.404   7.563 -13.584  0.00  0.00    -0.377 OA
ATOM     47  H   LIG d   1       8.451   6.874 -11.884  0.00  0.00     0.058 H 
ATOM     48  H   LIG d   1       9.253   5.628 -12.872  0.00  0.00     0.058 H 
ATOM     49  C   LIG d   1       9.450   8.937 -13.195  0.00  0.00     0.064 C 
ATOM     50  H   LIG d   1       9.462   9.568 -14.084  0.00  0.00     0.058 H 
ATOM     51  H   LIG d   1       8.573   9.174 -12.592  0.00  0.00     0.058 H 
ATOM     52  H   LIG d   1      11.597   9.077 -13.011  0.00  0.00     0.049 H 
ATOM     53  H   LIG d   1      10.694  10.193 -11.953  0.00  0.00     0.049 H 
ENDBRANCH   9  38
TORSDOF 6
ENDMDL
MODEL 6
REMARK VINA RESULT:      -5.3      6.716     12.209
REMARK  6 active torsions:
REMARK  status: ('A' for Active; 'I' for Inactive)
REMARK    1  A    between atoms: C_2  and  C_25 
REMARK    2  A    between atoms: N_5  and  C_6 
REMARK    3  A    between atoms: C_6  and  C_7 
REMARK    4  A    between atoms: C_15  and  C_17 
REMARK       I    between atoms: C_17  and  N_19 
REMARK    5  A    between atoms: C_25  and  C_26 
REMARK    6  A    between atoms: C_26  and  O_27 
ROOT
ATOM      1  C   LIG d   1       9.671   4.377  -4.137  0.00  0.00    -0.001 C 
ATOM      2  H   LIG d   1       8.795   4.962  -3.862  0.00  0.00     0.087 H 
ATOM      3  C   LIG d   1       9.708   4.194  -5.656  0.00  0.00    -0.004 C 
ATOM      4  C   LIG d   1       9.662   2.695  -5.977  0.00  0.00    -0.015 C 
ATOM      5  H   LIG d   1       9.680   2.542  -7.057  0.00  0.00     0.031 H 
ATOM      6  C   LIG d   1      10.865   2.016  -5.311  0.00  0.00    -0.009 C 
ATOM      7  C   LIG d   1      10.796   2.258  -3.801  0.00  0.00    -0.031 C 
ATOM      8  C   LIG d   1       8.376   2.346  -3.871  0.00  0.00    -0.020 C 
ATOM      9  C   LIG d   1       8.377   2.106  -5.383  0.00  0.00     0.079 C 
ATOM     10  H   LIG d   1       7.510   2.592  -5.830  0.00  0.00     0.045 H 
ATOM     11  H   LIG d   1       8.847   4.690  -6.105  0.00  0.00     0.032 H 
ATOM     12  H   LIG d   1      10.626   4.627  -6.054  0.00  0.00     0.032 H 
ATOM     13  H   LIG d   1      10.836   0.944  -5.511  0.00  0.00     0.032 H 
ATOM     14  H   LIG d   1      11.789   2.435  -5.708  0.00  0.00     0.032 H 
ATOM     15  H   LIG d   1      11.688   2.795  -3.478  0.00  0.00     0.081 H 
ATOM     16  H   LIG d   1      10.738   1.302  -3.280  0.00  0.00     0.081 H 
ATOM     17  H   LIG d   1       7.509   2.946  -3.598  0.00  0.00     0.082 H 
ATOM     18  H   LIG d   1       8.336   1.389  -3.351  0.00  0.00     0.082 H 
ATOM     19  N   LIG d   1       9.603   3.063  -3.461  0.00  0.00     0.239 N 
ATOM     20  H   LIG d   1       9.579   3.211  -2.445  0.00  0.00     0.204 HD
ENDROOT
BRANCH   1  21
ATOM     21  C   LIG d   1      10.936   5.105  -3.679  0.00  0.00     0.086 C 
ATOM     22  H   LIG d   1      11.714   4.376  -3.451  0.00  0.00     0.057 H 
ATOM     23  H   LIG d   1      11.282   5.767  -4.473  0.00  0.00     0.057 H 
BRANCH  21  24
ATOM     24  N   LIG d   1      10.640   5.893  -2.480  0.00  0.00    -0.246 N 
ATOM     25  C   LIG d   1      10.590   7.243  -2.411  0.00  0.00     0.049 A 
ATOM     26  C   LIG d   1      10.285   7.544  -1.127  0.00  0.00     0.085 A 
ATOM     27  H   LIG d   1      10.757   7.941  -3.218  0.00  0.00     0.085 H 
ATOM     28  N   LIG d   1      10.174   6.377  -0.480  0.00  0.00    -0.134 NA
ATOM     29  N   LIG d   1      10.390   5.419  -1.310  0.00  0.00    -0.065 NA
BRANCH  26  30
ATOM     30  C   LIG d   1      10.112   8.921  -0.539  0.00  0.00     0.016 C 
ATOM     31  H   LIG d   1      10.326   8.889   0.530  0.00  0.00     0.035 H 
ATOM     32  H   LIG d   1      10.798   9.612  -1.027  0.00  0.00     0.035 H 
BRANCH  30  33
ATOM     33  C   LIG d   1       8.672   9.391  -0.758  0.00  0.00     0.050 C 
ATOM     34  H   LIG d   1       8.356  10.002   0.087  0.00  0.00     0.056 H 
ATOM     35  H   LIG d   1       8.620   9.982  -1.673  0.00  0.00     0.056 H 
BRANCH  33  36
ATOM     36  O   LIG d   1       7.812   8.255  -0.873  0.00  0.00    -0.395 OA
ATOM     37  H   LIG d   1       8.262   7.408  -0.748  0.00  0.00     0.209 HD
ENDBRANCH  33  36
ENDBRANCH  30  33
ENDBRANCH  26  30
ENDBRANCH  21  24
ENDBRANCH   1  21
BRANCH   9  38
ATOM     38  C   LIG d   1       8.323   0.626  -5.660  0.00  0.00     0.224 C 
ATOM     39  O   LIG d   1       8.741  -0.160  -4.836  0.00  0.00    -0.275 OA
ATOM     40  N   LIG d   1       7.810   0.175  -6.821  0.00  0.00    -0.297 N 
ATOM     41  C   LIG d   1       7.297   1.110  -7.835  0.00  0.00     0.038 C 
ATOM     42  C   LIG d   1       7.747  -1.265  -7.113  0.00  0.00     0.038 C 
ATOM     43  C   LIG d   1       7.929   0.754  -9.185  0.00  0.00     0.064 C 
ATOM     44  H   LIG d   1       6.212   1.018  -7.902  0.00  0.00     0.049 H 
ATOM     45  H   LIG d   1       7.563   2.131  -7.561  0.00  0.00     0.049 H 
ATOM     46  O   LIG d   1       7.731  -0.637  -9.446  0.00  0.00    -0.377 OA
ATOM     47  H   LIG d   1       8.998   0.971  -9.155  0.00  0.00     0.058 H 
ATOM     48  H   LIG d   1       7.459   1.343  -9.973  0.00  0.00     0.058 H 
ATOM     49  C   LIG d   1       8.358  -1.505  -8.499  0.00  0.00     0.064 C 
ATOM     50  H   LIG d   1       8.197  -2.543  -8.793  0.00  0.00     0.058 H 
ATOM     51  H   LIG d   1       9.428  -1.298  -8.467  0.00  0.00     0.058 H 
ATOM     52  H   LIG d   1       6.708  -1.595  -7.108  0.00  0.00     0.049 H 
ATOM     53  H   LIG d   1       8.312  -1.817  -6.362  0.00  0.00     0.049 H 
ENDBRANCH   9  38
TORSDOF 6
ENDMDL
MODEL 7
REMARK VINA RESULT:      -5.3      7.198     10.449
REMARK  6 active torsions:
REMARK  status: ('A' for Active; 'I' for Inactive)
REMARK    1  A    between atoms: C_2  and  C_25 
REMARK    2  A    between atoms: N_5  and  C_6 
REMARK    3  A    between atoms: C_6  and  C_7 
REMARK    4  A    between atoms: C_15  and  C_17 
REMARK       I    between atoms: C_17  and  N_19 
REMARK    5  A    between atoms: C_25  and  C_26 
REMARK    6  A    between atoms: C_26  and  O_27 
ROOT
ATOM      1  C   LIG d   1       9.028   3.640  -4.565  0.00  0.00    -0.001 C 
ATOM      2  H   LIG d   1       7.943   3.737  -4.526  0.00  0.00     0.087 H 
ATOM      3  C   LIG d   1       9.581   3.504  -3.144  0.00  0.00    -0.004 C 
ATOM      4  C   LIG d   1      10.548   4.663  -2.875  0.00  0.00    -0.015 C 
ATOM      5  H   LIG d   1      10.949   4.590  -1.864  0.00  0.00     0.031 H 
ATOM      6  C   LIG d   1      11.676   4.610  -3.913  0.00  0.00    -0.009 C 
ATOM      7  C   LIG d   1      11.065   4.716  -5.314  0.00  0.00    -0.031 C 
ATOM      8  C   LIG d   1       9.229   6.053  -4.470  0.00  0.00    -0.020 C 
ATOM      9  C   LIG d   1       9.788   5.984  -3.046  0.00  0.00     0.079 C 
ATOM     10  H   LIG d   1       8.968   6.031  -2.329  0.00  0.00     0.045 H 
ATOM     11  H   LIG d   1       8.760   3.539  -2.428  0.00  0.00     0.032 H 
ATOM     12  H   LIG d   1      10.109   2.555  -3.047  0.00  0.00     0.032 H 
ATOM     13  H   LIG d   1      12.362   5.441  -3.750  0.00  0.00     0.032 H 
ATOM     14  H   LIG d   1      12.216   3.668  -3.819  0.00  0.00     0.032 H 
ATOM     15  H   LIG d   1      11.313   3.823  -5.887  0.00  0.00     0.081 H 
ATOM     16  H   LIG d   1      11.462   5.596  -5.819  0.00  0.00     0.081 H 
ATOM     17  H   LIG d   1       8.143   6.132  -4.430  0.00  0.00     0.082 H 
ATOM     18  H   LIG d   1       9.640   6.923  -4.980  0.00  0.00     0.082 H 
ATOM     19  N   LIG d   1       9.594   4.836  -5.226  0.00  0.00     0.239 N 
ATOM     20  H   LIG d   1       9.208   4.905  -6.176  0.00  0.00     0.204 HD
ENDROOT
BRANCH   1  21
ATOM     21  C   LIG d   1       9.400   2.399  -5.379  0.00  0.00     0.086 C 
ATOM     22  H   LIG d   1       9.740   2.703  -6.370  0.00  0.00     0.057 H 
ATOM     23  H   LIG d   1      10.199   1.858  -4.873  0.00  0.00     0.057 H 
BRANCH  21  24
ATOM     24  N   LIG d   1       8.228   1.531  -5.512  0.00  0.00    -0.246 N 
ATOM     25  C   LIG d   1       7.775   0.662  -4.579  0.00  0.00     0.049 A 
ATOM     26  C   LIG d   1       6.679   0.074  -5.113  0.00  0.00     0.085 A 
ATOM     27  H   LIG d   1       8.201   0.477  -3.604  0.00  0.00     0.085 H 
ATOM     28  N   LIG d   1       6.522   0.599  -6.334  0.00  0.00    -0.134 NA
ATOM     29  N   LIG d   1       7.456   1.458  -6.540  0.00  0.00    -0.065 NA
BRANCH  26  30
ATOM     30  C   LIG d   1       5.809  -0.972  -4.463  0.00  0.00     0.016 C 
ATOM     31  H   LIG d   1       6.262  -1.954  -4.594  0.00  0.00     0.035 H 
ATOM     32  H   LIG d   1       5.714  -0.754  -3.399  0.00  0.00     0.035 H 
BRANCH  30  33
ATOM     33  C   LIG d   1       4.423  -0.957  -5.111  0.00  0.00     0.050 C 
ATOM     34  H   LIG d   1       4.512  -1.216  -6.166  0.00  0.00     0.056 H 
ATOM     35  H   LIG d   1       3.781  -1.683  -4.612  0.00  0.00     0.056 H 
BRANCH  33  36
ATOM     36  O   LIG d   1       3.854   0.348  -4.988  0.00  0.00    -0.395 OA
ATOM     37  H   LIG d   1       3.693   0.622  -4.075  0.00  0.00     0.209 HD
ENDBRANCH  33  36
ENDBRANCH  30  33
ENDBRANCH  26  30
ENDBRANCH  21  24
ENDBRANCH   1  21
BRANCH   9  38
ATOM     38  C   LIG d   1      10.726   7.141  -2.815  0.00  0.00     0.224 C 
ATOM     39  O   LIG d   1      11.225   7.714  -3.760  0.00  0.00    -0.275 OA
ATOM     40  N   LIG d   1      11.008   7.540  -1.560  0.00  0.00    -0.297 N 
ATOM     41  C   LIG d   1      10.414   6.860  -0.398  0.00  0.00     0.038 C 
ATOM     42  C   LIG d   1      11.921   8.667  -1.311  0.00  0.00     0.038 C 
ATOM     43  C   LIG d   1      11.538   6.503   0.581  0.00  0.00     0.064 C 
ATOM     44  H   LIG d   1       9.700   7.525   0.090  0.00  0.00     0.049 H 
ATOM     45  H   LIG d   1       9.906   5.952  -0.723  0.00  0.00     0.049 H 
ATOM     46  O   LIG d   1      12.312   7.672   0.856  0.00  0.00    -0.377 OA
ATOM     47  H   LIG d   1      12.177   5.738   0.138  0.00  0.00     0.058 H 
ATOM     48  H   LIG d   1      11.106   6.124   1.508  0.00  0.00     0.058 H 
ATOM     49  C   LIG d   1      12.972   8.221  -0.287  0.00  0.00     0.064 C 
ATOM     50  H   LIG d   1      13.572   9.079   0.016  0.00  0.00     0.058 H 
ATOM     51  H   LIG d   1      13.617   7.464  -0.733  0.00  0.00     0.058 H 
ATOM     52  H   LIG d   1      11.359   9.512  -0.914  0.00  0.00     0.049 H 
ATOM     53  H   LIG d   1      12.412   8.954  -2.240  0.00  0.00     0.049 H 
ENDBRANCH   9  38
TORSDOF 6
ENDMDL
MODEL 8
REMARK VINA RESULT:      -5.2      6.471     11.839
REMARK  6 active torsions:
REMARK  status: ('A' for Active; 'I' for Inactive)
REMARK    1  A    between atoms: C_2  and  C_25 
REMARK    2  A    between atoms: N_5  and  C_6 
REMARK    3  A    between atoms: C_6  and  C_7 
REMARK    4  A    between atoms: C_15  and  C_17 
REMARK       I    between atoms: C_17  and  N_19 
REMARK    5  A    between atoms: C_25  and  C_26 
REMARK    6  A    between atoms: C_26  and  O_27 
ROOT
ATOM      1  C   LIG d   1       9.625   4.295  -4.268  0.00  0.00    -0.001 C 
ATOM      2  H   LIG d   1       8.701   4.854  -4.129  0.00  0.00     0.087 H 
ATOM      3  C   LIG d   1       9.723   3.823  -5.722  0.00  0.00    -0.004 C 
ATOM      4  C   LIG d   1       9.795   2.290  -5.742  0.00  0.00    -0.015 C 
ATOM      5  H   LIG d   1       9.858   1.931  -6.769  0.00  0.00     0.031 H 
ATOM      6  C   LIG d   1      11.021   1.848  -4.934  0.00  0.00    -0.009 C 
ATOM      7  C   LIG d   1      10.888   2.375  -3.503  0.00  0.00    -0.031 C 
ATOM      8  C   LIG d   1       8.471   2.262  -3.630  0.00  0.00    -0.020 C 
ATOM      9  C   LIG d   1       8.537   1.732  -5.065  0.00  0.00     0.079 C 
ATOM     10  H   LIG d   1       7.652   2.055  -5.614  0.00  0.00     0.045 H 
ATOM     11  H   LIG d   1       8.843   4.154  -6.273  0.00  0.00     0.032 H 
ATOM     12  H   LIG d   1      10.620   4.238  -6.181  0.00  0.00     0.032 H 
ATOM     13  H   LIG d   1      11.076   0.759  -4.920  0.00  0.00     0.032 H 
ATOM     14  H   LIG d   1      11.925   2.251  -5.391  0.00  0.00     0.032 H 
ATOM     15  H   LIG d   1      11.728   3.031  -3.277  0.00  0.00     0.081 H 
ATOM     16  H   LIG d   1      10.882   1.537  -2.805  0.00  0.00     0.081 H 
ATOM     17  H   LIG d   1       7.555   2.836  -3.495  0.00  0.00     0.082 H 
ATOM     18  H   LIG d   1       8.483   1.425  -2.933  0.00  0.00     0.082 H 
ATOM     19  N   LIG d   1       9.630   3.136  -3.349  0.00  0.00     0.239 N 
ATOM     20  H   LIG d   1       9.564   3.478  -2.382  0.00  0.00     0.204 HD
ENDROOT
BRANCH   1  21
ATOM     21  C   LIG d   1      10.820   5.193  -3.942  0.00  0.00     0.086 C 
ATOM     22  H   LIG d   1      11.708   4.577  -3.796  0.00  0.00     0.057 H 
ATOM     23  H   LIG d   1      10.990   5.886  -4.766  0.00  0.00     0.057 H 
BRANCH  21  24
ATOM     24  N   LIG d   1      10.544   5.948  -2.717  0.00  0.00    -0.246 N 
ATOM     25  C   LIG d   1      10.527   7.295  -2.603  0.00  0.00     0.049 A 
ATOM     26  C   LIG d   1      10.230   7.561  -1.309  0.00  0.00     0.085 A 
ATOM     27  H   LIG d   1      10.710   8.015  -3.387  0.00  0.00     0.085 H 
ATOM     28  N   LIG d   1      10.090   6.376  -0.701  0.00  0.00    -0.134 NA
ATOM     29  N   LIG d   1      10.283   5.441  -1.563  0.00  0.00    -0.065 NA
BRANCH  26  30
ATOM     30  C   LIG d   1      10.091   8.921  -0.675  0.00  0.00     0.016 C 
ATOM     31  H   LIG d   1      10.395   8.868   0.370  0.00  0.00     0.035 H 
ATOM     32  H   LIG d   1      10.724   9.633  -1.204  0.00  0.00     0.035 H 
BRANCH  30  33
ATOM     33  C   LIG d   1       8.632   9.376  -0.761  0.00  0.00     0.050 C 
ATOM     34  H   LIG d   1       8.368   9.922   0.144  0.00  0.00     0.056 H 
ATOM     35  H   LIG d   1       8.505  10.025  -1.627  0.00  0.00     0.056 H 
BRANCH  33  36
ATOM     36  O   LIG d   1       7.784   8.233  -0.892  0.00  0.00    -0.395 OA
ATOM     37  H   LIG d   1       8.254   7.389  -0.857  0.00  0.00     0.209 HD
ENDBRANCH  33  36
ENDBRANCH  30  33
ENDBRANCH  26  30
ENDBRANCH  21  24
ENDBRANCH   1  21
BRANCH   9  38
ATOM     38  C   LIG d   1       8.598   0.227  -5.046  0.00  0.00     0.224 C 
ATOM     39  O   LIG d   1       9.459  -0.352  -5.674  0.00  0.00    -0.275 OA
ATOM     40  N   LIG d   1       7.698  -0.475  -4.331  0.00  0.00    -0.297 N 
ATOM     41  C   LIG d   1       6.644   0.206  -3.562  0.00  0.00     0.038 C 
ATOM     42  C   LIG d   1       7.739  -1.946  -4.298  0.00  0.00     0.038 C 
ATOM     43  C   LIG d   1       5.297  -0.429  -3.920  0.00  0.00     0.064 C 
ATOM     44  H   LIG d   1       6.835   0.086  -2.494  0.00  0.00     0.049 H 
ATOM     45  H   LIG d   1       6.632   1.265  -3.816  0.00  0.00     0.049 H 
ATOM     46  O   LIG d   1       5.386  -1.847  -3.758  0.00  0.00    -0.377 OA
ATOM     47  H   LIG d   1       5.048  -0.196  -4.956  0.00  0.00     0.058 H 
ATOM     48  H   LIG d   1       4.522  -0.035  -3.261  0.00  0.00     0.058 H 
ATOM     49  C   LIG d   1       6.336  -2.476  -4.620  0.00  0.00     0.064 C 
ATOM     50  H   LIG d   1       6.311  -3.555  -4.466  0.00  0.00     0.058 H 
ATOM     51  H   LIG d   1       6.091  -2.251  -5.658  0.00  0.00     0.058 H 
ATOM     52  H   LIG d   1       8.038  -2.282  -3.305  0.00  0.00     0.049 H 
ATOM     53  H   LIG d   1       8.449  -2.311  -5.039  0.00  0.00     0.049 H 
ENDBRANCH   9  38
TORSDOF 6
ENDMDL
MODEL 9
REMARK VINA RESULT:      -5.2     12.904     14.924
REMARK  6 active torsions:
REMARK  status: ('A' for Active; 'I' for Inactive)
REMARK    1  A    between atoms: C_2  and  C_25 
REMARK    2  A    between atoms: N_5  and  C_6 
REMARK    3  A    between atoms: C_6  and  C_7 
REMARK    4  A    between atoms: C_15  and  C_17 
REMARK       I    between atoms: C_17  and  N_19 
REMARK    5  A    between atoms: C_25  and  C_26 
REMARK    6  A    between atoms: C_26  and  O_27 
ROOT
ATOM      1  C   LIG d   1      10.433   8.289  -5.984  0.00  0.00    -0.001 C 
ATOM      2  H   LIG d   1      11.261   8.884  -6.366  0.00  0.00     0.087 H 
ATOM      3  C   LIG d   1       9.977   8.853  -4.636  0.00  0.00    -0.004 C 
ATOM      4  C   LIG d   1      10.134   7.765  -3.565  0.00  0.00    -0.015 C 
ATOM      5  H   LIG d   1       9.821   8.148  -2.593  0.00  0.00     0.031 H 
ATOM      6  C   LIG d   1       9.286   6.554  -3.971  0.00  0.00    -0.009 C 
ATOM      7  C   LIG d   1       9.761   6.053  -5.338  0.00  0.00    -0.031 C 
ATOM      8  C   LIG d   1      12.017   6.816  -4.893  0.00  0.00    -0.020 C 
ATOM      9  C   LIG d   1      11.606   7.338  -3.514  0.00  0.00     0.079 C 
ATOM     10  H   LIG d   1      12.227   8.193  -3.247  0.00  0.00     0.045 H 
ATOM     11  H   LIG d   1      10.591   9.714  -4.374  0.00  0.00     0.032 H 
ATOM     12  H   LIG d   1       8.931   9.155  -4.701  0.00  0.00     0.032 H 
ATOM     13  H   LIG d   1       9.404   5.762  -3.231  0.00  0.00     0.032 H 
ATOM     14  H   LIG d   1       8.237   6.844  -4.030  0.00  0.00     0.032 H 
ATOM     15  H   LIG d   1       8.938   6.106  -6.050  0.00  0.00     0.081 H 
ATOM     16  H   LIG d   1      10.102   5.021  -5.250  0.00  0.00     0.081 H 
ATOM     17  H   LIG d   1      12.835   7.422  -5.282  0.00  0.00     0.082 H 
ATOM     18  H   LIG d   1      12.341   5.779  -4.807  0.00  0.00     0.082 H 
ATOM     19  N   LIG d   1      10.878   6.887  -5.833  0.00  0.00     0.239 N 
ATOM     20  H   LIG d   1      11.178   6.532  -6.749  0.00  0.00     0.204 HD
ENDROOT
BRANCH   1  21
ATOM     21  C   LIG d   1       9.269   8.336  -6.977  0.00  0.00     0.086 C 
ATOM     22  H   LIG d   1       8.669   7.431  -6.877  0.00  0.00     0.057 H 
ATOM     23  H   LIG d   1       8.649   9.208  -6.769  0.00  0.00     0.057 H 
BRANCH  21  24
ATOM     24  N   LIG d   1       9.794   8.424  -8.342  0.00  0.00    -0.246 N 
ATOM     25  C   LIG d   1       9.826   7.418  -9.245  0.00  0.00     0.049 A 
ATOM     26  C   LIG d   1      10.386   7.933 -10.365  0.00  0.00     0.085 A 
ATOM     27  H   LIG d   1       9.474   6.407  -9.103  0.00  0.00     0.085 H 
ATOM     28  N   LIG d   1      10.673   9.212 -10.091  0.00  0.00    -0.134 NA
ATOM     29  N   LIG d   1      10.310   9.470  -8.885  0.00  0.00    -0.065 NA
BRANCH  26  30
ATOM     30  C   LIG d   1      10.643   7.209 -11.661  0.00  0.00     0.016 C 
ATOM     31  H   LIG d   1      11.609   7.514 -12.063  0.00  0.00     0.035 H 
ATOM     32  H   LIG d   1      10.647   6.134 -11.482  0.00  0.00     0.035 H 
BRANCH  30  33
ATOM     33  C   LIG d   1       9.540   7.555 -12.665  0.00  0.00     0.050 C 
ATOM     34  H   LIG d   1       9.927   7.459 -13.679  0.00  0.00     0.056 H 
ATOM     35  H   LIG d   1       8.701   6.872 -12.530  0.00  0.00     0.056 H 
BRANCH  33  36
ATOM     36  O   LIG d   1       9.103   8.898 -12.447  0.00  0.00    -0.395 OA
ATOM     37  H   LIG d   1       9.824   9.533 -12.334  0.00  0.00     0.209 HD
ENDBRANCH  33  36
ENDBRANCH  30  33
ENDBRANCH  26  30
ENDBRANCH  21  24
ENDBRANCH   1  21
BRANCH   9  38
ATOM     38  C   LIG d   1      11.781   6.248  -2.488  0.00  0.00     0.224 C 
ATOM     39  O   LIG d   1      11.738   5.084  -2.827  0.00  0.00    -0.275 OA
ATOM     40  N   LIG d   1      11.986   6.566  -1.195  0.00  0.00    -0.297 N 
ATOM     41  C   LIG d   1      12.043   7.971  -0.760  0.00  0.00     0.038 C 
ATOM     42  C   LIG d   1      12.160   5.519  -0.177  0.00  0.00     0.038 C 
ATOM     43  C   LIG d   1      11.096   8.146   0.432  0.00  0.00     0.064 C 
ATOM     44  H   LIG d   1      13.061   8.221  -0.461  0.00  0.00     0.049 H 
ATOM     45  H   LIG d   1      11.730   8.620  -1.578  0.00  0.00     0.049 H 
ATOM     46  O   LIG d   1      11.400   7.162   1.423  0.00  0.00    -0.377 OA
ATOM     47  H   LIG d   1      10.065   8.023   0.100  0.00  0.00     0.058 H 
ATOM     48  H   LIG d   1      11.226   9.142   0.856  0.00  0.00     0.058 H 
ATOM     49  C   LIG d   1      11.207   5.814   0.988  0.00  0.00     0.064 C 
ATOM     50  H   LIG d   1      11.417   5.132   1.812  0.00  0.00     0.058 H 
ATOM     51  H   LIG d   1      10.177   5.681   0.659  0.00  0.00     0.058 H 
ATOM     52  H   LIG d   1      13.189   5.523   0.182  0.00  0.00     0.049 H 
ATOM     53  H   LIG d   1      11.924   4.545  -0.606  0.00  0.00     0.049 H 
ENDBRANCH   9  38
TORSDOF 6
ENDMDL
