MODEL 1
REMARK VINA RESULT:      -6.7      0.000      0.000
REMARK  11 active torsions:
REMARK  status: ('A' for Active; 'I' for Inactive)
REMARK    1  A    between atoms: C_1  and  C_2 
REMARK    2  A    between atoms: C_5  and  O_31 
REMARK    3  A    between atoms: C_6  and  O_29 
REMARK    4  A    between atoms: C_12  and  C_13 
REMARK    5  A    between atoms: C_13  and  C_14 
REMARK       I    between atoms: C_14  and  N_16 
REMARK    6  A    between atoms: N_16  and  CA_17 
REMARK    7  A    between atoms: CA_17  and  C_19 
REMARK    8  A    between atoms: CA_17  and  C_27 
REMARK    9  A    between atoms: C_19  and  C_20 
REMARK   10  A    between atoms: O_29  and  C_30 
REMARK   11  A    between atoms: O_31  and  C_32 
ROOT
ATOM      1  C   LIG d   1       3.257  -1.767  -8.699  0.00  0.00    -0.029 A 
ATOM      2  C   LIG d   1       2.375  -2.140  -9.806  0.00  0.00     0.025 A 
ATOM      3  C   LIG d   1       2.175  -3.484 -10.146  0.00  0.00    -0.005 A 
ATOM      4  C   LIG d   1       1.339  -3.805 -11.192  0.00  0.00     0.162 A 
ATOM      5  C   LIG d   1       0.691  -2.794 -11.911  0.00  0.00     0.165 A 
ATOM      6  C   LIG d   1       0.883  -1.465 -11.581  0.00  0.00     0.027 A 
ATOM      7  C   LIG d   1       1.722  -1.125 -10.530  0.00  0.00     0.143 A 
ATOM      8  O   LIG d   1       1.918   0.170 -10.196  0.00  0.00    -0.422 OA
ATOM      9  C   LIG d   1       2.721   0.517  -9.179  0.00  0.00     0.341 A 
ATOM     10  O   LIG d   1       2.863   1.698  -8.911  0.00  0.00    -0.245 OA
ATOM     11  C   LIG d   1       3.409  -0.447  -8.416  0.00  0.00     0.049 A 
ATOM     12  H   LIG d   1       2.675  -4.265  -9.591  0.00  0.00     0.066 H 
ATOM     13  H   LIG d   1       0.380  -0.692 -12.141  0.00  0.00     0.069 H 
ENDROOT
BRANCH  11  14
ATOM     14  C   LIG d   1       4.308  -0.016  -7.285  0.00  0.00     0.056 C 
ATOM     15  H   LIG d   1       5.135  -0.719  -7.190  0.00  0.00     0.041 H 
ATOM     16  H   LIG d   1       4.700   0.980  -7.492  0.00  0.00     0.041 H 
BRANCH  14  17
ATOM     17  C   LIG d   1       3.521   0.011  -6.000  0.00  0.00     0.218 C 
ATOM     18  O   LIG d   1       2.314   0.120  -6.031  0.00  0.00    -0.275 OA
ATOM     19  N   LIG d   1       4.159  -0.087  -4.817  0.00  0.00    -0.307 N 
ATOM     20  H   LIG d   1       5.124  -0.174  -4.792  0.00  0.00     0.149 HD
BRANCH  19  21
ATOM     21  CA  LIG d   1       3.394  -0.061  -3.568  0.00  0.00     0.067 C 
ATOM     22  HA  LIG d   1       2.328  -0.070  -3.794  0.00  0.00     0.056 H 
BRANCH  21  23
ATOM     23  C   LIG d   1       3.747  -1.290  -2.728  0.00  0.00    -0.004 C 
ATOM     24  H   LIG d   1       4.003  -0.977  -1.716  0.00  0.00     0.034 H 
ATOM     25  H   LIG d   1       2.892  -1.964  -2.694  0.00  0.00     0.034 H 
BRANCH  23  26
ATOM     26  C   LIG d   1       4.923  -2.000  -3.346  0.00  0.00    -0.045 A 
ATOM     27  C   LIG d   1       6.211  -1.590  -3.054  0.00  0.00    -0.057 A 
ATOM     28  C   LIG d   1       7.290  -2.241  -3.621  0.00  0.00    -0.043 A 
ATOM     29  H   LIG d   1       6.373  -0.760  -2.382  0.00  0.00     0.062 H 
ATOM     30  C   LIG d   1       7.081  -3.304  -4.482  0.00  0.00     0.041 A 
ATOM     31  H   LIG d   1       8.295  -1.920  -3.392  0.00  0.00     0.063 H 
ATOM     32  C   LIG d   1       5.793  -3.714  -4.775  0.00  0.00    -0.043 A 
ATOM     33 CL   LIG d   1       8.437  -4.121  -5.196  0.00  0.00    -0.084 Cl
ATOM     34  C   LIG d   1       4.715  -3.066  -4.203  0.00  0.00    -0.057 A 
ATOM     35  H   LIG d   1       5.630  -4.543  -5.448  0.00  0.00     0.063 H 
ATOM     36  H   LIG d   1       3.709  -3.389  -4.428  0.00  0.00     0.062 H 
ENDBRANCH  23  26
ENDBRANCH  21  23
BRANCH  21  37
ATOM     37  C   LIG d   1       3.733   1.189  -2.796  0.00  0.00     0.062 C 
ATOM     38  O   LIG d   1       3.617   2.272  -3.321  0.00  0.00    -0.548 OA
ATOM     39  OXT LIG d   1       4.162   1.100  -1.528  0.00  0.00    -0.548 OA
ENDBRANCH  21  37
ENDBRANCH  19  21
ENDBRANCH  14  17
ENDBRANCH  11  14
BRANCH   1  40
ATOM     40  C   LIG d   1       3.976  -2.820  -7.893  0.00  0.00    -0.038 C 
ATOM     41  H   LIG d   1       4.322  -2.385  -6.956  0.00  0.00     0.028 H 
ATOM     42  H   LIG d   1       3.295  -3.644  -7.682  0.00  0.00     0.028 H 
ATOM     43  H   LIG d   1       4.830  -3.190  -8.460  0.00  0.00     0.028 H 
ENDBRANCH   1  40
BRANCH   4  44
ATOM     44  O   LIG d   1       1.142  -5.108 -11.528  0.00  0.00    -0.491 OA
BRANCH  44  45
ATOM     45  C   LIG d   1       0.985  -6.038 -10.454  0.00  0.00     0.079 C 
ATOM     46  H   LIG d   1       1.208  -7.044 -10.808  0.00  0.00     0.066 H 
ATOM     47  H   LIG d   1       1.669  -5.778  -9.646  0.00  0.00     0.066 H 
ATOM     48  H   LIG d   1      -0.041  -6.000 -10.087  0.00  0.00     0.066 H 
ENDBRANCH  44  45
ENDBRANCH   4  44
BRANCH   5  49
ATOM     49  O   LIG d   1      -0.131  -3.121 -12.941  0.00  0.00    -0.491 OA
BRANCH  49  50
ATOM     50  C   LIG d   1      -0.980  -2.089 -13.446  0.00  0.00     0.079 C 
ATOM     51  H   LIG d   1      -1.660  -2.508 -14.187  0.00  0.00     0.066 H 
ATOM     52  H   LIG d   1      -1.556  -1.659 -12.626  0.00  0.00     0.066 H 
ATOM     53  H   LIG d   1      -0.372  -1.312 -13.909  0.00  0.00     0.066 H 
ENDBRANCH  49  50
ENDBRANCH   5  49
TORSDOF 11
ENDMDL
MODEL 2
REMARK VINA RESULT:      -6.5      6.326     10.083
REMARK  11 active torsions:
REMARK  status: ('A' for Active; 'I' for Inactive)
REMARK    1  A    between atoms: C_1  and  C_2 
REMARK    2  A    between atoms: C_5  and  O_31 
REMARK    3  A    between atoms: C_6  and  O_29 
REMARK    4  A    between atoms: C_12  and  C_13 
REMARK    5  A    between atoms: C_13  and  C_14 
REMARK       I    between atoms: C_14  and  N_16 
REMARK    6  A    between atoms: N_16  and  CA_17 
REMARK    7  A    between atoms: CA_17  and  C_19 
REMARK    8  A    between atoms: CA_17  and  C_27 
REMARK    9  A    between atoms: C_19  and  C_20 
REMARK   10  A    between atoms: O_29  and  C_30 
REMARK   11  A    between atoms: O_31  and  C_32 
ROOT
ATOM      1  C   LIG d   1       6.940  -8.354  -4.550  0.00  0.00    -0.029 A 
ATOM      2  C   LIG d   1       7.439  -9.112  -3.401  0.00  0.00     0.025 A 
ATOM      3  C   LIG d   1       8.765  -8.976  -2.971  0.00  0.00    -0.005 A 
ATOM      4  C   LIG d   1       9.207  -9.701  -1.887  0.00  0.00     0.162 A 
ATOM      5  C   LIG d   1       8.337 -10.568  -1.218  0.00  0.00     0.165 A 
ATOM      6  C   LIG d   1       7.026 -10.707  -1.636  0.00  0.00     0.027 A 
ATOM      7  C   LIG d   1       6.565  -9.984  -2.727  0.00  0.00     0.143 A 
ATOM      8  O   LIG d   1       5.287 -10.110  -3.146  0.00  0.00    -0.422 OA
ATOM      9  C   LIG d   1       4.821  -9.414  -4.195  0.00  0.00     0.341 A 
ATOM     10  O   LIG d   1       3.659  -9.557  -4.534  0.00  0.00    -0.245 OA
ATOM     11  C   LIG d   1       5.644  -8.528  -4.919  0.00  0.00     0.049 A 
ATOM     12  H   LIG d   1       9.438  -8.306  -3.487  0.00  0.00     0.066 H 
ATOM     13  H   LIG d   1       6.361 -11.378  -1.114  0.00  0.00     0.069 H 
ENDROOT
BRANCH  11  14
ATOM     14  C   LIG d   1       5.085  -7.769  -6.096  0.00  0.00     0.056 C 
ATOM     15  H   LIG d   1       5.798  -7.802  -6.920  0.00  0.00     0.041 H 
ATOM     16  H   LIG d   1       4.146  -8.226  -6.410  0.00  0.00     0.041 H 
BRANCH  14  17
ATOM     17  C   LIG d   1       4.840  -6.336  -5.700  0.00  0.00     0.218 C 
ATOM     18  O   LIG d   1       3.975  -6.070  -4.894  0.00  0.00    -0.275 OA
ATOM     19  N   LIG d   1       5.583  -5.351  -6.242  0.00  0.00    -0.307 N 
ATOM     20  H   LIG d   1       6.274  -5.564  -6.887  0.00  0.00     0.149 HD
BRANCH  19  21
ATOM     21  CA  LIG d   1       5.345  -3.958  -5.857  0.00  0.00     0.067 C 
ATOM     22  HA  LIG d   1       4.382  -3.880  -5.353  0.00  0.00     0.056 H 
BRANCH  21  23
ATOM     23  C   LIG d   1       6.454  -3.493  -4.912  0.00  0.00    -0.004 C 
ATOM     24  H   LIG d   1       6.757  -4.321  -4.272  0.00  0.00     0.034 H 
ATOM     25  H   LIG d   1       7.310  -3.154  -5.496  0.00  0.00     0.034 H 
BRANCH  23  26
ATOM     26  C   LIG d   1       5.947  -2.359  -4.060  0.00  0.00    -0.045 A 
ATOM     27  C   LIG d   1       4.718  -2.460  -3.436  0.00  0.00    -0.057 A 
ATOM     28  C   LIG d   1       4.251  -1.420  -2.654  0.00  0.00    -0.043 A 
ATOM     29  H   LIG d   1       4.122  -3.353  -3.559  0.00  0.00     0.062 H 
ATOM     30  C   LIG d   1       5.014  -0.277  -2.498  0.00  0.00     0.041 A 
ATOM     31  H   LIG d   1       3.291  -1.500  -2.167  0.00  0.00     0.063 H 
ATOM     32  C   LIG d   1       6.244  -0.175  -3.124  0.00  0.00    -0.043 A 
ATOM     33 CL   LIG d   1       4.427   1.031  -1.517  0.00  0.00    -0.084 Cl
ATOM     34  C   LIG d   1       6.712  -1.218  -3.900  0.00  0.00    -0.057 A 
ATOM     35  H   LIG d   1       6.840   0.717  -3.001  0.00  0.00     0.063 H 
ATOM     36  H   LIG d   1       7.674  -1.141  -4.385  0.00  0.00     0.062 H 
ENDBRANCH  23  26
ENDBRANCH  21  23
BRANCH  21  37
ATOM     37  C   LIG d   1       5.338  -3.090  -7.090  0.00  0.00     0.062 C 
ATOM     38  O   LIG d   1       6.256  -3.147  -7.873  0.00  0.00    -0.548 OA
ATOM     39  OXT LIG d   1       4.313  -2.254  -7.317  0.00  0.00    -0.548 OA
ENDBRANCH  21  37
ENDBRANCH  19  21
ENDBRANCH  14  17
ENDBRANCH  11  14
BRANCH   1  40
ATOM     40  C   LIG d   1       7.839  -7.406  -5.303  0.00  0.00    -0.038 C 
ATOM     41  H   LIG d   1       8.284  -6.697  -4.606  0.00  0.00     0.028 H 
ATOM     42  H   LIG d   1       8.628  -7.972  -5.799  0.00  0.00     0.028 H 
ATOM     43  H   LIG d   1       7.255  -6.867  -6.048  0.00  0.00     0.028 H 
ENDBRANCH   1  40
BRANCH   4  44
ATOM     44  O   LIG d   1      10.494  -9.574  -1.464  0.00  0.00    -0.491 OA
BRANCH  44  45
ATOM     45  C   LIG d   1      10.850  -8.342  -0.833  0.00  0.00     0.079 C 
ATOM     46  H   LIG d   1      11.189  -7.632  -1.587  0.00  0.00     0.066 H 
ATOM     47  H   LIG d   1       9.982  -7.935  -0.315  0.00  0.00     0.066 H 
ATOM     48  H   LIG d   1      11.651  -8.520  -0.115  0.00  0.00     0.066 H 
ENDBRANCH  44  45
ENDBRANCH   4  44
BRANCH   5  49
ATOM     49  O   LIG d   1       8.782 -11.278  -0.150  0.00  0.00    -0.491 OA
BRANCH  49  50
ATOM     50  C   LIG d   1       9.193 -12.625  -0.392  0.00  0.00     0.079 C 
ATOM     51  H   LIG d   1       8.622 -13.299   0.245  0.00  0.00     0.066 H 
ATOM     52  H   LIG d   1       9.017 -12.875  -1.438  0.00  0.00     0.066 H 
ATOM     53  H   LIG d   1      10.255 -12.726  -0.168  0.00  0.00     0.066 H 
ENDBRANCH  49  50
ENDBRANCH   5  49
TORSDOF 11
ENDMDL
MODEL 3
REMARK VINA RESULT:      -6.5      3.435      8.544
REMARK  11 active torsions:
REMARK  status: ('A' for Active; 'I' for Inactive)
REMARK    1  A    between atoms: C_1  and  C_2 
REMARK    2  A    between atoms: C_5  and  O_31 
REMARK    3  A    between atoms: C_6  and  O_29 
REMARK    4  A    between atoms: C_12  and  C_13 
REMARK    5  A    between atoms: C_13  and  C_14 
REMARK       I    between atoms: C_14  and  N_16 
REMARK    6  A    between atoms: N_16  and  CA_17 
REMARK    7  A    between atoms: CA_17  and  C_19 
REMARK    8  A    between atoms: CA_17  and  C_27 
REMARK    9  A    between atoms: C_19  and  C_20 
REMARK   10  A    between atoms: O_29  and  C_30 
REMARK   11  A    between atoms: O_31  and  C_32 
ROOT
ATOM      1  C   LIG d   1       5.576  -2.871  -4.409  0.00  0.00    -0.029 A 
ATOM      2  C   LIG d   1       6.188  -1.558  -4.196  0.00  0.00     0.025 A 
ATOM      3  C   LIG d   1       5.606  -0.626  -3.327  0.00  0.00    -0.005 A 
ATOM      4  C   LIG d   1       6.204   0.601  -3.145  0.00  0.00     0.162 A 
ATOM      5  C   LIG d   1       7.388   0.915  -3.823  0.00  0.00     0.165 A 
ATOM      6  C   LIG d   1       7.968  -0.001  -4.682  0.00  0.00     0.027 A 
ATOM      7  C   LIG d   1       7.378  -1.241  -4.876  0.00  0.00     0.143 A 
ATOM      8  O   LIG d   1       7.935  -2.146  -5.712  0.00  0.00    -0.422 OA
ATOM      9  C   LIG d   1       7.382  -3.353  -5.907  0.00  0.00     0.341 A 
ATOM     10  O   LIG d   1       7.924  -4.137  -6.667  0.00  0.00    -0.245 OA
ATOM     11  C   LIG d   1       6.188  -3.733  -5.263  0.00  0.00     0.049 A 
ATOM     12  H   LIG d   1       4.693  -0.868  -2.804  0.00  0.00     0.066 H 
ATOM     13  H   LIG d   1       8.881   0.249  -5.201  0.00  0.00     0.069 H 
ENDROOT
BRANCH  11  14
ATOM     14  C   LIG d   1       5.595  -5.096  -5.515  0.00  0.00     0.056 C 
ATOM     15  H   LIG d   1       6.367  -5.763  -5.898  0.00  0.00     0.041 H 
ATOM     16  H   LIG d   1       5.199  -5.498  -4.582  0.00  0.00     0.041 H 
BRANCH  14  17
ATOM     17  C   LIG d   1       4.483  -4.981  -6.525  0.00  0.00     0.218 C 
ATOM     18  O   LIG d   1       3.351  -5.287  -6.217  0.00  0.00    -0.275 OA
ATOM     19  N   LIG d   1       4.745  -4.537  -7.770  0.00  0.00    -0.307 N 
ATOM     20  H   LIG d   1       5.651  -4.293  -8.016  0.00  0.00     0.149 HD
BRANCH  19  21
ATOM     21  CA  LIG d   1       3.664  -4.425  -8.751  0.00  0.00     0.067 C 
ATOM     22  HA  LIG d   1       2.769  -4.041  -8.263  0.00  0.00     0.056 H 
BRANCH  21  23
ATOM     23  C   LIG d   1       4.087  -3.471  -9.869  0.00  0.00    -0.004 C 
ATOM     24  H   LIG d   1       5.160  -3.560 -10.037  0.00  0.00     0.034 H 
ATOM     25  H   LIG d   1       3.554  -3.726 -10.785  0.00  0.00     0.034 H 
BRANCH  23  26
ATOM     26  C   LIG d   1       3.757  -2.055  -9.473  0.00  0.00    -0.045 A 
ATOM     27  C   LIG d   1       2.439  -1.640  -9.426  0.00  0.00    -0.057 A 
ATOM     28  C   LIG d   1       2.135  -0.342  -9.063  0.00  0.00    -0.043 A 
ATOM     29  H   LIG d   1       1.647  -2.331  -9.673  0.00  0.00     0.062 H 
ATOM     30  C   LIG d   1       3.152   0.544  -8.748  0.00  0.00     0.041 A 
ATOM     31  H   LIG d   1       1.106  -0.018  -9.027  0.00  0.00     0.063 H 
ATOM     32  C   LIG d   1       4.471   0.128  -8.795  0.00  0.00    -0.043 A 
ATOM     33 CL   LIG d   1       2.771   2.176  -8.293  0.00  0.00    -0.084 Cl
ATOM     34  C   LIG d   1       4.772  -1.172  -9.153  0.00  0.00    -0.057 A 
ATOM     35  H   LIG d   1       5.264   0.818  -8.549  0.00  0.00     0.063 H 
ATOM     36  H   LIG d   1       5.801  -1.498  -9.185  0.00  0.00     0.062 H 
ENDBRANCH  23  26
ENDBRANCH  21  23
BRANCH  21  37
ATOM     37  C   LIG d   1       3.372  -5.785  -9.335  0.00  0.00     0.062 C 
ATOM     38  O   LIG d   1       2.251  -6.233  -9.288  0.00  0.00    -0.548 OA
ATOM     39  OXT LIG d   1       4.356  -6.495  -9.907  0.00  0.00    -0.548 OA
ENDBRANCH  21  37
ENDBRANCH  19  21
ENDBRANCH  14  17
ENDBRANCH  11  14
BRANCH   1  40
ATOM     40  C   LIG d   1       4.302  -3.257  -3.701  0.00  0.00    -0.038 C 
ATOM     41  H   LIG d   1       4.513  -3.437  -2.648  0.00  0.00     0.028 H 
ATOM     42  H   LIG d   1       3.577  -2.447  -3.793  0.00  0.00     0.028 H 
ATOM     43  H   LIG d   1       3.896  -4.161  -4.152  0.00  0.00     0.028 H 
ENDBRANCH   1  40
BRANCH   4  44
ATOM     44  O   LIG d   1       5.644   1.511  -2.304  0.00  0.00    -0.491 OA
BRANCH  44  45
ATOM     45  C   LIG d   1       4.425   1.134  -1.660  0.00  0.00     0.079 C 
ATOM     46  H   LIG d   1       3.783   0.615  -2.371  0.00  0.00     0.066 H 
ATOM     47  H   LIG d   1       4.648   0.473  -0.822  0.00  0.00     0.066 H 
ATOM     48  H   LIG d   1       3.917   2.026  -1.293  0.00  0.00     0.066 H 
ENDBRANCH  44  45
ENDBRANCH   4  44
BRANCH   5  49
ATOM     49  O   LIG d   1       7.970   2.127  -3.637  0.00  0.00    -0.491 OA
BRANCH  49  50
ATOM     50  C   LIG d   1       9.398   2.172  -3.666  0.00  0.00     0.079 C 
ATOM     51  H   LIG d   1       9.758   2.802  -2.853  0.00  0.00     0.066 H 
ATOM     52  H   LIG d   1       9.795   1.164  -3.549  0.00  0.00     0.066 H 
ATOM     53  H   LIG d   1       9.729   2.585  -4.619  0.00  0.00     0.066 H 
ENDBRANCH  49  50
ENDBRANCH   5  49
TORSDOF 11
ENDMDL
MODEL 4
REMARK VINA RESULT:      -6.5      2.838      8.083
REMARK  11 active torsions:
REMARK  status: ('A' for Active; 'I' for Inactive)
REMARK    1  A    between atoms: C_1  and  C_2 
REMARK    2  A    between atoms: C_5  and  O_31 
REMARK    3  A    between atoms: C_6  and  O_29 
REMARK    4  A    between atoms: C_12  and  C_13 
REMARK    5  A    between atoms: C_13  and  C_14 
REMARK       I    between atoms: C_14  and  N_16 
REMARK    6  A    between atoms: N_16  and  CA_17 
REMARK    7  A    between atoms: CA_17  and  C_19 
REMARK    8  A    between atoms: CA_17  and  C_27 
REMARK    9  A    between atoms: C_19  and  C_20 
REMARK   10  A    between atoms: O_29  and  C_30 
REMARK   11  A    between atoms: O_31  and  C_32 
ROOT
ATOM      1  C   LIG d   1       5.383  -2.540  -7.270  0.00  0.00    -0.029 A 
ATOM      2  C   LIG d   1       5.413  -1.866  -5.971  0.00  0.00     0.025 A 
ATOM      3  C   LIG d   1       6.062  -0.635  -5.813  0.00  0.00    -0.005 A 
ATOM      4  C   LIG d   1       6.074  -0.024  -4.579  0.00  0.00     0.162 A 
ATOM      5  C   LIG d   1       5.439  -0.629  -3.489  0.00  0.00     0.165 A 
ATOM      6  C   LIG d   1       4.796  -1.844  -3.636  0.00  0.00     0.027 A 
ATOM      7  C   LIG d   1       4.775  -2.472  -4.873  0.00  0.00     0.143 A 
ATOM      8  O   LIG d   1       4.149  -3.660  -5.032  0.00  0.00    -0.422 OA
ATOM      9  C   LIG d   1       4.114  -4.280  -6.222  0.00  0.00     0.341 A 
ATOM     10  O   LIG d   1       3.533  -5.346  -6.318  0.00  0.00    -0.245 OA
ATOM     11  C   LIG d   1       4.736  -3.732  -7.361  0.00  0.00     0.049 A 
ATOM     12  H   LIG d   1       6.552  -0.168  -6.655  0.00  0.00     0.066 H 
ATOM     13  H   LIG d   1       4.309  -2.303  -2.790  0.00  0.00     0.069 H 
ENDROOT
BRANCH  11  14
ATOM     14  C   LIG d   1       4.680  -4.462  -8.678  0.00  0.00     0.056 C 
ATOM     15  H   LIG d   1       5.473  -4.096  -9.331  0.00  0.00     0.041 H 
ATOM     16  H   LIG d   1       4.815  -5.531  -8.507  0.00  0.00     0.041 H 
BRANCH  14  17
ATOM     17  C   LIG d   1       3.342  -4.222  -9.329  0.00  0.00     0.218 C 
ATOM     18  O   LIG d   1       2.520  -5.112  -9.371  0.00  0.00    -0.275 OA
ATOM     19  N   LIG d   1       3.059  -3.018  -9.864  0.00  0.00    -0.307 N 
ATOM     20  H   LIG d   1       3.717  -2.306  -9.831  0.00  0.00     0.149 HD
BRANCH  19  21
ATOM     21  CA  LIG d   1       1.759  -2.785 -10.497  0.00  0.00     0.067 C 
ATOM     22  HA  LIG d   1       1.070  -3.582 -10.217  0.00  0.00     0.056 H 
BRANCH  21  23
ATOM     23  C   LIG d   1       1.200  -1.439 -10.032  0.00  0.00    -0.004 C 
ATOM     24  H   LIG d   1       0.539  -1.036 -10.798  0.00  0.00     0.034 H 
ATOM     25  H   LIG d   1       0.640  -1.579  -9.107  0.00  0.00     0.034 H 
BRANCH  23  26
ATOM     26  C   LIG d   1       2.335  -0.478  -9.792  0.00  0.00    -0.045 A 
ATOM     27  C   LIG d   1       3.051   0.026 -10.861  0.00  0.00    -0.057 A 
ATOM     28  C   LIG d   1       4.093   0.908 -10.642  0.00  0.00    -0.043 A 
ATOM     29  H   LIG d   1       2.796  -0.269 -11.868  0.00  0.00     0.062 H 
ATOM     30  C   LIG d   1       4.420   1.284  -9.351  0.00  0.00     0.041 A 
ATOM     31  H   LIG d   1       4.652   1.301 -11.478  0.00  0.00     0.063 H 
ATOM     32  C   LIG d   1       3.703   0.778  -8.281  0.00  0.00    -0.043 A 
ATOM     33 CL   LIG d   1       5.730   2.391  -9.075  0.00  0.00    -0.084 Cl
ATOM     34  C   LIG d   1       2.659  -0.098  -8.502  0.00  0.00    -0.057 A 
ATOM     35  H   LIG d   1       3.958   1.072  -7.273  0.00  0.00     0.063 H 
ATOM     36  H   LIG d   1       2.096  -0.489  -7.667  0.00  0.00     0.062 H 
ENDBRANCH  23  26
ENDBRANCH  21  23
BRANCH  21  37
ATOM     37  C   LIG d   1       1.925  -2.769 -11.995  0.00  0.00     0.062 C 
ATOM     38  O   LIG d   1       1.009  -2.414 -12.700  0.00  0.00    -0.548 OA
ATOM     39  OXT LIG d   1       3.088  -3.149 -12.546  0.00  0.00    -0.548 OA
ENDBRANCH  21  37
ENDBRANCH  19  21
ENDBRANCH  14  17
ENDBRANCH  11  14
BRANCH   1  40
ATOM     40  C   LIG d   1       6.051  -1.928  -8.476  0.00  0.00    -0.038 C 
ATOM     41  H   LIG d   1       5.411  -2.054  -9.348  0.00  0.00     0.028 H 
ATOM     42  H   LIG d   1       6.218  -0.866  -8.298  0.00  0.00     0.028 H 
ATOM     43  H   LIG d   1       7.007  -2.422  -8.651  0.00  0.00     0.028 H 
ENDBRANCH   1  40
BRANCH   4  44
ATOM     44  O   LIG d   1       6.703   1.171  -4.419  0.00  0.00    -0.491 OA
BRANCH  44  45
ATOM     45  C   LIG d   1       8.069   1.245  -4.835  0.00  0.00     0.079 C 
ATOM     46  H   LIG d   1       8.719   1.127  -3.968  0.00  0.00     0.066 H 
ATOM     47  H   LIG d   1       8.273   0.451  -5.553  0.00  0.00     0.066 H 
ATOM     48  H   LIG d   1       8.255   2.212  -5.301  0.00  0.00     0.066 H 
ENDBRANCH  44  45
ENDBRANCH   4  44
BRANCH   5  49
ATOM     49  O   LIG d   1       5.456  -0.018  -2.276  0.00  0.00    -0.491 OA
BRANCH  49  50
ATOM     50  C   LIG d   1       4.311   0.763  -1.927  0.00  0.00     0.079 C 
ATOM     51  H   LIG d   1       3.414   0.149  -2.009  0.00  0.00     0.066 H 
ATOM     52  H   LIG d   1       4.414   1.120  -0.903  0.00  0.00     0.066 H 
ATOM     53  H   LIG d   1       4.232   1.614  -2.603  0.00  0.00     0.066 H 
ENDBRANCH  49  50
ENDBRANCH   5  49
TORSDOF 11
ENDMDL
MODEL 5
REMARK VINA RESULT:      -6.4      4.242      8.438
REMARK  11 active torsions:
REMARK  status: ('A' for Active; 'I' for Inactive)
REMARK    1  A    between atoms: C_1  and  C_2 
REMARK    2  A    between atoms: C_5  and  O_31 
REMARK    3  A    between atoms: C_6  and  O_29 
REMARK    4  A    between atoms: C_12  and  C_13 
REMARK    5  A    between atoms: C_13  and  C_14 
REMARK       I    between atoms: C_14  and  N_16 
REMARK    6  A    between atoms: N_16  and  CA_17 
REMARK    7  A    between atoms: CA_17  and  C_19 
REMARK    8  A    between atoms: CA_17  and  C_27 
REMARK    9  A    between atoms: C_19  and  C_20 
REMARK   10  A    between atoms: O_29  and  C_30 
REMARK   11  A    between atoms: O_31  and  C_32 
ROOT
ATOM      1  C   LIG d   1       7.762  -0.658  -4.561  0.00  0.00    -0.029 A 
ATOM      2  C   LIG d   1       8.391   0.630  -4.857  0.00  0.00     0.025 A 
ATOM      3  C   LIG d   1       9.486   0.715  -5.726  0.00  0.00    -0.005 A 
ATOM      4  C   LIG d   1      10.057   1.941  -5.986  0.00  0.00     0.162 A 
ATOM      5  C   LIG d   1       9.545   3.097  -5.387  0.00  0.00     0.165 A 
ATOM      6  C   LIG d   1       8.463   3.022  -4.528  0.00  0.00     0.027 A 
ATOM      7  C   LIG d   1       7.877   1.794  -4.256  0.00  0.00     0.143 A 
ATOM      8  O   LIG d   1       6.819   1.707  -3.419  0.00  0.00    -0.422 OA
ATOM      9  C   LIG d   1       6.235   0.530  -3.148  0.00  0.00     0.341 A 
ATOM     10  O   LIG d   1       5.280   0.501  -2.392  0.00  0.00    -0.245 OA
ATOM     11  C   LIG d   1       6.702  -0.675  -3.711  0.00  0.00     0.049 A 
ATOM     12  H   LIG d   1       9.882  -0.178  -6.188  0.00  0.00     0.066 H 
ATOM     13  H   LIG d   1       8.075   3.919  -4.070  0.00  0.00     0.069 H 
ENDROOT
BRANCH  11  14
ATOM     14  C   LIG d   1       6.023  -1.978  -3.377  0.00  0.00     0.056 C 
ATOM     15  H   LIG d   1       6.767  -2.773  -3.325  0.00  0.00     0.041 H 
ATOM     16  H   LIG d   1       5.519  -1.889  -2.414  0.00  0.00     0.041 H 
BRANCH  14  17
ATOM     17  C   LIG d   1       5.011  -2.307  -4.445  0.00  0.00     0.218 C 
ATOM     18  O   LIG d   1       3.992  -1.657  -4.534  0.00  0.00    -0.275 OA
ATOM     19  N   LIG d   1       5.240  -3.322  -5.301  0.00  0.00    -0.307 N 
ATOM     20  H   LIG d   1       6.056  -3.842  -5.229  0.00  0.00     0.149 HD
BRANCH  19  21
ATOM     21  CA  LIG d   1       4.258  -3.641  -6.338  0.00  0.00     0.067 C 
ATOM     22  HA  LIG d   1       3.346  -3.070  -6.163  0.00  0.00     0.056 H 
BRANCH  21  23
ATOM     23  C   LIG d   1       4.829  -3.282  -7.711  0.00  0.00    -0.004 C 
ATOM     24  H   LIG d   1       5.908  -3.438  -7.707  0.00  0.00     0.034 H 
ATOM     25  H   LIG d   1       4.373  -3.916  -8.472  0.00  0.00     0.034 H 
BRANCH  23  26
ATOM     26  C   LIG d   1       4.532  -1.837  -8.016  0.00  0.00    -0.045 A 
ATOM     27  C   LIG d   1       5.532  -0.888  -7.910  0.00  0.00    -0.057 A 
ATOM     28  C   LIG d   1       5.261   0.438  -8.190  0.00  0.00    -0.043 A 
ATOM     29  H   LIG d   1       6.526  -1.184  -7.607  0.00  0.00     0.062 H 
ATOM     30  C   LIG d   1       3.986   0.815  -8.576  0.00  0.00     0.041 A 
ATOM     31  H   LIG d   1       6.042   1.178  -8.106  0.00  0.00     0.063 H 
ATOM     32  C   LIG d   1       2.986  -0.134  -8.682  0.00  0.00    -0.043 A 
ATOM     33 CL   LIG d   1       3.644   2.482  -8.927  0.00  0.00    -0.084 Cl
ATOM     34  C   LIG d   1       3.260  -1.460  -8.408  0.00  0.00    -0.057 A 
ATOM     35  H   LIG d   1       1.991   0.160  -8.984  0.00  0.00     0.063 H 
ATOM     36  H   LIG d   1       2.480  -2.203  -8.495  0.00  0.00     0.062 H 
ENDBRANCH  23  26
ENDBRANCH  21  23
BRANCH  21  37
ATOM     37  C   LIG d   1       3.942  -5.115  -6.296  0.00  0.00     0.062 C 
ATOM     38  O   LIG d   1       3.588  -5.685  -7.301  0.00  0.00    -0.548 OA
ATOM     39  OXT LIG d   1       4.055  -5.793  -5.143  0.00  0.00    -0.548 OA
ENDBRANCH  21  37
ENDBRANCH  19  21
ENDBRANCH  14  17
ENDBRANCH  11  14
BRANCH   1  40
ATOM     40  C   LIG d   1       8.276  -1.932  -5.183  0.00  0.00    -0.038 C 
ATOM     41  H   LIG d   1       8.991  -1.689  -5.969  0.00  0.00     0.028 H 
ATOM     42  H   LIG d   1       8.768  -2.535  -4.419  0.00  0.00     0.028 H 
ATOM     43  H   LIG d   1       7.443  -2.491  -5.607  0.00  0.00     0.028 H 
ENDBRANCH   1  40
BRANCH   4  44
ATOM     44  O   LIG d   1      11.121   2.029  -6.828  0.00  0.00    -0.491 OA
BRANCH  44  45
ATOM     45  C   LIG d   1      10.869   1.807  -8.217  0.00  0.00     0.079 C 
ATOM     46  H   LIG d   1      10.051   2.448  -8.545  0.00  0.00     0.066 H 
ATOM     47  H   LIG d   1      11.765   2.040  -8.791  0.00  0.00     0.066 H 
ATOM     48  H   LIG d   1      10.598   0.762  -8.375  0.00  0.00     0.066 H 
ENDBRANCH  44  45
ENDBRANCH   4  44
BRANCH   5  49
ATOM     49  O   LIG d   1      10.114   4.301  -5.650  0.00  0.00    -0.491 OA
BRANCH  49  50
ATOM     50  C   LIG d   1       9.567   5.438  -4.979  0.00  0.00     0.079 C 
ATOM     51  H   LIG d   1       9.607   6.303  -5.640  0.00  0.00     0.066 H 
ATOM     52  H   LIG d   1       8.531   5.235  -4.707  0.00  0.00     0.066 H 
ATOM     53  H   LIG d   1      10.146   5.641  -4.078  0.00  0.00     0.066 H 
ENDBRANCH  49  50
ENDBRANCH   5  49
TORSDOF 11
ENDMDL
MODEL 6
REMARK VINA RESULT:      -6.4      1.189      2.252
REMARK  11 active torsions:
REMARK  status: ('A' for Active; 'I' for Inactive)
REMARK    1  A    between atoms: C_1  and  C_2 
REMARK    2  A    between atoms: C_5  and  O_31 
REMARK    3  A    between atoms: C_6  and  O_29 
REMARK    4  A    between atoms: C_12  and  C_13 
REMARK    5  A    between atoms: C_13  and  C_14 
REMARK       I    between atoms: C_14  and  N_16 
REMARK    6  A    between atoms: N_16  and  CA_17 
REMARK    7  A    between atoms: CA_17  and  C_19 
REMARK    8  A    between atoms: CA_17  and  C_27 
REMARK    9  A    between atoms: C_19  and  C_20 
REMARK   10  A    between atoms: O_29  and  C_30 
REMARK   11  A    between atoms: O_31  and  C_32 
ROOT
ATOM      1  C   LIG d   1       2.651  -0.492  -9.426  0.00  0.00    -0.029 A 
ATOM      2  C   LIG d   1       1.992  -1.432 -10.333  0.00  0.00     0.025 A 
ATOM      3  C   LIG d   1       1.189  -0.975 -11.386  0.00  0.00    -0.005 A 
ATOM      4  C   LIG d   1       0.582  -1.883 -12.224  0.00  0.00     0.162 A 
ATOM      5  C   LIG d   1       0.768  -3.256 -12.027  0.00  0.00     0.165 A 
ATOM      6  C   LIG d   1       1.559  -3.715 -10.991  0.00  0.00     0.027 A 
ATOM      7  C   LIG d   1       2.178  -2.813 -10.138  0.00  0.00     0.143 A 
ATOM      8  O   LIG d   1       2.955  -3.249  -9.121  0.00  0.00    -0.422 OA
ATOM      9  C   LIG d   1       3.566  -2.392  -8.289  0.00  0.00     0.341 A 
ATOM     10  O   LIG d   1       4.261  -2.831  -7.390  0.00  0.00    -0.245 OA
ATOM     11  C   LIG d   1       3.419  -0.996  -8.424  0.00  0.00     0.049 A 
ATOM     12  H   LIG d   1       1.045   0.085 -11.538  0.00  0.00     0.066 H 
ATOM     13  H   LIG d   1       1.697  -4.776 -10.846  0.00  0.00     0.069 H 
ENDROOT
BRANCH  11  14
ATOM     14  C   LIG d   1       4.116  -0.066  -7.465  0.00  0.00     0.056 C 
ATOM     15  H   LIG d   1       5.120  -0.440  -7.262  0.00  0.00     0.041 H 
ATOM     16  H   LIG d   1       4.182   0.929  -7.906  0.00  0.00     0.041 H 
BRANCH  14  17
ATOM     17  C   LIG d   1       3.336   0.005  -6.178  0.00  0.00     0.218 C 
ATOM     18  O   LIG d   1       2.138   0.187  -6.205  0.00  0.00    -0.275 OA
ATOM     19  N   LIG d   1       3.970  -0.133  -4.997  0.00  0.00    -0.307 N 
ATOM     20  H   LIG d   1       4.928  -0.278  -4.975  0.00  0.00     0.149 HD
BRANCH  19  21
ATOM     21  CA  LIG d   1       3.212  -0.064  -3.746  0.00  0.00     0.067 C 
ATOM     22  HA  LIG d   1       2.145  -0.049  -3.968  0.00  0.00     0.056 H 
BRANCH  21  23
ATOM     23  C   LIG d   1       3.538  -1.284  -2.883  0.00  0.00    -0.004 C 
ATOM     24  H   LIG d   1       3.677  -0.971  -1.849  0.00  0.00     0.034 H 
ATOM     25  H   LIG d   1       2.716  -1.998  -2.938  0.00  0.00     0.034 H 
BRANCH  23  26
ATOM     26  C   LIG d   1       4.801  -1.933  -3.386  0.00  0.00    -0.045 A 
ATOM     27  C   LIG d   1       6.032  -1.406  -3.044  0.00  0.00    -0.057 A 
ATOM     28  C   LIG d   1       7.192  -2.000  -3.505  0.00  0.00    -0.043 A 
ATOM     29  H   LIG d   1       6.088  -0.529  -2.415  0.00  0.00     0.062 H 
ATOM     30  C   LIG d   1       7.119  -3.122  -4.311  0.00  0.00     0.041 A 
ATOM     31  H   LIG d   1       8.153  -1.588  -3.237  0.00  0.00     0.063 H 
ATOM     32  C   LIG d   1       5.887  -3.649  -4.655  0.00  0.00    -0.043 A 
ATOM     33 CL   LIG d   1       8.576  -3.868  -4.893  0.00  0.00    -0.084 Cl
ATOM     34  C   LIG d   1       4.729  -3.057  -4.188  0.00  0.00    -0.057 A 
ATOM     35  H   LIG d   1       5.830  -4.525  -5.284  0.00  0.00     0.063 H 
ATOM     36  H   LIG d   1       3.766  -3.471  -4.452  0.00  0.00     0.062 H 
ENDBRANCH  23  26
ENDBRANCH  21  23
BRANCH  21  37
ATOM     37  C   LIG d   1       3.585   1.193  -3.000  0.00  0.00     0.062 C 
ATOM     38  O   LIG d   1       3.556   2.260  -3.565  0.00  0.00    -0.548 OA
ATOM     39  OXT LIG d   1       3.948   1.125  -1.710  0.00  0.00    -0.548 OA
ENDBRANCH  21  37
ENDBRANCH  19  21
ENDBRANCH  14  17
ENDBRANCH  11  14
BRANCH   1  40
ATOM     40  C   LIG d   1       2.483   0.997  -9.597  0.00  0.00    -0.038 C 
ATOM     41  H   LIG d   1       1.425   1.232  -9.710  0.00  0.00     0.028 H 
ATOM     42  H   LIG d   1       2.877   1.509  -8.719  0.00  0.00     0.028 H 
ATOM     43  H   LIG d   1       3.025   1.324 -10.483  0.00  0.00     0.028 H 
ENDBRANCH   1  40
BRANCH   4  44
ATOM     44  O   LIG d   1      -0.200  -1.445 -13.247  0.00  0.00    -0.491 OA
BRANCH  44  45
ATOM     45  C   LIG d   1      -1.514  -0.994 -12.912  0.00  0.00     0.079 C 
ATOM     46  H   LIG d   1      -1.571  -0.805 -11.840  0.00  0.00     0.066 H 
ATOM     47  H   LIG d   1      -1.732  -0.075 -13.454  0.00  0.00     0.066 H 
ATOM     48  H   LIG d   1      -2.242  -1.758 -13.185  0.00  0.00     0.066 H 
ENDBRANCH  44  45
ENDBRANCH   4  44
BRANCH   5  49
ATOM     49  O   LIG d   1       0.165  -4.143 -12.860  0.00  0.00    -0.491 OA
BRANCH  49  50
ATOM     50  C   LIG d   1      -0.990  -4.820 -12.361  0.00  0.00     0.079 C 
ATOM     51  H   LIG d   1      -0.972  -4.814 -11.271  0.00  0.00     0.066 H 
ATOM     52  H   LIG d   1      -1.888  -4.312 -12.712  0.00  0.00     0.066 H 
ATOM     53  H   LIG d   1      -0.991  -5.849 -12.719  0.00  0.00     0.066 H 
ENDBRANCH  49  50
ENDBRANCH   5  49
TORSDOF 11
ENDMDL
MODEL 7
REMARK VINA RESULT:      -6.3      1.788      2.843
REMARK  11 active torsions:
REMARK  status: ('A' for Active; 'I' for Inactive)
REMARK    1  A    between atoms: C_1  and  C_2 
REMARK    2  A    between atoms: C_5  and  O_31 
REMARK    3  A    between atoms: C_6  and  O_29 
REMARK    4  A    between atoms: C_12  and  C_13 
REMARK    5  A    between atoms: C_13  and  C_14 
REMARK       I    between atoms: C_14  and  N_16 
REMARK    6  A    between atoms: N_16  and  CA_17 
REMARK    7  A    between atoms: CA_17  and  C_19 
REMARK    8  A    between atoms: CA_17  and  C_27 
REMARK    9  A    between atoms: C_19  and  C_20 
REMARK   10  A    between atoms: O_29  and  C_30 
REMARK   11  A    between atoms: O_31  and  C_32 
ROOT
ATOM      1  C   LIG d   1       2.918  -1.475  -8.867  0.00  0.00    -0.029 A 
ATOM      2  C   LIG d   1       2.759  -2.786  -9.499  0.00  0.00     0.025 A 
ATOM      3  C   LIG d   1       1.604  -3.099 -10.227  0.00  0.00    -0.005 A 
ATOM      4  C   LIG d   1       1.482  -4.340 -10.811  0.00  0.00     0.162 A 
ATOM      5  C   LIG d   1       2.507  -5.283 -10.681  0.00  0.00     0.165 A 
ATOM      6  C   LIG d   1       3.651  -4.981  -9.965  0.00  0.00     0.027 A 
ATOM      7  C   LIG d   1       3.789  -3.736  -9.369  0.00  0.00     0.143 A 
ATOM      8  O   LIG d   1       4.902  -3.427  -8.667  0.00  0.00    -0.422 OA
ATOM      9  C   LIG d   1       5.056  -2.226  -8.090  0.00  0.00     0.341 A 
ATOM     10  O   LIG d   1       6.080  -1.991  -7.471  0.00  0.00    -0.245 OA
ATOM     11  C   LIG d   1       4.062  -1.230  -8.175  0.00  0.00     0.049 A 
ATOM     12  H   LIG d   1       0.812  -2.371 -10.327  0.00  0.00     0.066 H 
ATOM     13  H   LIG d   1       4.437  -5.715  -9.869  0.00  0.00     0.069 H 
ENDROOT
BRANCH  11  14
ATOM     14  C   LIG d   1       4.270   0.104  -7.507  0.00  0.00     0.056 C 
ATOM     15  H   LIG d   1       5.301   0.426  -7.651  0.00  0.00     0.041 H 
ATOM     16  H   LIG d   1       3.595   0.840  -7.947  0.00  0.00     0.041 H 
BRANCH  14  17
ATOM     17  C   LIG d   1       3.984  -0.022  -6.033  0.00  0.00     0.218 C 
ATOM     18  O   LIG d   1       2.839  -0.082  -5.641  0.00  0.00    -0.275 OA
ATOM     19  N   LIG d   1       5.002  -0.068  -5.150  0.00  0.00    -0.307 N 
ATOM     20  H   LIG d   1       5.918  -0.019  -5.464  0.00  0.00     0.149 HD
BRANCH  19  21
ATOM     21  CA  LIG d   1       4.724  -0.190  -3.718  0.00  0.00     0.067 C 
ATOM     22  HA  LIG d   1       3.731  -0.617  -3.575  0.00  0.00     0.056 H 
BRANCH  21  23
ATOM     23  C   LIG d   1       5.769  -1.101  -3.072  0.00  0.00    -0.004 C 
ATOM     24  H   LIG d   1       6.732  -0.592  -3.051  0.00  0.00     0.034 H 
ATOM     25  H   LIG d   1       5.463  -1.341  -2.053  0.00  0.00     0.034 H 
BRANCH  23  26
ATOM     26  C   LIG d   1       5.891  -2.373  -3.871  0.00  0.00    -0.045 A 
ATOM     27  C   LIG d   1       4.755  -3.064  -4.247  0.00  0.00    -0.057 A 
ATOM     28  C   LIG d   1       4.865  -4.230  -4.980  0.00  0.00    -0.043 A 
ATOM     29  H   LIG d   1       3.780  -2.693  -3.968  0.00  0.00     0.062 H 
ATOM     30  C   LIG d   1       6.115  -4.706  -5.337  0.00  0.00     0.041 A 
ATOM     31  H   LIG d   1       3.977  -4.770  -5.274  0.00  0.00     0.063 H 
ATOM     32  C   LIG d   1       7.252  -4.014  -4.960  0.00  0.00    -0.043 A 
ATOM     33 CL   LIG d   1       6.255  -6.173  -6.258  0.00  0.00    -0.084 Cl
ATOM     34  C   LIG d   1       7.139  -2.846  -4.232  0.00  0.00    -0.057 A 
ATOM     35  H   LIG d   1       8.227  -4.386  -5.239  0.00  0.00     0.063 H 
ATOM     36  H   LIG d   1       8.027  -2.302  -3.942  0.00  0.00     0.062 H 
ENDBRANCH  23  26
ENDBRANCH  21  23
BRANCH  21  37
ATOM     37  C   LIG d   1       4.781   1.173  -3.076  0.00  0.00     0.062 C 
ATOM     38  O   LIG d   1       5.712   1.466  -2.363  0.00  0.00    -0.548 OA
ATOM     39  OXT LIG d   1       3.798   2.060  -3.296  0.00  0.00    -0.548 OA
ENDBRANCH  21  37
ENDBRANCH  19  21
ENDBRANCH  14  17
ENDBRANCH  11  14
BRANCH   1  40
ATOM     40  C   LIG d   1       1.842  -0.425  -8.979  0.00  0.00    -0.038 C 
ATOM     41  H   LIG d   1       2.288   0.563  -8.871  0.00  0.00     0.028 H 
ATOM     42  H   LIG d   1       1.361  -0.502  -9.955  0.00  0.00     0.028 H 
ATOM     43  H   LIG d   1       1.101  -0.578  -8.195  0.00  0.00     0.028 H 
ENDBRANCH   1  40
BRANCH   4  44
ATOM     44  O   LIG d   1       0.362  -4.650 -11.518  0.00  0.00    -0.491 OA
BRANCH  44  45
ATOM     45  C   LIG d   1      -0.813  -4.962 -10.766  0.00  0.00     0.079 C 
ATOM     46  H   LIG d   1      -0.754  -4.489  -9.787  0.00  0.00     0.066 H 
ATOM     47  H   LIG d   1      -1.691  -4.592 -11.296  0.00  0.00     0.066 H 
ATOM     48  H   LIG d   1      -0.891  -6.042 -10.645  0.00  0.00     0.066 H 
ENDBRANCH  44  45
ENDBRANCH   4  44
BRANCH   5  49
ATOM     49  O   LIG d   1       2.378  -6.503 -11.261  0.00  0.00    -0.491 OA
BRANCH  49  50
ATOM     50  C   LIG d   1       1.991  -7.587 -10.414  0.00  0.00     0.079 C 
ATOM     51  H   LIG d   1       2.001  -7.258  -9.376  0.00  0.00     0.066 H 
ATOM     52  H   LIG d   1       0.987  -7.916 -10.682  0.00  0.00     0.066 H 
ATOM     53  H   LIG d   1       2.690  -8.414 -10.540  0.00  0.00     0.066 H 
ENDBRANCH  49  50
ENDBRANCH   5  49
TORSDOF 11
ENDMDL
MODEL 8
REMARK VINA RESULT:      -6.3      5.183      8.335
REMARK  11 active torsions:
REMARK  status: ('A' for Active; 'I' for Inactive)
REMARK    1  A    between atoms: C_1  and  C_2 
REMARK    2  A    between atoms: C_5  and  O_31 
REMARK    3  A    between atoms: C_6  and  O_29 
REMARK    4  A    between atoms: C_12  and  C_13 
REMARK    5  A    between atoms: C_13  and  C_14 
REMARK       I    between atoms: C_14  and  N_16 
REMARK    6  A    between atoms: N_16  and  CA_17 
REMARK    7  A    between atoms: CA_17  and  C_19 
REMARK    8  A    between atoms: CA_17  and  C_27 
REMARK    9  A    between atoms: C_19  and  C_20 
REMARK   10  A    between atoms: O_29  and  C_30 
REMARK   11  A    between atoms: O_31  and  C_32 
ROOT
ATOM      1  C   LIG d   1       8.711   1.741  -6.300  0.00  0.00    -0.029 A 
ATOM      2  C   LIG d   1       9.093   2.927  -7.070  0.00  0.00     0.025 A 
ATOM      3  C   LIG d   1       9.095   2.906  -8.470  0.00  0.00    -0.005 A 
ATOM      4  C   LIG d   1       9.458   4.037  -9.168  0.00  0.00     0.162 A 
ATOM      5  C   LIG d   1       9.821   5.201  -8.482  0.00  0.00     0.165 A 
ATOM      6  C   LIG d   1       9.821   5.229  -7.099  0.00  0.00     0.027 A 
ATOM      7  C   LIG d   1       9.458   4.099  -6.382  0.00  0.00     0.143 A 
ATOM      8  O   LIG d   1       9.452   4.113  -5.030  0.00  0.00    -0.422 OA
ATOM      9  C   LIG d   1       9.098   3.031  -4.319  0.00  0.00     0.341 A 
ATOM     10  O   LIG d   1       9.103   3.093  -3.102  0.00  0.00    -0.245 OA
ATOM     11  C   LIG d   1       8.727   1.824  -4.944  0.00  0.00     0.049 A 
ATOM     12  H   LIG d   1       8.815   2.007  -9.000  0.00  0.00     0.066 H 
ATOM     13  H   LIG d   1      10.103   6.131  -6.578  0.00  0.00     0.069 H 
ENDROOT
BRANCH  11  14
ATOM     14  C   LIG d   1       8.342   0.629  -4.110  0.00  0.00     0.056 C 
ATOM     15  H   LIG d   1       8.763  -0.274  -4.553  0.00  0.00     0.041 H 
ATOM     16  H   LIG d   1       8.730   0.751  -3.099  0.00  0.00     0.041 H 
BRANCH  14  17
ATOM     17  C   LIG d   1       6.841   0.511  -4.063  0.00  0.00     0.218 C 
ATOM     18  O   LIG d   1       6.164   1.488  -3.822  0.00  0.00    -0.275 OA
ATOM     19  N   LIG d   1       6.250  -0.679  -4.287  0.00  0.00    -0.307 N 
ATOM     20  H   LIG d   1       6.791  -1.460  -4.479  0.00  0.00     0.149 HD
BRANCH  19  21
ATOM     21  CA  LIG d   1       4.791  -0.793  -4.241  0.00  0.00     0.067 C 
ATOM     22  HA  LIG d   1       4.349   0.203  -4.199  0.00  0.00     0.056 H 
BRANCH  21  23
ATOM     23  C   LIG d   1       4.295  -1.518  -5.494  0.00  0.00    -0.004 C 
ATOM     24  H   LIG d   1       5.027  -2.268  -5.793  0.00  0.00     0.034 H 
ATOM     25  H   LIG d   1       3.344  -2.005  -5.279  0.00  0.00     0.034 H 
BRANCH  23  26
ATOM     26  C   LIG d   1       4.111  -0.524  -6.610  0.00  0.00    -0.045 A 
ATOM     27  C   LIG d   1       2.975   0.262  -6.656  0.00  0.00    -0.057 A 
ATOM     28  C   LIG d   1       2.804   1.174  -7.679  0.00  0.00    -0.043 A 
ATOM     29  H   LIG d   1       2.219   0.163  -5.889  0.00  0.00     0.062 H 
ATOM     30  C   LIG d   1       3.772   1.300  -8.661  0.00  0.00     0.041 A 
ATOM     31  H   LIG d   1       1.916   1.788  -7.714  0.00  0.00     0.063 H 
ATOM     32  C   LIG d   1       4.909   0.513  -8.616  0.00  0.00    -0.043 A 
ATOM     33 CL   LIG d   1       3.557   2.446  -9.949  0.00  0.00    -0.084 Cl
ATOM     34  C   LIG d   1       5.080  -0.394  -7.588  0.00  0.00    -0.057 A 
ATOM     35  H   LIG d   1       5.664   0.612  -9.382  0.00  0.00     0.063 H 
ATOM     36  H   LIG d   1       5.970  -1.005  -7.551  0.00  0.00     0.062 H 
ENDBRANCH  23  26
ENDBRANCH  21  23
BRANCH  21  37
ATOM     37  C   LIG d   1       4.386  -1.573  -3.016  0.00  0.00     0.062 C 
ATOM     38  O   LIG d   1       4.025  -2.722  -3.124  0.00  0.00    -0.548 OA
ATOM     39  OXT LIG d   1       4.425  -0.993  -1.807  0.00  0.00    -0.548 OA
ENDBRANCH  21  37
ENDBRANCH  19  21
ENDBRANCH  14  17
ENDBRANCH  11  14
BRANCH   1  40
ATOM     40  C   LIG d   1       8.311   0.464  -6.994  0.00  0.00    -0.038 C 
ATOM     41  H   LIG d   1       8.711  -0.388  -6.444  0.00  0.00     0.028 H 
ATOM     42  H   LIG d   1       7.223   0.396  -7.028  0.00  0.00     0.028 H 
ATOM     43  H   LIG d   1       8.708   0.461  -8.008  0.00  0.00     0.028 H 
ENDBRANCH   1  40
BRANCH   4  44
ATOM     44  O   LIG d   1       9.464   4.023 -10.528  0.00  0.00    -0.491 OA
BRANCH  44  45
ATOM     45  C   LIG d   1      10.241   3.005 -11.162  0.00  0.00     0.079 C 
ATOM     46  H   LIG d   1       9.579   2.234 -11.556  0.00  0.00     0.066 H 
ATOM     47  H   LIG d   1      10.815   3.442 -11.979  0.00  0.00     0.066 H 
ATOM     48  H   LIG d   1      10.923   2.562 -10.436  0.00  0.00     0.066 H 
ENDBRANCH  44  45
ENDBRANCH   4  44
BRANCH   5  49
ATOM     49  O   LIG d   1      10.177   6.310  -9.178  0.00  0.00    -0.491 OA
BRANCH  49  50
ATOM     50  C   LIG d   1       9.361   7.471  -9.011  0.00  0.00     0.079 C 
ATOM     51  H   LIG d   1       9.873   8.338  -9.428  0.00  0.00     0.066 H 
ATOM     52  H   LIG d   1       8.413   7.325  -9.528  0.00  0.00     0.066 H 
ATOM     53  H   LIG d   1       9.175   7.635  -7.950  0.00  0.00     0.066 H 
ENDBRANCH  49  50
ENDBRANCH   5  49
TORSDOF 11
ENDMDL
MODEL 9
REMARK VINA RESULT:      -6.2      6.356      9.837
REMARK  11 active torsions:
REMARK  status: ('A' for Active; 'I' for Inactive)
REMARK    1  A    between atoms: C_1  and  C_2 
REMARK    2  A    between atoms: C_5  and  O_31 
REMARK    3  A    between atoms: C_6  and  O_29 
REMARK    4  A    between atoms: C_12  and  C_13 
REMARK    5  A    between atoms: C_13  and  C_14 
REMARK       I    between atoms: C_14  and  N_16 
REMARK    6  A    between atoms: N_16  and  CA_17 
REMARK    7  A    between atoms: CA_17  and  C_19 
REMARK    8  A    between atoms: CA_17  and  C_27 
REMARK    9  A    between atoms: C_19  and  C_20 
REMARK   10  A    between atoms: O_29  and  C_30 
REMARK   11  A    between atoms: O_31  and  C_32 
ROOT
ATOM      1  C   LIG d   1       5.785  -8.992  -4.212  0.00  0.00    -0.029 A 
ATOM      2  C   LIG d   1       6.837  -9.433  -3.295  0.00  0.00     0.025 A 
ATOM      3  C   LIG d   1       6.569 -10.371  -2.290  0.00  0.00    -0.005 A 
ATOM      4  C   LIG d   1       7.579 -10.768  -1.441  0.00  0.00     0.162 A 
ATOM      5  C   LIG d   1       8.866 -10.239  -1.584  0.00  0.00     0.165 A 
ATOM      6  C   LIG d   1       9.139  -9.313  -2.574  0.00  0.00     0.027 A 
ATOM      7  C   LIG d   1       8.132  -8.903  -3.437  0.00  0.00     0.143 A 
ATOM      8  O   LIG d   1       8.385  -7.999  -4.410  0.00  0.00    -0.422 OA
ATOM      9  C   LIG d   1       7.426  -7.595  -5.257  0.00  0.00     0.341 A 
ATOM     10  O   LIG d   1       7.702  -6.783  -6.122  0.00  0.00    -0.245 OA
ATOM     11  C   LIG d   1       6.106  -8.082  -5.168  0.00  0.00     0.049 A 
ATOM     12  H   LIG d   1       5.575 -10.780  -2.179  0.00  0.00     0.066 H 
ATOM     13  H   LIG d   1      10.135  -8.910  -2.677  0.00  0.00     0.069 H 
ENDROOT
BRANCH  11  14
ATOM     14  C   LIG d   1       5.056  -7.598  -6.135  0.00  0.00     0.056 C 
ATOM     15  H   LIG d   1       5.442  -7.661  -7.152  0.00  0.00     0.041 H 
ATOM     16  H   LIG d   1       4.165  -8.220  -6.045  0.00  0.00     0.041 H 
BRANCH  14  17
ATOM     17  C   LIG d   1       4.703  -6.167  -5.819  0.00  0.00     0.218 C 
ATOM     18  O   LIG d   1       3.965  -5.915  -4.892  0.00  0.00    -0.275 OA
ATOM     19  N   LIG d   1       5.210  -5.167  -6.567  0.00  0.00    -0.307 N 
ATOM     20  H   LIG d   1       5.801  -5.369  -7.309  0.00  0.00     0.149 HD
BRANCH  19  21
ATOM     21  CA  LIG d   1       4.868  -3.777  -6.261  0.00  0.00     0.067 C 
ATOM     22  HA  LIG d   1       4.092  -3.754  -5.495  0.00  0.00     0.056 H 
BRANCH  21  23
ATOM     23  C   LIG d   1       6.111  -3.045  -5.751  0.00  0.00    -0.004 C 
ATOM     24  H   LIG d   1       6.819  -3.770  -5.348  0.00  0.00     0.034 H 
ATOM     25  H   LIG d   1       6.576  -2.502  -6.573  0.00  0.00     0.034 H 
BRANCH  23  26
ATOM     26  C   LIG d   1       5.715  -2.076  -4.668  0.00  0.00    -0.045 A 
ATOM     27  C   LIG d   1       6.279  -0.814  -4.629  0.00  0.00    -0.057 A 
ATOM     28  C   LIG d   1       5.917   0.076  -3.636  0.00  0.00    -0.043 A 
ATOM     29  H   LIG d   1       7.004  -0.525  -5.376  0.00  0.00     0.062 H 
ATOM     30  C   LIG d   1       4.989  -0.297  -2.679  0.00  0.00     0.041 A 
ATOM     31  H   LIG d   1       6.358   1.061  -3.607  0.00  0.00     0.063 H 
ATOM     32  C   LIG d   1       4.425  -1.559  -2.718  0.00  0.00    -0.043 A 
ATOM     33 CL   LIG d   1       4.535   0.822  -1.430  0.00  0.00    -0.084 Cl
ATOM     34  C   LIG d   1       4.784  -2.446  -3.714  0.00  0.00    -0.057 A 
ATOM     35  H   LIG d   1       3.700  -1.850  -1.971  0.00  0.00     0.063 H 
ATOM     36  H   LIG d   1       4.340  -3.430  -3.747  0.00  0.00     0.062 H 
ENDBRANCH  23  26
ENDBRANCH  21  23
BRANCH  21  37
ATOM     37  C   LIG d   1       4.361  -3.097  -7.507  0.00  0.00     0.062 C 
ATOM     38  O   LIG d   1       3.579  -3.667  -8.230  0.00  0.00    -0.548 OA
ATOM     39  OXT LIG d   1       4.778  -1.858  -7.813  0.00  0.00    -0.548 OA
ENDBRANCH  21  37
ENDBRANCH  19  21
ENDBRANCH  14  17
ENDBRANCH  11  14
BRANCH   1  40
ATOM     40  C   LIG d   1       4.382  -9.534  -4.100  0.00  0.00    -0.038 C 
ATOM     41  H   LIG d   1       3.673  -8.707  -4.107  0.00  0.00     0.028 H 
ATOM     42  H   LIG d   1       4.180 -10.194  -4.944  0.00  0.00     0.028 H 
ATOM     43  H   LIG d   1       4.282 -10.092  -3.170  0.00  0.00     0.028 H 
ENDBRANCH   1  40
BRANCH   4  44
ATOM     44  O   LIG d   1       7.325 -11.677  -0.463  0.00  0.00    -0.491 OA
BRANCH  44  45
ATOM     45  C   LIG d   1       7.235 -13.048  -0.859  0.00  0.00     0.079 C 
ATOM     46  H   LIG d   1       6.255 -13.441  -0.587  0.00  0.00     0.066 H 
ATOM     47  H   LIG d   1       7.370 -13.123  -1.937  0.00  0.00     0.066 H 
ATOM     48  H   LIG d   1       8.011 -13.624  -0.354  0.00  0.00     0.066 H 
ENDBRANCH  44  45
ENDBRANCH   4  44
BRANCH   5  49
ATOM     49  O   LIG d   1       9.855 -10.637  -0.743  0.00  0.00    -0.491 OA
BRANCH  49  50
ATOM     50  C   LIG d   1      10.283  -9.697   0.246  0.00  0.00     0.079 C 
ATOM     51  H   LIG d   1       9.723  -8.770   0.132  0.00  0.00     0.066 H 
ATOM     52  H   LIG d   1      10.106 -10.110   1.239  0.00  0.00     0.066 H 
ATOM     53  H   LIG d   1      11.347  -9.497   0.120  0.00  0.00     0.066 H 
ENDBRANCH  49  50
ENDBRANCH   5  49
TORSDOF 11
ENDMDL
