MODEL 1
REMARK VINA RESULT:      -6.2      0.000      0.000
REMARK  5 active torsions:
REMARK  status: ('A' for Active; 'I' for Inactive)
REMARK    1  A    between atoms: C_4  and  N_14 
REMARK    2  A    between atoms: C_5  and  C_10 
REMARK    3  A    between atoms: C_6  and  N_7 
REMARK    4  A    between atoms: C_10  and  C_11 
REMARK    5  A    between atoms: C_11  and  C_12 
ROOT
ATOM      1  C   LIG d   1       4.506  -3.006  -3.766  0.00  0.00     0.021 A 
ATOM      2  C   LIG d   1       4.206  -1.674  -3.559  0.00  0.00    -0.013 A 
ATOM      3  C   LIG d   1       4.168  -0.797  -4.635  0.00  0.00     0.115 A 
ATOM      4  C   LIG d   1       4.437  -1.260  -5.915  0.00  0.00     0.304 A 
ATOM      5  C   LIG d   1       4.731  -2.594  -6.117  0.00  0.00     0.109 A 
ATOM      6  C   LIG d   1       4.769  -3.466  -5.043  0.00  0.00     0.283 A 
ATOM      7  N   LIG d   1       3.863   0.552  -4.424  0.00  0.00    -0.280 N 
ATOM      8  C   LIG d   1       3.969   1.092  -3.196  0.00  0.00     0.218 C 
ATOM      9  O   LIG d   1       3.685   2.258  -3.028  0.00  0.00    -0.276 OA
ATOM     10  C   LIG d   1       4.431   0.263  -2.029  0.00  0.00     0.028 C 
ATOM     11  C   LIG d   1       3.918  -1.170  -2.169  0.00  0.00    -0.017 C 
ATOM     12  H   LIG d   1       4.536  -3.688  -2.930  0.00  0.00     0.069 H 
ATOM     13  H   LIG d   1       3.574   1.102  -5.169  0.00  0.00     0.155 HD
ATOM     14  H   LIG d   1       5.521   0.256  -2.000  0.00  0.00     0.036 H 
ATOM     15  H   LIG d   1       4.051   0.695  -1.104  0.00  0.00     0.036 H 
ATOM     16  H   LIG d   1       2.843  -1.188  -1.991  0.00  0.00     0.032 H 
ATOM     17  H   LIG d   1       4.418  -1.807  -1.441  0.00  0.00     0.032 H 
ENDROOT
BRANCH   5  18
ATOM     18  C   LIG d   1       5.018  -3.100  -7.507  0.00  0.00    -0.010 C 
ATOM     19  H   LIG d   1       5.734  -3.921  -7.455  0.00  0.00     0.032 H 
ATOM     20  H   LIG d   1       5.435  -2.293  -8.109  0.00  0.00     0.032 H 
BRANCH  18  21
ATOM     21  C   LIG d   1       3.720  -3.597  -8.148  0.00  0.00    -0.009 C 
ATOM     22  H   LIG d   1       3.497  -2.996  -9.030  0.00  0.00     0.033 H 
ATOM     23  H   LIG d   1       2.904  -3.507  -7.430  0.00  0.00     0.033 H 
BRANCH  21  24
ATOM     24  C   LIG d   1       3.879  -5.040  -8.549  0.00  0.00     0.042 C 
ATOM     25  O   LIG d   1       2.907  -5.752  -8.642  0.00  0.00    -0.550 OA
ATOM     26  O   LIG d   1       5.101  -5.536  -8.802  0.00  0.00    -0.550 OA
ENDBRANCH  21  24
ENDBRANCH  18  21
ENDBRANCH   5  18
BRANCH   4  27
ATOM     27  N   LIG d   1       4.403  -0.327  -7.064  0.00  0.00     0.082 N 
ATOM     28  O   LIG d   1       5.403   0.300  -7.368  0.00  0.00     0.042 OA
ATOM     29  O   LIG d   1       3.377  -0.185  -7.703  0.00  0.00    -0.576 OA
ENDBRANCH   4  27
BRANCH   6  30
ATOM     30  N   LIG d   1       5.090  -4.894  -5.262  0.00  0.00     0.080 N 
ATOM     31  O   LIG d   1       4.205  -5.730  -5.226  0.00  0.00     0.042 OA
ATOM     32  O   LIG d   1       6.240  -5.233  -5.479  0.00  0.00    -0.576 OA
ENDBRANCH   6  30
TORSDOF 5
ENDMDL
MODEL 2
REMARK VINA RESULT:      -5.6      2.185      4.684
REMARK  5 active torsions:
REMARK  status: ('A' for Active; 'I' for Inactive)
REMARK    1  A    between atoms: C_4  and  N_14 
REMARK    2  A    between atoms: C_5  and  C_10 
REMARK    3  A    between atoms: C_6  and  N_7 
REMARK    4  A    between atoms: C_10  and  C_11 
REMARK    5  A    between atoms: C_11  and  C_12 
ROOT
ATOM      1  C   LIG d   1       3.864  -2.958  -7.838  0.00  0.00     0.021 A 
ATOM      2  C   LIG d   1       3.687  -1.635  -8.191  0.00  0.00    -0.013 A 
ATOM      3  C   LIG d   1       4.040  -0.627  -7.303  0.00  0.00     0.115 A 
ATOM      4  C   LIG d   1       4.565  -0.952  -6.060  0.00  0.00     0.304 A 
ATOM      5  C   LIG d   1       4.746  -2.278  -5.715  0.00  0.00     0.109 A 
ATOM      6  C   LIG d   1       4.392  -3.279  -6.602  0.00  0.00     0.283 A 
ATOM      7  N   LIG d   1       3.860   0.713  -7.661  0.00  0.00    -0.280 N 
ATOM      8  C   LIG d   1       3.030   1.045  -8.668  0.00  0.00     0.218 C 
ATOM      9  O   LIG d   1       2.899   2.210  -8.976  0.00  0.00    -0.276 OA
ATOM     10  C   LIG d   1       2.266  -0.013  -9.415  0.00  0.00     0.028 C 
ATOM     11  C   LIG d   1       3.112  -1.280  -9.538  0.00  0.00    -0.017 C 
ATOM     12  H   LIG d   1       3.590  -3.741  -8.527  0.00  0.00     0.069 H 
ATOM     13  H   LIG d   1       4.338   1.408  -7.182  0.00  0.00     0.155 HD
ATOM     14  H   LIG d   1       1.346  -0.243  -8.877  0.00  0.00     0.036 H 
ATOM     15  H   LIG d   1       2.018   0.354 -10.411  0.00  0.00     0.036 H 
ATOM     16  H   LIG d   1       3.923  -1.107 -10.245  0.00  0.00     0.032 H 
ATOM     17  H   LIG d   1       2.489  -2.100  -9.894  0.00  0.00     0.032 H 
ENDROOT
BRANCH   5  18
ATOM     18  C   LIG d   1       5.321  -2.633  -4.368  0.00  0.00    -0.010 C 
ATOM     19  H   LIG d   1       5.840  -1.768  -3.955  0.00  0.00     0.032 H 
ATOM     20  H   LIG d   1       6.024  -3.458  -4.480  0.00  0.00     0.032 H 
BRANCH  18  21
ATOM     21  C   LIG d   1       4.191  -3.049  -3.424  0.00  0.00    -0.009 C 
ATOM     22  H   LIG d   1       4.526  -3.877  -2.799  0.00  0.00     0.033 H 
ATOM     23  H   LIG d   1       3.325  -3.361  -4.009  0.00  0.00     0.033 H 
BRANCH  21  24
ATOM     24  C   LIG d   1       3.811  -1.881  -2.551  0.00  0.00     0.042 C 
ATOM     25  O   LIG d   1       4.545  -1.529  -1.659  0.00  0.00    -0.550 OA
ATOM     26  O   LIG d   1       2.655  -1.232  -2.765  0.00  0.00    -0.550 OA
ENDBRANCH  21  24
ENDBRANCH  18  21
ENDBRANCH   5  18
BRANCH   4  27
ATOM     27  N   LIG d   1       4.937   0.119  -5.109  0.00  0.00     0.082 N 
ATOM     28  O   LIG d   1       4.069   0.765  -4.550  0.00  0.00     0.042 OA
ATOM     29  O   LIG d   1       6.111   0.354  -4.885  0.00  0.00    -0.576 OA
ENDBRANCH   4  27
BRANCH   6  30
ATOM     30  N   LIG d   1       4.582  -4.698  -6.226  0.00  0.00     0.080 N 
ATOM     31  O   LIG d   1       3.623  -5.376  -5.903  0.00  0.00     0.042 OA
ATOM     32  O   LIG d   1       5.697  -5.188  -6.239  0.00  0.00    -0.576 OA
ENDBRANCH   6  30
TORSDOF 5
ENDMDL
MODEL 3
REMARK VINA RESULT:      -5.5      1.930      5.010
REMARK  5 active torsions:
REMARK  status: ('A' for Active; 'I' for Inactive)
REMARK    1  A    between atoms: C_4  and  N_14 
REMARK    2  A    between atoms: C_5  and  C_10 
REMARK    3  A    between atoms: C_6  and  N_7 
REMARK    4  A    between atoms: C_10  and  C_11 
REMARK    5  A    between atoms: C_11  and  C_12 
ROOT
ATOM      1  C   LIG d   1       3.898  -4.250  -7.683  0.00  0.00     0.021 A 
ATOM      2  C   LIG d   1       3.587  -3.128  -8.425  0.00  0.00    -0.013 A 
ATOM      3  C   LIG d   1       3.906  -1.866  -7.940  0.00  0.00     0.115 A 
ATOM      4  C   LIG d   1       4.533  -1.736  -6.708  0.00  0.00     0.304 A 
ATOM      5  C   LIG d   1       4.847  -2.863  -5.974  0.00  0.00     0.109 A 
ATOM      6  C   LIG d   1       4.527  -4.119  -6.459  0.00  0.00     0.283 A 
ATOM      7  N   LIG d   1       3.591  -0.730  -8.692  0.00  0.00    -0.280 N 
ATOM      8  C   LIG d   1       2.676  -0.795  -9.676  0.00  0.00     0.218 C 
ATOM      9  O   LIG d   1       2.427   0.196 -10.329  0.00  0.00    -0.276 OA
ATOM     10  C   LIG d   1       1.960  -2.083  -9.977  0.00  0.00     0.028 C 
ATOM     11  C   LIG d   1       2.902  -3.268  -9.759  0.00  0.00    -0.017 C 
ATOM     12  H   LIG d   1       3.650  -5.231  -8.059  0.00  0.00     0.069 H 
ATOM     13  H   LIG d   1       4.036   0.111  -8.503  0.00  0.00     0.155 HD
ATOM     14  H   LIG d   1       1.098  -2.181  -9.316  0.00  0.00     0.036 H 
ATOM     15  H   LIG d   1       1.621  -2.077 -11.012  0.00  0.00     0.036 H 
ATOM     16  H   LIG d   1       3.650  -3.285 -10.552  0.00  0.00     0.032 H 
ATOM     17  H   LIG d   1       2.331  -4.195  -9.779  0.00  0.00     0.032 H 
ENDROOT
BRANCH   5  18
ATOM     18  C   LIG d   1       5.533  -2.725  -4.639  0.00  0.00    -0.010 C 
ATOM     19  H   LIG d   1       6.199  -1.862  -4.660  0.00  0.00     0.032 H 
ATOM     20  H   LIG d   1       6.111  -3.625  -4.432  0.00  0.00     0.032 H 
BRANCH  18  21
ATOM     21  C   LIG d   1       4.482  -2.532  -3.543  0.00  0.00    -0.009 C 
ATOM     22  H   LIG d   1       4.367  -3.459  -2.982  0.00  0.00     0.033 H 
ATOM     23  H   LIG d   1       3.529  -2.260  -3.998  0.00  0.00     0.033 H 
BRANCH  21  24
ATOM     24  C   LIG d   1       4.924  -1.432  -2.612  0.00  0.00     0.042 C 
ATOM     25  O   LIG d   1       4.326  -1.235  -1.582  0.00  0.00    -0.550 OA
ATOM     26  O   LIG d   1       5.983  -0.671  -2.930  0.00  0.00    -0.550 OA
ENDBRANCH  21  24
ENDBRANCH  18  21
ENDBRANCH   5  18
BRANCH   4  27
ATOM     27  N   LIG d   1       4.870  -0.393  -6.186  0.00  0.00     0.082 N 
ATOM     28  O   LIG d   1       5.981   0.071  -6.372  0.00  0.00     0.042 OA
ATOM     29  O   LIG d   1       4.039   0.246  -5.569  0.00  0.00    -0.576 OA
ENDBRANCH   4  27
BRANCH   6  30
ATOM     30  N   LIG d   1       4.860  -5.324  -5.666  0.00  0.00     0.080 N 
ATOM     31  O   LIG d   1       5.979  -5.800  -5.723  0.00  0.00     0.042 OA
ATOM     32  O   LIG d   1       4.013  -5.839  -4.957  0.00  0.00    -0.576 OA
ENDBRANCH   6  30
TORSDOF 5
ENDMDL
MODEL 4
REMARK VINA RESULT:      -5.4     10.888     12.849
REMARK  5 active torsions:
REMARK  status: ('A' for Active; 'I' for Inactive)
REMARK    1  A    between atoms: C_4  and  N_14 
REMARK    2  A    between atoms: C_5  and  C_10 
REMARK    3  A    between atoms: C_6  and  N_7 
REMARK    4  A    between atoms: C_10  and  C_11 
REMARK    5  A    between atoms: C_11  and  C_12 
ROOT
ATOM      1  C   LIG d   1      11.439   6.852  -4.399  0.00  0.00     0.021 A 
ATOM      2  C   LIG d   1      10.844   8.097  -4.468  0.00  0.00    -0.013 A 
ATOM      3  C   LIG d   1      10.157   8.598  -3.370  0.00  0.00     0.115 A 
ATOM      4  C   LIG d   1      10.065   7.845  -2.208  0.00  0.00     0.304 A 
ATOM      5  C   LIG d   1      10.667   6.603  -2.144  0.00  0.00     0.109 A 
ATOM      6  C   LIG d   1      11.351   6.107  -3.239  0.00  0.00     0.283 A 
ATOM      7  N   LIG d   1       9.556   9.859  -3.440  0.00  0.00    -0.280 N 
ATOM      8  C   LIG d   1       9.308  10.432  -4.632  0.00  0.00     0.218 C 
ATOM      9  O   LIG d   1       8.801  11.532  -4.674  0.00  0.00    -0.276 OA
ATOM     10  C   LIG d   1       9.656   9.724  -5.913  0.00  0.00     0.028 C 
ATOM     11  C   LIG d   1      10.939   8.914  -5.731  0.00  0.00    -0.017 C 
ATOM     12  H   LIG d   1      11.973   6.462  -5.253  0.00  0.00     0.069 H 
ATOM     13  H   LIG d   1       9.315  10.324  -2.623  0.00  0.00     0.155 HD
ATOM     14  H   LIG d   1       8.841   9.053  -6.188  0.00  0.00     0.036 H 
ATOM     15  H   LIG d   1       9.801  10.457  -6.705  0.00  0.00     0.036 H 
ATOM     16  H   LIG d   1      11.789   9.593  -5.661  0.00  0.00     0.032 H 
ATOM     17  H   LIG d   1      11.074   8.249  -6.583  0.00  0.00     0.032 H 
ENDROOT
BRANCH   5  18
ATOM     18  C   LIG d   1      10.574   5.786  -0.881  0.00  0.00    -0.010 C 
ATOM     19  H   LIG d   1      10.628   4.725  -1.130  0.00  0.00     0.032 H 
ATOM     20  H   LIG d   1       9.628   5.994  -0.383  0.00  0.00     0.032 H 
BRANCH  18  21
ATOM     21  C   LIG d   1      11.732   6.151   0.050  0.00  0.00    -0.009 C 
ATOM     22  H   LIG d   1      12.184   7.086  -0.282  0.00  0.00     0.033 H 
ATOM     23  H   LIG d   1      12.479   5.358   0.029  0.00  0.00     0.033 H 
BRANCH  21  24
ATOM     24  C   LIG d   1      11.213   6.314   1.455  0.00  0.00     0.042 C 
ATOM     25  O   LIG d   1      10.610   5.412   1.986  0.00  0.00    -0.550 OA
ATOM     26  O   LIG d   1      11.420   7.464   2.118  0.00  0.00    -0.550 OA
ENDBRANCH  21  24
ENDBRANCH  18  21
ENDBRANCH   5  18
BRANCH   4  27
ATOM     27  N   LIG d   1       9.329   8.373  -1.037  0.00  0.00     0.082 N 
ATOM     28  O   LIG d   1       8.181   8.023  -0.832  0.00  0.00     0.042 OA
ATOM     29  O   LIG d   1       9.871   9.157  -0.281  0.00  0.00    -0.576 OA
ENDBRANCH   4  27
BRANCH   6  30
ATOM     30  N   LIG d   1      11.989   4.773  -3.169  0.00  0.00     0.080 N 
ATOM     31  O   LIG d   1      13.162   4.675  -2.857  0.00  0.00     0.042 OA
ATOM     32  O   LIG d   1      11.341   3.773  -3.422  0.00  0.00    -0.576 OA
ENDBRANCH   6  30
TORSDOF 5
ENDMDL
MODEL 5
REMARK VINA RESULT:      -5.3      2.944      6.295
REMARK  5 active torsions:
REMARK  status: ('A' for Active; 'I' for Inactive)
REMARK    1  A    between atoms: C_4  and  N_14 
REMARK    2  A    between atoms: C_5  and  C_10 
REMARK    3  A    between atoms: C_6  and  N_7 
REMARK    4  A    between atoms: C_10  and  C_11 
REMARK    5  A    between atoms: C_11  and  C_12 
ROOT
ATOM      1  C   LIG d   1       2.820   0.675  -7.442  0.00  0.00     0.021 A 
ATOM      2  C   LIG d   1       3.484   0.316  -8.598  0.00  0.00    -0.013 A 
ATOM      3  C   LIG d   1       4.607  -0.499  -8.528  0.00  0.00     0.115 A 
ATOM      4  C   LIG d   1       5.061  -0.946  -7.295  0.00  0.00     0.304 A 
ATOM      5  C   LIG d   1       4.388  -0.589  -6.143  0.00  0.00     0.109 A 
ATOM      6  C   LIG d   1       3.271   0.223  -6.216  0.00  0.00     0.283 A 
ATOM      7  N   LIG d   1       5.279  -0.862  -9.699  0.00  0.00    -0.280 N 
ATOM      8  C   LIG d   1       5.100  -0.162 -10.834  0.00  0.00     0.218 C 
ATOM      9  O   LIG d   1       5.678  -0.501 -11.845  0.00  0.00    -0.276 OA
ATOM     10  C   LIG d   1       4.188   1.034 -10.865  0.00  0.00     0.028 C 
ATOM     11  C   LIG d   1       2.995   0.805  -9.937  0.00  0.00    -0.017 C 
ATOM     12  H   LIG d   1       1.947   1.308  -7.496  0.00  0.00     0.069 H 
ATOM     13  H   LIG d   1       5.880  -1.625  -9.693  0.00  0.00     0.155 HD
ATOM     14  H   LIG d   1       4.738   1.916 -10.535  0.00  0.00     0.036 H 
ATOM     15  H   LIG d   1       3.830   1.192 -11.881  0.00  0.00     0.036 H 
ATOM     16  H   LIG d   1       2.333   0.059 -10.376  0.00  0.00     0.032 H 
ATOM     17  H   LIG d   1       2.452   1.740  -9.805  0.00  0.00     0.032 H 
ENDROOT
BRANCH   5  18
ATOM     18  C   LIG d   1       4.876  -1.078  -4.803  0.00  0.00    -0.010 C 
ATOM     19  H   LIG d   1       5.386  -2.034  -4.929  0.00  0.00     0.032 H 
ATOM     20  H   LIG d   1       4.028  -1.205  -4.132  0.00  0.00     0.032 H 
BRANCH  18  21
ATOM     21  C   LIG d   1       5.849  -0.056  -4.210  0.00  0.00    -0.009 C 
ATOM     22  H   LIG d   1       5.882   0.827  -4.850  0.00  0.00     0.033 H 
ATOM     23  H   LIG d   1       6.844  -0.497  -4.145  0.00  0.00     0.033 H 
BRANCH  21  24
ATOM     24  C   LIG d   1       5.383   0.338  -2.833  0.00  0.00     0.042 C 
ATOM     25  O   LIG d   1       5.617   1.445  -2.409  0.00  0.00    -0.550 OA
ATOM     26  O   LIG d   1       4.709  -0.542  -2.075  0.00  0.00    -0.550 OA
ENDBRANCH  21  24
ENDBRANCH  18  21
ENDBRANCH   5  18
BRANCH   4  27
ATOM     27  N   LIG d   1       6.260  -1.810  -7.215  0.00  0.00     0.082 N 
ATOM     28  O   LIG d   1       6.139  -3.022  -7.233  0.00  0.00     0.042 OA
ATOM     29  O   LIG d   1       7.367  -1.309  -7.131  0.00  0.00    -0.576 OA
ENDBRANCH   4  27
BRANCH   6  30
ATOM     30  N   LIG d   1       2.556   0.609  -4.979  0.00  0.00     0.080 N 
ATOM     31  O   LIG d   1       1.793  -0.176  -4.446  0.00  0.00     0.042 OA
ATOM     32  O   LIG d   1       2.731   1.713  -4.493  0.00  0.00    -0.576 OA
ENDBRANCH   6  30
TORSDOF 5
ENDMDL
MODEL 6
REMARK VINA RESULT:      -5.2      2.754      3.712
REMARK  5 active torsions:
REMARK  status: ('A' for Active; 'I' for Inactive)
REMARK    1  A    between atoms: C_4  and  N_14 
REMARK    2  A    between atoms: C_5  and  C_10 
REMARK    3  A    between atoms: C_6  and  N_7 
REMARK    4  A    between atoms: C_10  and  C_11 
REMARK    5  A    between atoms: C_11  and  C_12 
ROOT
ATOM      1  C   LIG d   1       7.189  -2.068  -3.355  0.00  0.00     0.021 A 
ATOM      2  C   LIG d   1       5.843  -1.765  -3.303  0.00  0.00    -0.013 A 
ATOM      3  C   LIG d   1       4.944  -2.465  -4.097  0.00  0.00     0.115 A 
ATOM      4  C   LIG d   1       5.403  -3.464  -4.946  0.00  0.00     0.304 A 
ATOM      5  C   LIG d   1       6.750  -3.766  -4.988  0.00  0.00     0.109 A 
ATOM      6  C   LIG d   1       7.643  -3.066  -4.196  0.00  0.00     0.283 A 
ATOM      7  N   LIG d   1       3.581  -2.159  -4.045  0.00  0.00    -0.280 N 
ATOM      8  C   LIG d   1       3.165  -0.984  -3.537  0.00  0.00     0.218 C 
ATOM      9  O   LIG d   1       1.978  -0.742  -3.483  0.00  0.00    -0.276 OA
ATOM     10  C   LIG d   1       4.154   0.030  -3.033  0.00  0.00     0.028 C 
ATOM     11  C   LIG d   1       5.345  -0.678  -2.386  0.00  0.00    -0.017 C 
ATOM     12  H   LIG d   1       7.888  -1.524  -2.737  0.00  0.00     0.069 H 
ATOM     13  H   LIG d   1       2.930  -2.799  -4.376  0.00  0.00     0.155 HD
ATOM     14  H   LIG d   1       4.505   0.638  -3.867  0.00  0.00     0.036 H 
ATOM     15  H   LIG d   1       3.672   0.672  -2.297  0.00  0.00     0.036 H 
ATOM     16  H   LIG d   1       5.033  -1.117  -1.438  0.00  0.00     0.032 H 
ATOM     17  H   LIG d   1       6.143   0.041  -2.209  0.00  0.00     0.032 H 
ENDROOT
BRANCH   5  18
ATOM     18  C   LIG d   1       7.250  -4.853  -5.904  0.00  0.00    -0.010 C 
ATOM     19  H   LIG d   1       8.227  -4.575  -6.299  0.00  0.00     0.032 H 
ATOM     20  H   LIG d   1       6.549  -4.985  -6.728  0.00  0.00     0.032 H 
BRANCH  18  21
ATOM     21  C   LIG d   1       7.369  -6.163  -5.123  0.00  0.00    -0.009 C 
ATOM     22  H   LIG d   1       7.039  -6.005  -4.096  0.00  0.00     0.033 H 
ATOM     23  H   LIG d   1       8.408  -6.494  -5.125  0.00  0.00     0.033 H 
BRANCH  21  24
ATOM     24  C   LIG d   1       6.507  -7.215  -5.771  0.00  0.00     0.042 C 
ATOM     25  O   LIG d   1       6.378  -7.235  -6.972  0.00  0.00    -0.550 OA
ATOM     26  O   LIG d   1       5.881  -8.130  -5.014  0.00  0.00    -0.550 OA
ENDBRANCH  21  24
ENDBRANCH  18  21
ENDBRANCH   5  18
BRANCH   4  27
ATOM     27  N   LIG d   1       4.449  -4.209  -5.798  0.00  0.00     0.082 N 
ATOM     28  O   LIG d   1       3.878  -5.191  -5.358  0.00  0.00     0.042 OA
ATOM     29  O   LIG d   1       4.238  -3.841  -6.939  0.00  0.00    -0.576 OA
ENDBRANCH   4  27
BRANCH   6  30
ATOM     30  N   LIG d   1       9.087  -3.388  -4.249  0.00  0.00     0.080 N 
ATOM     31  O   LIG d   1       9.577  -4.126  -3.414  0.00  0.00     0.042 OA
ATOM     32  O   LIG d   1       9.784  -2.915  -5.128  0.00  0.00    -0.576 OA
ENDBRANCH   6  30
TORSDOF 5
ENDMDL
MODEL 7
REMARK VINA RESULT:      -5.2      3.337      4.442
REMARK  5 active torsions:
REMARK  status: ('A' for Active; 'I' for Inactive)
REMARK    1  A    between atoms: C_4  and  N_14 
REMARK    2  A    between atoms: C_5  and  C_10 
REMARK    3  A    between atoms: C_6  and  N_7 
REMARK    4  A    between atoms: C_10  and  C_11 
REMARK    5  A    between atoms: C_11  and  C_12 
ROOT
ATOM      1  C   LIG d   1       6.477  -2.401  -3.081  0.00  0.00     0.021 A 
ATOM      2  C   LIG d   1       5.645  -1.298  -3.096  0.00  0.00    -0.013 A 
ATOM      3  C   LIG d   1       5.810  -0.319  -4.067  0.00  0.00     0.115 A 
ATOM      4  C   LIG d   1       6.813  -0.449  -5.017  0.00  0.00     0.304 A 
ATOM      5  C   LIG d   1       7.638  -1.557  -5.001  0.00  0.00     0.109 A 
ATOM      6  C   LIG d   1       7.471  -2.530  -4.032  0.00  0.00     0.283 A 
ATOM      7  N   LIG d   1       4.968   0.798  -4.081  0.00  0.00    -0.280 N 
ATOM      8  C   LIG d   1       4.259   1.132  -2.987  0.00  0.00     0.218 C 
ATOM      9  O   LIG d   1       3.521   2.093  -3.023  0.00  0.00    -0.276 OA
ATOM     10  C   LIG d   1       4.369   0.324  -1.723  0.00  0.00     0.028 C 
ATOM     11  C   LIG d   1       4.560  -1.154  -2.062  0.00  0.00    -0.017 C 
ATOM     12  H   LIG d   1       6.349  -3.162  -2.327  0.00  0.00     0.069 H 
ATOM     13  H   LIG d   1       4.894   1.335  -4.886  0.00  0.00     0.155 HD
ATOM     14  H   LIG d   1       5.224   0.675  -1.143  0.00  0.00     0.036 H 
ATOM     15  H   LIG d   1       3.461   0.447  -1.134  0.00  0.00     0.036 H 
ATOM     16  H   LIG d   1       3.627  -1.557  -2.455  0.00  0.00     0.032 H 
ATOM     17  H   LIG d   1       4.840  -1.700  -1.162  0.00  0.00     0.032 H 
ENDROOT
BRANCH   5  18
ATOM     18  C   LIG d   1       8.724  -1.703  -6.036  0.00  0.00    -0.010 C 
ATOM     19  H   LIG d   1       8.420  -1.202  -6.955  0.00  0.00     0.032 H 
ATOM     20  H   LIG d   1       8.894  -2.760  -6.237  0.00  0.00     0.032 H 
BRANCH  18  21
ATOM     21  C   LIG d   1      10.015  -1.069  -5.512  0.00  0.00    -0.009 C 
ATOM     22  H   LIG d   1      10.727  -1.854  -5.256  0.00  0.00     0.033 H 
ATOM     23  H   LIG d   1       9.794  -0.474  -4.626  0.00  0.00     0.033 H 
BRANCH  21  24
ATOM     24  C   LIG d   1      10.605  -0.182  -6.577  0.00  0.00     0.042 C 
ATOM     25  O   LIG d   1      10.043  -0.054  -7.639  0.00  0.00    -0.550 OA
ATOM     26  O   LIG d   1      11.759   0.466  -6.347  0.00  0.00    -0.550 OA
ENDBRANCH  21  24
ENDBRANCH  18  21
ENDBRANCH   5  18
BRANCH   4  27
ATOM     27  N   LIG d   1       6.996   0.595  -6.051  0.00  0.00     0.082 N 
ATOM     28  O   LIG d   1       7.688   1.570  -5.815  0.00  0.00     0.042 OA
ATOM     29  O   LIG d   1       6.454   0.481  -7.134  0.00  0.00    -0.576 OA
ENDBRANCH   4  27
BRANCH   6  30
ATOM     30  N   LIG d   1       8.360  -3.714  -4.014  0.00  0.00     0.080 N 
ATOM     31  O   LIG d   1       9.346  -3.724  -3.299  0.00  0.00     0.042 OA
ATOM     32  O   LIG d   1       8.106  -4.678  -4.715  0.00  0.00    -0.576 OA
ENDBRANCH   6  30
TORSDOF 5
ENDMDL
MODEL 8
REMARK VINA RESULT:      -5.1      9.930     13.870
REMARK  5 active torsions:
REMARK  status: ('A' for Active; 'I' for Inactive)
REMARK    1  A    between atoms: C_4  and  N_14 
REMARK    2  A    between atoms: C_5  and  C_10 
REMARK    3  A    between atoms: C_6  and  N_7 
REMARK    4  A    between atoms: C_10  and  C_11 
REMARK    5  A    between atoms: C_11  and  C_12 
ROOT
ATOM      1  C   LIG d   1       9.663   7.762  -3.099  0.00  0.00     0.021 A 
ATOM      2  C   LIG d   1       9.852   6.399  -2.982  0.00  0.00    -0.013 A 
ATOM      3  C   LIG d   1      10.376   5.870  -1.810  0.00  0.00     0.115 A 
ATOM      4  C   LIG d   1      10.713   6.713  -0.760  0.00  0.00     0.304 A 
ATOM      5  C   LIG d   1      10.516   8.075  -0.881  0.00  0.00     0.109 A 
ATOM      6  C   LIG d   1       9.994   8.599  -2.050  0.00  0.00     0.283 A 
ATOM      7  N   LIG d   1      10.567   4.490  -1.692  0.00  0.00    -0.280 N 
ATOM      8  C   LIG d   1      10.607   3.711  -2.789  0.00  0.00     0.218 C 
ATOM      9  O   LIG d   1      10.757   2.513  -2.668  0.00  0.00    -0.276 OA
ATOM     10  C   LIG d   1      10.466   4.307  -4.162  0.00  0.00     0.028 C 
ATOM     11  C   LIG d   1       9.491   5.484  -4.123  0.00  0.00    -0.017 C 
ATOM     12  H   LIG d   1       9.255   8.174  -4.010  0.00  0.00     0.069 H 
ATOM     13  H   LIG d   1      10.671   4.091  -0.814  0.00  0.00     0.155 HD
ATOM     14  H   LIG d   1      11.439   4.656  -4.507  0.00  0.00     0.036 H 
ATOM     15  H   LIG d   1      10.091   3.550  -4.850  0.00  0.00     0.036 H 
ATOM     16  H   LIG d   1       8.477   5.109  -3.981  0.00  0.00     0.032 H 
ATOM     17  H   LIG d   1       9.547   6.034  -5.062  0.00  0.00     0.032 H 
ENDROOT
BRANCH   5  18
ATOM     18  C   LIG d   1      10.876   8.992   0.260  0.00  0.00    -0.010 C 
ATOM     19  H   LIG d   1      10.704   8.479   1.206  0.00  0.00     0.032 H 
ATOM     20  H   LIG d   1      10.258   9.888   0.215  0.00  0.00     0.032 H 
BRANCH  18  21
ATOM     21  C   LIG d   1      12.351   9.384   0.152  0.00  0.00    -0.009 C 
ATOM     22  H   LIG d   1      12.430  10.401  -0.235  0.00  0.00     0.033 H 
ATOM     23  H   LIG d   1      12.862   8.697  -0.523  0.00  0.00     0.033 H 
BRANCH  21  24
ATOM     24  C   LIG d   1      12.989   9.315   1.516  0.00  0.00     0.042 C 
ATOM     25  O   LIG d   1      14.153   9.608   1.655  0.00  0.00    -0.550 OA
ATOM     26  O   LIG d   1      12.264   8.926   2.577  0.00  0.00    -0.550 OA
ENDBRANCH  21  24
ENDBRANCH  18  21
ENDBRANCH   5  18
BRANCH   4  27
ATOM     27  N   LIG d   1      11.277   6.154   0.489  0.00  0.00     0.082 N 
ATOM     28  O   LIG d   1      12.475   5.952   0.579  0.00  0.00     0.042 OA
ATOM     29  O   LIG d   1      10.544   5.895   1.425  0.00  0.00    -0.576 OA
ENDBRANCH   4  27
BRANCH   6  30
ATOM     30  N   LIG d   1       9.790  10.060  -2.178  0.00  0.00     0.080 N 
ATOM     31  O   LIG d   1      10.655  10.754  -2.681  0.00  0.00     0.042 OA
ATOM     32  O   LIG d   1       8.756  10.567  -1.780  0.00  0.00    -0.576 OA
ENDBRANCH   6  30
TORSDOF 5
ENDMDL
MODEL 9
REMARK VINA RESULT:      -5.1      3.807      5.800
REMARK  5 active torsions:
REMARK  status: ('A' for Active; 'I' for Inactive)
REMARK    1  A    between atoms: C_4  and  N_14 
REMARK    2  A    between atoms: C_5  and  C_10 
REMARK    3  A    between atoms: C_6  and  N_7 
REMARK    4  A    between atoms: C_10  and  C_11 
REMARK    5  A    between atoms: C_11  and  C_12 
ROOT
ATOM      1  C   LIG d   1       6.950   1.732  -3.661  0.00  0.00     0.021 A 
ATOM      2  C   LIG d   1       8.115   1.332  -4.284  0.00  0.00    -0.013 A 
ATOM      3  C   LIG d   1       8.393  -0.021  -4.432  0.00  0.00     0.115 A 
ATOM      4  C   LIG d   1       7.500  -0.968  -3.948  0.00  0.00     0.304 A 
ATOM      5  C   LIG d   1       6.333  -0.561  -3.331  0.00  0.00     0.109 A 
ATOM      6  C   LIG d   1       6.060   0.788  -3.185  0.00  0.00     0.283 A 
ATOM      7  N   LIG d   1       9.573  -0.426  -5.063  0.00  0.00    -0.280 N 
ATOM      8  C   LIG d   1      10.603   0.430  -5.198  0.00  0.00     0.218 C 
ATOM      9  O   LIG d   1      11.613   0.067  -5.762  0.00  0.00    -0.276 OA
ATOM     10  C   LIG d   1      10.515   1.831  -4.658  0.00  0.00     0.028 C 
ATOM     11  C   LIG d   1       9.087   2.358  -4.805  0.00  0.00    -0.017 C 
ATOM     12  H   LIG d   1       6.734   2.783  -3.546  0.00  0.00     0.069 H 
ATOM     13  H   LIG d   1       9.650  -1.331  -5.406  0.00  0.00     0.155 HD
ATOM     14  H   LIG d   1      10.794   1.831  -3.604  0.00  0.00     0.036 H 
ATOM     15  H   LIG d   1      11.197   2.476  -5.211  0.00  0.00     0.036 H 
ATOM     16  H   LIG d   1       8.880   2.553  -5.857  0.00  0.00     0.032 H 
ATOM     17  H   LIG d   1       8.981   3.281  -4.236  0.00  0.00     0.032 H 
ENDROOT
BRANCH   5  18
ATOM     18  C   LIG d   1       5.360  -1.587  -2.810  0.00  0.00    -0.010 C 
ATOM     19  H   LIG d   1       5.042  -1.309  -1.805  0.00  0.00     0.032 H 
ATOM     20  H   LIG d   1       5.841  -2.563  -2.781  0.00  0.00     0.032 H 
BRANCH  18  21
ATOM     21  C   LIG d   1       4.140  -1.646  -3.732  0.00  0.00    -0.009 C 
ATOM     22  H   LIG d   1       3.928  -0.650  -4.120  0.00  0.00     0.033 H 
ATOM     23  H   LIG d   1       3.278  -2.009  -3.171  0.00  0.00     0.033 H 
BRANCH  21  24
ATOM     24  C   LIG d   1       4.423  -2.583  -4.878  0.00  0.00     0.042 C 
ATOM     25  O   LIG d   1       4.451  -3.776  -4.691  0.00  0.00    -0.550 OA
ATOM     26  O   LIG d   1       4.644  -2.090  -6.108  0.00  0.00    -0.550 OA
ENDBRANCH  21  24
ENDBRANCH  18  21
ENDBRANCH   5  18
BRANCH   4  27
ATOM     27  N   LIG d   1       7.795  -2.411  -4.098  0.00  0.00     0.082 N 
ATOM     28  O   LIG d   1       8.133  -3.067  -3.129  0.00  0.00     0.042 OA
ATOM     29  O   LIG d   1       7.700  -2.941  -5.190  0.00  0.00    -0.576 OA
ENDBRANCH   4  27
BRANCH   6  30
ATOM     30  N   LIG d   1       4.811   1.220  -2.518  0.00  0.00     0.080 N 
ATOM     31  O   LIG d   1       3.904   1.698  -3.174  0.00  0.00     0.042 OA
ATOM     32  O   LIG d   1       4.691   1.097  -1.312  0.00  0.00    -0.576 OA
ENDBRANCH   6  30
TORSDOF 5
ENDMDL
MODEL 10
REMARK VINA RESULT:      -4.9      3.006      6.032
REMARK  5 active torsions:
REMARK  status: ('A' for Active; 'I' for Inactive)
REMARK    1  A    between atoms: C_4  and  N_14 
REMARK    2  A    between atoms: C_5  and  C_10 
REMARK    3  A    between atoms: C_6  and  N_7 
REMARK    4  A    between atoms: C_10  and  C_11 
REMARK    5  A    between atoms: C_11  and  C_12 
ROOT
ATOM      1  C   LIG d   1       7.839  -4.926  -5.227  0.00  0.00     0.021 A 
ATOM      2  C   LIG d   1       6.675  -5.127  -5.943  0.00  0.00    -0.013 A 
ATOM      3  C   LIG d   1       5.606  -4.254  -5.787  0.00  0.00     0.115 A 
ATOM      4  C   LIG d   1       5.709  -3.184  -4.908  0.00  0.00     0.304 A 
ATOM      5  C   LIG d   1       6.878  -2.985  -4.200  0.00  0.00     0.109 A 
ATOM      6  C   LIG d   1       7.941  -3.857  -4.357  0.00  0.00     0.283 A 
ATOM      7  N   LIG d   1       4.428  -4.458  -6.512  0.00  0.00    -0.280 N 
ATOM      8  C   LIG d   1       4.166  -5.657  -7.064  0.00  0.00     0.218 C 
ATOM      9  O   LIG d   1       3.147  -5.812  -7.704  0.00  0.00    -0.276 OA
ATOM     10  C   LIG d   1       5.123  -6.806  -6.900  0.00  0.00     0.028 C 
ATOM     11  C   LIG d   1       6.562  -6.291  -6.893  0.00  0.00    -0.017 C 
ATOM     12  H   LIG d   1       8.670  -5.604  -5.348  0.00  0.00     0.069 H 
ATOM     13  H   LIG d   1       3.795  -3.730  -6.618  0.00  0.00     0.155 HD
ATOM     14  H   LIG d   1       4.917  -7.316  -5.958  0.00  0.00     0.036 H 
ATOM     15  H   LIG d   1       4.993  -7.506  -7.724  0.00  0.00     0.036 H 
ATOM     16  H   LIG d   1       6.834  -5.967  -7.898  0.00  0.00     0.032 H 
ATOM     17  H   LIG d   1       7.232  -7.088  -6.573  0.00  0.00     0.032 H 
ENDROOT
BRANCH   5  18
ATOM     18  C   LIG d   1       6.993  -1.821  -3.250  0.00  0.00    -0.010 C 
ATOM     19  H   LIG d   1       7.723  -2.055  -2.475  0.00  0.00     0.032 H 
ATOM     20  H   LIG d   1       6.024  -1.630  -2.790  0.00  0.00     0.032 H 
BRANCH  18  21
ATOM     21  C   LIG d   1       7.446  -0.578  -4.019  0.00  0.00    -0.009 C 
ATOM     22  H   LIG d   1       7.277  -0.729  -5.085  0.00  0.00     0.033 H 
ATOM     23  H   LIG d   1       8.508  -0.407  -3.839  0.00  0.00     0.033 H 
BRANCH  21  24
ATOM     24  C   LIG d   1       6.659   0.617  -3.548  0.00  0.00     0.042 C 
ATOM     25  O   LIG d   1       5.745   0.472  -2.771  0.00  0.00    -0.550 OA
ATOM     26  O   LIG d   1       6.973   1.845  -3.994  0.00  0.00    -0.550 OA
ENDBRANCH  21  24
ENDBRANCH  18  21
ENDBRANCH   5  18
BRANCH   4  27
ATOM     27  N   LIG d   1       4.570  -2.255  -4.735  0.00  0.00     0.082 N 
ATOM     28  O   LIG d   1       4.405  -1.341  -5.523  0.00  0.00     0.042 OA
ATOM     29  O   LIG d   1       3.799  -2.404  -3.805  0.00  0.00    -0.576 OA
ENDBRANCH   4  27
BRANCH   6  30
ATOM     30  N   LIG d   1       9.190  -3.643  -3.592  0.00  0.00     0.080 N 
ATOM     31  O   LIG d   1      10.139  -3.089  -4.117  0.00  0.00     0.042 OA
ATOM     32  O   LIG d   1       9.268  -4.022  -2.437  0.00  0.00    -0.576 OA
ENDBRANCH   6  30
TORSDOF 5
ENDMDL
