MODEL 1
REMARK VINA RESULT:      -7.3      0.000      0.000
REMARK  9 active torsions:
REMARK  status: ('A' for Active; 'I' for Inactive)
REMARK    1  A    between atoms: C_1  and  C_2 
REMARK    2  A    between atoms: C_2  and  C_3 
REMARK    3  A    between atoms: C_3  and  O_4 
REMARK    4  A    between atoms: O_4  and  C_5 
REMARK    5  A    between atoms: C_8  and  C_14 
REMARK    6  A    between atoms: C_10  and  O_11 
REMARK    7  A    between atoms: O_11  and  C_12 
REMARK    8  A    between atoms: C_12  and  C_13 
REMARK    9  A    between atoms: C_24  and  C_35 
ROOT
ATOM      1  C   LIG d   1       7.116  -2.043  -6.276  0.00  0.00     0.028 C 
ATOM      2  H   LIG d   1       7.980  -1.638  -5.749  0.00  0.00     0.041 H 
ATOM      3  C   LIG d   1       7.533  -3.294  -7.060  0.00  0.00     0.027 C 
ATOM      4  N   LIG d   1       6.319  -4.029  -7.463  0.00  0.00    -0.280 N 
ATOM      5  C   LIG d   1       6.025  -4.141  -8.761  0.00  0.00     0.234 C 
ATOM      6  O   LIG d   1       6.850  -3.762  -9.565  0.00  0.00    -0.274 OA
ATOM      7  C   LIG d   1       4.744  -4.703  -9.287  0.00  0.00     0.088 C 
ATOM      8  N   LIG d   1       3.830  -5.078  -8.220  0.00  0.00    -0.305 N 
ATOM      9  C   LIG d   1       4.146  -5.018  -6.939  0.00  0.00     0.243 C 
ATOM     10  O   LIG d   1       3.292  -5.344  -6.142  0.00  0.00    -0.273 OA
ATOM     11  C   LIG d   1       5.475  -4.592  -6.410  0.00  0.00     0.151 C 
ATOM     12  C   LIG d   1       5.307  -3.545  -5.334  0.00  0.00     0.054 A 
ATOM     13  C   LIG d   1       6.048  -2.416  -5.281  0.00  0.00    -0.008 A 
ATOM     14  C   LIG d   1       5.602  -1.675  -4.118  0.00  0.00     0.004 A 
ATOM     15  C   LIG d   1       6.000  -0.455  -3.563  0.00  0.00    -0.052 A 
ATOM     16  C   LIG d   1       5.342  -0.044  -2.431  0.00  0.00    -0.061 A 
ATOM     17  C   LIG d   1       4.331  -0.795  -1.854  0.00  0.00    -0.060 A 
ATOM     18  C   LIG d   1       3.919  -2.007  -2.380  0.00  0.00    -0.038 A 
ATOM     19  C   LIG d   1       4.569  -2.449  -3.531  0.00  0.00     0.047 A 
ATOM     20  N   LIG d   1       4.420  -3.573  -4.292  0.00  0.00    -0.356 N 
ATOM     21  H   LIG d   1       3.781  -4.283  -4.120  0.00  0.00     0.166 HD
ATOM     22  H   LIG d   1       8.093  -2.999  -7.946  0.00  0.00     0.047 H 
ATOM     23  H   LIG d   1       8.151  -3.930  -6.427  0.00  0.00     0.047 H 
ATOM     24  H   LIG d   1       4.263  -3.956  -9.919  0.00  0.00     0.056 H 
ATOM     25  H   LIG d   1       4.965  -5.586  -9.888  0.00  0.00     0.056 H 
ATOM     26  H   LIG d   1       2.941  -5.378  -8.464  0.00  0.00     0.149 HD
ATOM     27  H   LIG d   1       6.788   0.138  -4.006  0.00  0.00     0.062 H 
ATOM     28  H   LIG d   1       5.623   0.894  -1.974  0.00  0.00     0.062 H 
ATOM     29  H   LIG d   1       3.847  -0.423  -0.963  0.00  0.00     0.062 H 
ATOM     30  H   LIG d   1       3.129  -2.582  -1.922  0.00  0.00     0.064 H 
ENDROOT
BRANCH   1  31
ATOM     31  C   LIG d   1       6.577  -1.007  -7.229  0.00  0.00    -0.035 A 
ATOM     32  C   LIG d   1       7.344  -0.592  -8.303  0.00  0.00    -0.054 A 
ATOM     33  C   LIG d   1       6.854   0.357  -9.180  0.00  0.00    -0.016 A 
ATOM     34  H   LIG d   1       8.328  -1.010  -8.455  0.00  0.00     0.062 H 
ATOM     35  C   LIG d   1       5.592   0.895  -8.985  0.00  0.00     0.162 A 
ATOM     36  H   LIG d   1       7.455   0.679 -10.018  0.00  0.00     0.066 H 
ATOM     37  C   LIG d   1       4.820   0.476  -7.905  0.00  0.00     0.162 A 
ATOM     38  C   LIG d   1       5.315  -0.479  -7.032  0.00  0.00    -0.013 A 
ATOM     39  H   LIG d   1       4.717  -0.808  -6.196  0.00  0.00     0.066 H 
BRANCH  35  40
ATOM     40  O   LIG d   1       5.109   1.829  -9.847  0.00  0.00    -0.488 OA
BRANCH  40  41
ATOM     41  C   LIG d   1       3.941   1.480 -10.594  0.00  0.00     0.089 C 
ATOM     42  H   LIG d   1       3.158   1.153  -9.910  0.00  0.00     0.070 H 
ATOM     43  H   LIG d   1       3.595   2.347 -11.155  0.00  0.00     0.070 H 
BRANCH  41  44
ATOM     44  C   LIG d   1       4.276   0.345 -11.564  0.00  0.00    -0.021 C 
ATOM     45  H   LIG d   1       4.321   0.738 -12.579  0.00  0.00     0.029 H 
ATOM     46  H   LIG d   1       5.241  -0.086 -11.299  0.00  0.00     0.029 H 
BRANCH  44  47
ATOM     47  C   LIG d   1       3.195  -0.734 -11.481  0.00  0.00    -0.062 C 
ATOM     48  H   LIG d   1       3.664  -1.712 -11.379  0.00  0.00     0.023 H 
ATOM     49  H   LIG d   1       2.559  -0.545 -10.616  0.00  0.00     0.023 H 
ATOM     50  H   LIG d   1       2.590  -0.713 -12.387  0.00  0.00     0.023 H 
ENDBRANCH  44  47
ENDBRANCH  41  44
ENDBRANCH  40  41
ENDBRANCH  35  40
BRANCH  37  51
ATOM     51  O   LIG d   1       3.581   1.001  -7.710  0.00  0.00    -0.489 OA
BRANCH  51  52
ATOM     52  C   LIG d   1       2.624   0.176  -7.042  0.00  0.00     0.087 C 
ATOM     53  H   LIG d   1       1.637   0.342  -7.474  0.00  0.00     0.069 H 
ATOM     54  H   LIG d   1       2.901  -0.872  -7.162  0.00  0.00     0.069 H 
BRANCH  52  55
ATOM     55  C   LIG d   1       2.597   0.529  -5.554  0.00  0.00    -0.031 C 
ATOM     56  H   LIG d   1       2.379  -0.366  -4.972  0.00  0.00     0.026 H 
ATOM     57  H   LIG d   1       3.568   0.928  -5.258  0.00  0.00     0.026 H 
ATOM     58  H   LIG d   1       1.826   1.278  -5.372  0.00  0.00     0.026 H 
ENDBRANCH  52  55
ENDBRANCH  51  52
ENDBRANCH  37  51
ENDBRANCH   1  31
BRANCH  11  59
ATOM     59  C   LIG d   1       6.181  -5.810  -5.809  0.00  0.00    -0.029 C 
ATOM     60  H   LIG d   1       5.562  -6.235  -5.019  0.00  0.00     0.026 H 
ATOM     61  H   LIG d   1       7.142  -5.505  -5.394  0.00  0.00     0.026 H 
ATOM     62  H   LIG d   1       6.342  -6.557  -6.586  0.00  0.00     0.026 H 
ENDBRANCH  11  59
TORSDOF 9
ENDMDL
MODEL 2
REMARK VINA RESULT:      -7.3      0.936      2.133
REMARK  9 active torsions:
REMARK  status: ('A' for Active; 'I' for Inactive)
REMARK    1  A    between atoms: C_1  and  C_2 
REMARK    2  A    between atoms: C_2  and  C_3 
REMARK    3  A    between atoms: C_3  and  O_4 
REMARK    4  A    between atoms: O_4  and  C_5 
REMARK    5  A    between atoms: C_8  and  C_14 
REMARK    6  A    between atoms: C_10  and  O_11 
REMARK    7  A    between atoms: O_11  and  C_12 
REMARK    8  A    between atoms: C_12  and  C_13 
REMARK    9  A    between atoms: C_24  and  C_35 
ROOT
ATOM      1  C   LIG d   1       7.083  -1.821  -6.240  0.00  0.00     0.028 C 
ATOM      2  H   LIG d   1       7.937  -1.399  -5.709  0.00  0.00     0.041 H 
ATOM      3  C   LIG d   1       7.532  -3.051  -7.038  0.00  0.00     0.027 C 
ATOM      4  N   LIG d   1       6.338  -3.814  -7.449  0.00  0.00    -0.280 N 
ATOM      5  C   LIG d   1       6.046  -3.919  -8.748  0.00  0.00     0.234 C 
ATOM      6  O   LIG d   1       6.859  -3.508  -9.548  0.00  0.00    -0.274 OA
ATOM      7  C   LIG d   1       4.779  -4.509  -9.279  0.00  0.00     0.088 C 
ATOM      8  N   LIG d   1       3.877  -4.919  -8.217  0.00  0.00    -0.305 N 
ATOM      9  C   LIG d   1       4.192  -4.865  -6.935  0.00  0.00     0.243 C 
ATOM     10  O   LIG d   1       3.348  -5.223  -6.141  0.00  0.00    -0.273 OA
ATOM     11  C   LIG d   1       5.510  -4.411  -6.402  0.00  0.00     0.151 C 
ATOM     12  C   LIG d   1       5.316  -3.381  -5.313  0.00  0.00     0.054 A 
ATOM     13  C   LIG d   1       6.027  -2.233  -5.249  0.00  0.00    -0.008 A 
ATOM     14  C   LIG d   1       5.562  -1.518  -4.077  0.00  0.00     0.004 A 
ATOM     15  C   LIG d   1       5.928  -0.294  -3.509  0.00  0.00    -0.052 A 
ATOM     16  C   LIG d   1       5.261   0.087  -2.371  0.00  0.00    -0.061 A 
ATOM     17  C   LIG d   1       4.270  -0.698  -1.802  0.00  0.00    -0.060 A 
ATOM     18  C   LIG d   1       3.890  -1.914  -2.342  0.00  0.00    -0.038 A 
ATOM     19  C   LIG d   1       4.551  -2.325  -3.498  0.00  0.00     0.047 A 
ATOM     20  N   LIG d   1       4.430  -3.444  -4.272  0.00  0.00    -0.356 N 
ATOM     21  H   LIG d   1       3.811  -4.173  -4.108  0.00  0.00     0.166 HD
ATOM     22  H   LIG d   1       8.083  -2.732  -7.921  0.00  0.00     0.047 H 
ATOM     23  H   LIG d   1       8.168  -3.678  -6.414  0.00  0.00     0.047 H 
ATOM     24  H   LIG d   1       4.278  -3.767  -9.903  0.00  0.00     0.056 H 
ATOM     25  H   LIG d   1       5.023  -5.378  -9.890  0.00  0.00     0.056 H 
ATOM     26  H   LIG d   1       2.995  -5.240  -8.463  0.00  0.00     0.149 HD
ATOM     27  H   LIG d   1       6.699   0.324  -3.945  0.00  0.00     0.062 H 
ATOM     28  H   LIG d   1       5.517   1.026  -1.904  0.00  0.00     0.062 H 
ATOM     29  H   LIG d   1       3.778  -0.349  -0.906  0.00  0.00     0.062 H 
ATOM     30  H   LIG d   1       3.116  -2.515  -1.890  0.00  0.00     0.064 H 
ENDROOT
BRANCH   1  31
ATOM     31  C   LIG d   1       6.516  -0.789  -7.181  0.00  0.00    -0.035 A 
ATOM     32  C   LIG d   1       5.159  -0.521  -7.175  0.00  0.00    -0.054 A 
ATOM     33  C   LIG d   1       4.634   0.425  -8.036  0.00  0.00    -0.016 A 
ATOM     34  H   LIG d   1       4.508  -1.053  -6.498  0.00  0.00     0.062 H 
ATOM     35  C   LIG d   1       5.469   1.107  -8.906  0.00  0.00     0.162 A 
ATOM     36  H   LIG d   1       3.574   0.632  -8.030  0.00  0.00     0.066 H 
ATOM     37  C   LIG d   1       6.834   0.839  -8.911  0.00  0.00     0.162 A 
ATOM     38  C   LIG d   1       7.354  -0.107  -8.043  0.00  0.00    -0.013 A 
ATOM     39  H   LIG d   1       8.413  -0.315  -8.042  0.00  0.00     0.066 H 
BRANCH  35  40
ATOM     40  O   LIG d   1       4.954   2.039  -9.754  0.00  0.00    -0.488 OA
BRANCH  40  41
ATOM     41  C   LIG d   1       3.767   1.683 -10.465  0.00  0.00     0.089 C 
ATOM     42  H   LIG d   1       3.011   1.338  -9.761  0.00  0.00     0.070 H 
ATOM     43  H   LIG d   1       3.392   2.552 -11.005  0.00  0.00     0.070 H 
BRANCH  41  44
ATOM     44  C   LIG d   1       4.085   0.564 -11.459  0.00  0.00    -0.021 C 
ATOM     45  H   LIG d   1       4.156   0.980 -12.464  0.00  0.00     0.029 H 
ATOM     46  H   LIG d   1       5.032   0.097 -11.191  0.00  0.00     0.029 H 
BRANCH  44  47
ATOM     47  C   LIG d   1       2.971  -0.484 -11.421  0.00  0.00    -0.062 C 
ATOM     48  H   LIG d   1       2.145  -0.115 -10.813  0.00  0.00     0.023 H 
ATOM     49  H   LIG d   1       2.618  -0.677 -12.434  0.00  0.00     0.023 H 
ATOM     50  H   LIG d   1       3.355  -1.408 -10.988  0.00  0.00     0.023 H 
ENDBRANCH  44  47
ENDBRANCH  41  44
ENDBRANCH  40  41
ENDBRANCH  35  40
BRANCH  37  51
ATOM     51  O   LIG d   1       7.657   1.507  -9.764  0.00  0.00    -0.489 OA
BRANCH  51  52
ATOM     52  C   LIG d   1       8.864   2.040  -9.216  0.00  0.00     0.087 C 
ATOM     53  H   LIG d   1       9.084   1.544  -8.271  0.00  0.00     0.069 H 
ATOM     54  H   LIG d   1       9.685   1.872  -9.914  0.00  0.00     0.069 H 
BRANCH  52  55
ATOM     55  C   LIG d   1       8.697   3.541  -8.978  0.00  0.00    -0.031 C 
ATOM     56  H   LIG d   1       8.282   3.708  -7.984  0.00  0.00     0.026 H 
ATOM     57  H   LIG d   1       9.667   4.032  -9.053  0.00  0.00     0.026 H 
ATOM     58  H   LIG d   1       8.022   3.956  -9.727  0.00  0.00     0.026 H 
ENDBRANCH  52  55
ENDBRANCH  51  52
ENDBRANCH  37  51
ENDBRANCH   1  31
BRANCH  11  59
ATOM     59  C   LIG d   1       6.249  -5.616  -5.815  0.00  0.00    -0.029 C 
ATOM     60  H   LIG d   1       6.232  -6.436  -6.533  0.00  0.00     0.026 H 
ATOM     61  H   LIG d   1       5.758  -5.930  -4.894  0.00  0.00     0.026 H 
ATOM     62  H   LIG d   1       7.281  -5.341  -5.602  0.00  0.00     0.026 H 
ENDBRANCH  11  59
TORSDOF 9
ENDMDL
MODEL 3
REMARK VINA RESULT:      -6.8      2.732      6.225
REMARK  9 active torsions:
REMARK  status: ('A' for Active; 'I' for Inactive)
REMARK    1  A    between atoms: C_1  and  C_2 
REMARK    2  A    between atoms: C_2  and  C_3 
REMARK    3  A    between atoms: C_3  and  O_4 
REMARK    4  A    between atoms: O_4  and  C_5 
REMARK    5  A    between atoms: C_8  and  C_14 
REMARK    6  A    between atoms: C_10  and  O_11 
REMARK    7  A    between atoms: O_11  and  C_12 
REMARK    8  A    between atoms: C_12  and  C_13 
REMARK    9  A    between atoms: C_24  and  C_35 
ROOT
ATOM      1  C   LIG d   1       4.712  -3.414  -5.616  0.00  0.00     0.028 C 
ATOM      2  H   LIG d   1       4.058  -4.012  -4.980  0.00  0.00     0.041 H 
ATOM      3  C   LIG d   1       4.304  -3.595  -7.083  0.00  0.00     0.027 C 
ATOM      4  N   LIG d   1       4.935  -2.531  -7.887  0.00  0.00    -0.280 N 
ATOM      5  C   LIG d   1       5.847  -2.861  -8.805  0.00  0.00     0.234 C 
ATOM      6  O   LIG d   1       6.010  -4.038  -9.047  0.00  0.00    -0.274 OA
ATOM      7  C   LIG d   1       6.680  -1.872  -9.555  0.00  0.00     0.088 C 
ATOM      8  N   LIG d   1       6.416  -0.504  -9.139  0.00  0.00    -0.305 N 
ATOM      9  C   LIG d   1       5.475  -0.178  -8.272  0.00  0.00     0.243 C 
ATOM     10  O   LIG d   1       5.360   0.997  -7.994  0.00  0.00    -0.273 OA
ATOM     11  C   LIG d   1       4.541  -1.146  -7.625  0.00  0.00     0.151 C 
ATOM     12  C   LIG d   1       4.516  -0.941  -6.129  0.00  0.00     0.054 A 
ATOM     13  C   LIG d   1       4.587  -1.960  -5.243  0.00  0.00    -0.008 A 
ATOM     14  C   LIG d   1       4.530  -1.371  -3.920  0.00  0.00     0.004 A 
ATOM     15  C   LIG d   1       4.556  -1.924  -2.636  0.00  0.00    -0.052 A 
ATOM     16  C   LIG d   1       4.484  -1.048  -1.581  0.00  0.00    -0.061 A 
ATOM     17  C   LIG d   1       4.389   0.322  -1.768  0.00  0.00    -0.060 A 
ATOM     18  C   LIG d   1       4.360   0.895  -3.027  0.00  0.00    -0.038 A 
ATOM     19  C   LIG d   1       4.431   0.029  -4.117  0.00  0.00     0.047 A 
ATOM     20  N   LIG d   1       4.424   0.251  -5.465  0.00  0.00    -0.356 N 
ATOM     21  H   LIG d   1       4.363   1.123  -5.886  0.00  0.00     0.166 HD
ATOM     22  H   LIG d   1       4.639  -4.568  -7.438  0.00  0.00     0.047 H 
ATOM     23  H   LIG d   1       3.220  -3.523  -7.171  0.00  0.00     0.047 H 
ATOM     24  H   LIG d   1       7.734  -2.096  -9.385  0.00  0.00     0.056 H 
ATOM     25  H   LIG d   1       6.467  -1.964 -10.620  0.00  0.00     0.056 H 
ATOM     26  H   LIG d   1       6.966   0.202  -9.512  0.00  0.00     0.149 HD
ATOM     27  H   LIG d   1       4.630  -2.990  -2.480  0.00  0.00     0.062 H 
ATOM     28  H   LIG d   1       4.501  -1.438  -0.575  0.00  0.00     0.062 H 
ATOM     29  H   LIG d   1       4.336   0.964  -0.902  0.00  0.00     0.062 H 
ATOM     30  H   LIG d   1       4.286   1.964  -3.160  0.00  0.00     0.064 H 
ENDROOT
BRANCH   1  31
ATOM     31  C   LIG d   1       6.140  -3.862  -5.431  0.00  0.00    -0.035 A 
ATOM     32  C   LIG d   1       7.109  -2.944  -5.071  0.00  0.00    -0.054 A 
ATOM     33  C   LIG d   1       8.420  -3.349  -4.900  0.00  0.00    -0.016 A 
ATOM     34  H   LIG d   1       6.842  -1.908  -4.924  0.00  0.00     0.062 H 
ATOM     35  C   LIG d   1       8.763  -4.678  -5.089  0.00  0.00     0.162 A 
ATOM     36  H   LIG d   1       9.175  -2.630  -4.619  0.00  0.00     0.066 H 
ATOM     37  C   LIG d   1       7.787  -5.602  -5.450  0.00  0.00     0.162 A 
ATOM     38  C   LIG d   1       6.475  -5.189  -5.616  0.00  0.00    -0.013 A 
ATOM     39  H   LIG d   1       5.716  -5.905  -5.892  0.00  0.00     0.066 H 
BRANCH  35  40
ATOM     40  O   LIG d   1      10.052  -5.079  -4.921  0.00  0.00    -0.488 OA
BRANCH  40  41
ATOM     41  C   LIG d   1      10.702  -4.684  -3.711  0.00  0.00     0.089 C 
ATOM     42  H   LIG d   1      11.754  -4.485  -3.911  0.00  0.00     0.070 H 
ATOM     43  H   LIG d   1      10.229  -3.783  -3.322  0.00  0.00     0.070 H 
BRANCH  41  44
ATOM     44  C   LIG d   1      10.584  -5.808  -2.679  0.00  0.00    -0.021 C 
ATOM     45  H   LIG d   1      10.201  -6.706  -3.162  0.00  0.00     0.029 H 
ATOM     46  H   LIG d   1      11.565  -6.015  -2.253  0.00  0.00     0.029 H 
BRANCH  44  47
ATOM     47  C   LIG d   1       9.625  -5.380  -1.566  0.00  0.00    -0.062 C 
ATOM     48  H   LIG d   1       9.120  -6.258  -1.162  0.00  0.00     0.023 H 
ATOM     49  H   LIG d   1      10.187  -4.887  -0.772  0.00  0.00     0.023 H 
ATOM     50  H   LIG d   1       8.885  -4.689  -1.969  0.00  0.00     0.023 H 
ENDBRANCH  44  47
ENDBRANCH  41  44
ENDBRANCH  40  41
ENDBRANCH  35  40
BRANCH  37  51
ATOM     51  O   LIG d   1       8.121  -6.907  -5.636  0.00  0.00    -0.489 OA
BRANCH  51  52
ATOM     52  C   LIG d   1       7.328  -7.883  -4.956  0.00  0.00     0.087 C 
ATOM     53  H   LIG d   1       6.387  -7.430  -4.642  0.00  0.00     0.069 H 
ATOM     54  H   LIG d   1       7.123  -8.717  -5.628  0.00  0.00     0.069 H 
BRANCH  52  55
ATOM     55  C   LIG d   1       8.086  -8.390  -3.729  0.00  0.00    -0.031 C 
ATOM     56  H   LIG d   1       9.158  -8.289  -3.897  0.00  0.00     0.026 H 
ATOM     57  H   LIG d   1       7.798  -7.803  -2.856  0.00  0.00     0.026 H 
ATOM     58  H   LIG d   1       7.842  -9.438  -3.558  0.00  0.00     0.026 H 
ENDBRANCH  52  55
ENDBRANCH  51  52
ENDBRANCH  37  51
ENDBRANCH   1  31
BRANCH  11  59
ATOM     59  C   LIG d   1       3.133  -0.921  -8.178  0.00  0.00    -0.029 C 
ATOM     60  H   LIG d   1       2.656  -0.104  -7.635  0.00  0.00     0.026 H 
ATOM     61  H   LIG d   1       2.544  -1.830  -8.057  0.00  0.00     0.026 H 
ATOM     62  H   LIG d   1       3.194  -0.666  -9.236  0.00  0.00     0.026 H 
ENDBRANCH  11  59
TORSDOF 9
ENDMDL
MODEL 4
REMARK VINA RESULT:      -6.7      2.726      5.879
REMARK  9 active torsions:
REMARK  status: ('A' for Active; 'I' for Inactive)
REMARK    1  A    between atoms: C_1  and  C_2 
REMARK    2  A    between atoms: C_2  and  C_3 
REMARK    3  A    between atoms: C_3  and  O_4 
REMARK    4  A    between atoms: O_4  and  C_5 
REMARK    5  A    between atoms: C_8  and  C_14 
REMARK    6  A    between atoms: C_10  and  O_11 
REMARK    7  A    between atoms: O_11  and  C_12 
REMARK    8  A    between atoms: C_12  and  C_13 
REMARK    9  A    between atoms: C_24  and  C_35 
ROOT
ATOM      1  C   LIG d   1       4.688  -3.385  -5.672  0.00  0.00     0.028 C 
ATOM      2  H   LIG d   1       4.047  -3.996  -5.036  0.00  0.00     0.041 H 
ATOM      3  C   LIG d   1       4.263  -3.547  -7.136  0.00  0.00     0.027 C 
ATOM      4  N   LIG d   1       4.875  -2.467  -7.933  0.00  0.00    -0.280 N 
ATOM      5  C   LIG d   1       5.779  -2.777  -8.867  0.00  0.00     0.234 C 
ATOM      6  O   LIG d   1       5.948  -3.949  -9.127  0.00  0.00    -0.274 OA
ATOM      7  C   LIG d   1       6.595  -1.771  -9.612  0.00  0.00     0.088 C 
ATOM      8  N   LIG d   1       6.326  -0.412  -9.174  0.00  0.00    -0.305 N 
ATOM      9  C   LIG d   1       5.393  -0.105  -8.290  0.00  0.00     0.243 C 
ATOM     10  O   LIG d   1       5.273   1.065  -7.994  0.00  0.00    -0.273 OA
ATOM     11  C   LIG d   1       4.475  -1.090  -7.646  0.00  0.00     0.151 C 
ATOM     12  C   LIG d   1       4.467  -0.906  -6.147  0.00  0.00     0.054 A 
ATOM     13  C   LIG d   1       4.557  -1.937  -5.277  0.00  0.00    -0.008 A 
ATOM     14  C   LIG d   1       4.512  -1.368  -3.945  0.00  0.00     0.004 A 
ATOM     15  C   LIG d   1       4.557  -1.938  -2.669  0.00  0.00    -0.052 A 
ATOM     16  C   LIG d   1       4.492  -1.078  -1.601  0.00  0.00    -0.061 A 
ATOM     17  C   LIG d   1       4.384   0.294  -1.767  0.00  0.00    -0.060 A 
ATOM     18  C   LIG d   1       4.335   0.885  -3.018  0.00  0.00    -0.038 A 
ATOM     19  C   LIG d   1       4.399   0.035  -4.120  0.00  0.00     0.047 A 
ATOM     20  N   LIG d   1       4.374   0.276  -5.464  0.00  0.00    -0.356 N 
ATOM     21  H   LIG d   1       4.301   1.153  -5.873  0.00  0.00     0.166 HD
ATOM     22  H   LIG d   1       4.600  -4.513  -7.509  0.00  0.00     0.047 H 
ATOM     23  H   LIG d   1       3.177  -3.483  -7.210  0.00  0.00     0.047 H 
ATOM     24  H   LIG d   1       7.653  -1.990  -9.458  0.00  0.00     0.056 H 
ATOM     25  H   LIG d   1       6.369  -1.850 -10.675  0.00  0.00     0.056 H 
ATOM     26  H   LIG d   1       6.866   0.304  -9.544  0.00  0.00     0.149 HD
ATOM     27  H   LIG d   1       4.641  -3.006  -2.530  0.00  0.00     0.062 H 
ATOM     28  H   LIG d   1       4.524  -1.482  -0.601  0.00  0.00     0.062 H 
ATOM     29  H   LIG d   1       4.337   0.924  -0.891  0.00  0.00     0.062 H 
ATOM     30  H   LIG d   1       4.252   1.955  -3.134  0.00  0.00     0.064 H 
ENDROOT
BRANCH   1  31
ATOM     31  C   LIG d   1       6.121  -3.824  -5.511  0.00  0.00    -0.035 A 
ATOM     32  C   LIG d   1       6.455  -5.157  -5.664  0.00  0.00    -0.054 A 
ATOM     33  C   LIG d   1       7.768  -5.564  -5.518  0.00  0.00    -0.016 A 
ATOM     34  H   LIG d   1       5.689  -5.881  -5.897  0.00  0.00     0.062 H 
ATOM     35  C   LIG d   1       8.752  -4.636  -5.219  0.00  0.00     0.162 A 
ATOM     36  H   LIG d   1       8.027  -6.606  -5.638  0.00  0.00     0.066 H 
ATOM     37  C   LIG d   1       8.416  -3.294  -5.066  0.00  0.00     0.162 A 
ATOM     38  C   LIG d   1       7.098  -2.892  -5.218  0.00  0.00    -0.013 A 
ATOM     39  H   LIG d   1       6.835  -1.851  -5.103  0.00  0.00     0.066 H 
BRANCH  35  40
ATOM     40  O   LIG d   1      10.045  -5.035  -5.075  0.00  0.00    -0.488 OA
BRANCH  40  41
ATOM     41  C   LIG d   1      10.338  -5.899  -3.975  0.00  0.00     0.089 C 
ATOM     42  H   LIG d   1       9.475  -6.533  -3.772  0.00  0.00     0.070 H 
ATOM     43  H   LIG d   1      11.197  -6.523  -4.222  0.00  0.00     0.070 H 
BRANCH  41  44
ATOM     44  C   LIG d   1      10.657  -5.059  -2.737  0.00  0.00    -0.021 C 
ATOM     45  H   LIG d   1      11.650  -5.317  -2.370  0.00  0.00     0.029 H 
ATOM     46  H   LIG d   1      10.629  -4.002  -2.999  0.00  0.00     0.029 H 
BRANCH  44  47
ATOM     47  C   LIG d   1       9.620  -5.342  -1.648  0.00  0.00    -0.062 C 
ATOM     48  H   LIG d   1       9.577  -6.415  -1.456  0.00  0.00     0.023 H 
ATOM     49  H   LIG d   1       9.903  -4.822  -0.733  0.00  0.00     0.023 H 
ATOM     50  H   LIG d   1       8.642  -4.993  -1.977  0.00  0.00     0.023 H 
ENDBRANCH  44  47
ENDBRANCH  41  44
ENDBRANCH  40  41
ENDBRANCH  35  40
BRANCH  37  51
ATOM     51  O   LIG d   1       9.378  -2.380  -4.772  0.00  0.00    -0.489 OA
BRANCH  51  52
ATOM     52  C   LIG d   1       9.777  -1.497  -5.823  0.00  0.00     0.087 C 
ATOM     53  H   LIG d   1      10.831  -1.659  -6.051  0.00  0.00     0.069 H 
ATOM     54  H   LIG d   1       9.179  -1.697  -6.712  0.00  0.00     0.069 H 
BRANCH  52  55
ATOM     55  C   LIG d   1       9.567  -0.049  -5.380  0.00  0.00    -0.031 C 
ATOM     56  H   LIG d   1       8.777   0.403  -5.980  0.00  0.00     0.026 H 
ATOM     57  H   LIG d   1       9.282  -0.028  -4.328  0.00  0.00     0.026 H 
ATOM     58  H   LIG d   1      10.492   0.512  -5.516  0.00  0.00     0.026 H 
ENDBRANCH  52  55
ENDBRANCH  51  52
ENDBRANCH  37  51
ENDBRANCH   1  31
BRANCH  11  59
ATOM     59  C   LIG d   1       3.058  -0.867  -8.179  0.00  0.00    -0.029 C 
ATOM     60  H   LIG d   1       2.610  -1.828  -8.431  0.00  0.00     0.026 H 
ATOM     61  H   LIG d   1       3.099  -0.240  -9.070  0.00  0.00     0.026 H 
ATOM     62  H   LIG d   1       2.456  -0.375  -7.416  0.00  0.00     0.026 H 
ENDBRANCH  11  59
TORSDOF 9
ENDMDL
MODEL 5
REMARK VINA RESULT:      -6.6      4.117      6.299
REMARK  9 active torsions:
REMARK  status: ('A' for Active; 'I' for Inactive)
REMARK    1  A    between atoms: C_1  and  C_2 
REMARK    2  A    between atoms: C_2  and  C_3 
REMARK    3  A    between atoms: C_3  and  O_4 
REMARK    4  A    between atoms: O_4  and  C_5 
REMARK    5  A    between atoms: C_8  and  C_14 
REMARK    6  A    between atoms: C_10  and  O_11 
REMARK    7  A    between atoms: O_11  and  C_12 
REMARK    8  A    between atoms: C_12  and  C_13 
REMARK    9  A    between atoms: C_24  and  C_35 
ROOT
ATOM      1  C   LIG d   1       7.352  -1.241  -5.708  0.00  0.00     0.028 C 
ATOM      2  H   LIG d   1       7.631  -2.182  -5.232  0.00  0.00     0.041 H 
ATOM      3  C   LIG d   1       7.635  -1.325  -7.213  0.00  0.00     0.027 C 
ATOM      4  N   LIG d   1       6.935  -0.218  -7.892  0.00  0.00    -0.280 N 
ATOM      5  C   LIG d   1       7.650   0.733  -8.497  0.00  0.00     0.234 C 
ATOM      6  O   LIG d   1       8.848   0.568  -8.594  0.00  0.00    -0.274 OA
ATOM      7  C   LIG d   1       7.070   1.989  -9.062  0.00  0.00     0.088 C 
ATOM      8  N   LIG d   1       5.636   2.081  -8.839  0.00  0.00    -0.305 N 
ATOM      9  C   LIG d   1       4.924   1.113  -8.290  0.00  0.00     0.243 C 
ATOM     10  O   LIG d   1       3.737   1.313  -8.144  0.00  0.00    -0.273 OA
ATOM     11  C   LIG d   1       5.472  -0.204  -7.853  0.00  0.00     0.151 C 
ATOM     12  C   LIG d   1       5.038  -0.518  -6.440  0.00  0.00     0.054 A 
ATOM     13  C   LIG d   1       5.883  -0.985  -5.495  0.00  0.00    -0.008 A 
ATOM     14  C   LIG d   1       5.104  -1.165  -4.286  0.00  0.00     0.004 A 
ATOM     15  C   LIG d   1       5.433  -1.621  -3.006  0.00  0.00    -0.052 A 
ATOM     16  C   LIG d   1       4.419  -1.661  -2.081  0.00  0.00    -0.061 A 
ATOM     17  C   LIG d   1       3.126  -1.270  -2.390  0.00  0.00    -0.060 A 
ATOM     18  C   LIG d   1       2.772  -0.817  -3.649  0.00  0.00    -0.038 A 
ATOM     19  C   LIG d   1       3.782  -0.766  -4.608  0.00  0.00     0.047 A 
ATOM     20  N   LIG d   1       3.780  -0.383  -5.919  0.00  0.00    -0.356 N 
ATOM     21  H   LIG d   1       3.004  -0.063  -6.406  0.00  0.00     0.166 HD
ATOM     22  H   LIG d   1       8.707  -1.241  -7.388  0.00  0.00     0.047 H 
ATOM     23  H   LIG d   1       7.272  -2.277  -7.599  0.00  0.00     0.047 H 
ATOM     24  H   LIG d   1       7.556   2.846  -8.594  0.00  0.00     0.056 H 
ATOM     25  H   LIG d   1       7.262   2.017 -10.135  0.00  0.00     0.056 H 
ATOM     26  H   LIG d   1       5.184   2.898  -9.100  0.00  0.00     0.149 HD
ATOM     27  H   LIG d   1       6.438  -1.928  -2.756  0.00  0.00     0.062 H 
ATOM     28  H   LIG d   1       4.636  -2.008  -1.082  0.00  0.00     0.062 H 
ATOM     29  H   LIG d   1       2.368  -1.322  -1.623  0.00  0.00     0.062 H 
ATOM     30  H   LIG d   1       1.761  -0.515  -3.877  0.00  0.00     0.064 H 
ENDROOT
BRANCH   1  31
ATOM     31  C   LIG d   1       8.153  -0.116  -5.106  0.00  0.00    -0.035 A 
ATOM     32  C   LIG d   1       7.515   0.878  -4.388  0.00  0.00    -0.054 A 
ATOM     33  C   LIG d   1       8.246   1.913  -3.834  0.00  0.00    -0.016 A 
ATOM     34  H   LIG d   1       6.443   0.847  -4.260  0.00  0.00     0.062 H 
ATOM     35  C   LIG d   1       9.621   1.954  -3.997  0.00  0.00     0.162 A 
ATOM     36  H   LIG d   1       7.744   2.688  -3.273  0.00  0.00     0.066 H 
ATOM     37  C   LIG d   1      10.264   0.953  -4.718  0.00  0.00     0.162 A 
ATOM     38  C   LIG d   1       9.525  -0.083  -5.267  0.00  0.00    -0.013 A 
ATOM     39  H   LIG d   1      10.022  -0.863  -5.825  0.00  0.00     0.066 H 
BRANCH  35  40
ATOM     40  O   LIG d   1      10.341   2.971  -3.451  0.00  0.00    -0.488 OA
BRANCH  40  41
ATOM     41  C   LIG d   1       9.708   4.250  -3.383  0.00  0.00     0.089 C 
ATOM     42  H   LIG d   1       9.882   4.791  -4.313  0.00  0.00     0.070 H 
ATOM     43  H   LIG d   1       8.637   4.118  -3.233  0.00  0.00     0.070 H 
BRANCH  41  44
ATOM     44  C   LIG d   1      10.292   5.046  -2.214  0.00  0.00    -0.021 C 
ATOM     45  H   LIG d   1      10.043   4.550  -1.276  0.00  0.00     0.029 H 
ATOM     46  H   LIG d   1      11.376   5.103  -2.318  0.00  0.00     0.029 H 
BRANCH  44  47
ATOM     47  C   LIG d   1       9.705   6.459  -2.215  0.00  0.00    -0.062 C 
ATOM     48  H   LIG d   1       8.619   6.402  -2.289  0.00  0.00     0.023 H 
ATOM     49  H   LIG d   1       9.979   6.967  -1.291  0.00  0.00     0.023 H 
ATOM     50  H   LIG d   1      10.098   7.016  -3.066  0.00  0.00     0.023 H 
ENDBRANCH  44  47
ENDBRANCH  41  44
ENDBRANCH  40  41
ENDBRANCH  35  40
BRANCH  37  51
ATOM     51  O   LIG d   1      11.613   0.989  -4.881  0.00  0.00    -0.489 OA
BRANCH  51  52
ATOM     52  C   LIG d   1      12.376  -0.013  -4.205  0.00  0.00     0.087 C 
ATOM     53  H   LIG d   1      11.759  -0.481  -3.438  0.00  0.00     0.069 H 
ATOM     54  H   LIG d   1      12.700  -0.768  -4.921  0.00  0.00     0.069 H 
BRANCH  52  55
ATOM     55  C   LIG d   1      13.600   0.631  -3.553  0.00  0.00    -0.031 C 
ATOM     56  H   LIG d   1      13.277   1.406  -2.858  0.00  0.00     0.026 H 
ATOM     57  H   LIG d   1      14.165  -0.128  -3.013  0.00  0.00     0.026 H 
ATOM     58  H   LIG d   1      14.231   1.074  -4.323  0.00  0.00     0.026 H 
ENDBRANCH  52  55
ENDBRANCH  51  52
ENDBRANCH  37  51
ENDBRANCH   1  31
BRANCH  11  59
ATOM     59  C   LIG d   1       4.943  -1.295  -8.786  0.00  0.00    -0.029 C 
ATOM     60  H   LIG d   1       5.688  -2.085  -8.880  0.00  0.00     0.026 H 
ATOM     61  H   LIG d   1       4.743  -0.867  -9.769  0.00  0.00     0.026 H 
ATOM     62  H   LIG d   1       4.023  -1.710  -8.376  0.00  0.00     0.026 H 
ENDBRANCH  11  59
TORSDOF 9
ENDMDL
MODEL 6
REMARK VINA RESULT:      -6.5      2.913      5.330
REMARK  9 active torsions:
REMARK  status: ('A' for Active; 'I' for Inactive)
REMARK    1  A    between atoms: C_1  and  C_2 
REMARK    2  A    between atoms: C_2  and  C_3 
REMARK    3  A    between atoms: C_3  and  O_4 
REMARK    4  A    between atoms: O_4  and  C_5 
REMARK    5  A    between atoms: C_8  and  C_14 
REMARK    6  A    between atoms: C_10  and  O_11 
REMARK    7  A    between atoms: O_11  and  C_12 
REMARK    8  A    between atoms: C_12  and  C_13 
REMARK    9  A    between atoms: C_24  and  C_35 
ROOT
ATOM      1  C   LIG d   1       5.116  -2.477  -6.694  0.00  0.00     0.028 C 
ATOM      2  H   LIG d   1       4.898  -3.413  -6.178  0.00  0.00     0.041 H 
ATOM      3  C   LIG d   1       4.616  -2.561  -8.141  0.00  0.00     0.027 C 
ATOM      4  N   LIG d   1       4.583  -1.202  -8.713  0.00  0.00    -0.280 N 
ATOM      5  C   LIG d   1       5.398  -0.900  -9.727  0.00  0.00     0.234 C 
ATOM      6  O   LIG d   1       6.028  -1.801 -10.237  0.00  0.00    -0.274 OA
ATOM      7  C   LIG d   1       5.585   0.479 -10.273  0.00  0.00     0.088 C 
ATOM      8  N   LIG d   1       4.807   1.468  -9.545  0.00  0.00    -0.305 N 
ATOM      9  C   LIG d   1       3.960   1.158  -8.580  0.00  0.00     0.243 C 
ATOM     10  O   LIG d   1       3.379   2.074  -8.036  0.00  0.00    -0.273 OA
ATOM     11  C   LIG d   1       3.660  -0.231  -8.124  0.00  0.00     0.151 C 
ATOM     12  C   LIG d   1       3.771  -0.332  -6.621  0.00  0.00     0.054 A 
ATOM     13  C   LIG d   1       4.417  -1.341  -5.995  0.00  0.00    -0.008 A 
ATOM     14  C   LIG d   1       4.303  -1.093  -4.571  0.00  0.00     0.004 A 
ATOM     15  C   LIG d   1       4.762  -1.790  -3.449  0.00  0.00    -0.052 A 
ATOM     16  C   LIG d   1       4.467  -1.252  -2.221  0.00  0.00    -0.061 A 
ATOM     17  C   LIG d   1       3.748  -0.075  -2.087  0.00  0.00    -0.060 A 
ATOM     18  C   LIG d   1       3.280   0.633  -3.179  0.00  0.00    -0.038 A 
ATOM     19  C   LIG d   1       3.565   0.110  -4.440  0.00  0.00     0.047 A 
ATOM     20  N   LIG d   1       3.260   0.541  -5.699  0.00  0.00    -0.356 N 
ATOM     21  H   LIG d   1       2.756   1.343  -5.908  0.00  0.00     0.166 HD
ATOM     22  H   LIG d   1       5.291  -3.186  -8.725  0.00  0.00     0.047 H 
ATOM     23  H   LIG d   1       3.614  -2.988  -8.156  0.00  0.00     0.047 H 
ATOM     24  H   LIG d   1       6.641   0.744 -10.211  0.00  0.00     0.056 H 
ATOM     25  H   LIG d   1       5.278   0.490 -11.319  0.00  0.00     0.056 H 
ATOM     26  H   LIG d   1       4.925   2.403  -9.775  0.00  0.00     0.149 HD
ATOM     27  H   LIG d   1       5.323  -2.708  -3.544  0.00  0.00     0.062 H 
ATOM     28  H   LIG d   1       4.805  -1.763  -1.332  0.00  0.00     0.062 H 
ATOM     29  H   LIG d   1       3.546   0.303  -1.095  0.00  0.00     0.062 H 
ATOM     30  H   LIG d   1       2.722   1.550  -3.062  0.00  0.00     0.064 H 
ENDROOT
BRANCH   1  31
ATOM     31  C   LIG d   1       6.604  -2.234  -6.688  0.00  0.00    -0.035 A 
ATOM     32  C   LIG d   1       7.455  -3.152  -7.274  0.00  0.00    -0.054 A 
ATOM     33  C   LIG d   1       8.820  -2.934  -7.271  0.00  0.00    -0.016 A 
ATOM     34  H   LIG d   1       7.053  -4.042  -7.735  0.00  0.00     0.062 H 
ATOM     35  C   LIG d   1       9.337  -1.793  -6.680  0.00  0.00     0.162 A 
ATOM     36  H   LIG d   1       9.483  -3.653  -7.731  0.00  0.00     0.066 H 
ATOM     37  C   LIG d   1       8.481  -0.868  -6.091  0.00  0.00     0.162 A 
ATOM     38  C   LIG d   1       7.113  -1.091  -6.101  0.00  0.00    -0.013 A 
ATOM     39  H   LIG d   1       6.446  -0.374  -5.648  0.00  0.00     0.066 H 
BRANCH  35  40
ATOM     40  O   LIG d   1      10.681  -1.576  -6.677  0.00  0.00    -0.488 OA
BRANCH  40  41
ATOM     41  C   LIG d   1      11.500  -2.592  -6.094  0.00  0.00     0.089 C 
ATOM     42  H   LIG d   1      11.142  -3.572  -6.409  0.00  0.00     0.070 H 
ATOM     43  H   LIG d   1      12.531  -2.460  -6.421  0.00  0.00     0.070 H 
BRANCH  41  44
ATOM     44  C   LIG d   1      11.431  -2.490  -4.569  0.00  0.00    -0.021 C 
ATOM     45  H   LIG d   1      10.628  -1.809  -4.287  0.00  0.00     0.029 H 
ATOM     46  H   LIG d   1      11.236  -3.476  -4.147  0.00  0.00     0.029 H 
BRANCH  44  47
ATOM     47  C   LIG d   1      12.762  -1.959  -4.032  0.00  0.00    -0.062 C 
ATOM     48  H   LIG d   1      13.507  -1.976  -4.827  0.00  0.00     0.023 H 
ATOM     49  H   LIG d   1      12.629  -0.937  -3.680  0.00  0.00     0.023 H 
ATOM     50  H   LIG d   1      13.097  -2.587  -3.207  0.00  0.00     0.023 H 
ENDBRANCH  44  47
ENDBRANCH  41  44
ENDBRANCH  40  41
ENDBRANCH  35  40
BRANCH  37  51
ATOM     51  O   LIG d   1       8.984   0.253  -5.509  0.00  0.00    -0.489 OA
BRANCH  51  52
ATOM     52  C   LIG d   1       8.097   1.364  -5.364  0.00  0.00     0.087 C 
ATOM     53  H   LIG d   1       8.557   2.254  -5.793  0.00  0.00     0.069 H 
ATOM     54  H   LIG d   1       7.162   1.152  -5.884  0.00  0.00     0.069 H 
BRANCH  52  55
ATOM     55  C   LIG d   1       7.813   1.599  -3.880  0.00  0.00    -0.031 C 
ATOM     56  H   LIG d   1       8.741   1.516  -3.315  0.00  0.00     0.026 H 
ATOM     57  H   LIG d   1       7.393   2.596  -3.744  0.00  0.00     0.026 H 
ATOM     58  H   LIG d   1       7.103   0.854  -3.523  0.00  0.00     0.026 H 
ENDBRANCH  52  55
ENDBRANCH  51  52
ENDBRANCH  37  51
ENDBRANCH   1  31
BRANCH  11  59
ATOM     59  C   LIG d   1       2.233  -0.591  -8.540  0.00  0.00    -0.029 C 
ATOM     60  H   LIG d   1       1.977  -1.575  -8.146  0.00  0.00     0.026 H 
ATOM     61  H   LIG d   1       2.164  -0.607  -9.628  0.00  0.00     0.026 H 
ATOM     62  H   LIG d   1       1.540   0.151  -8.144  0.00  0.00     0.026 H 
ENDBRANCH  11  59
TORSDOF 9
ENDMDL
MODEL 7
REMARK VINA RESULT:      -6.4      3.580      7.209
REMARK  9 active torsions:
REMARK  status: ('A' for Active; 'I' for Inactive)
REMARK    1  A    between atoms: C_1  and  C_2 
REMARK    2  A    between atoms: C_2  and  C_3 
REMARK    3  A    between atoms: C_3  and  O_4 
REMARK    4  A    between atoms: O_4  and  C_5 
REMARK    5  A    between atoms: C_8  and  C_14 
REMARK    6  A    between atoms: C_10  and  O_11 
REMARK    7  A    between atoms: O_11  and  C_12 
REMARK    8  A    between atoms: C_12  and  C_13 
REMARK    9  A    between atoms: C_24  and  C_35 
ROOT
ATOM      1  C   LIG d   1       6.375  -2.734  -5.709  0.00  0.00     0.028 C 
ATOM      2  H   LIG d   1       5.405  -3.231  -5.692  0.00  0.00     0.041 H 
ATOM      3  C   LIG d   1       6.828  -2.544  -7.162  0.00  0.00     0.027 C 
ATOM      4  N   LIG d   1       7.936  -1.570  -7.192  0.00  0.00    -0.280 N 
ATOM      5  C   LIG d   1       9.149  -1.973  -7.577  0.00  0.00     0.234 C 
ATOM      6  O   LIG d   1       9.258  -3.091  -8.033  0.00  0.00    -0.274 OA
ATOM      7  C   LIG d   1      10.382  -1.134  -7.483  0.00  0.00     0.088 C 
ATOM      8  N   LIG d   1      10.120   0.163  -6.881  0.00  0.00    -0.305 N 
ATOM      9  C   LIG d   1       8.910   0.579  -6.552  0.00  0.00     0.243 C 
ATOM     10  O   LIG d   1       8.820   1.676  -6.043  0.00  0.00    -0.273 OA
ATOM     11  C   LIG d   1       7.654  -0.196  -6.775  0.00  0.00     0.151 C 
ATOM     12  C   LIG d   1       6.832  -0.250  -5.509  0.00  0.00     0.054 A 
ATOM     13  C   LIG d   1       6.262  -1.385  -5.046  0.00  0.00    -0.008 A 
ATOM     14  C   LIG d   1       5.561  -1.037  -3.827  0.00  0.00     0.004 A 
ATOM     15  C   LIG d   1       4.796  -1.786  -2.927  0.00  0.00    -0.052 A 
ATOM     16  C   LIG d   1       4.271  -1.116  -1.850  0.00  0.00    -0.061 A 
ATOM     17  C   LIG d   1       4.481   0.239  -1.653  0.00  0.00    -0.060 A 
ATOM     18  C   LIG d   1       5.232   1.005  -2.528  0.00  0.00    -0.038 A 
ATOM     19  C   LIG d   1       5.778   0.350  -3.631  0.00  0.00     0.047 A 
ATOM     20  N   LIG d   1       6.549   0.792  -4.668  0.00  0.00    -0.356 N 
ATOM     21  H   LIG d   1       6.849   1.706  -4.790  0.00  0.00     0.166 HD
ATOM     22  H   LIG d   1       7.169  -3.497  -7.565  0.00  0.00     0.047 H 
ATOM     23  H   LIG d   1       5.996  -2.169  -7.757  0.00  0.00     0.047 H 
ATOM     24  H   LIG d   1      11.124  -1.660  -6.880  0.00  0.00     0.056 H 
ATOM     25  H   LIG d   1      10.785  -0.982  -8.485  0.00  0.00     0.056 H 
ATOM     26  H   LIG d   1      10.873   0.747  -6.704  0.00  0.00     0.149 HD
ATOM     27  H   LIG d   1       4.627  -2.843  -3.072  0.00  0.00     0.062 H 
ATOM     28  H   LIG d   1       3.674  -1.662  -1.135  0.00  0.00     0.062 H 
ATOM     29  H   LIG d   1       4.044   0.715  -0.788  0.00  0.00     0.062 H 
ATOM     30  H   LIG d   1       5.389   2.060  -2.364  0.00  0.00     0.064 H 
ENDROOT
BRANCH   1  31
ATOM     31  C   LIG d   1       7.385  -3.575  -4.971  0.00  0.00    -0.035 A 
ATOM     32  C   LIG d   1       8.124  -3.021  -3.941  0.00  0.00    -0.054 A 
ATOM     33  C   LIG d   1       9.051  -3.789  -3.262  0.00  0.00    -0.016 A 
ATOM     34  H   LIG d   1       7.976  -1.987  -3.669  0.00  0.00     0.062 H 
ATOM     35  C   LIG d   1       9.241  -5.116  -3.611  0.00  0.00     0.162 A 
ATOM     36  H   LIG d   1       9.626  -3.354  -2.457  0.00  0.00     0.066 H 
ATOM     37  C   LIG d   1       8.496  -5.673  -4.646  0.00  0.00     0.162 A 
ATOM     38  C   LIG d   1       7.565  -4.899  -5.320  0.00  0.00    -0.013 A 
ATOM     39  H   LIG d   1       6.984  -5.331  -6.122  0.00  0.00     0.066 H 
BRANCH  35  40
ATOM     40  O   LIG d   1      10.152  -5.873  -2.943  0.00  0.00    -0.488 OA
BRANCH  40  41
ATOM     41  C   LIG d   1       9.883  -6.148  -1.567  0.00  0.00     0.089 C 
ATOM     42  H   LIG d   1      10.147  -5.279  -0.964  0.00  0.00     0.070 H 
ATOM     43  H   LIG d   1       8.823  -6.369  -1.441  0.00  0.00     0.070 H 
BRANCH  41  44
ATOM     44  C   LIG d   1      10.711  -7.352  -1.115  0.00  0.00    -0.021 C 
ATOM     45  H   LIG d   1      11.441  -7.032  -0.372  0.00  0.00     0.029 H 
ATOM     46  H   LIG d   1      10.054  -8.103  -0.679  0.00  0.00     0.029 H 
BRANCH  44  47
ATOM     47  C   LIG d   1      11.440  -7.951  -2.321  0.00  0.00    -0.062 C 
ATOM     48  H   LIG d   1      11.853  -7.148  -2.932  0.00  0.00     0.023 H 
ATOM     49  H   LIG d   1      12.247  -8.595  -1.973  0.00  0.00     0.023 H 
ATOM     50  H   LIG d   1      10.739  -8.536  -2.915  0.00  0.00     0.023 H 
ENDBRANCH  44  47
ENDBRANCH  41  44
ENDBRANCH  40  41
ENDBRANCH  35  40
BRANCH  37  51
ATOM     51  O   LIG d   1       8.679  -6.976  -4.992  0.00  0.00    -0.489 OA
BRANCH  51  52
ATOM     52  C   LIG d   1       7.602  -7.876  -4.724  0.00  0.00     0.087 C 
ATOM     53  H   LIG d   1       6.690  -7.307  -4.545  0.00  0.00     0.069 H 
ATOM     54  H   LIG d   1       7.457  -8.534  -5.581  0.00  0.00     0.069 H 
BRANCH  52  55
ATOM     55  C   LIG d   1       7.933  -8.713  -3.488  0.00  0.00    -0.031 C 
ATOM     56  H   LIG d   1       8.628  -9.506  -3.761  0.00  0.00     0.026 H 
ATOM     57  H   LIG d   1       8.388  -8.075  -2.729  0.00  0.00     0.026 H 
ATOM     58  H   LIG d   1       7.018  -9.153  -3.091  0.00  0.00     0.026 H 
ENDBRANCH  52  55
ENDBRANCH  51  52
ENDBRANCH  37  51
ENDBRANCH   1  31
BRANCH  11  59
ATOM     59  C   LIG d   1       6.834   0.493  -7.868  0.00  0.00    -0.029 C 
ATOM     60  H   LIG d   1       6.545  -0.240  -8.621  0.00  0.00     0.026 H 
ATOM     61  H   LIG d   1       7.433   1.276  -8.333  0.00  0.00     0.026 H 
ATOM     62  H   LIG d   1       5.939   0.933  -7.428  0.00  0.00     0.026 H 
ENDBRANCH  11  59
TORSDOF 9
ENDMDL
MODEL 8
REMARK VINA RESULT:      -6.3      2.818      6.297
REMARK  9 active torsions:
REMARK  status: ('A' for Active; 'I' for Inactive)
REMARK    1  A    between atoms: C_1  and  C_2 
REMARK    2  A    between atoms: C_2  and  C_3 
REMARK    3  A    between atoms: C_3  and  O_4 
REMARK    4  A    between atoms: O_4  and  C_5 
REMARK    5  A    between atoms: C_8  and  C_14 
REMARK    6  A    between atoms: C_10  and  O_11 
REMARK    7  A    between atoms: O_11  and  C_12 
REMARK    8  A    between atoms: C_12  and  C_13 
REMARK    9  A    between atoms: C_24  and  C_35 
ROOT
ATOM      1  C   LIG d   1       4.137   1.159  -9.075  0.00  0.00     0.028 C 
ATOM      2  H   LIG d   1       4.154   2.246  -8.983  0.00  0.00     0.041 H 
ATOM      3  C   LIG d   1       2.979   0.741  -9.990  0.00  0.00     0.027 C 
ATOM      4  N   LIG d   1       3.177  -0.664 -10.397  0.00  0.00    -0.280 N 
ATOM      5  C   LIG d   1       2.302  -1.589  -9.996  0.00  0.00     0.234 C 
ATOM      6  O   LIG d   1       1.293  -1.213  -9.437  0.00  0.00    -0.274 OA
ATOM      7  C   LIG d   1       2.485  -3.059 -10.190  0.00  0.00     0.088 C 
ATOM      8  N   LIG d   1       3.752  -3.375 -10.830  0.00  0.00    -0.305 N 
ATOM      9  C   LIG d   1       4.589  -2.455 -11.275  0.00  0.00     0.243 C 
ATOM     10  O   LIG d   1       5.622  -2.843 -11.779  0.00  0.00    -0.273 OA
ATOM     11  C   LIG d   1       4.347  -0.984 -11.214  0.00  0.00     0.151 C 
ATOM     12  C   LIG d   1       5.542  -0.274 -10.621  0.00  0.00     0.054 A 
ATOM     13  C   LIG d   1       5.435   0.683  -9.672  0.00  0.00    -0.008 A 
ATOM     14  C   LIG d   1       6.782   1.121  -9.365  0.00  0.00     0.004 A 
ATOM     15  C   LIG d   1       7.287   2.079  -8.480  0.00  0.00    -0.052 A 
ATOM     16  C   LIG d   1       8.651   2.234  -8.444  0.00  0.00    -0.061 A 
ATOM     17  C   LIG d   1       9.497   1.483  -9.244  0.00  0.00    -0.060 A 
ATOM     18  C   LIG d   1       9.025   0.530 -10.130  0.00  0.00    -0.038 A 
ATOM     19  C   LIG d   1       7.643   0.352 -10.187  0.00  0.00     0.047 A 
ATOM     20  N   LIG d   1       6.858  -0.480 -10.933  0.00  0.00    -0.356 N 
ATOM     21  H   LIG d   1       7.184  -1.119 -11.586  0.00  0.00     0.166 HD
ATOM     22  H   LIG d   1       2.036   0.836  -9.453  0.00  0.00     0.047 H 
ATOM     23  H   LIG d   1       2.965   1.377 -10.874  0.00  0.00     0.047 H 
ATOM     24  H   LIG d   1       2.448  -3.553  -9.218  0.00  0.00     0.056 H 
ATOM     25  H   LIG d   1       1.673  -3.439 -10.810  0.00  0.00     0.056 H 
ATOM     26  H   LIG d   1       3.996  -4.308 -10.926  0.00  0.00     0.149 HD
ATOM     27  H   LIG d   1       6.635   2.669  -7.853  0.00  0.00     0.062 H 
ATOM     28  H   LIG d   1       9.077   2.964  -7.773  0.00  0.00     0.062 H 
ATOM     29  H   LIG d   1      10.562   1.646  -9.175  0.00  0.00     0.062 H 
ATOM     30  H   LIG d   1       9.694  -0.049 -10.747  0.00  0.00     0.064 H 
ENDROOT
BRANCH   1  31
ATOM     31  C   LIG d   1       3.951   0.542  -7.713  0.00  0.00    -0.035 A 
ATOM     32  C   LIG d   1       2.834   0.854  -6.961  0.00  0.00    -0.054 A 
ATOM     33  C   LIG d   1       2.660   0.290  -5.710  0.00  0.00    -0.016 A 
ATOM     34  H   LIG d   1       2.097   1.540  -7.350  0.00  0.00     0.062 H 
ATOM     35  C   LIG d   1       3.605  -0.590  -5.210  0.00  0.00     0.162 A 
ATOM     36  H   LIG d   1       1.786   0.535  -5.125  0.00  0.00     0.066 H 
ATOM     37  C   LIG d   1       4.729  -0.905  -5.968  0.00  0.00     0.162 A 
ATOM     38  C   LIG d   1       4.895  -0.340  -7.222  0.00  0.00    -0.013 A 
ATOM     39  H   LIG d   1       5.765  -0.585  -7.813  0.00  0.00     0.066 H 
BRANCH  35  40
ATOM     40  O   LIG d   1       3.435  -1.147  -3.980  0.00  0.00    -0.488 OA
BRANCH  40  41
ATOM     41  C   LIG d   1       3.052  -0.269  -2.919  0.00  0.00     0.089 C 
ATOM     42  H   LIG d   1       2.794   0.707  -3.330  0.00  0.00     0.070 H 
ATOM     43  H   LIG d   1       2.188  -0.683  -2.399  0.00  0.00     0.070 H 
BRANCH  41  44
ATOM     44  C   LIG d   1       4.215  -0.118  -1.937  0.00  0.00    -0.021 C 
ATOM     45  H   LIG d   1       3.824   0.001  -0.927  0.00  0.00     0.029 H 
ATOM     46  H   LIG d   1       4.844  -1.007  -1.980  0.00  0.00     0.029 H 
BRANCH  44  47
ATOM     47  C   LIG d   1       5.043   1.112  -2.312  0.00  0.00    -0.062 C 
ATOM     48  H   LIG d   1       4.377   1.954  -2.506  0.00  0.00     0.023 H 
ATOM     49  H   LIG d   1       5.714   1.363  -1.491  0.00  0.00     0.023 H 
ATOM     50  H   LIG d   1       5.627   0.898  -3.206  0.00  0.00     0.023 H 
ENDBRANCH  44  47
ENDBRANCH  41  44
ENDBRANCH  40  41
ENDBRANCH  35  40
BRANCH  37  51
ATOM     51  O   LIG d   1       5.659  -1.769  -5.480  0.00  0.00    -0.489 OA
BRANCH  51  52
ATOM     52  C   LIG d   1       6.761  -1.202  -4.768  0.00  0.00     0.087 C 
ATOM     53  H   LIG d   1       7.663  -1.278  -5.376  0.00  0.00     0.069 H 
ATOM     54  H   LIG d   1       6.555  -0.153  -4.555  0.00  0.00     0.069 H 
BRANCH  52  55
ATOM     55  C   LIG d   1       6.965  -1.959  -3.456  0.00  0.00    -0.031 C 
ATOM     56  H   LIG d   1       6.583  -1.362  -2.629  0.00  0.00     0.026 H 
ATOM     57  H   LIG d   1       6.429  -2.908  -3.497  0.00  0.00     0.026 H 
ATOM     58  H   LIG d   1       8.028  -2.149  -3.306  0.00  0.00     0.026 H 
ENDBRANCH  52  55
ENDBRANCH  51  52
ENDBRANCH  37  51
ENDBRANCH   1  31
BRANCH  11  59
ATOM     59  C   LIG d   1       4.116  -0.460 -12.633  0.00  0.00    -0.029 C 
ATOM     60  H   LIG d   1       3.300   0.263 -12.625  0.00  0.00     0.026 H 
ATOM     61  H   LIG d   1       3.858  -1.292 -13.290  0.00  0.00     0.026 H 
ATOM     62  H   LIG d   1       5.025   0.020 -12.996  0.00  0.00     0.026 H 
ENDBRANCH  11  59
TORSDOF 9
ENDMDL
MODEL 9
REMARK VINA RESULT:      -6.0      2.601      4.993
REMARK  9 active torsions:
REMARK  status: ('A' for Active; 'I' for Inactive)
REMARK    1  A    between atoms: C_1  and  C_2 
REMARK    2  A    between atoms: C_2  and  C_3 
REMARK    3  A    between atoms: C_3  and  O_4 
REMARK    4  A    between atoms: O_4  and  C_5 
REMARK    5  A    between atoms: C_8  and  C_14 
REMARK    6  A    between atoms: C_10  and  O_11 
REMARK    7  A    between atoms: O_11  and  C_12 
REMARK    8  A    between atoms: C_12  and  C_13 
REMARK    9  A    between atoms: C_24  and  C_35 
ROOT
ATOM      1  C   LIG d   1       6.769  -3.227  -4.546  0.00  0.00     0.028 C 
ATOM      2  H   LIG d   1       6.293  -3.721  -3.698  0.00  0.00     0.041 H 
ATOM      3  C   LIG d   1       8.058  -2.540  -4.081  0.00  0.00     0.027 C 
ATOM      4  N   LIG d   1       8.868  -2.195  -5.265  0.00  0.00    -0.280 N 
ATOM      5  C   LIG d   1       9.088  -0.909  -5.553  0.00  0.00     0.234 C 
ATOM      6  O   LIG d   1       8.739  -0.078  -4.743  0.00  0.00    -0.274 OA
ATOM      7  C   LIG d   1       9.736  -0.430  -6.811  0.00  0.00     0.088 C 
ATOM      8  N   LIG d   1      10.064  -1.523  -7.712  0.00  0.00    -0.305 N 
ATOM      9  C   LIG d   1       9.895  -2.796  -7.400  0.00  0.00     0.243 C 
ATOM     10  O   LIG d   1      10.193  -3.617  -8.241  0.00  0.00    -0.273 OA
ATOM     11  C   LIG d   1       9.381  -3.289  -6.088  0.00  0.00     0.151 C 
ATOM     12  C   LIG d   1       8.264  -4.284  -6.297  0.00  0.00     0.054 A 
ATOM     13  C   LIG d   1       7.106  -4.250  -5.599  0.00  0.00    -0.008 A 
ATOM     14  C   LIG d   1       6.297  -5.355  -6.074  0.00  0.00     0.004 A 
ATOM     15  C   LIG d   1       5.024  -5.815  -5.724  0.00  0.00    -0.052 A 
ATOM     16  C   LIG d   1       4.555  -6.915  -6.398  0.00  0.00    -0.061 A 
ATOM     17  C   LIG d   1       5.298  -7.548  -7.381  0.00  0.00    -0.060 A 
ATOM     18  C   LIG d   1       6.561  -7.115  -7.746  0.00  0.00    -0.038 A 
ATOM     19  C   LIG d   1       7.063  -6.000  -7.078  0.00  0.00     0.047 A 
ATOM     20  N   LIG d   1       8.246  -5.326  -7.183  0.00  0.00    -0.356 N 
ATOM     21  H   LIG d   1       8.965  -5.552  -7.795  0.00  0.00     0.166 HD
ATOM     22  H   LIG d   1       7.810  -1.633  -3.531  0.00  0.00     0.047 H 
ATOM     23  H   LIG d   1       8.621  -3.217  -3.439  0.00  0.00     0.047 H 
ATOM     24  H   LIG d   1       9.058   0.256  -7.320  0.00  0.00     0.056 H 
ATOM     25  H   LIG d   1      10.652   0.103  -6.557  0.00  0.00     0.056 H 
ATOM     26  H   LIG d   1      10.415  -1.304  -8.589  0.00  0.00     0.149 HD
ATOM     27  H   LIG d   1       4.437  -5.328  -4.959  0.00  0.00     0.062 H 
ATOM     28  H   LIG d   1       3.576  -7.299  -6.154  0.00  0.00     0.062 H 
ATOM     29  H   LIG d   1       4.879  -8.410  -7.879  0.00  0.00     0.062 H 
ATOM     30  H   LIG d   1       7.130  -7.617  -8.514  0.00  0.00     0.064 H 
ENDROOT
BRANCH   1  31
ATOM     31  C   LIG d   1       5.829  -2.200  -5.122  0.00  0.00    -0.035 A 
ATOM     32  C   LIG d   1       5.518  -2.229  -6.470  0.00  0.00    -0.054 A 
ATOM     33  C   LIG d   1       4.656  -1.289  -7.003  0.00  0.00    -0.016 A 
ATOM     34  H   LIG d   1       5.950  -2.986  -7.106  0.00  0.00     0.062 H 
ATOM     35  C   LIG d   1       4.101  -0.316  -6.187  0.00  0.00     0.162 A 
ATOM     36  H   LIG d   1       4.415  -1.313  -8.056  0.00  0.00     0.066 H 
ATOM     37  C   LIG d   1       4.413  -0.288  -4.831  0.00  0.00     0.162 A 
ATOM     38  C   LIG d   1       5.274  -1.236  -4.302  0.00  0.00    -0.013 A 
ATOM     39  H   LIG d   1       5.515  -1.218  -3.250  0.00  0.00     0.066 H 
BRANCH  35  40
ATOM     40  O   LIG d   1       3.252   0.609  -6.711  0.00  0.00    -0.488 OA
BRANCH  40  41
ATOM     41  C   LIG d   1       3.024   0.556  -8.120  0.00  0.00     0.089 C 
ATOM     42  H   LIG d   1       3.906   0.152  -8.616  0.00  0.00     0.070 H 
ATOM     43  H   LIG d   1       2.166  -0.085  -8.325  0.00  0.00     0.070 H 
BRANCH  41  44
ATOM     44  C   LIG d   1       2.745   1.965  -8.646  0.00  0.00    -0.021 C 
ATOM     45  H   LIG d   1       1.988   1.917  -9.428  0.00  0.00     0.029 H 
ATOM     46  H   LIG d   1       2.386   2.593  -7.830  0.00  0.00     0.029 H 
BRANCH  44  47
ATOM     47  C   LIG d   1       4.033   2.560  -9.218  0.00  0.00    -0.062 C 
ATOM     48  H   LIG d   1       3.792   3.434  -9.824  0.00  0.00     0.023 H 
ATOM     49  H   LIG d   1       4.691   2.856  -8.401  0.00  0.00     0.023 H 
ATOM     50  H   LIG d   1       4.533   1.816  -9.837  0.00  0.00     0.023 H 
ENDBRANCH  44  47
ENDBRANCH  41  44
ENDBRANCH  40  41
ENDBRANCH  35  40
BRANCH  37  51
ATOM     51  O   LIG d   1       3.870   0.665  -4.027  0.00  0.00    -0.489 OA
BRANCH  51  52
ATOM     52  C   LIG d   1       3.540   0.276  -2.692  0.00  0.00     0.087 C 
ATOM     53  H   LIG d   1       2.504   0.543  -2.482  0.00  0.00     0.069 H 
ATOM     54  H   LIG d   1       3.666  -0.802  -2.586  0.00  0.00     0.069 H 
BRANCH  52  55
ATOM     55  C   LIG d   1       4.463   0.997  -1.709  0.00  0.00    -0.031 C 
ATOM     56  H   LIG d   1       5.200   1.578  -2.261  0.00  0.00     0.026 H 
ATOM     57  H   LIG d   1       3.873   1.663  -1.078  0.00  0.00     0.026 H 
ATOM     58  H   LIG d   1       4.973   0.263  -1.084  0.00  0.00     0.026 H 
ENDBRANCH  52  55
ENDBRANCH  51  52
ENDBRANCH  37  51
ENDBRANCH   1  31
BRANCH  11  59
ATOM     59  C   LIG d   1      10.522  -3.978  -5.337  0.00  0.00    -0.029 C 
ATOM     60  H   LIG d   1      11.193  -4.455  -6.052  0.00  0.00     0.026 H 
ATOM     61  H   LIG d   1      10.112  -4.733  -4.666  0.00  0.00     0.026 H 
ATOM     62  H   LIG d   1      11.075  -3.239  -4.758  0.00  0.00     0.026 H 
ENDBRANCH  11  59
TORSDOF 9
ENDMDL
