MODEL 1
REMARK VINA RESULT:      -6.6      0.000      0.000
REMARK  10 active torsions:
REMARK  status: ('A' for Active; 'I' for Inactive)
REMARK    1  A    between atoms: C_1  and  C_2 
REMARK    2  A    between atoms: C_4  and  O_43 
REMARK    3  A    between atoms: C_12  and  O_39 
REMARK    4  A    between atoms: C_21  and  O_37 
REMARK    5  A    between atoms: C_23  and  C_36 
REMARK    6  A    between atoms: C_25  and  O_35 
REMARK    7  A    between atoms: C_29  and  O_30 
REMARK    8  A    between atoms: O_37  and  C_38 
REMARK    9  A    between atoms: O_39  and  C_40 
REMARK   10  A    between atoms: C_40  and  C_42 
ROOT
ATOM      1  C   LIG d   1       5.357   0.088  -2.994  0.00  0.00    -0.036 A 
ATOM      2  C   LIG d   1       4.554  -0.927  -2.522  0.00  0.00    -0.016 A 
ATOM      3  C   LIG d   1       4.523  -2.170  -3.149  0.00  0.00     0.131 A 
ATOM      4  C   LIG d   1       5.342  -2.399  -4.264  0.00  0.00     0.105 A 
ATOM      5  C   LIG d   1       6.127  -1.370  -4.749  0.00  0.00    -0.005 A 
ATOM      6  C   LIG d   1       6.136  -0.110  -4.141  0.00  0.00     0.026 A 
ATOM      7  C   LIG d   1       6.929   0.983  -4.734  0.00  0.00     0.173 C 
ATOM      8  O   LIG d   1       6.989   2.064  -4.187  0.00  0.00    -0.291 OA
ATOM      9  C   LIG d   1       7.664   0.743  -6.027  0.00  0.00     0.094 C 
ATOM     10  H   LIG d   1       7.811   1.667  -6.586  0.00  0.00     0.045 H 
ATOM     11  C   LIG d   1       6.794  -0.301  -6.819  0.00  0.00     0.129 C 
ATOM     12  H   LIG d   1       7.166  -0.438  -7.834  0.00  0.00     0.075 H 
ATOM     13  C   LIG d   1       7.051  -1.574  -5.941  0.00  0.00     0.082 C 
ATOM     14  C   LIG d   1       6.756  -2.846  -6.681  0.00  0.00     0.107 C 
ATOM     15  O   LIG d   1       6.462  -3.917  -5.773  0.00  0.00    -0.460 OA
ATOM     16  C   LIG d   1       5.406  -3.712  -4.941  0.00  0.00     0.343 C 
ATOM     17  O   LIG d   1       4.559  -4.564  -4.761  0.00  0.00    -0.245 OA
ATOM     18  C   LIG d   1       8.456  -1.445  -5.372  0.00  0.00     0.067 C 
ATOM     19  H   LIG d   1       8.399  -1.428  -4.284  0.00  0.00     0.042 H 
ATOM     20  C   LIG d   1       8.936  -0.034  -5.887  0.00  0.00     0.119 C 
ATOM     21  C   LIG d   1      10.121   0.358  -5.113  0.00  0.00    -0.003 A 
ATOM     22  C   LIG d   1      10.370   1.571  -4.525  0.00  0.00    -0.040 A 
ATOM     23  C   LIG d   1      11.552   1.790  -3.834  0.00  0.00    -0.016 A 
ATOM     24  C   LIG d   1      12.520   0.797  -3.732  0.00  0.00     0.132 A 
ATOM     25  C   LIG d   1      12.290  -0.447  -4.323  0.00  0.00     0.108 A 
ATOM     26  C   LIG d   1      11.069  -0.674  -4.987  0.00  0.00     0.008 A 
ATOM     27  C   LIG d   1      10.792  -2.019  -5.530  0.00  0.00     0.036 C 
ATOM     28  C   LIG d   1       9.508  -2.429  -5.789  0.00  0.00     0.108 C 
ATOM     29  C   LIG d   1      11.977  -2.927  -5.750  0.00  0.00     0.121 C 
ATOM     30  O   LIG d   1      12.850  -2.796  -4.615  0.00  0.00    -0.456 OA
ATOM     31  C   LIG d   1      13.267  -1.545  -4.294  0.00  0.00     0.344 C 
ATOM     32  O   LIG d   1      14.425  -1.338  -3.988  0.00  0.00    -0.245 OA
ATOM     33  H   LIG d   1       3.938  -0.755  -1.652  0.00  0.00     0.066 H 
ATOM     34  H   LIG d   1       5.898  -2.688  -7.336  0.00  0.00     0.071 H 
ATOM     35  H   LIG d   1       7.620  -3.117  -7.285  0.00  0.00     0.071 H 
ATOM     36  H   LIG d   1      11.726   2.748  -3.369  0.00  0.00     0.066 H 
ATOM     37  H   LIG d   1      11.638  -3.960  -5.837  0.00  0.00     0.075 H 
ATOM     38  H   LIG d   1      12.503  -2.633  -6.657  0.00  0.00     0.075 H 
ENDROOT
BRANCH  11  39
ATOM     39  O   LIG d   1       5.414   0.067  -6.821  0.00  0.00    -0.460 OA
BRANCH  39  40
ATOM     40  C   LIG d   1       4.850   0.312  -8.014  0.00  0.00     0.304 C 
ATOM     41  O   LIG d   1       4.532   1.439  -8.312  0.00  0.00    -0.251 OA
BRANCH  40  42
ATOM     42  C   LIG d   1       4.612  -0.818  -8.983  0.00  0.00     0.033 C 
ATOM     43  H   LIG d   1       4.169  -1.662  -8.455  0.00  0.00     0.034 H 
ATOM     44  H   LIG d   1       3.935  -0.486  -9.770  0.00  0.00     0.034 H 
ATOM     45  H   LIG d   1       5.561  -1.123  -9.424  0.00  0.00     0.034 H 
ENDBRANCH  40  42
ENDBRANCH  39  40
ENDBRANCH  11  39
BRANCH  20  46
ATOM     46  O   LIG d   1       9.406  -0.270  -7.215  0.00  0.00    -0.370 OA
BRANCH  46  47
ATOM     47  C   LIG d   1       9.741   0.920  -7.933  0.00  0.00     0.038 C 
ATOM     48  H   LIG d   1       8.828   1.455  -8.194  0.00  0.00     0.052 H 
ATOM     49  H   LIG d   1      10.369   1.556  -7.310  0.00  0.00     0.052 H 
ATOM     50  H   LIG d   1      10.280   0.655  -8.842  0.00  0.00     0.052 H 
ENDBRANCH  46  47
ENDBRANCH  20  46
BRANCH  28  51
ATOM     51  O   LIG d   1       9.210  -3.610  -6.379  0.00  0.00    -0.510 OA
ATOM     52  H   LIG d   1       9.971  -4.052  -6.781  0.00  0.00     0.292 HD
ENDBRANCH  28  51
BRANCH   1  53
ATOM     53  C   LIG d   1       5.392   1.415  -2.280  0.00  0.00    -0.039 C 
ATOM     54  H   LIG d   1       5.340   2.222  -3.010  0.00  0.00     0.028 H 
ATOM     55  H   LIG d   1       4.543   1.484  -1.600  0.00  0.00     0.028 H 
ATOM     56  H   LIG d   1       6.319   1.497  -1.713  0.00  0.00     0.028 H 
ENDBRANCH   1  53
BRANCH  22  57
ATOM     57  C   LIG d   1       9.349   2.676  -4.629  0.00  0.00    -0.039 C 
ATOM     58  H   LIG d   1       9.135   2.875  -5.679  0.00  0.00     0.028 H 
ATOM     59  H   LIG d   1       8.434   2.373  -4.122  0.00  0.00     0.028 H 
ATOM     60  H   LIG d   1       9.742   3.579  -4.162  0.00  0.00     0.028 H 
ENDBRANCH  22  57
BRANCH   3  61
ATOM     61  O   LIG d   1       3.709  -3.149  -2.687  0.00  0.00    -0.506 OA
ATOM     62  H   LIG d   1       4.092  -3.672  -1.969  0.00  0.00     0.292 HD
ENDBRANCH   3  61
BRANCH  24  63
ATOM     63  O   LIG d   1      13.675   1.033  -3.062  0.00  0.00    -0.506 OA
ATOM     64  H   LIG d   1      13.993   1.943  -3.134  0.00  0.00     0.292 HD
ENDBRANCH  24  63
TORSDOF 10
ENDMDL
MODEL 2
REMARK VINA RESULT:      -6.3      2.604      5.211
REMARK  10 active torsions:
REMARK  status: ('A' for Active; 'I' for Inactive)
REMARK    1  A    between atoms: C_1  and  C_2 
REMARK    2  A    between atoms: C_4  and  O_43 
REMARK    3  A    between atoms: C_12  and  O_39 
REMARK    4  A    between atoms: C_21  and  O_37 
REMARK    5  A    between atoms: C_23  and  C_36 
REMARK    6  A    between atoms: C_25  and  O_35 
REMARK    7  A    between atoms: C_29  and  O_30 
REMARK    8  A    between atoms: O_37  and  C_38 
REMARK    9  A    between atoms: O_39  and  C_40 
REMARK   10  A    between atoms: C_40  and  C_42 
ROOT
ATOM      1  C   LIG d   1       4.365  -1.109  -3.195  0.00  0.00    -0.036 A 
ATOM      2  C   LIG d   1       3.100  -0.676  -3.524  0.00  0.00    -0.016 A 
ATOM      3  C   LIG d   1       2.798  -0.252  -4.816  0.00  0.00     0.131 A 
ATOM      4  C   LIG d   1       3.794  -0.291  -5.802  0.00  0.00     0.105 A 
ATOM      5  C   LIG d   1       5.068  -0.704  -5.462  0.00  0.00    -0.005 A 
ATOM      6  C   LIG d   1       5.383  -1.100  -4.157  0.00  0.00     0.026 A 
ATOM      7  C   LIG d   1       6.772  -1.459  -3.817  0.00  0.00     0.173 C 
ATOM      8  O   LIG d   1       7.047  -1.856  -2.704  0.00  0.00    -0.291 OA
ATOM      9  C   LIG d   1       7.845  -1.329  -4.865  0.00  0.00     0.094 C 
ATOM     10  H   LIG d   1       8.828  -1.169  -4.421  0.00  0.00     0.045 H 
ATOM     11  C   LIG d   1       7.400  -0.127  -5.777  0.00  0.00     0.129 C 
ATOM     12  H   LIG d   1       8.182   0.142  -6.487  0.00  0.00     0.075 H 
ATOM     13  C   LIG d   1       6.177  -0.788  -6.501  0.00  0.00     0.082 C 
ATOM     14  C   LIG d   1       5.819  -0.081  -7.776  0.00  0.00     0.107 C 
ATOM     15  O   LIG d   1       4.447  -0.312  -8.129  0.00  0.00    -0.460 OA
ATOM     16  C   LIG d   1       3.527   0.084  -7.208  0.00  0.00     0.343 C 
ATOM     17  O   LIG d   1       2.537   0.713  -7.523  0.00  0.00    -0.245 OA
ATOM     18  C   LIG d   1       6.483  -2.273  -6.626  0.00  0.00     0.067 C 
ATOM     19  H   LIG d   1       5.722  -2.840  -6.090  0.00  0.00     0.042 H 
ATOM     20  C   LIG d   1       7.864  -2.431  -5.880  0.00  0.00     0.119 C 
ATOM     21  C   LIG d   1       8.084  -3.858  -5.619  0.00  0.00    -0.003 A 
ATOM     22  C   LIG d   1       8.491  -4.439  -4.445  0.00  0.00    -0.040 A 
ATOM     23  C   LIG d   1       8.667  -5.812  -4.363  0.00  0.00    -0.016 A 
ATOM     24  C   LIG d   1       8.452  -6.632  -5.464  0.00  0.00     0.132 A 
ATOM     25  C   LIG d   1       8.037  -6.065  -6.671  0.00  0.00     0.108 A 
ATOM     26  C   LIG d   1       7.821  -4.675  -6.734  0.00  0.00     0.008 A 
ATOM     27  C   LIG d   1       7.294  -4.091  -7.984  0.00  0.00     0.036 C 
ATOM     28  C   LIG d   1       6.666  -2.871  -7.989  0.00  0.00     0.108 C 
ATOM     29  C   LIG d   1       7.445  -4.913  -9.241  0.00  0.00     0.121 C 
ATOM     30  O   LIG d   1       7.129  -6.278  -8.917  0.00  0.00    -0.456 OA
ATOM     31  C   LIG d   1       7.816  -6.848  -7.895  0.00  0.00     0.344 C 
ATOM     32  O   LIG d   1       8.238  -7.984  -7.990  0.00  0.00    -0.245 OA
ATOM     33  H   LIG d   1       2.330  -0.664  -2.767  0.00  0.00     0.066 H 
ATOM     34  H   LIG d   1       5.980   0.990  -7.648  0.00  0.00     0.071 H 
ATOM     35  H   LIG d   1       6.460  -0.445  -8.578  0.00  0.00     0.071 H 
ATOM     36  H   LIG d   1       8.978  -6.252  -3.428  0.00  0.00     0.066 H 
ATOM     37  H   LIG d   1       6.758  -4.547 -10.005  0.00  0.00     0.075 H 
ATOM     38  H   LIG d   1       8.470  -4.847  -9.604  0.00  0.00     0.075 H 
ENDROOT
BRANCH  11  39
ATOM     39  O   LIG d   1       7.004   1.000  -4.995  0.00  0.00    -0.460 OA
BRANCH  39  40
ATOM     40  C   LIG d   1       7.966   1.865  -4.640  0.00  0.00     0.304 C 
ATOM     41  O   LIG d   1       8.125   2.147  -3.475  0.00  0.00    -0.251 OA
BRANCH  40  42
ATOM     42  C   LIG d   1       8.850   2.485  -5.691  0.00  0.00     0.033 C 
ATOM     43  H   LIG d   1       9.232   3.440  -5.329  0.00  0.00     0.034 H 
ATOM     44  H   LIG d   1       9.684   1.817  -5.905  0.00  0.00     0.034 H 
ATOM     45  H   LIG d   1       8.272   2.647  -6.601  0.00  0.00     0.034 H 
ENDBRANCH  40  42
ENDBRANCH  39  40
ENDBRANCH  11  39
BRANCH  20  46
ATOM     46  O   LIG d   1       8.846  -2.061  -6.849  0.00  0.00    -0.370 OA
BRANCH  46  47
ATOM     47  C   LIG d   1      10.171  -1.959  -6.323  0.00  0.00     0.038 C 
ATOM     48  H   LIG d   1      10.428  -2.882  -5.804  0.00  0.00     0.052 H 
ATOM     49  H   LIG d   1      10.875  -1.794  -7.139  0.00  0.00     0.052 H 
ATOM     50  H   LIG d   1      10.221  -1.123  -5.626  0.00  0.00     0.052 H 
ENDBRANCH  46  47
ENDBRANCH  20  46
BRANCH  28  51
ATOM     51  O   LIG d   1       6.257  -2.250  -9.119  0.00  0.00    -0.510 OA
ATOM     52  H   LIG d   1       6.587  -2.656  -9.933  0.00  0.00     0.292 HD
ENDBRANCH  28  51
BRANCH   1  53
ATOM     53  C   LIG d   1       4.657  -1.589  -1.796  0.00  0.00    -0.039 C 
ATOM     54  H   LIG d   1       5.618  -1.193  -1.469  0.00  0.00     0.028 H 
ATOM     55  H   LIG d   1       3.874  -1.243  -1.122  0.00  0.00     0.028 H 
ATOM     56  H   LIG d   1       4.691  -2.678  -1.785  0.00  0.00     0.028 H 
ENDBRANCH   1  53
BRANCH  22  57
ATOM     57  C   LIG d   1       8.749  -3.578  -3.235  0.00  0.00    -0.039 C 
ATOM     58  H   LIG d   1       9.231  -4.174  -2.461  0.00  0.00     0.028 H 
ATOM     59  H   LIG d   1       9.398  -2.747  -3.512  0.00  0.00     0.028 H 
ATOM     60  H   LIG d   1       7.803  -3.189  -2.858  0.00  0.00     0.028 H 
ENDBRANCH  22  57
BRANCH   3  61
ATOM     61  O   LIG d   1       1.555   0.195  -5.116  0.00  0.00    -0.506 OA
ATOM     62  H   LIG d   1       1.201  -0.157  -5.944  0.00  0.00     0.292 HD
ENDBRANCH   3  61
BRANCH  24  63
ATOM     63  O   LIG d   1       8.640  -7.972  -5.368  0.00  0.00    -0.506 OA
ATOM     64  H   LIG d   1       8.038  -8.411  -4.751  0.00  0.00     0.292 HD
ENDBRANCH  24  63
TORSDOF 10
ENDMDL
MODEL 3
REMARK VINA RESULT:      -6.2      2.385      4.943
REMARK  10 active torsions:
REMARK  status: ('A' for Active; 'I' for Inactive)
REMARK    1  A    between atoms: C_1  and  C_2 
REMARK    2  A    between atoms: C_4  and  O_43 
REMARK    3  A    between atoms: C_12  and  O_39 
REMARK    4  A    between atoms: C_21  and  O_37 
REMARK    5  A    between atoms: C_23  and  C_36 
REMARK    6  A    between atoms: C_25  and  O_35 
REMARK    7  A    between atoms: C_29  and  O_30 
REMARK    8  A    between atoms: O_37  and  C_38 
REMARK    9  A    between atoms: O_39  and  C_40 
REMARK   10  A    between atoms: C_40  and  C_42 
ROOT
ATOM      1  C   LIG d   1       3.839   0.087  -7.567  0.00  0.00    -0.036 A 
ATOM      2  C   LIG d   1       2.739   0.079  -6.738  0.00  0.00    -0.016 A 
ATOM      3  C   LIG d   1       2.878  -0.069  -5.360  0.00  0.00     0.131 A 
ATOM      4  C   LIG d   1       4.161  -0.185  -4.807  0.00  0.00     0.105 A 
ATOM      5  C   LIG d   1       5.260  -0.200  -5.644  0.00  0.00    -0.005 A 
ATOM      6  C   LIG d   1       5.122  -0.085  -7.032  0.00  0.00     0.026 A 
ATOM      7  C   LIG d   1       6.313  -0.184  -7.896  0.00  0.00     0.173 C 
ATOM      8  O   LIG d   1       6.214  -0.031  -9.095  0.00  0.00    -0.291 OA
ATOM      9  C   LIG d   1       7.653  -0.475  -7.274  0.00  0.00     0.094 C 
ATOM     10  H   LIG d   1       8.328  -0.965  -7.976  0.00  0.00     0.045 H 
ATOM     11  C   LIG d   1       7.349  -1.370  -6.017  0.00  0.00     0.129 C 
ATOM     12  H   LIG d   1       8.267  -1.756  -5.573  0.00  0.00     0.075 H 
ATOM     13  C   LIG d   1       6.674  -0.300  -5.092  0.00  0.00     0.082 C 
ATOM     14  C   LIG d   1       6.695  -0.702  -3.645  0.00  0.00     0.107 C 
ATOM     15  O   LIG d   1       5.652  -0.047  -2.910  0.00  0.00    -0.460 OA
ATOM     16  C   LIG d   1       4.386  -0.281  -3.348  0.00  0.00     0.343 C 
ATOM     17  O   LIG d   1       3.485  -0.556  -2.581  0.00  0.00    -0.245 OA
ATOM     18  C   LIG d   1       7.317   1.040  -5.419  0.00  0.00     0.067 C 
ATOM     19  H   LIG d   1       6.549   1.724  -5.779  0.00  0.00     0.042 H 
ATOM     20  C   LIG d   1       8.300   0.699  -6.605  0.00  0.00     0.119 C 
ATOM     21  C   LIG d   1       8.703   1.958  -7.243  0.00  0.00    -0.003 A 
ATOM     22  C   LIG d   1       8.739   2.239  -8.585  0.00  0.00    -0.040 A 
ATOM     23  C   LIG d   1       9.160   3.482  -9.032  0.00  0.00    -0.016 A 
ATOM     24  C   LIG d   1       9.570   4.467  -8.141  0.00  0.00     0.132 A 
ATOM     25  C   LIG d   1       9.543   4.205  -6.770  0.00  0.00     0.108 A 
ATOM     26  C   LIG d   1       9.074   2.954  -6.322  0.00  0.00     0.008 A 
ATOM     27  C   LIG d   1       8.961   2.714  -4.869  0.00  0.00     0.036 C 
ATOM     28  C   LIG d   1       8.137   1.734  -4.374  0.00  0.00     0.108 C 
ATOM     29  C   LIG d   1       9.760   3.616  -3.961  0.00  0.00     0.121 C 
ATOM     30  O   LIG d   1       9.645   4.959  -4.460  0.00  0.00    -0.456 OA
ATOM     31  C   LIG d   1       9.987   5.172  -5.756  0.00  0.00     0.344 C 
ATOM     32  O   LIG d   1      10.647   6.143  -6.071  0.00  0.00    -0.245 OA
ATOM     33  H   LIG d   1       1.753   0.187  -7.164  0.00  0.00     0.066 H 
ATOM     34  H   LIG d   1       6.560  -1.781  -3.572  0.00  0.00     0.071 H 
ATOM     35  H   LIG d   1       7.659  -0.434  -3.214  0.00  0.00     0.071 H 
ATOM     36  H   LIG d   1       9.171   3.689 -10.092  0.00  0.00     0.066 H 
ATOM     37  H   LIG d   1       9.361   3.564  -2.947  0.00  0.00     0.075 H 
ATOM     38  H   LIG d   1      10.805   3.309  -3.963  0.00  0.00     0.075 H 
ENDROOT
BRANCH  11  39
ATOM     39  O   LIG d   1       6.448  -2.431  -6.339  0.00  0.00    -0.460 OA
BRANCH  39  40
ATOM     40  C   LIG d   1       6.379  -3.456  -5.476  0.00  0.00     0.304 C 
ATOM     41  O   LIG d   1       7.388  -4.024  -5.131  0.00  0.00    -0.251 OA
BRANCH  40  42
ATOM     42  C   LIG d   1       5.043  -3.900  -4.937  0.00  0.00     0.033 C 
ATOM     43  H   LIG d   1       5.020  -3.753  -3.857  0.00  0.00     0.034 H 
ATOM     44  H   LIG d   1       4.250  -3.312  -5.401  0.00  0.00     0.034 H 
ATOM     45  H   LIG d   1       4.893  -4.955  -5.163  0.00  0.00     0.034 H 
ENDBRANCH  40  42
ENDBRANCH  39  40
ENDBRANCH  11  39
BRANCH  20  46
ATOM     46  O   LIG d   1       9.476   0.195  -5.970  0.00  0.00    -0.370 OA
BRANCH  46  47
ATOM     47  C   LIG d   1      10.448  -0.328  -6.878  0.00  0.00     0.038 C 
ATOM     48  H   LIG d   1      10.244  -1.383  -7.060  0.00  0.00     0.052 H 
ATOM     49  H   LIG d   1      10.397   0.219  -7.820  0.00  0.00     0.052 H 
ATOM     50  H   LIG d   1      11.443  -0.219  -6.447  0.00  0.00     0.052 H 
ENDBRANCH  46  47
ENDBRANCH  20  46
BRANCH  28  51
ATOM     51  O   LIG d   1       8.075   1.409  -3.062  0.00  0.00    -0.510 OA
ATOM     52  H   LIG d   1       8.519   2.040  -2.478  0.00  0.00     0.292 HD
ENDBRANCH  28  51
BRANCH   1  53
ATOM     53  C   LIG d   1       3.662   0.275  -9.052  0.00  0.00    -0.039 C 
ATOM     54  H   LIG d   1       4.549  -0.086  -9.572  0.00  0.00     0.028 H 
ATOM     55  H   LIG d   1       2.790  -0.284  -9.388  0.00  0.00     0.028 H 
ATOM     56  H   LIG d   1       3.520   1.334  -9.269  0.00  0.00     0.028 H 
ENDBRANCH   1  53
BRANCH  22  57
ATOM     57  C   LIG d   1       8.316   1.189  -9.580  0.00  0.00    -0.039 C 
ATOM     58  H   LIG d   1       7.236   1.234  -9.719  0.00  0.00     0.028 H 
ATOM     59  H   LIG d   1       8.813   1.371 -10.532  0.00  0.00     0.028 H 
ATOM     60  H   LIG d   1       8.592   0.202  -9.207  0.00  0.00     0.028 H 
ENDBRANCH  22  57
BRANCH   3  61
ATOM     61  O   LIG d   1       1.784  -0.100  -4.562  0.00  0.00    -0.506 OA
ATOM     62  H   LIG d   1       1.027  -0.561  -4.950  0.00  0.00     0.292 HD
ENDBRANCH   3  61
BRANCH  24  63
ATOM     63  O   LIG d   1       9.990   5.673  -8.598  0.00  0.00    -0.506 OA
ATOM     64  H   LIG d   1       9.732   5.858  -9.512  0.00  0.00     0.292 HD
ENDBRANCH  24  63
TORSDOF 10
ENDMDL
MODEL 4
REMARK VINA RESULT:      -6.2      2.582      7.196
REMARK  10 active torsions:
REMARK  status: ('A' for Active; 'I' for Inactive)
REMARK    1  A    between atoms: C_1  and  C_2 
REMARK    2  A    between atoms: C_4  and  O_43 
REMARK    3  A    between atoms: C_12  and  O_39 
REMARK    4  A    between atoms: C_21  and  O_37 
REMARK    5  A    between atoms: C_23  and  C_36 
REMARK    6  A    between atoms: C_25  and  O_35 
REMARK    7  A    between atoms: C_29  and  O_30 
REMARK    8  A    between atoms: O_37  and  C_38 
REMARK    9  A    between atoms: O_39  and  C_40 
REMARK   10  A    between atoms: C_40  and  C_42 
ROOT
ATOM      1  C   LIG d   1       4.512  -1.859  -3.076  0.00  0.00    -0.036 A 
ATOM      2  C   LIG d   1       4.537  -0.721  -2.301  0.00  0.00    -0.016 A 
ATOM      3  C   LIG d   1       5.394   0.335  -2.600  0.00  0.00     0.131 A 
ATOM      4  C   LIG d   1       6.226   0.248  -3.726  0.00  0.00     0.105 A 
ATOM      5  C   LIG d   1       6.215  -0.906  -4.487  0.00  0.00    -0.005 A 
ATOM      6  C   LIG d   1       5.379  -1.982  -4.169  0.00  0.00     0.026 A 
ATOM      7  C   LIG d   1       5.454  -3.225  -4.961  0.00  0.00     0.173 C 
ATOM      8  O   LIG d   1       4.697  -4.144  -4.730  0.00  0.00    -0.291 OA
ATOM      9  C   LIG d   1       6.478  -3.339  -6.058  0.00  0.00     0.094 C 
ATOM     10  H   LIG d   1       6.755  -4.377  -6.247  0.00  0.00     0.045 H 
ATOM     11  C   LIG d   1       7.703  -2.473  -5.584  0.00  0.00     0.129 C 
ATOM     12  H   LIG d   1       8.560  -2.602  -6.245  0.00  0.00     0.075 H 
ATOM     13  C   LIG d   1       7.081  -1.041  -5.731  0.00  0.00     0.082 C 
ATOM     14  C   LIG d   1       8.130   0.030  -5.816  0.00  0.00     0.107 C 
ATOM     15  O   LIG d   1       7.606   1.301  -5.406  0.00  0.00    -0.460 OA
ATOM     16  C   LIG d   1       7.114   1.355  -4.139  0.00  0.00     0.343 C 
ATOM     17  O   LIG d   1       7.389   2.267  -3.385  0.00  0.00    -0.245 OA
ATOM     18  C   LIG d   1       6.095  -1.101  -6.888  0.00  0.00     0.067 C 
ATOM     19  H   LIG d   1       5.099  -0.854  -6.520  0.00  0.00     0.042 H 
ATOM     20  C   LIG d   1       6.124  -2.617  -7.321  0.00  0.00     0.119 C 
ATOM     21  C   LIG d   1       4.960  -2.872  -8.179  0.00  0.00    -0.003 A 
ATOM     22  C   LIG d   1       4.079  -3.920  -8.100  0.00  0.00    -0.040 A 
ATOM     23  C   LIG d   1       3.030  -4.026  -9.000  0.00  0.00    -0.016 A 
ATOM     24  C   LIG d   1       2.850  -3.088 -10.010  0.00  0.00     0.132 A 
ATOM     25  C   LIG d   1       3.734  -2.012 -10.112  0.00  0.00     0.108 A 
ATOM     26  C   LIG d   1       4.772  -1.889  -9.168  0.00  0.00     0.008 A 
ATOM     27  C   LIG d   1       5.648  -0.702  -9.222  0.00  0.00     0.036 C 
ATOM     28  C   LIG d   1       6.370  -0.300  -8.126  0.00  0.00     0.108 C 
ATOM     29  C   LIG d   1       5.683   0.066 -10.522  0.00  0.00     0.121 C 
ATOM     30  O   LIG d   1       4.335   0.166 -11.011  0.00  0.00    -0.456 OA
ATOM     31  C   LIG d   1       3.642  -0.990 -11.165  0.00  0.00     0.344 C 
ATOM     32  O   LIG d   1       2.959  -1.177 -12.153  0.00  0.00    -0.245 OA
ATOM     33  H   LIG d   1       3.881  -0.647  -1.446  0.00  0.00     0.066 H 
ATOM     34  H   LIG d   1       8.966  -0.237  -5.169  0.00  0.00     0.071 H 
ATOM     35  H   LIG d   1       8.483   0.103  -6.843  0.00  0.00     0.071 H 
ATOM     36  H   LIG d   1       2.340  -4.852  -8.916  0.00  0.00     0.066 H 
ATOM     37  H   LIG d   1       6.088   1.063 -10.349  0.00  0.00     0.075 H 
ATOM     38  H   LIG d   1       6.301  -0.464 -11.246  0.00  0.00     0.075 H 
ENDROOT
BRANCH  11  39
ATOM     39  O   LIG d   1       8.049  -2.760  -4.229  0.00  0.00    -0.460 OA
BRANCH  39  40
ATOM     40  C   LIG d   1       9.141  -3.513  -4.024  0.00  0.00     0.304 C 
ATOM     41  O   LIG d   1       9.914  -3.715  -4.931  0.00  0.00    -0.251 OA
BRANCH  40  42
ATOM     42  C   LIG d   1       9.405  -4.108  -2.665  0.00  0.00     0.033 C 
ATOM     43  H   LIG d   1      10.480  -4.206  -2.514  0.00  0.00     0.034 H 
ATOM     44  H   LIG d   1       8.988  -3.456  -1.896  0.00  0.00     0.034 H 
ATOM     45  H   LIG d   1       8.937  -5.090  -2.602  0.00  0.00     0.034 H 
ENDBRANCH  40  42
ENDBRANCH  39  40
ENDBRANCH  11  39
BRANCH  20  46
ATOM     46  O   LIG d   1       7.263  -2.731  -8.176  0.00  0.00    -0.370 OA
BRANCH  46  47
ATOM     47  C   LIG d   1       7.580  -4.075  -8.547  0.00  0.00     0.038 C 
ATOM     48  H   LIG d   1       7.717  -4.676  -7.649  0.00  0.00     0.052 H 
ATOM     49  H   LIG d   1       6.765  -4.489  -9.141  0.00  0.00     0.052 H 
ATOM     50  H   LIG d   1       8.497  -4.082  -9.135  0.00  0.00     0.052 H 
ENDBRANCH  46  47
ENDBRANCH  20  46
BRANCH  28  51
ATOM     51  O   LIG d   1       7.261   0.718  -8.154  0.00  0.00    -0.510 OA
ATOM     52  H   LIG d   1       7.813   0.736  -8.949  0.00  0.00     0.292 HD
ENDBRANCH  28  51
BRANCH   1  53
ATOM     53  C   LIG d   1       3.556  -2.976  -2.745  0.00  0.00    -0.039 C 
ATOM     54  H   LIG d   1       3.762  -3.345  -1.741  0.00  0.00     0.028 H 
ATOM     55  H   LIG d   1       2.533  -2.604  -2.793  0.00  0.00     0.028 H 
ATOM     56  H   LIG d   1       3.681  -3.786  -3.463  0.00  0.00     0.028 H 
ENDBRANCH   1  53
BRANCH  22  57
ATOM     57  C   LIG d   1       4.253  -4.963  -7.027  0.00  0.00    -0.039 C 
ATOM     58  H   LIG d   1       4.882  -4.565  -6.231  0.00  0.00     0.028 H 
ATOM     59  H   LIG d   1       3.278  -5.232  -6.621  0.00  0.00     0.028 H 
ATOM     60  H   LIG d   1       4.726  -5.848  -7.453  0.00  0.00     0.028 H 
ENDBRANCH  22  57
BRANCH   3  61
ATOM     61  O   LIG d   1       5.423   1.437  -1.813  0.00  0.00    -0.506 OA
ATOM     62  H   LIG d   1       4.701   2.058  -1.979  0.00  0.00     0.292 HD
ENDBRANCH   3  61
BRANCH  24  63
ATOM     63  O   LIG d   1       1.824  -3.215 -10.889  0.00  0.00    -0.506 OA
ATOM     64  H   LIG d   1       1.776  -2.505 -11.543  0.00  0.00     0.292 HD
ENDBRANCH  24  63
TORSDOF 10
ENDMDL
MODEL 5
REMARK VINA RESULT:      -6.1      1.982      3.587
REMARK  10 active torsions:
REMARK  status: ('A' for Active; 'I' for Inactive)
REMARK    1  A    between atoms: C_1  and  C_2 
REMARK    2  A    between atoms: C_4  and  O_43 
REMARK    3  A    between atoms: C_12  and  O_39 
REMARK    4  A    between atoms: C_21  and  O_37 
REMARK    5  A    between atoms: C_23  and  C_36 
REMARK    6  A    between atoms: C_25  and  O_35 
REMARK    7  A    between atoms: C_29  and  O_30 
REMARK    8  A    between atoms: O_37  and  C_38 
REMARK    9  A    between atoms: O_39  and  C_40 
REMARK   10  A    between atoms: C_40  and  C_42 
ROOT
ATOM      1  C   LIG d   1       6.999   1.235  -3.726  0.00  0.00    -0.036 A 
ATOM      2  C   LIG d   1       6.053   1.415  -2.741  0.00  0.00    -0.016 A 
ATOM      3  C   LIG d   1       4.963   0.555  -2.625  0.00  0.00     0.131 A 
ATOM      4  C   LIG d   1       4.844  -0.527  -3.509  0.00  0.00     0.105 A 
ATOM      5  C   LIG d   1       5.782  -0.690  -4.510  0.00  0.00    -0.005 A 
ATOM      6  C   LIG d   1       6.860   0.192  -4.651  0.00  0.00     0.026 A 
ATOM      7  C   LIG d   1       7.797   0.030  -5.779  0.00  0.00     0.173 C 
ATOM      8  O   LIG d   1       8.764   0.753  -5.880  0.00  0.00    -0.291 OA
ATOM      9  C   LIG d   1       7.538  -1.044  -6.802  0.00  0.00     0.094 C 
ATOM     10  H   LIG d   1       7.974  -0.794  -7.769  0.00  0.00     0.045 H 
ATOM     11  C   LIG d   1       5.974  -1.191  -6.873  0.00  0.00     0.129 C 
ATOM     12  H   LIG d   1       5.674  -1.847  -7.691  0.00  0.00     0.075 H 
ATOM     13  C   LIG d   1       5.711  -1.860  -5.480  0.00  0.00     0.082 C 
ATOM     14  C   LIG d   1       4.387  -2.565  -5.427  0.00  0.00     0.107 C 
ATOM     15  O   LIG d   1       3.918  -2.686  -4.077  0.00  0.00    -0.460 OA
ATOM     16  C   LIG d   1       3.749  -1.515  -3.405  0.00  0.00     0.343 C 
ATOM     17  O   LIG d   1       2.749  -1.292  -2.751  0.00  0.00    -0.245 OA
ATOM     18  C   LIG d   1       6.931  -2.709  -5.157  0.00  0.00     0.067 C 
ATOM     19  H   LIG d   1       7.386  -2.344  -4.237  0.00  0.00     0.042 H 
ATOM     20  C   LIG d   1       7.908  -2.427  -6.363  0.00  0.00     0.119 C 
ATOM     21  C   LIG d   1       9.247  -2.898  -5.989  0.00  0.00    -0.003 A 
ATOM     22  C   LIG d   1      10.437  -2.234  -6.138  0.00  0.00    -0.040 A 
ATOM     23  C   LIG d   1      11.628  -2.826  -5.743  0.00  0.00    -0.016 A 
ATOM     24  C   LIG d   1      11.650  -4.106  -5.203  0.00  0.00     0.132 A 
ATOM     25  C   LIG d   1      10.452  -4.804  -5.042  0.00  0.00     0.108 A 
ATOM     26  C   LIG d   1       9.243  -4.179  -5.407  0.00  0.00     0.008 A 
ATOM     27  C   LIG d   1       7.971  -4.883  -5.150  0.00  0.00     0.036 C 
ATOM     28  C   LIG d   1       6.784  -4.199  -5.070  0.00  0.00     0.108 C 
ATOM     29  C   LIG d   1       8.044  -6.376  -4.943  0.00  0.00     0.121 C 
ATOM     30  O   LIG d   1       9.179  -6.652  -4.105  0.00  0.00    -0.456 OA
ATOM     31  C   LIG d   1      10.381  -6.173  -4.511  0.00  0.00     0.344 C 
ATOM     32  O   LIG d   1      11.380  -6.862  -4.436  0.00  0.00    -0.245 OA
ATOM     33  H   LIG d   1       6.157   2.237  -2.049  0.00  0.00     0.066 H 
ATOM     34  H   LIG d   1       3.658  -2.000  -6.009  0.00  0.00     0.071 H 
ATOM     35  H   LIG d   1       4.494  -3.559  -5.858  0.00  0.00     0.071 H 
ATOM     36  H   LIG d   1      12.554  -2.283  -5.858  0.00  0.00     0.066 H 
ATOM     37  H   LIG d   1       7.133  -6.726  -4.456  0.00  0.00     0.075 H 
ATOM     38  H   LIG d   1       8.163  -6.876  -5.903  0.00  0.00     0.075 H 
ENDROOT
BRANCH  11  39
ATOM     39  O   LIG d   1       5.336   0.083  -6.975  0.00  0.00    -0.460 OA
BRANCH  39  40
ATOM     40  C   LIG d   1       4.288   0.176  -7.808  0.00  0.00     0.304 C 
ATOM     41  O   LIG d   1       4.464   0.168  -9.003  0.00  0.00    -0.251 OA
BRANCH  40  42
ATOM     42  C   LIG d   1       2.891   0.290  -7.254  0.00  0.00     0.033 C 
ATOM     43  H   LIG d   1       2.930   0.279  -6.164  0.00  0.00     0.034 H 
ATOM     44  H   LIG d   1       2.440   1.223  -7.592  0.00  0.00     0.034 H 
ATOM     45  H   LIG d   1       2.292  -0.551  -7.604  0.00  0.00     0.034 H 
ENDBRANCH  40  42
ENDBRANCH  39  40
ENDBRANCH  11  39
BRANCH  20  46
ATOM     46  O   LIG d   1       7.468  -3.304  -7.402  0.00  0.00    -0.370 OA
BRANCH  46  47
ATOM     47  C   LIG d   1       8.117  -3.089  -8.657  0.00  0.00     0.038 C 
ATOM     48  H   LIG d   1       8.868  -2.306  -8.548  0.00  0.00     0.052 H 
ATOM     49  H   LIG d   1       8.599  -4.012  -8.980  0.00  0.00     0.052 H 
ATOM     50  H   LIG d   1       7.379  -2.785  -9.400  0.00  0.00     0.052 H 
ENDBRANCH  46  47
ENDBRANCH  20  46
BRANCH  28  51
ATOM     51  O   LIG d   1       5.583  -4.807  -4.937  0.00  0.00    -0.510 OA
ATOM     52  H   LIG d   1       5.640  -5.743  -4.697  0.00  0.00     0.292 HD
ENDBRANCH  28  51
BRANCH   1  53
ATOM     53  C   LIG d   1       8.182   2.165  -3.812  0.00  0.00    -0.039 C 
ATOM     54  H   LIG d   1       8.875   1.801  -4.570  0.00  0.00     0.028 H 
ATOM     55  H   LIG d   1       7.840   3.164  -4.081  0.00  0.00     0.028 H 
ATOM     56  H   LIG d   1       8.686   2.201  -2.846  0.00  0.00     0.028 H 
ENDBRANCH   1  53
BRANCH  22  57
ATOM     57  C   LIG d   1      10.451  -0.850  -6.733  0.00  0.00    -0.039 C 
ATOM     58  H   LIG d   1      10.512  -0.922  -7.819  0.00  0.00     0.028 H 
ATOM     59  H   LIG d   1       9.538  -0.325  -6.454  0.00  0.00     0.028 H 
ATOM     60  H   LIG d   1      11.315  -0.301  -6.358  0.00  0.00     0.028 H 
ENDBRANCH  22  57
BRANCH   3  61
ATOM     61  O   LIG d   1       4.028   0.760  -1.667  0.00  0.00    -0.506 OA
ATOM     62  H   LIG d   1       3.616  -0.050  -1.339  0.00  0.00     0.292 HD
ENDBRANCH   3  61
BRANCH  24  63
ATOM     63  O   LIG d   1      12.826  -4.673  -4.834  0.00  0.00    -0.506 OA
ATOM     64  H   LIG d   1      12.939  -4.757  -3.877  0.00  0.00     0.292 HD
ENDBRANCH  24  63
TORSDOF 10
ENDMDL
MODEL 6
REMARK VINA RESULT:      -6.0      1.468      6.967
REMARK  10 active torsions:
REMARK  status: ('A' for Active; 'I' for Inactive)
REMARK    1  A    between atoms: C_1  and  C_2 
REMARK    2  A    between atoms: C_4  and  O_43 
REMARK    3  A    between atoms: C_12  and  O_39 
REMARK    4  A    between atoms: C_21  and  O_37 
REMARK    5  A    between atoms: C_23  and  C_36 
REMARK    6  A    between atoms: C_25  and  O_35 
REMARK    7  A    between atoms: C_29  and  O_30 
REMARK    8  A    between atoms: O_37  and  C_38 
REMARK    9  A    between atoms: O_39  and  C_40 
REMARK   10  A    between atoms: C_40  and  C_42 
ROOT
ATOM      1  C   LIG d   1      11.974  -1.095  -5.373  0.00  0.00    -0.036 A 
ATOM      2  C   LIG d   1      12.893  -0.550  -4.504  0.00  0.00    -0.016 A 
ATOM      3  C   LIG d   1      12.656   0.673  -3.880  0.00  0.00     0.131 A 
ATOM      4  C   LIG d   1      11.450   1.345  -4.121  0.00  0.00     0.105 A 
ATOM      5  C   LIG d   1      10.540   0.806  -5.011  0.00  0.00    -0.005 A 
ATOM      6  C   LIG d   1      10.790  -0.405  -5.666  0.00  0.00     0.026 A 
ATOM      7  C   LIG d   1       9.830  -0.908  -6.666  0.00  0.00     0.173 C 
ATOM      8  O   LIG d   1      10.008  -1.982  -7.200  0.00  0.00    -0.291 OA
ATOM      9  C   LIG d   1       8.627  -0.073  -7.018  0.00  0.00     0.094 C 
ATOM     10  H   LIG d   1       8.269  -0.285  -8.025  0.00  0.00     0.045 H 
ATOM     11  C   LIG d   1       9.088   1.422  -6.850  0.00  0.00     0.129 C 
ATOM     12  H   LIG d   1       8.330   2.113  -7.218  0.00  0.00     0.075 H 
ATOM     13  C   LIG d   1       9.207   1.484  -5.288  0.00  0.00     0.082 C 
ATOM     14  C   LIG d   1       9.163   2.892  -4.769  0.00  0.00     0.107 C 
ATOM     15  O   LIG d   1       9.798   2.991  -3.486  0.00  0.00    -0.460 OA
ATOM     16  C   LIG d   1      11.104   2.614  -3.444  0.00  0.00     0.343 C 
ATOM     17  O   LIG d   1      11.945   3.285  -2.879  0.00  0.00    -0.245 OA
ATOM     18  C   LIG d   1       8.161   0.534  -4.724  0.00  0.00     0.067 C 
ATOM     19  H   LIG d   1       8.661  -0.241  -4.144  0.00  0.00     0.042 H 
ATOM     20  C   LIG d   1       7.521  -0.118  -6.010  0.00  0.00     0.119 C 
ATOM     21  C   LIG d   1       6.761  -1.303  -5.595  0.00  0.00    -0.003 A 
ATOM     22  C   LIG d   1       6.785  -2.550  -6.164  0.00  0.00    -0.040 A 
ATOM     23  C   LIG d   1       5.992  -3.570  -5.658  0.00  0.00    -0.016 A 
ATOM     24  C   LIG d   1       5.147  -3.354  -4.576  0.00  0.00     0.132 A 
ATOM     25  C   LIG d   1       5.105  -2.093  -3.979  0.00  0.00     0.108 A 
ATOM     26  C   LIG d   1       5.943  -1.075  -4.473  0.00  0.00     0.008 A 
ATOM     27  C   LIG d   1       5.964   0.230  -3.782  0.00  0.00     0.036 C 
ATOM     28  C   LIG d   1       7.025   1.090  -3.919  0.00  0.00     0.108 C 
ATOM     29  C   LIG d   1       4.788   0.553  -2.893  0.00  0.00     0.121 C 
ATOM     30  O   LIG d   1       4.459  -0.630  -2.147  0.00  0.00    -0.456 OA
ATOM     31  C   LIG d   1       4.219  -1.764  -2.853  0.00  0.00     0.344 C 
ATOM     32  O   LIG d   1       3.291  -2.492  -2.560  0.00  0.00    -0.245 OA
ATOM     33  H   LIG d   1      13.814  -1.078  -4.305  0.00  0.00     0.066 H 
ATOM     34  H   LIG d   1       9.677   3.548  -5.473  0.00  0.00     0.071 H 
ATOM     35  H   LIG d   1       8.125   3.208  -4.679  0.00  0.00     0.071 H 
ATOM     36  H   LIG d   1       6.032  -4.548  -6.112  0.00  0.00     0.066 H 
ATOM     37  H   LIG d   1       5.054   1.359  -2.209  0.00  0.00     0.075 H 
ATOM     38  H   LIG d   1       3.936   0.854  -3.504  0.00  0.00     0.075 H 
ENDROOT
BRANCH  11  39
ATOM     39  O   LIG d   1      10.347   1.652  -7.484  0.00  0.00    -0.460 OA
BRANCH  39  40
ATOM     40  C   LIG d   1      10.427   2.700  -8.319  0.00  0.00     0.304 C 
ATOM     41  O   LIG d   1      11.447   2.905  -8.934  0.00  0.00    -0.251 OA
BRANCH  40  42
ATOM     42  C   LIG d   1       9.246   3.621  -8.489  0.00  0.00     0.033 C 
ATOM     43  H   LIG d   1       9.261   4.380  -7.707  0.00  0.00     0.034 H 
ATOM     44  H   LIG d   1       9.300   4.104  -9.465  0.00  0.00     0.034 H 
ATOM     45  H   LIG d   1       8.324   3.045  -8.419  0.00  0.00     0.034 H 
ENDBRANCH  40  42
ENDBRANCH  39  40
ENDBRANCH  11  39
BRANCH  20  46
ATOM     46  O   LIG d   1       6.545   0.829  -6.451  0.00  0.00    -0.370 OA
BRANCH  46  47
ATOM     47  C   LIG d   1       5.999   0.543  -7.741  0.00  0.00     0.038 C 
ATOM     48  H   LIG d   1       6.615  -0.208  -8.237  0.00  0.00     0.052 H 
ATOM     49  H   LIG d   1       4.983   0.164  -7.630  0.00  0.00     0.052 H 
ATOM     50  H   LIG d   1       5.984   1.454  -8.338  0.00  0.00     0.052 H 
ENDBRANCH  46  47
ENDBRANCH  20  46
BRANCH  28  51
ATOM     51  O   LIG d   1       7.046   2.335  -3.389  0.00  0.00    -0.510 OA
ATOM     52  H   LIG d   1       7.065   2.351  -2.422  0.00  0.00     0.292 HD
ENDBRANCH  28  51
BRANCH   1  53
ATOM     53  C   LIG d   1      12.244  -2.432  -6.014  0.00  0.00    -0.039 C 
ATOM     54  H   LIG d   1      12.851  -3.040  -5.345  0.00  0.00     0.028 H 
ATOM     55  H   LIG d   1      11.300  -2.939  -6.210  0.00  0.00     0.028 H 
ATOM     56  H   LIG d   1      12.777  -2.283  -6.953  0.00  0.00     0.028 H 
ENDBRANCH   1  53
BRANCH  22  57
ATOM     57  C   LIG d   1       7.679  -2.815  -7.348  0.00  0.00    -0.039 C 
ATOM     58  H   LIG d   1       8.510  -3.449  -7.041  0.00  0.00     0.028 H 
ATOM     59  H   LIG d   1       7.108  -3.316  -8.129  0.00  0.00     0.028 H 
ATOM     60  H   LIG d   1       8.066  -1.870  -7.730  0.00  0.00     0.028 H 
ENDBRANCH  22  57
BRANCH   3  61
ATOM     61  O   LIG d   1      13.582   1.206  -3.048  0.00  0.00    -0.506 OA
ATOM     62  H   LIG d   1      14.270   0.585  -2.775  0.00  0.00     0.292 HD
ENDBRANCH   3  61
BRANCH  24  63
ATOM     63  O   LIG d   1       4.371  -4.361  -4.102  0.00  0.00    -0.506 OA
ATOM     64  H   LIG d   1       4.312  -5.124  -4.693  0.00  0.00     0.292 HD
ENDBRANCH  24  63
TORSDOF 10
ENDMDL
MODEL 7
REMARK VINA RESULT:      -6.0      2.406      7.062
REMARK  10 active torsions:
REMARK  status: ('A' for Active; 'I' for Inactive)
REMARK    1  A    between atoms: C_1  and  C_2 
REMARK    2  A    between atoms: C_4  and  O_43 
REMARK    3  A    between atoms: C_12  and  O_39 
REMARK    4  A    between atoms: C_21  and  O_37 
REMARK    5  A    between atoms: C_23  and  C_36 
REMARK    6  A    between atoms: C_25  and  O_35 
REMARK    7  A    between atoms: C_29  and  O_30 
REMARK    8  A    between atoms: O_37  and  C_38 
REMARK    9  A    between atoms: O_39  and  C_40 
REMARK   10  A    between atoms: C_40  and  C_42 
ROOT
ATOM      1  C   LIG d   1       9.153  -0.514  -6.533  0.00  0.00    -0.036 A 
ATOM      2  C   LIG d   1      10.009  -1.489  -6.071  0.00  0.00    -0.016 A 
ATOM      3  C   LIG d   1       9.522  -2.657  -5.487  0.00  0.00     0.131 A 
ATOM      4  C   LIG d   1       8.137  -2.852  -5.393  0.00  0.00     0.105 A 
ATOM      5  C   LIG d   1       7.282  -1.860  -5.836  0.00  0.00    -0.005 A 
ATOM      6  C   LIG d   1       7.769  -0.672  -6.392  0.00  0.00     0.026 A 
ATOM      7  C   LIG d   1       6.826   0.394  -6.782  0.00  0.00     0.173 C 
ATOM      8  O   LIG d   1       7.231   1.405  -7.315  0.00  0.00    -0.291 OA
ATOM      9  C   LIG d   1       5.356   0.212  -6.510  0.00  0.00     0.094 C 
ATOM     10  H   LIG d   1       4.844   1.168  -6.401  0.00  0.00     0.045 H 
ATOM     11  C   LIG d   1       5.273  -0.662  -5.205  0.00  0.00     0.129 C 
ATOM     12  H   LIG d   1       4.248  -0.734  -4.841  0.00  0.00     0.075 H 
ATOM     13  C   LIG d   1       5.771  -2.033  -5.778  0.00  0.00     0.082 C 
ATOM     14  C   LIG d   1       5.363  -3.193  -4.917  0.00  0.00     0.107 C 
ATOM     15  O   LIG d   1       6.235  -4.315  -5.111  0.00  0.00    -0.460 OA
ATOM     16  C   LIG d   1       7.550  -4.093  -4.844  0.00  0.00     0.343 C 
ATOM     17  O   LIG d   1       8.209  -4.874  -4.187  0.00  0.00    -0.245 OA
ATOM     18  C   LIG d   1       5.329  -2.095  -7.232  0.00  0.00     0.067 C 
ATOM     19  H   LIG d   1       6.210  -2.179  -7.869  0.00  0.00     0.042 H 
ATOM     20  C   LIG d   1       4.650  -0.692  -7.473  0.00  0.00     0.119 C 
ATOM     21  C   LIG d   1       4.510  -0.492  -8.920  0.00  0.00    -0.003 A 
ATOM     22  C   LIG d   1       4.829   0.628  -9.642  0.00  0.00    -0.040 A 
ATOM     23  C   LIG d   1       4.623   0.665 -11.014  0.00  0.00    -0.016 A 
ATOM     24  C   LIG d   1       4.077  -0.421 -11.688  0.00  0.00     0.132 A 
ATOM     25  C   LIG d   1       3.743  -1.574 -10.975  0.00  0.00     0.108 A 
ATOM     26  C   LIG d   1       3.994  -1.617  -9.589  0.00  0.00     0.008 A 
ATOM     27  C   LIG d   1       3.725  -2.870  -8.855  0.00  0.00     0.036 C 
ATOM     28  C   LIG d   1       4.327  -3.129  -7.649  0.00  0.00     0.108 C 
ATOM     29  C   LIG d   1       2.793  -3.861  -9.509  0.00  0.00     0.121 C 
ATOM     30  O   LIG d   1       3.125  -3.925 -10.906  0.00  0.00    -0.456 OA
ATOM     31  C   LIG d   1       3.132  -2.757 -11.597  0.00  0.00     0.344 C 
ATOM     32  O   LIG d   1       2.643  -2.692 -12.708  0.00  0.00    -0.245 OA
ATOM     33  H   LIG d   1      11.076  -1.346  -6.162  0.00  0.00     0.066 H 
ATOM     34  H   LIG d   1       5.398  -2.891  -3.870  0.00  0.00     0.071 H 
ATOM     35  H   LIG d   1       4.344  -3.484  -5.170  0.00  0.00     0.071 H 
ATOM     36  H   LIG d   1       4.891   1.552 -11.567  0.00  0.00     0.066 H 
ATOM     37  H   LIG d   1       2.922  -4.843  -9.054  0.00  0.00     0.075 H 
ATOM     38  H   LIG d   1       1.762  -3.531  -9.388  0.00  0.00     0.075 H 
ENDROOT
BRANCH  11  39
ATOM     39  O   LIG d   1       6.146  -0.166  -4.190  0.00  0.00    -0.460 OA
BRANCH  39  40
ATOM     40  C   LIG d   1       5.577   0.287  -3.062  0.00  0.00     0.304 C 
ATOM     41  O   LIG d   1       5.793   1.415  -2.687  0.00  0.00    -0.251 OA
BRANCH  40  42
ATOM     42  C   LIG d   1       4.668  -0.611  -2.263  0.00  0.00     0.033 C 
ATOM     43  H   LIG d   1       5.187  -0.947  -1.364  0.00  0.00     0.034 H 
ATOM     44  H   LIG d   1       3.770  -0.062  -1.981  0.00  0.00     0.034 H 
ATOM     45  H   LIG d   1       4.391  -1.476  -2.866  0.00  0.00     0.034 H 
ENDBRANCH  40  42
ENDBRANCH  39  40
ENDBRANCH  11  39
BRANCH  20  46
ATOM     46  O   LIG d   1       3.319  -0.841  -6.974  0.00  0.00    -0.370 OA
BRANCH  46  47
ATOM     47  C   LIG d   1       2.593   0.387  -6.883  0.00  0.00     0.038 C 
ATOM     48  H   LIG d   1       3.033   1.120  -7.557  0.00  0.00     0.052 H 
ATOM     49  H   LIG d   1       1.553   0.215  -7.161  0.00  0.00     0.052 H 
ATOM     50  H   LIG d   1       2.639   0.759  -5.859  0.00  0.00     0.052 H 
ENDBRANCH  46  47
ENDBRANCH  20  46
BRANCH  28  51
ATOM     51  O   LIG d   1       4.037  -4.213  -6.892  0.00  0.00    -0.510 OA
ATOM     52  H   LIG d   1       3.113  -4.494  -6.944  0.00  0.00     0.292 HD
ENDBRANCH  28  51
BRANCH   1  53
ATOM     53  C   LIG d   1       9.707   0.727  -7.185  0.00  0.00    -0.039 C 
ATOM     54  H   LIG d   1      10.509   1.133  -6.570  0.00  0.00     0.028 H 
ATOM     55  H   LIG d   1      10.096   0.477  -8.171  0.00  0.00     0.028 H 
ATOM     56  H   LIG d   1       8.914   1.469  -7.284  0.00  0.00     0.028 H 
ENDBRANCH   1  53
BRANCH  22  57
ATOM     57  C   LIG d   1       5.409   1.830  -8.941  0.00  0.00    -0.039 C 
ATOM     58  H   LIG d   1       5.859   1.518  -7.998  0.00  0.00     0.028 H 
ATOM     59  H   LIG d   1       6.170   2.287  -9.573  0.00  0.00     0.028 H 
ATOM     60  H   LIG d   1       4.618   2.553  -8.743  0.00  0.00     0.028 H 
ENDBRANCH  22  57
BRANCH   3  61
ATOM     61  O   LIG d   1      10.378  -3.595  -5.016  0.00  0.00    -0.506 OA
ATOM     62  H   LIG d   1      10.156  -4.498  -5.279  0.00  0.00     0.292 HD
ENDBRANCH   3  61
BRANCH  24  63
ATOM     63  O   LIG d   1       3.872  -0.362 -13.028  0.00  0.00    -0.506 OA
ATOM     64  H   LIG d   1       3.154  -0.929 -13.341  0.00  0.00     0.292 HD
ENDBRANCH  24  63
TORSDOF 10
ENDMDL
MODEL 8
REMARK VINA RESULT:      -6.0      2.917      6.254
REMARK  10 active torsions:
REMARK  status: ('A' for Active; 'I' for Inactive)
REMARK    1  A    between atoms: C_1  and  C_2 
REMARK    2  A    between atoms: C_4  and  O_43 
REMARK    3  A    between atoms: C_12  and  O_39 
REMARK    4  A    between atoms: C_21  and  O_37 
REMARK    5  A    between atoms: C_23  and  C_36 
REMARK    6  A    between atoms: C_25  and  O_35 
REMARK    7  A    between atoms: C_29  and  O_30 
REMARK    8  A    between atoms: O_37  and  C_38 
REMARK    9  A    between atoms: O_39  and  C_40 
REMARK   10  A    between atoms: C_40  and  C_42 
ROOT
ATOM      1  C   LIG d   1       8.707   0.657  -6.794  0.00  0.00    -0.036 A 
ATOM      2  C   LIG d   1       8.971   1.289  -5.599  0.00  0.00    -0.016 A 
ATOM      3  C   LIG d   1       8.037   1.294  -4.565  0.00  0.00     0.131 A 
ATOM      4  C   LIG d   1       6.819   0.620  -4.736  0.00  0.00     0.105 A 
ATOM      5  C   LIG d   1       6.548   0.007  -5.945  0.00  0.00    -0.005 A 
ATOM      6  C   LIG d   1       7.471   0.030  -6.997  0.00  0.00     0.026 A 
ATOM      7  C   LIG d   1       7.113  -0.569  -8.297  0.00  0.00     0.173 C 
ATOM      8  O   LIG d   1       7.923  -0.605  -9.199  0.00  0.00    -0.291 OA
ATOM      9  C   LIG d   1       5.731  -1.136  -8.492  0.00  0.00     0.094 C 
ATOM     10  H   LIG d   1       5.431  -1.119  -9.539  0.00  0.00     0.045 H 
ATOM     11  C   LIG d   1       4.786  -0.264  -7.586  0.00  0.00     0.129 C 
ATOM     12  H   LIG d   1       3.737  -0.502  -7.762  0.00  0.00     0.075 H 
ATOM     13  C   LIG d   1       5.252  -0.756  -6.173  0.00  0.00     0.082 C 
ATOM     14  C   LIG d   1       4.232  -0.479  -5.107  0.00  0.00     0.107 C 
ATOM     15  O   LIG d   1       4.842  -0.414  -3.810  0.00  0.00    -0.460 OA
ATOM     16  C   LIG d   1       5.809   0.530  -3.660  0.00  0.00     0.343 C 
ATOM     17  O   LIG d   1       5.842   1.263  -2.691  0.00  0.00    -0.245 OA
ATOM     18  C   LIG d   1       5.677  -2.209  -6.325  0.00  0.00     0.067 C 
ATOM     19  H   LIG d   1       6.729  -2.303  -6.055  0.00  0.00     0.042 H 
ATOM     20  C   LIG d   1       5.515  -2.481  -7.871  0.00  0.00     0.119 C 
ATOM     21  C   LIG d   1       6.231  -3.721  -8.196  0.00  0.00    -0.003 A 
ATOM     22  C   LIG d   1       7.095  -3.937  -9.238  0.00  0.00    -0.040 A 
ATOM     23  C   LIG d   1       7.685  -5.179  -9.418  0.00  0.00    -0.016 A 
ATOM     24  C   LIG d   1       7.408  -6.238  -8.562  0.00  0.00     0.132 A 
ATOM     25  C   LIG d   1       6.530  -6.044  -7.493  0.00  0.00     0.108 A 
ATOM     26  C   LIG d   1       5.968  -4.768  -7.293  0.00  0.00     0.008 A 
ATOM     27  C   LIG d   1       5.114  -4.543  -6.110  0.00  0.00     0.036 C 
ATOM     28  C   LIG d   1       4.896  -3.278  -5.622  0.00  0.00     0.108 C 
ATOM     29  C   LIG d   1       4.528  -5.764  -5.445  0.00  0.00     0.121 C 
ATOM     30  O   LIG d   1       5.552  -6.771  -5.389  0.00  0.00    -0.456 OA
ATOM     31  C   LIG d   1       6.153  -7.112  -6.556  0.00  0.00     0.344 C 
ATOM     32  O   LIG d   1       6.375  -8.277  -6.822  0.00  0.00    -0.245 OA
ATOM     33  H   LIG d   1       9.917   1.791  -5.462  0.00  0.00     0.066 H 
ATOM     34  H   LIG d   1       3.743   0.472  -5.320  0.00  0.00     0.071 H 
ATOM     35  H   LIG d   1       3.486  -1.272  -5.112  0.00  0.00     0.071 H 
ATOM     36  H   LIG d   1       8.371  -5.327 -10.238  0.00  0.00     0.066 H 
ATOM     37  H   LIG d   1       4.201  -5.513  -4.436  0.00  0.00     0.075 H 
ATOM     38  H   LIG d   1       3.682  -6.129  -6.026  0.00  0.00     0.075 H 
ENDROOT
BRANCH  11  39
ATOM     39  O   LIG d   1       5.035   1.131  -7.766  0.00  0.00    -0.460 OA
BRANCH  39  40
ATOM     40  C   LIG d   1       4.402   1.738  -8.783  0.00  0.00     0.304 C 
ATOM     41  O   LIG d   1       5.027   2.106  -9.749  0.00  0.00    -0.251 OA
BRANCH  40  42
ATOM     42  C   LIG d   1       2.913   1.959  -8.720  0.00  0.00     0.033 C 
ATOM     43  H   LIG d   1       2.398   1.013  -8.893  0.00  0.00     0.034 H 
ATOM     44  H   LIG d   1       2.643   2.345  -7.737  0.00  0.00     0.034 H 
ATOM     45  H   LIG d   1       2.620   2.677  -9.486  0.00  0.00     0.034 H 
ENDBRANCH  40  42
ENDBRANCH  39  40
ENDBRANCH  11  39
BRANCH  20  46
ATOM     46  O   LIG d   1       4.129  -2.781  -8.045  0.00  0.00    -0.370 OA
BRANCH  46  47
ATOM     47  C   LIG d   1       3.728  -2.898  -9.412  0.00  0.00     0.038 C 
ATOM     48  H   LIG d   1       3.143  -3.809  -9.541  0.00  0.00     0.052 H 
ATOM     49  H   LIG d   1       3.122  -2.036  -9.688  0.00  0.00     0.052 H 
ATOM     50  H   LIG d   1       4.612  -2.940 -10.047  0.00  0.00     0.052 H 
ENDBRANCH  46  47
ENDBRANCH  20  46
BRANCH  28  51
ATOM     51  O   LIG d   1       4.044  -3.011  -4.606  0.00  0.00    -0.510 OA
ATOM     52  H   LIG d   1       3.495  -3.763  -4.344  0.00  0.00     0.292 HD
ENDBRANCH  28  51
BRANCH   1  53
ATOM     53  C   LIG d   1       9.746   0.645  -7.886  0.00  0.00    -0.039 C 
ATOM     54  H   LIG d   1      10.733   0.513  -7.445  0.00  0.00     0.028 H 
ATOM     55  H   LIG d   1       9.541  -0.176  -8.573  0.00  0.00     0.028 H 
ATOM     56  H   LIG d   1       9.713   1.590  -8.428  0.00  0.00     0.028 H 
ENDBRANCH   1  53
BRANCH  22  57
ATOM     57  C   LIG d   1       7.407  -2.815 -10.195  0.00  0.00    -0.039 C 
ATOM     58  H   LIG d   1       6.827  -1.933  -9.922  0.00  0.00     0.028 H 
ATOM     59  H   LIG d   1       8.470  -2.581 -10.146  0.00  0.00     0.028 H 
ATOM     60  H   LIG d   1       7.147  -3.119 -11.209  0.00  0.00     0.028 H 
ENDBRANCH  22  57
BRANCH   3  61
ATOM     61  O   LIG d   1       8.303   1.942  -3.406  0.00  0.00    -0.506 OA
ATOM     62  H   LIG d   1       7.940   1.509  -2.622  0.00  0.00     0.292 HD
ENDBRANCH   3  61
BRANCH  24  63
ATOM     63  O   LIG d   1       7.985  -7.449  -8.761  0.00  0.00    -0.506 OA
ATOM     64  H   LIG d   1       7.929  -8.042  -7.999  0.00  0.00     0.292 HD
ENDBRANCH  24  63
TORSDOF 10
ENDMDL
MODEL 9
REMARK VINA RESULT:      -6.0      2.096      6.909
REMARK  10 active torsions:
REMARK  status: ('A' for Active; 'I' for Inactive)
REMARK    1  A    between atoms: C_1  and  C_2 
REMARK    2  A    between atoms: C_4  and  O_43 
REMARK    3  A    between atoms: C_12  and  O_39 
REMARK    4  A    between atoms: C_21  and  O_37 
REMARK    5  A    between atoms: C_23  and  C_36 
REMARK    6  A    between atoms: C_25  and  O_35 
REMARK    7  A    between atoms: C_29  and  O_30 
REMARK    8  A    between atoms: O_37  and  C_38 
REMARK    9  A    between atoms: O_39  and  C_40 
REMARK   10  A    between atoms: C_40  and  C_42 
ROOT
ATOM      1  C   LIG d   1      10.155  -5.594  -3.862  0.00  0.00    -0.036 A 
ATOM      2  C   LIG d   1      11.383  -5.541  -3.241  0.00  0.00    -0.016 A 
ATOM      3  C   LIG d   1      12.196  -4.415  -3.350  0.00  0.00     0.131 A 
ATOM      4  C   LIG d   1      11.744  -3.309  -4.082  0.00  0.00     0.105 A 
ATOM      5  C   LIG d   1      10.521  -3.375  -4.723  0.00  0.00    -0.005 A 
ATOM      6  C   LIG d   1       9.717  -4.517  -4.644  0.00  0.00     0.026 A 
ATOM      7  C   LIG d   1       8.455  -4.578  -5.405  0.00  0.00     0.173 C 
ATOM      8  O   LIG d   1       7.723  -5.539  -5.302  0.00  0.00    -0.291 OA
ATOM      9  C   LIG d   1       8.085  -3.434  -6.312  0.00  0.00     0.094 C 
ATOM     10  H   LIG d   1       7.436  -3.756  -7.126  0.00  0.00     0.045 H 
ATOM     11  C   LIG d   1       9.451  -2.851  -6.833  0.00  0.00     0.129 C 
ATOM     12  H   LIG d   1       9.292  -2.104  -7.611  0.00  0.00     0.075 H 
ATOM     13  C   LIG d   1       9.974  -2.193  -5.510  0.00  0.00     0.082 C 
ATOM     14  C   LIG d   1      11.020  -1.147  -5.768  0.00  0.00     0.107 C 
ATOM     15  O   LIG d   1      11.857  -0.955  -4.619  0.00  0.00    -0.460 OA
ATOM     16  C   LIG d   1      12.526  -2.058  -4.186  0.00  0.00     0.343 C 
ATOM     17  O   LIG d   1      13.705  -2.018  -3.899  0.00  0.00    -0.245 OA
ATOM     18  C   LIG d   1       8.753  -1.734  -4.727  0.00  0.00     0.067 C 
ATOM     19  H   LIG d   1       8.731  -2.250  -3.768  0.00  0.00     0.042 H 
ATOM     20  C   LIG d   1       7.542  -2.229  -5.608  0.00  0.00     0.119 C 
ATOM     21  C   LIG d   1       6.325  -2.169  -4.789  0.00  0.00    -0.003 A 
ATOM     22  C   LIG d   1       5.360  -3.134  -4.656  0.00  0.00    -0.040 A 
ATOM     23  C   LIG d   1       4.254  -2.916  -3.847  0.00  0.00    -0.016 A 
ATOM     24  C   LIG d   1       4.086  -1.717  -3.166  0.00  0.00     0.132 A 
ATOM     25  C   LIG d   1       5.054  -0.718  -3.285  0.00  0.00     0.108 A 
ATOM     26  C   LIG d   1       6.194  -0.963  -4.075  0.00  0.00     0.008 A 
ATOM     27  C   LIG d   1       7.259   0.059  -4.126  0.00  0.00     0.036 C 
ATOM     28  C   LIG d   1       8.539  -0.268  -4.497  0.00  0.00     0.108 C 
ATOM     29  C   LIG d   1       6.883   1.462  -3.716  0.00  0.00     0.121 C 
ATOM     30  O   LIG d   1       6.052   1.373  -2.546  0.00  0.00    -0.456 OA
ATOM     31  C   LIG d   1       4.945   0.592  -2.629  0.00  0.00     0.344 C 
ATOM     32  O   LIG d   1       3.885   0.970  -2.168  0.00  0.00    -0.245 OA
ATOM     33  H   LIG d   1      11.721  -6.387  -2.662  0.00  0.00     0.066 H 
ATOM     34  H   LIG d   1      11.638  -1.460  -6.611  0.00  0.00     0.071 H 
ATOM     35  H   LIG d   1      10.531  -0.206  -6.015  0.00  0.00     0.071 H 
ATOM     36  H   LIG d   1       3.510  -3.692  -3.746  0.00  0.00     0.066 H 
ATOM     37  H   LIG d   1       7.783   2.032  -3.486  0.00  0.00     0.075 H 
ATOM     38  H   LIG d   1       6.335   1.947  -4.523  0.00  0.00     0.075 H 
ENDROOT
BRANCH  11  39
ATOM     39  O   LIG d   1      10.321  -3.889  -7.285  0.00  0.00    -0.460 OA
BRANCH  39  40
ATOM     40  C   LIG d   1      11.017  -3.656  -8.409  0.00  0.00     0.304 C 
ATOM     41  O   LIG d   1      10.445  -3.600  -9.472  0.00  0.00    -0.251 OA
BRANCH  40  42
ATOM     42  C   LIG d   1      12.510  -3.462  -8.345  0.00  0.00     0.033 C 
ATOM     43  H   LIG d   1      13.006  -4.429  -8.435  0.00  0.00     0.034 H 
ATOM     44  H   LIG d   1      12.828  -2.814  -9.162  0.00  0.00     0.034 H 
ATOM     45  H   LIG d   1      12.776  -3.004  -7.393  0.00  0.00     0.034 H 
ENDBRANCH  40  42
ENDBRANCH  39  40
ENDBRANCH  11  39
BRANCH  20  46
ATOM     46  O   LIG d   1       7.383  -1.222  -6.608  0.00  0.00    -0.370 OA
BRANCH  46  47
ATOM     47  C   LIG d   1       6.424  -1.552  -7.617  0.00  0.00     0.038 C 
ATOM     48  H   LIG d   1       6.449  -0.796  -8.401  0.00  0.00     0.052 H 
ATOM     49  H   LIG d   1       6.666  -2.526  -8.043  0.00  0.00     0.052 H 
ATOM     50  H   LIG d   1       5.429  -1.586  -7.174  0.00  0.00     0.052 H 
ENDBRANCH  46  47
ENDBRANCH  20  46
BRANCH  28  51
ATOM     51  O   LIG d   1       9.524   0.647  -4.656  0.00  0.00    -0.510 OA
ATOM     52  H   LIG d   1      10.359   0.276  -4.971  0.00  0.00     0.292 HD
ENDBRANCH  28  51
BRANCH   1  53
ATOM     53  C   LIG d   1       9.284  -6.814  -3.706  0.00  0.00    -0.039 C 
ATOM     54  H   LIG d   1       8.881  -7.100  -4.677  0.00  0.00     0.028 H 
ATOM     55  H   LIG d   1       9.876  -7.635  -3.302  0.00  0.00     0.028 H 
ATOM     56  H   LIG d   1       8.463  -6.589  -3.025  0.00  0.00     0.028 H 
ENDBRANCH   1  53
BRANCH  22  57
ATOM     57  C   LIG d   1       5.503  -4.440  -5.393  0.00  0.00    -0.039 C 
ATOM     58  H   LIG d   1       5.570  -4.248  -6.463  0.00  0.00     0.028 H 
ATOM     59  H   LIG d   1       6.406  -4.950  -5.057  0.00  0.00     0.028 H 
ATOM     60  H   LIG d   1       4.635  -5.069  -5.191  0.00  0.00     0.028 H 
ENDBRANCH  22  57
BRANCH   3  61
ATOM     61  O   LIG d   1      13.412  -4.390  -2.753  0.00  0.00    -0.506 OA
ATOM     62  H   LIG d   1      13.919  -5.205  -2.860  0.00  0.00     0.292 HD
ENDBRANCH   3  61
BRANCH  24  63
ATOM     63  O   LIG d   1       2.991  -1.519  -2.389  0.00  0.00    -0.506 OA
ATOM     64  H   LIG d   1       2.622  -2.330  -2.015  0.00  0.00     0.292 HD
ENDBRANCH  24  63
TORSDOF 10
ENDMDL
