MODEL 1
REMARK VINA RESULT:      -5.5      0.000      0.000
REMARK  15 active torsions:
REMARK  status: ('A' for Active; 'I' for Inactive)
REMARK    1  A    between atoms: C_1  and  C_2 
REMARK    2  A    between atoms: C_2  and  O_4 
REMARK    3  A    between atoms: O_4  and  C_5 
REMARK    4  A    between atoms: C_5  and  C_6 
REMARK    5  A    between atoms: C_8  and  O_33 
REMARK    6  A    between atoms: C_10  and  O_29 
REMARK    7  A    between atoms: C_12  and  N_21 
REMARK    8  A    between atoms: C_14  and  O_17 
REMARK    9  A    between atoms: O_17  and  C_18 
REMARK   10  A    between atoms: C_18  and  C_20 
REMARK       I    between atoms: N_21  and  C_22 
REMARK   11  A    between atoms: C_22  and  C_24 
REMARK   12  A    between atoms: O_29  and  C_30 
REMARK   13  A    between atoms: C_30  and  C_32 
REMARK   14  A    between atoms: O_33  and  C_34 
REMARK   15  A    between atoms: C_34  and  C_36 
ROOT
ATOM      1  C   LIG d   1       5.592  -0.903  -5.289  0.00  0.00     0.137 C 
ATOM      2  H   LIG d   1       4.771  -0.929  -4.574  0.00  0.00     0.067 H 
ATOM      3  C   LIG d   1       5.988  -2.334  -5.665  0.00  0.00     0.171 C 
ATOM      4  H   LIG d   1       6.836  -2.310  -6.349  0.00  0.00     0.080 H 
ATOM      5  C   LIG d   1       4.801  -3.022  -6.345  0.00  0.00     0.166 C 
ATOM      6  H   LIG d   1       3.969  -3.091  -5.644  0.00  0.00     0.079 H 
ATOM      7  C   LIG d   1       4.376  -2.197  -7.564  0.00  0.00     0.127 C 
ATOM      8  H   LIG d   1       5.191  -2.171  -8.287  0.00  0.00     0.060 H 
ATOM      9  C   LIG d   1       4.043  -0.772  -7.115  0.00  0.00     0.227 C 
ATOM     10  H   LIG d   1       3.201  -0.796  -6.423  0.00  0.00     0.108 H 
ATOM     11  O   LIG d   1       5.179  -0.201  -6.464  0.00  0.00    -0.329 OA
ENDROOT
BRANCH   7  12
ATOM     12  N   LIG d   1       3.195  -2.806  -8.180  0.00  0.00    -0.297 N 
ATOM     13  C   LIG d   1       3.257  -3.268  -9.444  0.00  0.00     0.280 C 
ATOM     14  O   LIG d   1       4.294  -3.181 -10.074  0.00  0.00    -0.267 OA
ATOM     15  H   LIG d   1       2.368  -2.876  -7.678  0.00  0.00     0.150 HD
BRANCH  13  16
ATOM     16  C   LIG d   1       2.074  -3.877 -10.061  0.00  0.00     0.189 A 
ATOM     17  O   LIG d   1       0.998  -3.216 -10.537  0.00  0.00    -0.458 OA
ATOM     18  C   LIG d   1       0.117  -4.096 -11.029  0.00  0.00     0.093 A 
ATOM     19  C   LIG d   1       0.612  -5.344 -10.867  0.00  0.00    -0.023 A 
ATOM     20  H   LIG d   1      -0.835  -3.851 -11.476  0.00  0.00     0.103 H 
ATOM     21  C   LIG d   1       1.865  -5.214 -10.248  0.00  0.00    -0.011 A 
ATOM     22  H   LIG d   1       0.133  -6.267 -11.160  0.00  0.00     0.065 H 
ATOM     23  H   LIG d   1       2.534  -6.015  -9.974  0.00  0.00     0.066 H 
ENDBRANCH  13  16
ENDBRANCH   7  12
BRANCH   5  24
ATOM     24  O   LIG d   1       5.190  -4.354  -6.769  0.00  0.00    -0.456 OA
BRANCH  24  25
ATOM     25  C   LIG d   1       4.480  -5.383  -6.278  0.00  0.00     0.304 C 
ATOM     26  O   LIG d   1       3.273  -5.370  -6.344  0.00  0.00    -0.251 OA
BRANCH  25  27
ATOM     27  C   LIG d   1       5.186  -6.553  -5.645  0.00  0.00     0.033 C 
ATOM     28  H   LIG d   1       5.767  -7.080  -6.402  0.00  0.00     0.034 H 
ATOM     29  H   LIG d   1       5.854  -6.194  -4.861  0.00  0.00     0.034 H 
ATOM     30  H   LIG d   1       4.451  -7.232  -5.214  0.00  0.00     0.034 H 
ENDBRANCH  25  27
ENDBRANCH  24  25
ENDBRANCH   5  24
BRANCH   9  31
ATOM     31  O   LIG d   1       3.694   0.031  -8.273  0.00  0.00    -0.433 OA
BRANCH  31  32
ATOM     32  C   LIG d   1       3.332   1.304  -8.046  0.00  0.00     0.306 C 
ATOM     33  O   LIG d   1       2.779   1.598  -7.014  0.00  0.00    -0.251 OA
BRANCH  32  34
ATOM     34  C   LIG d   1       3.614   2.364  -9.079  0.00  0.00     0.033 C 
ATOM     35  H   LIG d   1       4.668   2.639  -9.038  0.00  0.00     0.034 H 
ATOM     36  H   LIG d   1       3.378   1.976 -10.071  0.00  0.00     0.034 H 
ATOM     37  H   LIG d   1       3.001   3.241  -8.877  0.00  0.00     0.034 H 
ENDBRANCH  32  34
ENDBRANCH  31  32
ENDBRANCH   9  31
BRANCH   3  38
ATOM     38  O   LIG d   1       6.352  -3.067  -4.466  0.00  0.00    -0.455 OA
BRANCH  38  39
ATOM     39  C   LIG d   1       7.582  -3.602  -4.428  0.00  0.00     0.304 C 
ATOM     40  O   LIG d   1       7.948  -4.341  -5.312  0.00  0.00    -0.251 OA
BRANCH  39  41
ATOM     41  C   LIG d   1       8.506  -3.287  -3.280  0.00  0.00     0.033 C 
ATOM     42  H   LIG d   1       8.256  -3.921  -2.429  0.00  0.00     0.034 H 
ATOM     43  H   LIG d   1       9.537  -3.472  -3.582  0.00  0.00     0.034 H 
ATOM     44  H   LIG d   1       8.392  -2.240  -2.998  0.00  0.00     0.034 H 
ENDBRANCH  39  41
ENDBRANCH  38  39
ENDBRANCH   3  38
BRANCH   1  45
ATOM     45  C   LIG d   1       6.792  -0.189  -4.663  0.00  0.00     0.122 C 
ATOM     46  H   LIG d   1       7.704  -0.738  -4.898  0.00  0.00     0.072 H 
ATOM     47  H   LIG d   1       6.863   0.822  -5.064  0.00  0.00     0.072 H 
BRANCH  45  48
ATOM     48  O   LIG d   1       6.621  -0.128  -3.222  0.00  0.00    -0.462 OA
BRANCH  48  49
ATOM     49  C   LIG d   1       5.655   0.678  -2.756  0.00  0.00     0.304 C 
ATOM     50  O   LIG d   1       5.645   1.848  -3.062  0.00  0.00    -0.251 OA
BRANCH  49  51
ATOM     51  C   LIG d   1       4.582   0.126  -1.853  0.00  0.00     0.033 C 
ATOM     52  H   LIG d   1       5.045  -0.362  -0.996  0.00  0.00     0.034 H 
ATOM     53  H   LIG d   1       3.944   0.939  -1.508  0.00  0.00     0.034 H 
ATOM     54  H   LIG d   1       3.982  -0.598  -2.404  0.00  0.00     0.034 H 
ENDBRANCH  49  51
ENDBRANCH  48  49
ENDBRANCH  45  48
ENDBRANCH   1  45
TORSDOF 15
ENDMDL
MODEL 2
REMARK VINA RESULT:      -5.4      1.294      1.605
REMARK  15 active torsions:
REMARK  status: ('A' for Active; 'I' for Inactive)
REMARK    1  A    between atoms: C_1  and  C_2 
REMARK    2  A    between atoms: C_2  and  O_4 
REMARK    3  A    between atoms: O_4  and  C_5 
REMARK    4  A    between atoms: C_5  and  C_6 
REMARK    5  A    between atoms: C_8  and  O_33 
REMARK    6  A    between atoms: C_10  and  O_29 
REMARK    7  A    between atoms: C_12  and  N_21 
REMARK    8  A    between atoms: C_14  and  O_17 
REMARK    9  A    between atoms: O_17  and  C_18 
REMARK   10  A    between atoms: C_18  and  C_20 
REMARK       I    between atoms: N_21  and  C_22 
REMARK   11  A    between atoms: C_22  and  C_24 
REMARK   12  A    between atoms: O_29  and  C_30 
REMARK   13  A    between atoms: C_30  and  C_32 
REMARK   14  A    between atoms: O_33  and  C_34 
REMARK   15  A    between atoms: C_34  and  C_36 
ROOT
ATOM      1  C   LIG d   1       5.567  -1.093  -5.153  0.00  0.00     0.137 C 
ATOM      2  H   LIG d   1       4.647  -1.114  -4.569  0.00  0.00     0.067 H 
ATOM      3  C   LIG d   1       5.771  -2.449  -5.834  0.00  0.00     0.171 C 
ATOM      4  H   LIG d   1       6.711  -2.443  -6.385  0.00  0.00     0.080 H 
ATOM      5  C   LIG d   1       4.613  -2.705  -6.802  0.00  0.00     0.166 C 
ATOM      6  H   LIG d   1       3.678  -2.762  -6.245  0.00  0.00     0.079 H 
ATOM      7  C   LIG d   1       4.539  -1.554  -7.810  0.00  0.00     0.127 C 
ATOM      8  H   LIG d   1       5.454  -1.530  -8.401  0.00  0.00     0.060 H 
ATOM      9  C   LIG d   1       4.382  -0.233  -7.053  0.00  0.00     0.227 C 
ATOM     10  H   LIG d   1       3.446  -0.243  -6.494  0.00  0.00     0.108 H 
ATOM     11  O   LIG d   1       5.476  -0.071  -6.148  0.00  0.00    -0.329 OA
ENDROOT
BRANCH   7  12
ATOM     12  N   LIG d   1       3.389  -1.751  -8.695  0.00  0.00    -0.297 N 
ATOM     13  C   LIG d   1       3.569  -1.818 -10.030  0.00  0.00     0.280 C 
ATOM     14  O   LIG d   1       4.688  -1.715 -10.498  0.00  0.00    -0.267 OA
ATOM     15  H   LIG d   1       2.498  -1.833  -8.322  0.00  0.00     0.150 HD
BRANCH  13  16
ATOM     16  C   LIG d   1       2.418  -2.015 -10.916  0.00  0.00     0.189 A 
ATOM     17  O   LIG d   1       1.964  -3.199 -11.376  0.00  0.00    -0.458 OA
ATOM     18  C   LIG d   1       0.896  -2.994 -12.156  0.00  0.00     0.093 A 
ATOM     19  C   LIG d   1       0.650  -1.665 -12.217  0.00  0.00    -0.023 A 
ATOM     20  H   LIG d   1       0.327  -3.762 -12.659  0.00  0.00     0.103 H 
ATOM     21  C   LIG d   1       1.620  -1.030 -11.425  0.00  0.00    -0.011 A 
ATOM     22  H   LIG d   1      -0.143  -1.185 -12.770  0.00  0.00     0.065 H 
ATOM     23  H   LIG d   1       1.716   0.031 -11.253  0.00  0.00     0.066 H 
ENDBRANCH  13  16
ENDBRANCH   7  12
BRANCH   5  24
ATOM     24  O   LIG d   1       4.835  -3.955  -7.505  0.00  0.00    -0.456 OA
BRANCH  24  25
ATOM     25  C   LIG d   1       3.848  -4.864  -7.461  0.00  0.00     0.304 C 
ATOM     26  O   LIG d   1       3.422  -5.243  -6.395  0.00  0.00    -0.251 OA
BRANCH  25  27
ATOM     27  C   LIG d   1       3.270  -5.414  -8.740  0.00  0.00     0.033 C 
ATOM     28  H   LIG d   1       3.945  -6.166  -9.150  0.00  0.00     0.034 H 
ATOM     29  H   LIG d   1       2.301  -5.869  -8.535  0.00  0.00     0.034 H 
ATOM     30  H   LIG d   1       3.148  -4.605  -9.460  0.00  0.00     0.034 H 
ENDBRANCH  25  27
ENDBRANCH  24  25
ENDBRANCH   5  24
BRANCH   9  31
ATOM     31  O   LIG d   1       4.369   0.869  -7.999  0.00  0.00    -0.433 OA
BRANCH  31  32
ATOM     32  C   LIG d   1       3.239   1.587  -8.082  0.00  0.00     0.306 C 
ATOM     33  O   LIG d   1       2.664   1.927  -7.076  0.00  0.00    -0.251 OA
BRANCH  32  34
ATOM     34  C   LIG d   1       2.685   1.967  -9.432  0.00  0.00     0.033 C 
ATOM     35  H   LIG d   1       3.452   2.486 -10.006  0.00  0.00     0.034 H 
ATOM     36  H   LIG d   1       2.379   1.066  -9.965  0.00  0.00     0.034 H 
ATOM     37  H   LIG d   1       1.823   2.621  -9.300  0.00  0.00     0.034 H 
ENDBRANCH  32  34
ENDBRANCH  31  32
ENDBRANCH   9  31
BRANCH   3  38
ATOM     38  O   LIG d   1       5.804  -3.496  -4.829  0.00  0.00    -0.455 OA
BRANCH  38  39
ATOM     39  C   LIG d   1       6.822  -4.369  -4.892  0.00  0.00     0.304 C 
ATOM     40  O   LIG d   1       6.660  -5.450  -5.406  0.00  0.00    -0.251 OA
BRANCH  39  41
ATOM     41  C   LIG d   1       8.165  -4.003  -4.314  0.00  0.00     0.033 C 
ATOM     42  H   LIG d   1       8.824  -4.871  -4.349  0.00  0.00     0.034 H 
ATOM     43  H   LIG d   1       8.602  -3.191  -4.896  0.00  0.00     0.034 H 
ATOM     44  H   LIG d   1       8.041  -3.683  -3.280  0.00  0.00     0.034 H 
ENDBRANCH  39  41
ENDBRANCH  38  39
ENDBRANCH   3  38
BRANCH   1  45
ATOM     45  C   LIG d   1       6.750  -0.802  -4.229  0.00  0.00     0.122 C 
ATOM     46  H   LIG d   1       7.411  -1.669  -4.201  0.00  0.00     0.072 H 
ATOM     47  H   LIG d   1       7.301   0.061  -4.604  0.00  0.00     0.072 H 
BRANCH  45  48
ATOM     48  O   LIG d   1       6.262  -0.521  -2.890  0.00  0.00    -0.462 OA
BRANCH  48  49
ATOM     49  C   LIG d   1       5.700   0.680  -2.686  0.00  0.00     0.304 C 
ATOM     50  O   LIG d   1       6.183   1.666  -3.191  0.00  0.00    -0.251 OA
BRANCH  49  51
ATOM     51  C   LIG d   1       4.468   0.800  -1.827  0.00  0.00     0.033 C 
ATOM     52  H   LIG d   1       3.758   0.020  -2.100  0.00  0.00     0.034 H 
ATOM     53  H   LIG d   1       4.743   0.691  -0.779  0.00  0.00     0.034 H 
ATOM     54  H   LIG d   1       4.012   1.778  -1.982  0.00  0.00     0.034 H 
ENDBRANCH  49  51
ENDBRANCH  48  49
ENDBRANCH  45  48
ENDBRANCH   1  45
TORSDOF 15
ENDMDL
MODEL 3
REMARK VINA RESULT:      -5.1      2.248      6.215
REMARK  15 active torsions:
REMARK  status: ('A' for Active; 'I' for Inactive)
REMARK    1  A    between atoms: C_1  and  C_2 
REMARK    2  A    between atoms: C_2  and  O_4 
REMARK    3  A    between atoms: O_4  and  C_5 
REMARK    4  A    between atoms: C_5  and  C_6 
REMARK    5  A    between atoms: C_8  and  O_33 
REMARK    6  A    between atoms: C_10  and  O_29 
REMARK    7  A    between atoms: C_12  and  N_21 
REMARK    8  A    between atoms: C_14  and  O_17 
REMARK    9  A    between atoms: O_17  and  C_18 
REMARK   10  A    between atoms: C_18  and  C_20 
REMARK       I    between atoms: N_21  and  C_22 
REMARK   11  A    between atoms: C_22  and  C_24 
REMARK   12  A    between atoms: O_29  and  C_30 
REMARK   13  A    between atoms: C_30  and  C_32 
REMARK   14  A    between atoms: O_33  and  C_34 
REMARK   15  A    between atoms: C_34  and  C_36 
ROOT
ATOM      1  C   LIG d   1       4.513  -5.962  -5.795  0.00  0.00     0.137 C 
ATOM      2  H   LIG d   1       3.494  -5.961  -5.410  0.00  0.00     0.067 H 
ATOM      3  C   LIG d   1       4.481  -5.871  -7.324  0.00  0.00     0.171 C 
ATOM      4  H   LIG d   1       5.498  -5.912  -7.713  0.00  0.00     0.080 H 
ATOM      5  C   LIG d   1       3.830  -4.546  -7.735  0.00  0.00     0.166 C 
ATOM      6  H   LIG d   1       2.796  -4.526  -7.389  0.00  0.00     0.079 H 
ATOM      7  C   LIG d   1       4.606  -3.389  -7.099  0.00  0.00     0.127 C 
ATOM      8  H   LIG d   1       5.626  -3.380  -7.484  0.00  0.00     0.060 H 
ATOM      9  C   LIG d   1       4.634  -3.577  -5.580  0.00  0.00     0.227 C 
ATOM     10  H   LIG d   1       3.615  -3.544  -5.191  0.00  0.00     0.108 H 
ATOM     11  O   LIG d   1       5.223  -4.840  -5.268  0.00  0.00    -0.329 OA
ENDROOT
BRANCH   7  12
ATOM     12  N   LIG d   1       3.949  -2.122  -7.425  0.00  0.00    -0.297 N 
ATOM     13  C   LIG d   1       4.618  -1.172  -8.110  0.00  0.00     0.280 C 
ATOM     14  O   LIG d   1       5.767  -1.369  -8.458  0.00  0.00    -0.267 OA
ATOM     15  H   LIG d   1       3.033  -1.965  -7.148  0.00  0.00     0.150 HD
BRANCH  13  16
ATOM     16  C   LIG d   1       3.960   0.097  -8.435  0.00  0.00     0.189 A 
ATOM     17  O   LIG d   1       4.520   1.322  -8.363  0.00  0.00    -0.458 OA
ATOM     18  C   LIG d   1       3.624   2.244  -8.737  0.00  0.00     0.093 A 
ATOM     19  C   LIG d   1       2.465   1.622  -9.050  0.00  0.00    -0.023 A 
ATOM     20  H   LIG d   1       3.796   3.310  -8.778  0.00  0.00     0.103 H 
ATOM     21  C   LIG d   1       2.670   0.247  -8.860  0.00  0.00    -0.011 A 
ATOM     22  H   LIG d   1       1.553   2.095  -9.383  0.00  0.00     0.065 H 
ATOM     23  H   LIG d   1       1.949  -0.540  -9.018  0.00  0.00     0.066 H 
ENDBRANCH  13  16
ENDBRANCH   7  12
BRANCH   5  24
ATOM     24  O   LIG d   1       3.861  -4.418  -9.180  0.00  0.00    -0.456 OA
BRANCH  24  25
ATOM     25  C   LIG d   1       2.685  -4.234  -9.802  0.00  0.00     0.304 C 
ATOM     26  O   LIG d   1       2.159  -3.146  -9.789  0.00  0.00    -0.251 OA
BRANCH  25  27
ATOM     27  C   LIG d   1       2.021  -5.383 -10.515  0.00  0.00     0.033 C 
ATOM     28  H   LIG d   1       0.938  -5.271 -10.455  0.00  0.00     0.034 H 
ATOM     29  H   LIG d   1       2.328  -5.389 -11.561  0.00  0.00     0.034 H 
ATOM     30  H   LIG d   1       2.314  -6.321 -10.044  0.00  0.00     0.034 H 
ENDBRANCH  25  27
ENDBRANCH  24  25
ENDBRANCH   5  24
BRANCH   9  31
ATOM     31  O   LIG d   1       5.416  -2.514  -4.975  0.00  0.00    -0.433 OA
BRANCH  31  32
ATOM     32  C   LIG d   1       4.760  -1.643  -4.193  0.00  0.00     0.306 C 
ATOM     33  O   LIG d   1       4.458  -0.555  -4.621  0.00  0.00    -0.251 OA
BRANCH  32  34
ATOM     34  C   LIG d   1       4.401  -2.022  -2.779  0.00  0.00     0.033 C 
ATOM     35  H   LIG d   1       3.998  -1.151  -2.261  0.00  0.00     0.034 H 
ATOM     36  H   LIG d   1       3.653  -2.814  -2.794  0.00  0.00     0.034 H 
ATOM     37  H   LIG d   1       5.292  -2.373  -2.259  0.00  0.00     0.034 H 
ENDBRANCH  32  34
ENDBRANCH  31  32
ENDBRANCH   9  31
BRANCH   3  38
ATOM     38  O   LIG d   1       3.710  -6.978  -7.860  0.00  0.00    -0.455 OA
BRANCH  38  39
ATOM     39  C   LIG d   1       4.329  -7.784  -8.736  0.00  0.00     0.304 C 
ATOM     40  O   LIG d   1       3.756  -8.752  -9.177  0.00  0.00    -0.251 OA
BRANCH  39  41
ATOM     41  C   LIG d   1       5.743  -7.486  -9.164  0.00  0.00     0.033 C 
ATOM     42  H   LIG d   1       5.737  -6.688  -9.907  0.00  0.00     0.034 H 
ATOM     43  H   LIG d   1       6.326  -7.172  -8.298  0.00  0.00     0.034 H 
ATOM     44  H   LIG d   1       6.189  -8.381  -9.596  0.00  0.00     0.034 H 
ENDBRANCH  39  41
ENDBRANCH  38  39
ENDBRANCH   3  38
BRANCH   1  45
ATOM     45  C   LIG d   1       5.215  -7.255  -5.376  0.00  0.00     0.122 C 
ATOM     46  H   LIG d   1       5.743  -7.676  -6.232  0.00  0.00     0.072 H 
ATOM     47  H   LIG d   1       5.929  -7.038  -4.581  0.00  0.00     0.072 H 
BRANCH  45  48
ATOM     48  O   LIG d   1       4.231  -8.208  -4.897  0.00  0.00    -0.462 OA
BRANCH  48  49
ATOM     49  C   LIG d   1       4.558  -9.508  -4.961  0.00  0.00     0.304 C 
ATOM     50  O   LIG d   1       4.199 -10.175  -5.902  0.00  0.00    -0.251 OA
BRANCH  49  51
ATOM     51  C   LIG d   1       5.376 -10.135  -3.861  0.00  0.00     0.033 C 
ATOM     52  H   LIG d   1       4.746 -10.808  -3.280  0.00  0.00     0.034 H 
ATOM     53  H   LIG d   1       6.202 -10.695  -4.296  0.00  0.00     0.034 H 
ATOM     54  H   LIG d   1       5.769  -9.353  -3.211  0.00  0.00     0.034 H 
ENDBRANCH  49  51
ENDBRANCH  48  49
ENDBRANCH  45  48
ENDBRANCH   1  45
TORSDOF 15
ENDMDL
MODEL 4
REMARK VINA RESULT:      -5.1      2.036      5.086
REMARK  15 active torsions:
REMARK  status: ('A' for Active; 'I' for Inactive)
REMARK    1  A    between atoms: C_1  and  C_2 
REMARK    2  A    between atoms: C_2  and  O_4 
REMARK    3  A    between atoms: O_4  and  C_5 
REMARK    4  A    between atoms: C_5  and  C_6 
REMARK    5  A    between atoms: C_8  and  O_33 
REMARK    6  A    between atoms: C_10  and  O_29 
REMARK    7  A    between atoms: C_12  and  N_21 
REMARK    8  A    between atoms: C_14  and  O_17 
REMARK    9  A    between atoms: O_17  and  C_18 
REMARK   10  A    between atoms: C_18  and  C_20 
REMARK       I    between atoms: N_21  and  C_22 
REMARK   11  A    between atoms: C_22  and  C_24 
REMARK   12  A    between atoms: O_29  and  C_30 
REMARK   13  A    between atoms: C_30  and  C_32 
REMARK   14  A    between atoms: O_33  and  C_34 
REMARK   15  A    between atoms: C_34  and  C_36 
ROOT
ATOM      1  C   LIG d   1       6.209  -0.943  -5.230  0.00  0.00     0.137 C 
ATOM      2  H   LIG d   1       6.970  -0.733  -5.982  0.00  0.00     0.067 H 
ATOM      3  C   LIG d   1       4.835  -1.020  -5.902  0.00  0.00     0.171 C 
ATOM      4  H   LIG d   1       4.069  -1.190  -5.146  0.00  0.00     0.080 H 
ATOM      5  C   LIG d   1       4.830  -2.179  -6.904  0.00  0.00     0.166 C 
ATOM      6  H   LIG d   1       5.562  -1.985  -7.688  0.00  0.00     0.079 H 
ATOM      7  C   LIG d   1       5.194  -3.474  -6.172  0.00  0.00     0.127 C 
ATOM      8  H   LIG d   1       4.435  -3.694  -5.422  0.00  0.00     0.060 H 
ATOM      9  C   LIG d   1       6.554  -3.302  -5.490  0.00  0.00     0.227 C 
ATOM     10  H   LIG d   1       7.319  -3.122  -6.246  0.00  0.00     0.108 H 
ATOM     11  O   LIG d   1       6.498  -2.190  -4.595  0.00  0.00    -0.329 OA
ENDROOT
BRANCH   7  12
ATOM     12  N   LIG d   1       5.265  -4.576  -7.135  0.00  0.00    -0.297 N 
ATOM     13  C   LIG d   1       4.356  -5.571  -7.088  0.00  0.00     0.280 C 
ATOM     14  O   LIG d   1       3.477  -5.553  -6.247  0.00  0.00    -0.267 OA
ATOM     15  H   LIG d   1       5.965  -4.591  -7.805  0.00  0.00     0.150 HD
BRANCH  13  16
ATOM     16  C   LIG d   1       4.427  -6.674  -8.051  0.00  0.00     0.189 A 
ATOM     17  O   LIG d   1       3.391  -7.430  -8.469  0.00  0.00    -0.458 OA
ATOM     18  C   LIG d   1       3.830  -8.339  -9.350  0.00  0.00     0.093 A 
ATOM     19  C   LIG d   1       5.164  -8.185  -9.505  0.00  0.00    -0.023 A 
ATOM     20  H   LIG d   1       3.219  -9.076  -9.850  0.00  0.00     0.103 H 
ATOM     21  C   LIG d   1       5.556  -7.121  -8.677  0.00  0.00    -0.011 A 
ATOM     22  H   LIG d   1       5.806  -8.770 -10.146  0.00  0.00     0.065 H 
ATOM     23  H   LIG d   1       6.556  -6.732  -8.559  0.00  0.00     0.066 H 
ENDBRANCH  13  16
ENDBRANCH   7  12
BRANCH   5  24
ATOM     24  O   LIG d   1       3.510  -2.306  -7.492  0.00  0.00    -0.456 OA
BRANCH  24  25
ATOM     25  C   LIG d   1       3.424  -2.199  -8.828  0.00  0.00     0.304 C 
ATOM     26  O   LIG d   1       4.154  -2.855  -9.534  0.00  0.00    -0.251 OA
BRANCH  25  27
ATOM     27  C   LIG d   1       2.419  -1.263  -9.448  0.00  0.00     0.033 C 
ATOM     28  H   LIG d   1       2.647  -1.134 -10.506  0.00  0.00     0.034 H 
ATOM     29  H   LIG d   1       1.418  -1.682  -9.341  0.00  0.00     0.034 H 
ATOM     30  H   LIG d   1       2.465  -0.297  -8.946  0.00  0.00     0.034 H 
ENDBRANCH  25  27
ENDBRANCH  24  25
ENDBRANCH   5  24
BRANCH   9  31
ATOM     31  O   LIG d   1       6.880  -4.506  -4.748  0.00  0.00    -0.433 OA
BRANCH  31  32
ATOM     32  C   LIG d   1       7.987  -5.169  -5.117  0.00  0.00     0.306 C 
ATOM     33  O   LIG d   1       8.131  -5.510  -6.267  0.00  0.00    -0.251 OA
BRANCH  32  34
ATOM     34  C   LIG d   1       9.048  -5.490  -4.097  0.00  0.00     0.033 C 
ATOM     35  H   LIG d   1       9.898  -5.960  -4.593  0.00  0.00     0.034 H 
ATOM     36  H   LIG d   1       9.375  -4.570  -3.611  0.00  0.00     0.034 H 
ATOM     37  H   LIG d   1       8.641  -6.171  -3.350  0.00  0.00     0.034 H 
ENDBRANCH  32  34
ENDBRANCH  31  32
ENDBRANCH   9  31
BRANCH   3  38
ATOM     38  O   LIG d   1       4.564   0.225  -6.597  0.00  0.00    -0.455 OA
BRANCH  38  39
ATOM     39  C   LIG d   1       3.341   0.756  -6.442  0.00  0.00     0.304 C 
ATOM     40  O   LIG d   1       2.900   1.511  -7.275  0.00  0.00    -0.251 OA
BRANCH  39  41
ATOM     41  C   LIG d   1       2.522   0.415  -5.224  0.00  0.00     0.033 C 
ATOM     42  H   LIG d   1       2.524   1.261  -4.536  0.00  0.00     0.034 H 
ATOM     43  H   LIG d   1       1.497   0.195  -5.525  0.00  0.00     0.034 H 
ATOM     44  H   LIG d   1       2.950  -0.456  -4.729  0.00  0.00     0.034 H 
ENDBRANCH  39  41
ENDBRANCH  38  39
ENDBRANCH   3  38
BRANCH   1  45
ATOM     45  C   LIG d   1       6.204   0.174  -4.184  0.00  0.00     0.122 C 
ATOM     46  H   LIG d   1       7.137   0.734  -4.245  0.00  0.00     0.072 H 
ATOM     47  H   LIG d   1       5.365   0.845  -4.373  0.00  0.00     0.072 H 
BRANCH  45  48
ATOM     48  O   LIG d   1       6.071  -0.405  -2.859  0.00  0.00    -0.462 OA
BRANCH  48  49
ATOM     49  C   LIG d   1       4.884  -0.269  -2.250  0.00  0.00     0.304 C 
ATOM     50  O   LIG d   1       4.236  -1.248  -1.964  0.00  0.00    -0.251 OA
BRANCH  49  51
ATOM     51  C   LIG d   1       4.357   1.105  -1.921  0.00  0.00     0.033 C 
ATOM     52  H   LIG d   1       4.804   1.836  -2.594  0.00  0.00     0.034 H 
ATOM     53  H   LIG d   1       3.274   1.117  -2.039  0.00  0.00     0.034 H 
ATOM     54  H   LIG d   1       4.613   1.355  -0.892  0.00  0.00     0.034 H 
ENDBRANCH  49  51
ENDBRANCH  48  49
ENDBRANCH  45  48
ENDBRANCH   1  45
TORSDOF 15
ENDMDL
MODEL 5
REMARK VINA RESULT:      -5.0      4.256      6.929
REMARK  15 active torsions:
REMARK  status: ('A' for Active; 'I' for Inactive)
REMARK    1  A    between atoms: C_1  and  C_2 
REMARK    2  A    between atoms: C_2  and  O_4 
REMARK    3  A    between atoms: O_4  and  C_5 
REMARK    4  A    between atoms: C_5  and  C_6 
REMARK    5  A    between atoms: C_8  and  O_33 
REMARK    6  A    between atoms: C_10  and  O_29 
REMARK    7  A    between atoms: C_12  and  N_21 
REMARK    8  A    between atoms: C_14  and  O_17 
REMARK    9  A    between atoms: O_17  and  C_18 
REMARK   10  A    between atoms: C_18  and  C_20 
REMARK       I    between atoms: N_21  and  C_22 
REMARK   11  A    between atoms: C_22  and  C_24 
REMARK   12  A    between atoms: O_29  and  C_30 
REMARK   13  A    between atoms: C_30  and  C_32 
REMARK   14  A    between atoms: O_33  and  C_34 
REMARK   15  A    between atoms: C_34  and  C_36 
ROOT
ATOM      1  C   LIG d   1       8.482   2.402  -8.612  0.00  0.00     0.137 C 
ATOM      2  H   LIG d   1       7.941   3.327  -8.415  0.00  0.00     0.067 H 
ATOM      3  C   LIG d   1       9.164   1.926  -7.326  0.00  0.00     0.171 C 
ATOM      4  H   LIG d   1       9.738   1.022  -7.530  0.00  0.00     0.080 H 
ATOM      5  C   LIG d   1       8.095   1.624  -6.271  0.00  0.00     0.166 C 
ATOM      6  H   LIG d   1       7.554   2.539  -6.029  0.00  0.00     0.079 H 
ATOM      7  C   LIG d   1       7.119   0.585  -6.831  0.00  0.00     0.127 C 
ATOM      8  H   LIG d   1       7.652  -0.346  -7.026  0.00  0.00     0.060 H 
ATOM      9  C   LIG d   1       6.516   1.112  -8.136  0.00  0.00     0.227 C 
ATOM     10  H   LIG d   1       5.950   2.022  -7.933  0.00  0.00     0.108 H 
ATOM     11  O   LIG d   1       7.566   1.401  -9.061  0.00  0.00    -0.329 OA
ENDROOT
BRANCH   7  12
ATOM     12  N   LIG d   1       6.050   0.343  -5.860  0.00  0.00    -0.297 N 
ATOM     13  C   LIG d   1       5.947  -0.857  -5.255  0.00  0.00     0.280 C 
ATOM     14  O   LIG d   1       6.743  -1.740  -5.516  0.00  0.00    -0.267 OA
ATOM     15  H   LIG d   1       5.416   1.047  -5.652  0.00  0.00     0.150 HD
BRANCH  13  16
ATOM     16  C   LIG d   1       4.877  -1.099  -4.283  0.00  0.00     0.189 A 
ATOM     17  O   LIG d   1       3.666  -0.503  -4.272  0.00  0.00    -0.458 OA
ATOM     18  C   LIG d   1       2.949  -0.971  -3.242  0.00  0.00     0.093 A 
ATOM     19  C   LIG d   1       3.696  -1.874  -2.567  0.00  0.00    -0.023 A 
ATOM     20  H   LIG d   1       1.943  -0.673  -2.989  0.00  0.00     0.103 H 
ATOM     21  C   LIG d   1       4.932  -1.963  -3.226  0.00  0.00    -0.011 A 
ATOM     22  H   LIG d   1       3.397  -2.423  -1.687  0.00  0.00     0.065 H 
ATOM     23  H   LIG d   1       5.765  -2.592  -2.952  0.00  0.00     0.066 H 
ENDBRANCH  13  16
ENDBRANCH   7  12
BRANCH   5  24
ATOM     24  O   LIG d   1       8.727   1.104  -5.073  0.00  0.00    -0.456 OA
BRANCH  24  25
ATOM     25  C   LIG d   1       8.522   1.780  -3.932  0.00  0.00     0.304 C 
ATOM     26  O   LIG d   1       7.441   1.741  -3.393  0.00  0.00    -0.251 OA
BRANCH  25  27
ATOM     27  C   LIG d   1       9.639   2.587  -3.322  0.00  0.00     0.033 C 
ATOM     28  H   LIG d   1      10.550   2.444  -3.903  0.00  0.00     0.034 H 
ATOM     29  H   LIG d   1       9.369   3.643  -3.327  0.00  0.00     0.034 H 
ATOM     30  H   LIG d   1       9.807   2.258  -2.297  0.00  0.00     0.034 H 
ENDBRANCH  25  27
ENDBRANCH  24  25
ENDBRANCH   5  24
BRANCH   9  31
ATOM     31  O   LIG d   1       5.634   0.108  -8.703  0.00  0.00    -0.433 OA
BRANCH  31  32
ATOM     32  C   LIG d   1       4.417   0.518  -9.094  0.00  0.00     0.306 C 
ATOM     33  O   LIG d   1       3.441   0.208  -8.454  0.00  0.00    -0.251 OA
BRANCH  32  34
ATOM     34  C   LIG d   1       4.269   1.362 -10.334  0.00  0.00     0.033 C 
ATOM     35  H   LIG d   1       5.241   1.767 -10.615  0.00  0.00     0.034 H 
ATOM     36  H   LIG d   1       3.882   0.747 -11.147  0.00  0.00     0.034 H 
ATOM     37  H   LIG d   1       3.577   2.180 -10.136  0.00  0.00     0.034 H 
ENDBRANCH  32  34
ENDBRANCH  31  32
ENDBRANCH   9  31
BRANCH   3  38
ATOM     38  O   LIG d   1      10.051   2.964  -6.834  0.00  0.00    -0.455 OA
BRANCH  38  39
ATOM     39  C   LIG d   1      11.332   2.622  -6.624  0.00  0.00     0.304 C 
ATOM     40  O   LIG d   1      11.712   1.508  -6.893  0.00  0.00    -0.251 OA
BRANCH  39  41
ATOM     41  C   LIG d   1      12.295   3.627  -6.045  0.00  0.00     0.033 C 
ATOM     42  H   LIG d   1      12.246   4.551  -6.623  0.00  0.00     0.034 H 
ATOM     43  H   LIG d   1      12.026   3.832  -5.009  0.00  0.00     0.034 H 
ATOM     44  H   LIG d   1      13.307   3.226  -6.086  0.00  0.00     0.034 H 
ENDBRANCH  39  41
ENDBRANCH  38  39
ENDBRANCH   3  38
BRANCH   1  45
ATOM     45  C   LIG d   1       9.539   2.648  -9.689  0.00  0.00     0.122 C 
ATOM     46  H   LIG d   1      10.503   2.839  -9.216  0.00  0.00     0.072 H 
ATOM     47  H   LIG d   1       9.617   1.768 -10.329  0.00  0.00     0.072 H 
BRANCH  45  48
ATOM     48  O   LIG d   1       9.156   3.797 -10.490  0.00  0.00    -0.462 OA
BRANCH  48  49
ATOM     49  C   LIG d   1       9.077   4.980  -9.861  0.00  0.00     0.304 C 
ATOM     50  O   LIG d   1       8.036   5.594  -9.858  0.00  0.00    -0.251 OA
BRANCH  49  51
ATOM     51  C   LIG d   1      10.285   5.542  -9.158  0.00  0.00     0.033 C 
ATOM     52  H   LIG d   1      10.048   5.713  -8.108  0.00  0.00     0.034 H 
ATOM     53  H   LIG d   1      11.112   4.836  -9.233  0.00  0.00     0.034 H 
ATOM     54  H   LIG d   1      10.570   6.486  -9.624  0.00  0.00     0.034 H 
ENDBRANCH  49  51
ENDBRANCH  48  49
ENDBRANCH  45  48
ENDBRANCH   1  45
TORSDOF 15
ENDMDL
MODEL 6
REMARK VINA RESULT:      -5.0      2.186      7.820
REMARK  15 active torsions:
REMARK  status: ('A' for Active; 'I' for Inactive)
REMARK    1  A    between atoms: C_1  and  C_2 
REMARK    2  A    between atoms: C_2  and  O_4 
REMARK    3  A    between atoms: O_4  and  C_5 
REMARK    4  A    between atoms: C_5  and  C_6 
REMARK    5  A    between atoms: C_8  and  O_33 
REMARK    6  A    between atoms: C_10  and  O_29 
REMARK    7  A    between atoms: C_12  and  N_21 
REMARK    8  A    between atoms: C_14  and  O_17 
REMARK    9  A    between atoms: O_17  and  C_18 
REMARK   10  A    between atoms: C_18  and  C_20 
REMARK       I    between atoms: N_21  and  C_22 
REMARK   11  A    between atoms: C_22  and  C_24 
REMARK   12  A    between atoms: O_29  and  C_30 
REMARK   13  A    between atoms: C_30  and  C_32 
REMARK   14  A    between atoms: O_33  and  C_34 
REMARK   15  A    between atoms: C_34  and  C_36 
ROOT
ATOM      1  C   LIG d   1       4.066  -3.660  -9.215  0.00  0.00     0.137 C 
ATOM      2  H   LIG d   1       2.994  -3.792  -9.072  0.00  0.00     0.067 H 
ATOM      3  C   LIG d   1       4.377  -2.173  -9.412  0.00  0.00     0.171 C 
ATOM      4  H   LIG d   1       5.444  -2.045  -9.596  0.00  0.00     0.080 H 
ATOM      5  C   LIG d   1       3.980  -1.405  -8.149  0.00  0.00     0.166 C 
ATOM      6  H   LIG d   1       2.904  -1.491  -7.993  0.00  0.00     0.079 H 
ATOM      7  C   LIG d   1       4.721  -1.999  -6.948  0.00  0.00     0.127 C 
ATOM      8  H   LIG d   1       5.795  -1.867  -7.081  0.00  0.00     0.060 H 
ATOM      9  C   LIG d   1       4.397  -3.492  -6.846  0.00  0.00     0.227 C 
ATOM     10  H   LIG d   1       3.328  -3.621  -6.671  0.00  0.00     0.108 H 
ATOM     11  O   LIG d   1       4.764  -4.142  -8.064  0.00  0.00    -0.329 OA
ENDROOT
BRANCH   7  12
ATOM     12  N   LIG d   1       4.293  -1.320  -5.723  0.00  0.00    -0.297 N 
ATOM     13  C   LIG d   1       5.172  -0.576  -5.022  0.00  0.00     0.280 C 
ATOM     14  O   LIG d   1       6.321  -0.468  -5.408  0.00  0.00    -0.267 OA
ATOM     15  H   LIG d   1       3.377  -1.406  -5.415  0.00  0.00     0.150 HD
BRANCH  13  16
ATOM     16  C   LIG d   1       4.743   0.104  -3.796  0.00  0.00     0.189 A 
ATOM     17  O   LIG d   1       3.816   1.081  -3.713  0.00  0.00    -0.458 OA
ATOM     18  C   LIG d   1       3.682   1.460  -2.435  0.00  0.00     0.093 A 
ATOM     19  C   LIG d   1       4.533   0.734  -1.675  0.00  0.00    -0.023 A 
ATOM     20  H   LIG d   1       3.011   2.224  -2.073  0.00  0.00     0.103 H 
ATOM     21  C   LIG d   1       5.216  -0.137  -2.537  0.00  0.00    -0.011 A 
ATOM     22  H   LIG d   1       4.661   0.811  -0.606  0.00  0.00     0.065 H 
ATOM     23  H   LIG d   1       5.969  -0.859  -2.259  0.00  0.00     0.066 H 
ENDBRANCH  13  16
ENDBRANCH   7  12
BRANCH   5  24
ATOM     24  O   LIG d   1       4.337  -0.006  -8.299  0.00  0.00    -0.456 OA
BRANCH  24  25
ATOM     25  C   LIG d   1       3.355   0.895  -8.142  0.00  0.00     0.304 C 
ATOM     26  O   LIG d   1       2.911   1.119  -7.040  0.00  0.00    -0.251 OA
BRANCH  25  27
ATOM     27  C   LIG d   1       2.804   1.627  -9.338  0.00  0.00     0.033 C 
ATOM     28  H   LIG d   1       3.258   2.617  -9.399  0.00  0.00     0.034 H 
ATOM     29  H   LIG d   1       3.033   1.067 -10.244  0.00  0.00     0.034 H 
ATOM     30  H   LIG d   1       1.724   1.729  -9.235  0.00  0.00     0.034 H 
ENDBRANCH  25  27
ENDBRANCH  24  25
ENDBRANCH   5  24
BRANCH   9  31
ATOM     31  O   LIG d   1       5.141  -4.075  -5.743  0.00  0.00    -0.433 OA
BRANCH  31  32
ATOM     32  C   LIG d   1       4.983  -5.390  -5.529  0.00  0.00     0.306 C 
ATOM     33  O   LIG d   1       3.913  -5.819  -5.168  0.00  0.00    -0.251 OA
BRANCH  32  34
ATOM     34  C   LIG d   1       6.141  -6.333  -5.737  0.00  0.00     0.033 C 
ATOM     35  H   LIG d   1       5.823  -7.352  -5.518  0.00  0.00     0.034 H 
ATOM     36  H   LIG d   1       6.477  -6.271  -6.773  0.00  0.00     0.034 H 
ATOM     37  H   LIG d   1       6.959  -6.056  -5.073  0.00  0.00     0.034 H 
ENDBRANCH  32  34
ENDBRANCH  31  32
ENDBRANCH   9  31
BRANCH   3  38
ATOM     38  O   LIG d   1       3.625  -1.667 -10.546  0.00  0.00    -0.455 OA
BRANCH  38  39
ATOM     39  C   LIG d   1       4.325  -1.083 -11.531  0.00  0.00     0.304 C 
ATOM     40  O   LIG d   1       5.462  -0.723 -11.333  0.00  0.00    -0.251 OA
BRANCH  39  41
ATOM     41  C   LIG d   1       3.692  -0.870 -12.881  0.00  0.00     0.033 C 
ATOM     42  H   LIG d   1       3.098  -1.745 -13.146  0.00  0.00     0.034 H 
ATOM     43  H   LIG d   1       3.048   0.010 -12.846  0.00  0.00     0.034 H 
ATOM     44  H   LIG d   1       4.470  -0.721 -13.629  0.00  0.00     0.034 H 
ENDBRANCH  39  41
ENDBRANCH  38  39
ENDBRANCH   3  38
BRANCH   1  45
ATOM     45  C   LIG d   1       4.516  -4.444 -10.449  0.00  0.00     0.122 C 
ATOM     46  H   LIG d   1       3.917  -4.142 -11.310  0.00  0.00     0.072 H 
ATOM     47  H   LIG d   1       5.568  -4.236 -10.649  0.00  0.00     0.072 H 
BRANCH  45  48
ATOM     48  O   LIG d   1       4.340  -5.865 -10.211  0.00  0.00    -0.462 OA
BRANCH  48  49
ATOM     49  C   LIG d   1       5.278  -6.687 -10.707  0.00  0.00     0.304 C 
ATOM     50  O   LIG d   1       4.978  -7.805 -11.056  0.00  0.00    -0.251 OA
BRANCH  49  51
ATOM     51  C   LIG d   1       6.705  -6.217 -10.829  0.00  0.00     0.033 C 
ATOM     52  H   LIG d   1       7.292  -6.970 -11.354  0.00  0.00     0.034 H 
ATOM     53  H   LIG d   1       6.733  -5.281 -11.386  0.00  0.00     0.034 H 
ATOM     54  H   LIG d   1       7.122  -6.061  -9.834  0.00  0.00     0.034 H 
ENDBRANCH  49  51
ENDBRANCH  48  49
ENDBRANCH  45  48
ENDBRANCH   1  45
TORSDOF 15
ENDMDL
MODEL 7
REMARK VINA RESULT:      -5.0      8.744     13.448
REMARK  15 active torsions:
REMARK  status: ('A' for Active; 'I' for Inactive)
REMARK    1  A    between atoms: C_1  and  C_2 
REMARK    2  A    between atoms: C_2  and  O_4 
REMARK    3  A    between atoms: O_4  and  C_5 
REMARK    4  A    between atoms: C_5  and  C_6 
REMARK    5  A    between atoms: C_8  and  O_33 
REMARK    6  A    between atoms: C_10  and  O_29 
REMARK    7  A    between atoms: C_12  and  N_21 
REMARK    8  A    between atoms: C_14  and  O_17 
REMARK    9  A    between atoms: O_17  and  C_18 
REMARK   10  A    between atoms: C_18  and  C_20 
REMARK       I    between atoms: N_21  and  C_22 
REMARK   11  A    between atoms: C_22  and  C_24 
REMARK   12  A    between atoms: O_29  and  C_30 
REMARK   13  A    between atoms: C_30  and  C_32 
REMARK   14  A    between atoms: O_33  and  C_34 
REMARK   15  A    between atoms: C_34  and  C_36 
ROOT
ATOM      1  C   LIG d   1       9.602   5.033  -3.041  0.00  0.00     0.137 C 
ATOM      2  H   LIG d   1       8.519   5.042  -3.155  0.00  0.00     0.067 H 
ATOM      3  C   LIG d   1      10.245   5.797  -4.202  0.00  0.00     0.171 C 
ATOM      4  H   LIG d   1      11.330   5.754  -4.111  0.00  0.00     0.080 H 
ATOM      5  C   LIG d   1       9.787   7.258  -4.157  0.00  0.00     0.166 C 
ATOM      6  H   LIG d   1       8.707   7.305  -4.299  0.00  0.00     0.079 H 
ATOM      7  C   LIG d   1      10.151   7.855  -2.795  0.00  0.00     0.127 C 
ATOM      8  H   LIG d   1      11.234   7.854  -2.675  0.00  0.00     0.060 H 
ATOM      9  C   LIG d   1       9.512   7.011  -1.689  0.00  0.00     0.227 C 
ATOM     10  H   LIG d   1       8.426   7.047  -1.786  0.00  0.00     0.108 H 
ATOM     11  O   LIG d   1       9.957   5.659  -1.806  0.00  0.00    -0.329 OA
ENDROOT
BRANCH   7  12
ATOM     12  N   LIG d   1       9.651   9.229  -2.713  0.00  0.00    -0.297 N 
ATOM     13  C   LIG d   1      10.514  10.251  -2.538  0.00  0.00     0.280 C 
ATOM     14  O   LIG d   1      11.707  10.031  -2.449  0.00  0.00    -0.267 OA
ATOM     15  H   LIG d   1       8.700   9.405  -2.785  0.00  0.00     0.150 HD
BRANCH  13  16
ATOM     16  C   LIG d   1      10.013  11.626  -2.456  0.00  0.00     0.189 A 
ATOM     17  O   LIG d   1      10.502  12.602  -1.663  0.00  0.00    -0.458 OA
ATOM     18  C   LIG d   1       9.799  13.726  -1.855  0.00  0.00     0.093 A 
ATOM     19  C   LIG d   1       8.837  13.485  -2.774  0.00  0.00    -0.023 A 
ATOM     20  H   LIG d   1       9.969  14.668  -1.355  0.00  0.00     0.103 H 
ATOM     21  C   LIG d   1       8.966  12.143  -3.165  0.00  0.00    -0.011 A 
ATOM     22  H   LIG d   1       8.108  14.193  -3.139  0.00  0.00     0.065 H 
ATOM     23  H   LIG d   1       8.357  11.621  -3.887  0.00  0.00     0.066 H 
ENDBRANCH  13  16
ENDBRANCH   7  12
BRANCH   5  24
ATOM     24  O   LIG d   1      10.447   8.007  -5.210  0.00  0.00    -0.456 OA
BRANCH  24  25
ATOM     25  C   LIG d   1       9.662   8.692  -6.057  0.00  0.00     0.304 C 
ATOM     26  O   LIG d   1       9.271   9.796  -5.757  0.00  0.00    -0.251 OA
BRANCH  25  27
ATOM     27  C   LIG d   1       9.269   8.087  -7.379  0.00  0.00     0.033 C 
ATOM     28  H   LIG d   1       9.389   7.004  -7.333  0.00  0.00     0.034 H 
ATOM     29  H   LIG d   1       8.228   8.328  -7.594  0.00  0.00     0.034 H 
ATOM     30  H   LIG d   1       9.906   8.490  -8.166  0.00  0.00     0.034 H 
ENDBRANCH  25  27
ENDBRANCH  24  25
ENDBRANCH   5  24
BRANCH   9  31
ATOM     31  O   LIG d   1       9.900   7.538  -0.392  0.00  0.00    -0.433 OA
BRANCH  31  32
ATOM     32  C   LIG d   1      11.048   7.081   0.132  0.00  0.00     0.306 C 
ATOM     33  O   LIG d   1      12.105   7.522  -0.251  0.00  0.00    -0.251 OA
BRANCH  32  34
ATOM     34  C   LIG d   1      11.018   6.016   1.198  0.00  0.00     0.033 C 
ATOM     35  H   LIG d   1      12.038   5.732   1.456  0.00  0.00     0.034 H 
ATOM     36  H   LIG d   1      10.514   6.403   2.084  0.00  0.00     0.034 H 
ATOM     37  H   LIG d   1      10.480   5.144   0.826  0.00  0.00     0.034 H 
ENDBRANCH  32  34
ENDBRANCH  31  32
ENDBRANCH   9  31
BRANCH   3  38
ATOM     38  O   LIG d   1       9.839   5.199  -5.461  0.00  0.00    -0.455 OA
BRANCH  38  39
ATOM     39  C   LIG d   1      10.817   4.831  -6.304  0.00  0.00     0.304 C 
ATOM     40  O   LIG d   1      11.964   4.809  -5.927  0.00  0.00    -0.251 OA
BRANCH  39  41
ATOM     41  C   LIG d   1      10.483   4.454  -7.724  0.00  0.00     0.033 C 
ATOM     42  H   LIG d   1       9.402   4.487  -7.865  0.00  0.00     0.034 H 
ATOM     43  H   LIG d   1      10.961   5.155  -8.409  0.00  0.00     0.034 H 
ATOM     44  H   LIG d   1      10.844   3.446  -7.927  0.00  0.00     0.034 H 
ENDBRANCH  39  41
ENDBRANCH  38  39
ENDBRANCH   3  38
BRANCH   1  45
ATOM     45  C   LIG d   1      10.102   3.587  -3.043  0.00  0.00     0.122 C 
ATOM     46  H   LIG d   1      10.773   3.435  -3.889  0.00  0.00     0.072 H 
ATOM     47  H   LIG d   1      10.638   3.387  -2.115  0.00  0.00     0.072 H 
BRANCH  45  48
ATOM     48  O   LIG d   1       8.971   2.683  -3.154  0.00  0.00    -0.462 OA
BRANCH  48  49
ATOM     49  C   LIG d   1       8.744   2.135  -4.357  0.00  0.00     0.304 C 
ATOM     50  O   LIG d   1       7.643   2.196  -4.851  0.00  0.00    -0.251 OA
BRANCH  49  51
ATOM     51  C   LIG d   1       9.862   1.443  -5.094  0.00  0.00     0.033 C 
ATOM     52  H   LIG d   1       9.444   0.723  -5.796  0.00  0.00     0.034 H 
ATOM     53  H   LIG d   1      10.450   2.182  -5.638  0.00  0.00     0.034 H 
ATOM     54  H   LIG d   1      10.502   0.925  -4.379  0.00  0.00     0.034 H 
ENDBRANCH  49  51
ENDBRANCH  48  49
ENDBRANCH  45  48
ENDBRANCH   1  45
TORSDOF 15
ENDMDL
MODEL 8
REMARK VINA RESULT:      -4.9      2.303      6.988
REMARK  15 active torsions:
REMARK  status: ('A' for Active; 'I' for Inactive)
REMARK    1  A    between atoms: C_1  and  C_2 
REMARK    2  A    between atoms: C_2  and  O_4 
REMARK    3  A    between atoms: O_4  and  C_5 
REMARK    4  A    between atoms: C_5  and  C_6 
REMARK    5  A    between atoms: C_8  and  O_33 
REMARK    6  A    between atoms: C_10  and  O_29 
REMARK    7  A    between atoms: C_12  and  N_21 
REMARK    8  A    between atoms: C_14  and  O_17 
REMARK    9  A    between atoms: O_17  and  C_18 
REMARK   10  A    between atoms: C_18  and  C_20 
REMARK       I    between atoms: N_21  and  C_22 
REMARK   11  A    between atoms: C_22  and  C_24 
REMARK   12  A    between atoms: O_29  and  C_30 
REMARK   13  A    between atoms: C_30  and  C_32 
REMARK   14  A    between atoms: O_33  and  C_34 
REMARK   15  A    between atoms: C_34  and  C_36 
ROOT
ATOM      1  C   LIG d   1       3.857  -0.683  -5.259  0.00  0.00     0.137 C 
ATOM      2  H   LIG d   1       3.254  -1.016  -4.415  0.00  0.00     0.067 H 
ATOM      3  C   LIG d   1       5.134  -0.012  -4.742  0.00  0.00     0.171 C 
ATOM      4  H   LIG d   1       5.719   0.357  -5.584  0.00  0.00     0.080 H 
ATOM      5  C   LIG d   1       5.958  -1.037  -3.957  0.00  0.00     0.166 C 
ATOM      6  H   LIG d   1       5.392  -1.369  -3.086  0.00  0.00     0.079 H 
ATOM      7  C   LIG d   1       6.256  -2.237  -4.861  0.00  0.00     0.127 C 
ATOM      8  H   LIG d   1       6.865  -1.913  -5.706  0.00  0.00     0.060 H 
ATOM      9  C   LIG d   1       4.937  -2.821  -5.374  0.00  0.00     0.227 C 
ATOM     10  H   LIG d   1       4.347  -3.182  -4.531  0.00  0.00     0.108 H 
ATOM     11  O   LIG d   1       4.207  -1.808  -6.068  0.00  0.00    -0.329 OA
ENDROOT
BRANCH   7  12
ATOM     12  N   LIG d   1       6.980  -3.257  -4.099  0.00  0.00    -0.297 N 
ATOM     13  C   LIG d   1       8.197  -3.667  -4.509  0.00  0.00     0.280 C 
ATOM     14  O   LIG d   1       8.694  -3.190  -5.512  0.00  0.00    -0.267 OA
ATOM     15  H   LIG d   1       6.585  -3.637  -3.299  0.00  0.00     0.150 HD
BRANCH  13  16
ATOM     16  C   LIG d   1       8.921  -4.688  -3.746  0.00  0.00     0.189 A 
ATOM     17  O   LIG d   1       8.985  -6.003  -4.042  0.00  0.00    -0.458 OA
ATOM     18  C   LIG d   1       9.737  -6.629  -3.126  0.00  0.00     0.093 A 
ATOM     19  C   LIG d   1      10.162  -5.722  -2.219  0.00  0.00    -0.023 A 
ATOM     20  H   LIG d   1       9.961  -7.686  -3.113  0.00  0.00     0.103 H 
ATOM     21  C   LIG d   1       9.645  -4.476  -2.607  0.00  0.00    -0.011 A 
ATOM     22  H   LIG d   1      10.783  -5.920  -1.358  0.00  0.00     0.065 H 
ATOM     23  H   LIG d   1       9.792  -3.533  -2.103  0.00  0.00     0.066 H 
ENDBRANCH  13  16
ENDBRANCH   7  12
BRANCH   5  24
ATOM     24  O   LIG d   1       7.203  -0.431  -3.524  0.00  0.00    -0.456 OA
BRANCH  24  25
ATOM     25  C   LIG d   1       7.804   0.408  -4.383  0.00  0.00     0.304 C 
ATOM     26  O   LIG d   1       8.166   0.008  -5.465  0.00  0.00    -0.251 OA
BRANCH  25  27
ATOM     27  C   LIG d   1       8.030   1.847  -3.999  0.00  0.00     0.033 C 
ATOM     28  H   LIG d   1       7.707   2.004  -2.970  0.00  0.00     0.034 H 
ATOM     29  H   LIG d   1       9.090   2.085  -4.086  0.00  0.00     0.034 H 
ATOM     30  H   LIG d   1       7.456   2.494  -4.662  0.00  0.00     0.034 H 
ENDBRANCH  25  27
ENDBRANCH  24  25
ENDBRANCH   5  24
BRANCH   9  31
ATOM     31  O   LIG d   1       5.215  -3.924  -6.278  0.00  0.00    -0.433 OA
BRANCH  31  32
ATOM     32  C   LIG d   1       4.163  -4.639  -6.707  0.00  0.00     0.306 C 
ATOM     33  O   LIG d   1       3.534  -5.315  -5.929  0.00  0.00    -0.251 OA
BRANCH  32  34
ATOM     34  C   LIG d   1       3.769  -4.600  -8.161  0.00  0.00     0.033 C 
ATOM     35  H   LIG d   1       4.104  -3.661  -8.603  0.00  0.00     0.034 H 
ATOM     36  H   LIG d   1       4.234  -5.435  -8.686  0.00  0.00     0.034 H 
ATOM     37  H   LIG d   1       2.685  -4.676  -8.246  0.00  0.00     0.034 H 
ENDBRANCH  32  34
ENDBRANCH  31  32
ENDBRANCH   9  31
BRANCH   3  38
ATOM     38  O   LIG d   1       4.781   1.096  -3.872  0.00  0.00    -0.455 OA
BRANCH  38  39
ATOM     39  C   LIG d   1       4.363   0.789  -2.635  0.00  0.00     0.304 C 
ATOM     40  O   LIG d   1       5.028   1.103  -1.676  0.00  0.00    -0.251 OA
BRANCH  39  41
ATOM     41  C   LIG d   1       3.066   0.047  -2.441  0.00  0.00     0.033 C 
ATOM     42  H   LIG d   1       2.930  -0.177  -1.382  0.00  0.00     0.034 H 
ATOM     43  H   LIG d   1       2.238   0.664  -2.791  0.00  0.00     0.034 H 
ATOM     44  H   LIG d   1       3.091  -0.883  -3.008  0.00  0.00     0.034 H 
ENDBRANCH  39  41
ENDBRANCH  38  39
ENDBRANCH   3  38
BRANCH   1  45
ATOM     45  C   LIG d   1       3.058   0.318  -6.095  0.00  0.00     0.122 C 
ATOM     46  H   LIG d   1       2.123  -0.142  -6.418  0.00  0.00     0.072 H 
ATOM     47  H   LIG d   1       2.840   1.201  -5.494  0.00  0.00     0.072 H 
BRANCH  45  48
ATOM     48  O   LIG d   1       3.834   0.705  -7.260  0.00  0.00    -0.462 OA
BRANCH  48  49
ATOM     49  C   LIG d   1       3.152   1.002  -8.377  0.00  0.00     0.304 C 
ATOM     50  O   LIG d   1       2.350   0.214  -8.821  0.00  0.00    -0.251 OA
BRANCH  49  51
ATOM     51  C   LIG d   1       3.383   2.317  -9.076  0.00  0.00     0.033 C 
ATOM     52  H   LIG d   1       4.349   2.722  -8.776  0.00  0.00     0.034 H 
ATOM     53  H   LIG d   1       3.373   2.162 -10.154  0.00  0.00     0.034 H 
ATOM     54  H   LIG d   1       2.594   3.017  -8.802  0.00  0.00     0.034 H 
ENDBRANCH  49  51
ENDBRANCH  48  49
ENDBRANCH  45  48
ENDBRANCH   1  45
TORSDOF 15
ENDMDL
MODEL 9
REMARK VINA RESULT:      -4.8      2.469      3.203
REMARK  15 active torsions:
REMARK  status: ('A' for Active; 'I' for Inactive)
REMARK    1  A    between atoms: C_1  and  C_2 
REMARK    2  A    between atoms: C_2  and  O_4 
REMARK    3  A    between atoms: O_4  and  C_5 
REMARK    4  A    between atoms: C_5  and  C_6 
REMARK    5  A    between atoms: C_8  and  O_33 
REMARK    6  A    between atoms: C_10  and  O_29 
REMARK    7  A    between atoms: C_12  and  N_21 
REMARK    8  A    between atoms: C_14  and  O_17 
REMARK    9  A    between atoms: O_17  and  C_18 
REMARK   10  A    between atoms: C_18  and  C_20 
REMARK       I    between atoms: N_21  and  C_22 
REMARK   11  A    between atoms: C_22  and  C_24 
REMARK   12  A    between atoms: O_29  and  C_30 
REMARK   13  A    between atoms: C_30  and  C_32 
REMARK   14  A    between atoms: O_33  and  C_34 
REMARK   15  A    between atoms: C_34  and  C_36 
ROOT
ATOM      1  C   LIG d   1       4.083  -1.228  -5.552  0.00  0.00     0.137 C 
ATOM      2  H   LIG d   1       3.013  -1.382  -5.683  0.00  0.00     0.067 H 
ATOM      3  C   LIG d   1       4.848  -2.401  -6.174  0.00  0.00     0.171 C 
ATOM      4  H   LIG d   1       5.917  -2.268  -6.009  0.00  0.00     0.080 H 
ATOM      5  C   LIG d   1       4.566  -2.443  -7.679  0.00  0.00     0.166 C 
ATOM      6  H   LIG d   1       3.504  -2.626  -7.845  0.00  0.00     0.079 H 
ATOM      7  C   LIG d   1       4.956  -1.098  -8.300  0.00  0.00     0.127 C 
ATOM      8  H   LIG d   1       6.027  -0.939  -8.178  0.00  0.00     0.060 H 
ATOM      9  C   LIG d   1       4.188   0.023  -7.595  0.00  0.00     0.227 C 
ATOM     10  H   LIG d   1       3.117  -0.115  -7.753  0.00  0.00     0.108 H 
ATOM     11  O   LIG d   1       4.472  -0.013  -6.196  0.00  0.00    -0.329 OA
ENDROOT
BRANCH   7  12
ATOM     12  N   LIG d   1       4.621  -1.101  -9.726  0.00  0.00    -0.297 N 
ATOM     13  C   LIG d   1       5.566  -0.806 -10.640  0.00  0.00     0.280 C 
ATOM     14  O   LIG d   1       6.697  -0.538 -10.282  0.00  0.00    -0.267 OA
ATOM     15  H   LIG d   1       3.720  -1.315 -10.012  0.00  0.00     0.150 HD
BRANCH  13  16
ATOM     16  C   LIG d   1       5.230  -0.809 -12.068  0.00  0.00     0.189 A 
ATOM     17  O   LIG d   1       3.997  -0.657 -12.593  0.00  0.00    -0.458 OA
ATOM     18  C   LIG d   1       4.072  -0.711 -13.929  0.00  0.00     0.093 A 
ATOM     19  C   LIG d   1       5.362  -0.907 -14.284  0.00  0.00    -0.023 A 
ATOM     20  H   LIG d   1       3.239  -0.618 -14.610  0.00  0.00     0.103 H 
ATOM     21  C   LIG d   1       6.111  -0.971 -13.099  0.00  0.00    -0.011 A 
ATOM     22  H   LIG d   1       5.743  -0.997 -15.290  0.00  0.00     0.065 H 
ATOM     23  H   LIG d   1       7.177  -1.119 -13.018  0.00  0.00     0.066 H 
ENDBRANCH  13  16
ENDBRANCH   7  12
BRANCH   5  24
ATOM     24  O   LIG d   1       5.342  -3.506  -8.289  0.00  0.00    -0.456 OA
BRANCH  24  25
ATOM     25  C   LIG d   1       4.660  -4.488  -8.899  0.00  0.00     0.304 C 
ATOM     26  O   LIG d   1       5.242  -5.466  -9.305  0.00  0.00    -0.251 OA
BRANCH  25  27
ATOM     27  C   LIG d   1       3.169  -4.371  -9.079  0.00  0.00     0.033 C 
ATOM     28  H   LIG d   1       2.733  -5.368  -9.154  0.00  0.00     0.034 H 
ATOM     29  H   LIG d   1       2.738  -3.852  -8.223  0.00  0.00     0.034 H 
ATOM     30  H   LIG d   1       2.955  -3.812  -9.990  0.00  0.00     0.034 H 
ENDBRANCH  25  27
ENDBRANCH  24  25
ENDBRANCH   5  24
BRANCH   9  31
ATOM     31  O   LIG d   1       4.596   1.306  -8.140  0.00  0.00    -0.433 OA
BRANCH  31  32
ATOM     32  C   LIG d   1       3.632   2.080  -8.664  0.00  0.00     0.306 C 
ATOM     33  O   LIG d   1       2.767   2.531  -7.952  0.00  0.00    -0.251 OA
BRANCH  32  34
ATOM     34  C   LIG d   1       3.628   2.383 -10.140  0.00  0.00     0.033 C 
ATOM     35  H   LIG d   1       4.491   3.003 -10.384  0.00  0.00     0.034 H 
ATOM     36  H   LIG d   1       3.680   1.451 -10.702  0.00  0.00     0.034 H 
ATOM     37  H   LIG d   1       2.713   2.915 -10.399  0.00  0.00     0.034 H 
ENDBRANCH  32  34
ENDBRANCH  31  32
ENDBRANCH   9  31
BRANCH   3  38
ATOM     38  O   LIG d   1       4.413  -3.643  -5.563  0.00  0.00    -0.455 OA
BRANCH  38  39
ATOM     39  C   LIG d   1       5.354  -4.572  -5.335  0.00  0.00     0.304 C 
ATOM     40  O   LIG d   1       6.459  -4.238  -4.980  0.00  0.00    -0.251 OA
BRANCH  39  41
ATOM     41  C   LIG d   1       5.034  -6.032  -5.528  0.00  0.00     0.033 C 
ATOM     42  H   LIG d   1       5.493  -6.614  -4.729  0.00  0.00     0.034 H 
ATOM     43  H   LIG d   1       3.953  -6.173  -5.505  0.00  0.00     0.034 H 
ATOM     44  H   LIG d   1       5.424  -6.366  -6.489  0.00  0.00     0.034 H 
ENDBRANCH  39  41
ENDBRANCH  38  39
ENDBRANCH   3  38
BRANCH   1  45
ATOM     45  C   LIG d   1       4.408  -1.142  -4.060  0.00  0.00     0.122 C 
ATOM     46  H   LIG d   1       3.555  -0.723  -3.525  0.00  0.00     0.072 H 
ATOM     47  H   LIG d   1       4.621  -2.140  -3.676  0.00  0.00     0.072 H 
BRANCH  45  48
ATOM     48  O   LIG d   1       5.568  -0.291  -3.865  0.00  0.00    -0.462 OA
BRANCH  48  49
ATOM     49  C   LIG d   1       5.459   0.689  -2.955  0.00  0.00     0.304 C 
ATOM     50  O   LIG d   1       6.120   1.695  -3.068  0.00  0.00    -0.251 OA
BRANCH  49  51
ATOM     51  C   LIG d   1       4.513   0.537  -1.792  0.00  0.00     0.033 C 
ATOM     52  H   LIG d   1       3.680   1.230  -1.908  0.00  0.00     0.034 H 
ATOM     53  H   LIG d   1       4.134  -0.484  -1.763  0.00  0.00     0.034 H 
ATOM     54  H   LIG d   1       5.041   0.755  -0.863  0.00  0.00     0.034 H 
ENDBRANCH  49  51
ENDBRANCH  48  49
ENDBRANCH  45  48
ENDBRANCH   1  45
TORSDOF 15
ENDMDL
