MODEL 1
REMARK VINA RESULT:      -6.7      0.000      0.000
REMARK  10 active torsions:
REMARK  status: ('A' for Active; 'I' for Inactive)
REMARK    1  A    between atoms: C_1  and  C_2 
REMARK    2  A    between atoms: C_4  and  O_43 
REMARK    3  A    between atoms: C_12  and  O_39 
REMARK    4  A    between atoms: C_21  and  O_37 
REMARK    5  A    between atoms: C_23  and  C_36 
REMARK    6  A    between atoms: C_25  and  O_35 
REMARK    7  A    between atoms: C_29  and  O_30 
REMARK    8  A    between atoms: O_37  and  C_38 
REMARK    9  A    between atoms: O_39  and  C_40 
REMARK   10  A    between atoms: C_40  and  C_42 
ROOT
ATOM      1  C   LIG d   1       4.557  -4.553  -7.275  0.00  0.00    -0.036 A 
ATOM      2  C   LIG d   1       3.787  -4.725  -8.404  0.00  0.00    -0.016 A 
ATOM      3  C   LIG d   1       3.208  -3.636  -9.053  0.00  0.00     0.131 A 
ATOM      4  C   LIG d   1       3.436  -2.342  -8.561  0.00  0.00     0.105 A 
ATOM      5  C   LIG d   1       4.188  -2.177  -7.415  0.00  0.00    -0.005 A 
ATOM      6  C   LIG d   1       4.744  -3.271  -6.742  0.00  0.00     0.026 A 
ATOM      7  C   LIG d   1       5.476  -3.059  -5.479  0.00  0.00     0.173 C 
ATOM      8  O   LIG d   1       6.008  -3.991  -4.915  0.00  0.00    -0.291 OA
ATOM      9  C   LIG d   1       5.555  -1.672  -4.897  0.00  0.00     0.094 C 
ATOM     10  H   LIG d   1       5.688  -1.694  -3.815  0.00  0.00     0.045 H 
ATOM     11  C   LIG d   1       4.217  -0.961  -5.319  0.00  0.00     0.129 C 
ATOM     12  H   LIG d   1       3.352  -1.596  -5.129  0.00  0.00     0.075 H 
ATOM     13  C   LIG d   1       4.483  -0.794  -6.854  0.00  0.00     0.082 C 
ATOM     14  C   LIG d   1       3.620   0.268  -7.471  0.00  0.00     0.107 C 
ATOM     15  O   LIG d   1       3.460   0.052  -8.881  0.00  0.00    -0.460 OA
ATOM     16  C   LIG d   1       2.906  -1.138  -9.236  0.00  0.00     0.343 C 
ATOM     17  O   LIG d   1       2.021  -1.209 -10.064  0.00  0.00    -0.245 OA
ATOM     18  C   LIG d   1       5.985  -0.614  -7.028  0.00  0.00     0.067 C 
ATOM     19  H   LIG d   1       6.370  -1.424  -7.647  0.00  0.00     0.042 H 
ATOM     20  C   LIG d   1       6.548  -0.771  -5.563  0.00  0.00     0.119 C 
ATOM     21  C   LIG d   1       7.999  -0.979  -5.650  0.00  0.00    -0.003 A 
ATOM     22  C   LIG d   1       8.747  -1.923  -4.995  0.00  0.00    -0.040 A 
ATOM     23  C   LIG d   1      10.121  -1.981  -5.175  0.00  0.00    -0.016 A 
ATOM     24  C   LIG d   1      10.777  -1.080  -6.006  0.00  0.00     0.132 A 
ATOM     25  C   LIG d   1      10.037  -0.109  -6.684  0.00  0.00     0.108 A 
ATOM     26  C   LIG d   1       8.637  -0.084  -6.528  0.00  0.00     0.008 A 
ATOM     27  C   LIG d   1       7.850   0.884  -7.317  0.00  0.00     0.036 C 
ATOM     28  C   LIG d   1       6.512   0.690  -7.547  0.00  0.00     0.108 C 
ATOM     29  C   LIG d   1       8.591   2.070  -7.885  0.00  0.00     0.121 C 
ATOM     30  O   LIG d   1       9.846   1.599  -8.404  0.00  0.00    -0.456 OA
ATOM     31  C   LIG d   1      10.646   0.904  -7.558  0.00  0.00     0.344 C 
ATOM     32  O   LIG d   1      11.843   1.113  -7.524  0.00  0.00    -0.245 OA
ATOM     33  H   LIG d   1       3.630  -5.720  -8.793  0.00  0.00     0.066 H 
ATOM     34  H   LIG d   1       2.640   0.252  -6.994  0.00  0.00     0.071 H 
ATOM     35  H   LIG d   1       4.080   1.242  -7.308  0.00  0.00     0.071 H 
ATOM     36  H   LIG d   1      10.692  -2.738  -4.659  0.00  0.00     0.066 H 
ATOM     37  H   LIG d   1       8.006   2.521  -8.687  0.00  0.00     0.075 H 
ATOM     38  H   LIG d   1       8.768   2.804  -7.099  0.00  0.00     0.075 H 
ENDROOT
BRANCH  11  39
ATOM     39  O   LIG d   1       4.076   0.307  -4.673  0.00  0.00    -0.460 OA
BRANCH  39  40
ATOM     40  C   LIG d   1       3.341   0.341  -3.552  0.00  0.00     0.304 C 
ATOM     41  O   LIG d   1       2.436  -0.445  -3.398  0.00  0.00    -0.251 OA
BRANCH  40  42
ATOM     42  C   LIG d   1       3.643   1.361  -2.483  0.00  0.00     0.033 C 
ATOM     43  H   LIG d   1       3.234   1.021  -1.531  0.00  0.00     0.034 H 
ATOM     44  H   LIG d   1       4.722   1.482  -2.392  0.00  0.00     0.034 H 
ATOM     45  H   LIG d   1       3.191   2.314  -2.754  0.00  0.00     0.034 H 
ENDBRANCH  40  42
ENDBRANCH  39  40
ENDBRANCH  11  39
BRANCH  20  46
ATOM     46  O   LIG d   1       6.379   0.516  -4.967  0.00  0.00    -0.370 OA
BRANCH  46  47
ATOM     47  C   LIG d   1       7.065   0.675  -3.723  0.00  0.00     0.038 C 
ATOM     48  H   LIG d   1       7.915   1.342  -3.860  0.00  0.00     0.052 H 
ATOM     49  H   LIG d   1       6.385   1.100  -2.985  0.00  0.00     0.052 H 
ATOM     50  H   LIG d   1       7.416  -0.297  -3.376  0.00  0.00     0.052 H 
ENDBRANCH  46  47
ENDBRANCH  20  46
BRANCH  28  51
ATOM     51  O   LIG d   1       5.727   1.595  -8.176  0.00  0.00    -0.510 OA
ATOM     52  H   LIG d   1       6.153   2.451  -8.322  0.00  0.00     0.292 HD
ENDBRANCH  28  51
BRANCH   1  53
ATOM     53  C   LIG d   1       5.194  -5.746  -6.609  0.00  0.00    -0.039 C 
ATOM     54  H   LIG d   1       5.928  -5.405  -5.879  0.00  0.00     0.028 H 
ATOM     55  H   LIG d   1       4.427  -6.334  -6.106  0.00  0.00     0.028 H 
ATOM     56  H   LIG d   1       5.688  -6.360  -7.361  0.00  0.00     0.028 H 
ENDBRANCH   1  53
BRANCH  22  57
ATOM     57  C   LIG d   1       8.071  -2.905  -4.074  0.00  0.00    -0.039 C 
ATOM     58  H   LIG d   1       7.516  -3.634  -4.664  0.00  0.00     0.028 H 
ATOM     59  H   LIG d   1       8.823  -3.419  -3.476  0.00  0.00     0.028 H 
ATOM     60  H   LIG d   1       7.384  -2.373  -3.415  0.00  0.00     0.028 H 
ENDBRANCH  22  57
BRANCH   3  61
ATOM     61  O   LIG d   1       2.434  -3.825 -10.148  0.00  0.00    -0.506 OA
ATOM     62  H   LIG d   1       1.574  -4.224  -9.957  0.00  0.00     0.292 HD
ENDBRANCH   3  61
BRANCH  24  63
ATOM     63  O   LIG d   1      12.123  -1.144  -6.158  0.00  0.00    -0.506 OA
ATOM     64  H   LIG d   1      12.407  -1.638  -6.941  0.00  0.00     0.292 HD
ENDBRANCH  24  63
TORSDOF 10
ENDMDL
MODEL 2
REMARK VINA RESULT:      -6.4      2.601      7.337
REMARK  10 active torsions:
REMARK  status: ('A' for Active; 'I' for Inactive)
REMARK    1  A    between atoms: C_1  and  C_2 
REMARK    2  A    between atoms: C_4  and  O_43 
REMARK    3  A    between atoms: C_12  and  O_39 
REMARK    4  A    between atoms: C_21  and  O_37 
REMARK    5  A    between atoms: C_23  and  C_36 
REMARK    6  A    between atoms: C_25  and  O_35 
REMARK    7  A    between atoms: C_29  and  O_30 
REMARK    8  A    between atoms: O_37  and  C_38 
REMARK    9  A    between atoms: O_39  and  C_40 
REMARK   10  A    between atoms: C_40  and  C_42 
ROOT
ATOM      1  C   LIG d   1      12.063  -1.233  -5.312  0.00  0.00    -0.036 A 
ATOM      2  C   LIG d   1      12.984  -0.687  -4.446  0.00  0.00    -0.016 A 
ATOM      3  C   LIG d   1      12.767   0.556  -3.856  0.00  0.00     0.131 A 
ATOM      4  C   LIG d   1      11.579   1.250  -4.131  0.00  0.00     0.105 A 
ATOM      5  C   LIG d   1      10.670   0.709  -5.018  0.00  0.00    -0.005 A 
ATOM      6  C   LIG d   1      10.900  -0.524  -5.638  0.00  0.00     0.026 A 
ATOM      7  C   LIG d   1       9.941  -1.030  -6.639  0.00  0.00     0.173 C 
ATOM      8  O   LIG d   1      10.100  -2.122  -7.142  0.00  0.00    -0.291 OA
ATOM      9  C   LIG d   1       8.763  -0.177  -7.028  0.00  0.00     0.094 C 
ATOM     10  H   LIG d   1       8.412  -0.407  -8.034  0.00  0.00     0.045 H 
ATOM     11  C   LIG d   1       9.256   1.310  -6.892  0.00  0.00     0.129 C 
ATOM     12  H   LIG d   1      10.227   1.451  -7.367  0.00  0.00     0.075 H 
ATOM     13  C   LIG d   1       9.357   1.411  -5.332  0.00  0.00     0.082 C 
ATOM     14  C   LIG d   1       9.340   2.832  -4.849  0.00  0.00     0.107 C 
ATOM     15  O   LIG d   1       9.959   2.949  -3.560  0.00  0.00    -0.460 OA
ATOM     16  C   LIG d   1      11.256   2.543  -3.490  0.00  0.00     0.343 C 
ATOM     17  O   LIG d   1      12.104   3.208  -2.931  0.00  0.00    -0.245 OA
ATOM     18  C   LIG d   1       8.281   0.500  -4.757  0.00  0.00     0.067 C 
ATOM     19  H   LIG d   1       8.756  -0.271  -4.151  0.00  0.00     0.042 H 
ATOM     20  C   LIG d   1       7.643  -0.170  -6.034  0.00  0.00     0.119 C 
ATOM     21  C   LIG d   1       6.850  -1.327  -5.598  0.00  0.00    -0.003 A 
ATOM     22  C   LIG d   1       6.852  -2.588  -6.135  0.00  0.00    -0.040 A 
ATOM     23  C   LIG d   1       6.029  -3.576  -5.613  0.00  0.00    -0.016 A 
ATOM     24  C   LIG d   1       5.175  -3.312  -4.549  0.00  0.00     0.132 A 
ATOM     25  C   LIG d   1       5.155  -2.035  -3.985  0.00  0.00     0.108 A 
ATOM     26  C   LIG d   1       6.024  -1.050  -4.494  0.00  0.00     0.008 A 
ATOM     27  C   LIG d   1       6.066   0.272  -3.836  0.00  0.00     0.036 C 
ATOM     28  C   LIG d   1       7.148   1.102  -3.983  0.00  0.00     0.108 C 
ATOM     29  C   LIG d   1       4.886   0.646  -2.973  0.00  0.00     0.121 C 
ATOM     30  O   LIG d   1       4.521  -0.510  -2.200  0.00  0.00    -0.456 OA
ATOM     31  C   LIG d   1       4.263  -1.656  -2.880  0.00  0.00     0.344 C 
ATOM     32  O   LIG d   1       3.314  -2.354  -2.580  0.00  0.00    -0.245 OA
ATOM     33  H   LIG d   1      13.889  -1.231  -4.221  0.00  0.00     0.066 H 
ATOM     34  H   LIG d   1       9.877   3.457  -5.562  0.00  0.00     0.071 H 
ATOM     35  H   LIG d   1       8.307   3.174  -4.781  0.00  0.00     0.071 H 
ATOM     36  H   LIG d   1       6.051  -4.566  -6.042  0.00  0.00     0.066 H 
ATOM     37  H   LIG d   1       5.163   1.463  -2.306  0.00  0.00     0.075 H 
ATOM     38  H   LIG d   1       4.050   0.949  -3.602  0.00  0.00     0.075 H 
ENDROOT
BRANCH  11  39
ATOM     39  O   LIG d   1       8.291   2.227  -7.412  0.00  0.00    -0.460 OA
BRANCH  39  40
ATOM     40  C   LIG d   1       8.624   2.895  -8.528  0.00  0.00     0.304 C 
ATOM     41  O   LIG d   1       7.859   2.931  -9.462  0.00  0.00    -0.251 OA
BRANCH  40  42
ATOM     42  C   LIG d   1       9.954   3.599  -8.615  0.00  0.00     0.033 C 
ATOM     43  H   LIG d   1      10.269   3.653  -9.657  0.00  0.00     0.034 H 
ATOM     44  H   LIG d   1       9.858   4.607  -8.211  0.00  0.00     0.034 H 
ATOM     45  H   LIG d   1      10.696   3.046  -8.039  0.00  0.00     0.034 H 
ENDBRANCH  40  42
ENDBRANCH  39  40
ENDBRANCH  11  39
BRANCH  20  46
ATOM     46  O   LIG d   1       6.695   0.787  -6.512  0.00  0.00    -0.370 OA
BRANCH  46  47
ATOM     47  C   LIG d   1       5.901   0.321  -7.606  0.00  0.00     0.038 C 
ATOM     48  H   LIG d   1       5.725   1.141  -8.302  0.00  0.00     0.052 H 
ATOM     49  H   LIG d   1       6.425  -0.485  -8.118  0.00  0.00     0.052 H 
ATOM     50  H   LIG d   1       4.946  -0.048  -7.230  0.00  0.00     0.052 H 
ENDBRANCH  46  47
ENDBRANCH  20  46
BRANCH  28  51
ATOM     51  O   LIG d   1       7.191   2.360  -3.485  0.00  0.00    -0.510 OA
ATOM     52  H   LIG d   1       6.464   2.925  -3.780  0.00  0.00     0.292 HD
ENDBRANCH  28  51
BRANCH   1  53
ATOM     53  C   LIG d   1      12.310  -2.592  -5.915  0.00  0.00    -0.039 C 
ATOM     54  H   LIG d   1      13.379  -2.806  -5.903  0.00  0.00     0.028 H 
ATOM     55  H   LIG d   1      11.781  -3.348  -5.335  0.00  0.00     0.028 H 
ATOM     56  H   LIG d   1      11.948  -2.604  -6.943  0.00  0.00     0.028 H 
ENDBRANCH   1  53
BRANCH  22  57
ATOM     57  C   LIG d   1       7.754  -2.904  -7.300  0.00  0.00    -0.039 C 
ATOM     58  H   LIG d   1       8.127  -3.924  -7.203  0.00  0.00     0.028 H 
ATOM     59  H   LIG d   1       7.194  -2.808  -8.229  0.00  0.00     0.028 H 
ATOM     60  H   LIG d   1       8.594  -2.209  -7.308  0.00  0.00     0.028 H 
ENDBRANCH  22  57
BRANCH   3  61
ATOM     61  O   LIG d   1      13.695   1.090  -3.026  0.00  0.00    -0.506 OA
ATOM     62  H   LIG d   1      14.100   1.903  -3.358  0.00  0.00     0.292 HD
ENDBRANCH   3  61
BRANCH  24  63
ATOM     63  O   LIG d   1       4.368  -4.287  -4.061  0.00  0.00    -0.506 OA
ATOM     64  H   LIG d   1       4.453  -4.427  -3.108  0.00  0.00     0.292 HD
ENDBRANCH  24  63
TORSDOF 10
ENDMDL
MODEL 3
REMARK VINA RESULT:      -6.3      2.497      5.148
REMARK  10 active torsions:
REMARK  status: ('A' for Active; 'I' for Inactive)
REMARK    1  A    between atoms: C_1  and  C_2 
REMARK    2  A    between atoms: C_4  and  O_43 
REMARK    3  A    between atoms: C_12  and  O_39 
REMARK    4  A    between atoms: C_21  and  O_37 
REMARK    5  A    between atoms: C_23  and  C_36 
REMARK    6  A    between atoms: C_25  and  O_35 
REMARK    7  A    between atoms: C_29  and  O_30 
REMARK    8  A    between atoms: O_37  and  C_38 
REMARK    9  A    between atoms: O_39  and  C_40 
REMARK   10  A    between atoms: C_40  and  C_42 
ROOT
ATOM      1  C   LIG d   1       3.619   0.460  -7.782  0.00  0.00    -0.036 A 
ATOM      2  C   LIG d   1       2.504   0.361  -6.980  0.00  0.00    -0.016 A 
ATOM      3  C   LIG d   1       2.598  -0.109  -5.672  0.00  0.00     0.131 A 
ATOM      4  C   LIG d   1       3.854  -0.464  -5.158  0.00  0.00     0.105 A 
ATOM      5  C   LIG d   1       4.965  -0.387  -5.973  0.00  0.00    -0.005 A 
ATOM      6  C   LIG d   1       4.870   0.055  -7.298  0.00  0.00     0.026 A 
ATOM      7  C   LIG d   1       6.067   0.050  -8.159  0.00  0.00     0.173 C 
ATOM      8  O   LIG d   1       6.009   0.481  -9.291  0.00  0.00    -0.291 OA
ATOM      9  C   LIG d   1       7.362  -0.496  -7.618  0.00  0.00     0.094 C 
ATOM     10  H   LIG d   1       8.007  -0.871  -8.413  0.00  0.00     0.045 H 
ATOM     11  C   LIG d   1       6.952  -1.624  -6.601  0.00  0.00     0.129 C 
ATOM     12  H   LIG d   1       6.202  -2.290  -7.028  0.00  0.00     0.075 H 
ATOM     13  C   LIG d   1       6.353  -0.738  -5.456  0.00  0.00     0.082 C 
ATOM     14  C   LIG d   1       6.305  -1.460  -4.141  0.00  0.00     0.107 C 
ATOM     15  O   LIG d   1       5.307  -0.898  -3.277  0.00  0.00    -0.460 OA
ATOM     16  C   LIG d   1       4.035  -0.911  -3.760  0.00  0.00     0.343 C 
ATOM     17  O   LIG d   1       3.097  -1.270  -3.078  0.00  0.00    -0.245 OA
ATOM     18  C   LIG d   1       7.118   0.578  -5.466  0.00  0.00     0.067 C 
ATOM     19  H   LIG d   1       6.420   1.392  -5.660  0.00  0.00     0.042 H 
ATOM     20  C   LIG d   1       8.093   0.430  -6.696  0.00  0.00     0.119 C 
ATOM     21  C   LIG d   1       8.620   1.760  -7.027  0.00  0.00    -0.003 A 
ATOM     22  C   LIG d   1       8.710   2.336  -8.267  0.00  0.00    -0.040 A 
ATOM     23  C   LIG d   1       9.249   3.606  -8.416  0.00  0.00    -0.016 A 
ATOM     24  C   LIG d   1       9.723   4.319  -7.321  0.00  0.00     0.132 A 
ATOM     25  C   LIG d   1       9.642   3.753  -6.047  0.00  0.00     0.108 A 
ATOM     26  C   LIG d   1       9.056   2.481  -5.900  0.00  0.00     0.008 A 
ATOM     27  C   LIG d   1       8.888   1.926  -4.542  0.00  0.00     0.036 C 
ATOM     28  C   LIG d   1       7.972   0.937  -4.288  0.00  0.00     0.108 C 
ATOM     29  C   LIG d   1       9.742   2.520  -3.448  0.00  0.00     0.121 C 
ATOM     30  O   LIG d   1       9.757   3.947  -3.625  0.00  0.00    -0.456 OA
ATOM     31  C   LIG d   1      10.146   4.418  -4.837  0.00  0.00     0.344 C 
ATOM     32  O   LIG d   1      10.895   5.372  -4.919  0.00  0.00    -0.245 OA
ATOM     33  H   LIG d   1       1.541   0.654  -7.371  0.00  0.00     0.066 H 
ATOM     34  H   LIG d   1       6.074  -2.510  -4.319  0.00  0.00     0.071 H 
ATOM     35  H   LIG d   1       7.279  -1.385  -3.657  0.00  0.00     0.071 H 
ATOM     36  H   LIG d   1       9.302   4.048  -9.399  0.00  0.00     0.066 H 
ATOM     37  H   LIG d   1       9.318   2.274  -2.475  0.00  0.00     0.075 H 
ATOM     38  H   LIG d   1      10.756   2.128  -3.519  0.00  0.00     0.075 H 
ENDROOT
BRANCH  11  39
ATOM     39  O   LIG d   1       8.093  -2.357  -6.150  0.00  0.00    -0.460 OA
BRANCH  39  40
ATOM     40  C   LIG d   1       8.125  -3.669  -6.431  0.00  0.00     0.304 C 
ATOM     41  O   LIG d   1       8.126  -4.041  -7.581  0.00  0.00    -0.251 OA
BRANCH  40  42
ATOM     42  C   LIG d   1       8.158  -4.679  -5.312  0.00  0.00     0.033 C 
ATOM     43  H   LIG d   1       8.723  -5.555  -5.631  0.00  0.00     0.034 H 
ATOM     44  H   LIG d   1       8.636  -4.236  -4.438  0.00  0.00     0.034 H 
ATOM     45  H   LIG d   1       7.140  -4.974  -5.060  0.00  0.00     0.034 H 
ENDBRANCH  40  42
ENDBRANCH  39  40
ENDBRANCH  11  39
BRANCH  20  46
ATOM     46  O   LIG d   1       9.206  -0.310  -6.191  0.00  0.00    -0.370 OA
BRANCH  46  47
ATOM     47  C   LIG d   1      10.292  -0.427  -7.114  0.00  0.00     0.038 C 
ATOM     48  H   LIG d   1      10.262   0.404  -7.818  0.00  0.00     0.052 H 
ATOM     49  H   LIG d   1      11.236  -0.407  -6.568  0.00  0.00     0.052 H 
ATOM     50  H   LIG d   1      10.207  -1.368  -7.657  0.00  0.00     0.052 H 
ENDBRANCH  46  47
ENDBRANCH  20  46
BRANCH  28  51
ATOM     51  O   LIG d   1       7.852   0.327  -3.086  0.00  0.00    -0.510 OA
ATOM     52  H   LIG d   1       8.674  -0.063  -2.758  0.00  0.00     0.292 HD
ENDBRANCH  28  51
BRANCH   1  53
ATOM     53  C   LIG d   1       3.494   0.999  -9.184  0.00  0.00    -0.039 C 
ATOM     54  H   LIG d   1       4.427   0.834  -9.722  0.00  0.00     0.028 H 
ATOM     55  H   LIG d   1       2.681   0.487  -9.698  0.00  0.00     0.028 H 
ATOM     56  H   LIG d   1       3.282   2.068  -9.144  0.00  0.00     0.028 H 
ENDBRANCH   1  53
BRANCH  22  57
ATOM     57  C   LIG d   1       8.220   1.585  -9.478  0.00  0.00    -0.039 C 
ATOM     58  H   LIG d   1       7.789   0.634  -9.166  0.00  0.00     0.028 H 
ATOM     59  H   LIG d   1       7.463   2.177  -9.991  0.00  0.00     0.028 H 
ATOM     60  H   LIG d   1       9.056   1.400 -10.154  0.00  0.00     0.028 H 
ENDBRANCH  22  57
BRANCH   3  61
ATOM     61  O   LIG d   1       1.487  -0.223  -4.905  0.00  0.00    -0.506 OA
ATOM     62  H   LIG d   1       1.399  -1.080  -4.466  0.00  0.00     0.292 HD
ENDBRANCH   3  61
BRANCH  24  63
ATOM     63  O   LIG d   1      10.259   5.554  -7.488  0.00  0.00    -0.506 OA
ATOM     64  H   LIG d   1       9.957   6.204  -6.839  0.00  0.00     0.292 HD
ENDBRANCH  24  63
TORSDOF 10
ENDMDL
MODEL 4
REMARK VINA RESULT:      -6.1      2.723      7.092
REMARK  10 active torsions:
REMARK  status: ('A' for Active; 'I' for Inactive)
REMARK    1  A    between atoms: C_1  and  C_2 
REMARK    2  A    between atoms: C_4  and  O_43 
REMARK    3  A    between atoms: C_12  and  O_39 
REMARK    4  A    between atoms: C_21  and  O_37 
REMARK    5  A    between atoms: C_23  and  C_36 
REMARK    6  A    between atoms: C_25  and  O_35 
REMARK    7  A    between atoms: C_29  and  O_30 
REMARK    8  A    between atoms: O_37  and  C_38 
REMARK    9  A    between atoms: O_39  and  C_40 
REMARK   10  A    between atoms: C_40  and  C_42 
ROOT
ATOM      1  C   LIG d   1      10.013  -5.419  -3.966  0.00  0.00    -0.036 A 
ATOM      2  C   LIG d   1      11.249  -5.366  -3.361  0.00  0.00    -0.016 A 
ATOM      3  C   LIG d   1      12.038  -4.220  -3.437  0.00  0.00     0.131 A 
ATOM      4  C   LIG d   1      11.553  -3.095  -4.121  0.00  0.00     0.105 A 
ATOM      5  C   LIG d   1      10.324  -3.162  -4.747  0.00  0.00    -0.005 A 
ATOM      6  C   LIG d   1       9.543  -4.323  -4.699  0.00  0.00     0.026 A 
ATOM      7  C   LIG d   1       8.271  -4.380  -5.445  0.00  0.00     0.173 C 
ATOM      8  O   LIG d   1       7.560  -5.359  -5.368  0.00  0.00    -0.291 OA
ATOM      9  C   LIG d   1       7.866  -3.210  -6.303  0.00  0.00     0.094 C 
ATOM     10  H   LIG d   1       7.212  -3.514  -7.119  0.00  0.00     0.045 H 
ATOM     11  C   LIG d   1       9.212  -2.581  -6.820  0.00  0.00     0.129 C 
ATOM     12  H   LIG d   1       9.887  -3.346  -7.204  0.00  0.00     0.075 H 
ATOM     13  C   LIG d   1       9.743  -1.963  -5.481  0.00  0.00     0.082 C 
ATOM     14  C   LIG d   1      10.764  -0.887  -5.714  0.00  0.00     0.107 C 
ATOM     15  O   LIG d   1      11.613  -0.722  -4.568  0.00  0.00    -0.460 OA
ATOM     16  C   LIG d   1      12.309  -1.826  -4.187  0.00  0.00     0.343 C 
ATOM     17  O   LIG d   1      13.492  -1.773  -3.915  0.00  0.00    -0.245 OA
ATOM     18  C   LIG d   1       8.524  -1.558  -4.665  0.00  0.00     0.067 C 
ATOM     19  H   LIG d   1       8.527  -2.111  -3.725  0.00  0.00     0.042 H 
ATOM     20  C   LIG d   1       7.310  -2.044  -5.546  0.00  0.00     0.119 C 
ATOM     21  C   LIG d   1       6.104  -2.038  -4.708  0.00  0.00    -0.003 A 
ATOM     22  C   LIG d   1       5.160  -3.027  -4.599  0.00  0.00    -0.040 A 
ATOM     23  C   LIG d   1       4.062  -2.862  -3.767  0.00  0.00    -0.016 A 
ATOM     24  C   LIG d   1       3.881  -1.693  -3.038  0.00  0.00     0.132 A 
ATOM     25  C   LIG d   1       4.827  -0.671  -3.134  0.00  0.00     0.108 A 
ATOM     26  C   LIG d   1       5.961  -0.863  -3.948  0.00  0.00     0.008 A 
ATOM     27  C   LIG d   1       7.005   0.180  -3.974  0.00  0.00     0.036 C 
ATOM     28  C   LIG d   1       8.284  -0.107  -4.376  0.00  0.00     0.108 C 
ATOM     29  C   LIG d   1       6.607   1.559  -3.507  0.00  0.00     0.121 C 
ATOM     30  O   LIG d   1       5.796   1.410  -2.330  0.00  0.00    -0.456 OA
ATOM     31  C   LIG d   1       4.703   0.611  -2.426  0.00  0.00     0.344 C 
ATOM     32  O   LIG d   1       3.643   0.950  -1.937  0.00  0.00    -0.245 OA
ATOM     33  H   LIG d   1      11.612  -6.226  -2.818  0.00  0.00     0.066 H 
ATOM     34  H   LIG d   1      11.375  -1.156  -6.575  0.00  0.00     0.071 H 
ATOM     35  H   LIG d   1      10.252   0.053  -5.918  0.00  0.00     0.071 H 
ATOM     36  H   LIG d   1       3.335  -3.656  -3.685  0.00  0.00     0.066 H 
ATOM     37  H   LIG d   1       7.500   2.139  -3.268  0.00  0.00     0.075 H 
ATOM     38  H   LIG d   1       6.038   2.063  -4.287  0.00  0.00     0.075 H 
ENDROOT
BRANCH  11  39
ATOM     39  O   LIG d   1       8.970  -1.569  -7.800  0.00  0.00    -0.460 OA
BRANCH  39  40
ATOM     40  C   LIG d   1       9.331  -1.846  -9.063  0.00  0.00     0.304 C 
ATOM     41  O   LIG d   1       8.646  -1.468  -9.984  0.00  0.00    -0.251 OA
BRANCH  40  42
ATOM     42  C   LIG d   1      10.590  -2.630  -9.332  0.00  0.00     0.033 C 
ATOM     43  H   LIG d   1      11.443  -2.106  -8.900  0.00  0.00     0.034 H 
ATOM     44  H   LIG d   1      10.505  -3.619  -8.882  0.00  0.00     0.034 H 
ATOM     45  H   LIG d   1      10.732  -2.730 -10.408  0.00  0.00     0.034 H 
ENDBRANCH  40  42
ENDBRANCH  39  40
ENDBRANCH  11  39
BRANCH  20  46
ATOM     46  O   LIG d   1       7.117  -1.004  -6.505  0.00  0.00    -0.370 OA
BRANCH  46  47
ATOM     47  C   LIG d   1       5.943  -1.163  -7.306  0.00  0.00     0.038 C 
ATOM     48  H   LIG d   1       5.112  -1.474  -6.675  0.00  0.00     0.052 H 
ATOM     49  H   LIG d   1       5.700  -0.215  -7.786  0.00  0.00     0.052 H 
ATOM     50  H   LIG d   1       6.125  -1.920  -8.070  0.00  0.00     0.052 H 
ENDBRANCH  46  47
ENDBRANCH  20  46
BRANCH  28  51
ATOM     51  O   LIG d   1       9.248   0.833  -4.514  0.00  0.00    -0.510 OA
ATOM     52  H   LIG d   1      10.129   0.536  -4.247  0.00  0.00     0.292 HD
ENDBRANCH  28  51
BRANCH   1  53
ATOM     53  C   LIG d   1       9.168  -6.661  -3.844  0.00  0.00    -0.039 C 
ATOM     54  H   LIG d   1       9.784  -7.540  -4.034  0.00  0.00     0.028 H 
ATOM     55  H   LIG d   1       8.751  -6.720  -2.839  0.00  0.00     0.028 H 
ATOM     56  H   LIG d   1       8.357  -6.622  -4.572  0.00  0.00     0.028 H 
ENDBRANCH   1  53
BRANCH  22  57
ATOM     57  C   LIG d   1       5.318  -4.302  -5.386  0.00  0.00    -0.039 C 
ATOM     58  H   LIG d   1       4.732  -5.093  -4.918  0.00  0.00     0.028 H 
ATOM     59  H   LIG d   1       4.967  -4.144  -6.406  0.00  0.00     0.028 H 
ATOM     60  H   LIG d   1       6.369  -4.590  -5.404  0.00  0.00     0.028 H 
ENDBRANCH  22  57
BRANCH   3  61
ATOM     61  O   LIG d   1      13.262  -4.193  -2.857  0.00  0.00    -0.506 OA
ATOM     62  H   LIG d   1      13.845  -3.502  -3.200  0.00  0.00     0.292 HD
ENDBRANCH   3  61
BRANCH  24  63
ATOM     63  O   LIG d   1       2.793  -1.545  -2.241  0.00  0.00    -0.506 OA
ATOM     64  H   LIG d   1       2.921  -0.920  -1.514  0.00  0.00     0.292 HD
ENDBRANCH  24  63
TORSDOF 10
ENDMDL
MODEL 5
REMARK VINA RESULT:      -6.1      2.431      5.250
REMARK  10 active torsions:
REMARK  status: ('A' for Active; 'I' for Inactive)
REMARK    1  A    between atoms: C_1  and  C_2 
REMARK    2  A    between atoms: C_4  and  O_43 
REMARK    3  A    between atoms: C_12  and  O_39 
REMARK    4  A    between atoms: C_21  and  O_37 
REMARK    5  A    between atoms: C_23  and  C_36 
REMARK    6  A    between atoms: C_25  and  O_35 
REMARK    7  A    between atoms: C_29  and  O_30 
REMARK    8  A    between atoms: O_37  and  C_38 
REMARK    9  A    between atoms: O_39  and  C_40 
REMARK   10  A    between atoms: C_40  and  C_42 
ROOT
ATOM      1  C   LIG d   1       5.350   0.088  -2.994  0.00  0.00    -0.036 A 
ATOM      2  C   LIG d   1       4.547  -0.927  -2.523  0.00  0.00    -0.016 A 
ATOM      3  C   LIG d   1       4.516  -2.170  -3.150  0.00  0.00     0.131 A 
ATOM      4  C   LIG d   1       5.336  -2.399  -4.265  0.00  0.00     0.105 A 
ATOM      5  C   LIG d   1       6.121  -1.371  -4.749  0.00  0.00    -0.005 A 
ATOM      6  C   LIG d   1       6.130  -0.110  -4.141  0.00  0.00     0.026 A 
ATOM      7  C   LIG d   1       6.923   0.983  -4.734  0.00  0.00     0.173 C 
ATOM      8  O   LIG d   1       6.982   2.063  -4.187  0.00  0.00    -0.291 OA
ATOM      9  C   LIG d   1       7.658   0.743  -6.027  0.00  0.00     0.094 C 
ATOM     10  H   LIG d   1       7.805   1.667  -6.586  0.00  0.00     0.045 H 
ATOM     11  C   LIG d   1       6.788  -0.302  -6.819  0.00  0.00     0.129 C 
ATOM     12  H   LIG d   1       5.735  -0.022  -6.820  0.00  0.00     0.075 H 
ATOM     13  C   LIG d   1       7.045  -1.574  -5.941  0.00  0.00     0.082 C 
ATOM     14  C   LIG d   1       6.750  -2.847  -6.680  0.00  0.00     0.107 C 
ATOM     15  O   LIG d   1       6.457  -3.918  -5.771  0.00  0.00    -0.460 OA
ATOM     16  C   LIG d   1       5.401  -3.713  -4.939  0.00  0.00     0.343 C 
ATOM     17  O   LIG d   1       4.554  -4.565  -4.760  0.00  0.00    -0.245 OA
ATOM     18  C   LIG d   1       8.451  -1.446  -5.372  0.00  0.00     0.067 C 
ATOM     19  H   LIG d   1       8.392  -1.427  -4.283  0.00  0.00     0.042 H 
ATOM     20  C   LIG d   1       8.930  -0.034  -5.886  0.00  0.00     0.119 C 
ATOM     21  C   LIG d   1      10.115   0.358  -5.112  0.00  0.00    -0.003 A 
ATOM     22  C   LIG d   1      10.363   1.571  -4.524  0.00  0.00    -0.040 A 
ATOM     23  C   LIG d   1      11.546   1.790  -3.833  0.00  0.00    -0.016 A 
ATOM     24  C   LIG d   1      12.513   0.797  -3.730  0.00  0.00     0.132 A 
ATOM     25  C   LIG d   1      12.284  -0.447  -4.321  0.00  0.00     0.108 A 
ATOM     26  C   LIG d   1      11.063  -0.674  -4.985  0.00  0.00     0.008 A 
ATOM     27  C   LIG d   1      10.786  -2.019  -5.528  0.00  0.00     0.036 C 
ATOM     28  C   LIG d   1       9.503  -2.429  -5.788  0.00  0.00     0.108 C 
ATOM     29  C   LIG d   1      11.971  -2.927  -5.747  0.00  0.00     0.121 C 
ATOM     30  O   LIG d   1      12.844  -2.796  -4.613  0.00  0.00    -0.456 OA
ATOM     31  C   LIG d   1      13.261  -1.545  -4.292  0.00  0.00     0.344 C 
ATOM     32  O   LIG d   1      14.419  -1.337  -3.985  0.00  0.00    -0.245 OA
ATOM     33  H   LIG d   1       3.931  -0.755  -1.652  0.00  0.00     0.066 H 
ATOM     34  H   LIG d   1       5.893  -2.689  -7.335  0.00  0.00     0.071 H 
ATOM     35  H   LIG d   1       7.616  -3.118  -7.284  0.00  0.00     0.071 H 
ATOM     36  H   LIG d   1      11.719   2.748  -3.367  0.00  0.00     0.066 H 
ATOM     37  H   LIG d   1      11.633  -3.960  -5.834  0.00  0.00     0.075 H 
ATOM     38  H   LIG d   1      12.497  -2.633  -6.655  0.00  0.00     0.075 H 
ENDROOT
BRANCH  11  39
ATOM     39  O   LIG d   1       7.276  -0.481  -8.150  0.00  0.00    -0.460 OA
BRANCH  39  40
ATOM     40  C   LIG d   1       6.531   0.025  -9.145  0.00  0.00     0.304 C 
ATOM     41  O   LIG d   1       6.919   0.988  -9.762  0.00  0.00    -0.251 OA
BRANCH  40  42
ATOM     42  C   LIG d   1       5.207  -0.608  -9.491  0.00  0.00     0.033 C 
ATOM     43  H   LIG d   1       4.464  -0.328  -8.744  0.00  0.00     0.034 H 
ATOM     44  H   LIG d   1       4.884  -0.261 -10.473  0.00  0.00     0.034 H 
ATOM     45  H   LIG d   1       5.316  -1.692  -9.507  0.00  0.00     0.034 H 
ENDBRANCH  40  42
ENDBRANCH  39  40
ENDBRANCH  11  39
BRANCH  20  46
ATOM     46  O   LIG d   1       9.400  -0.271  -7.214  0.00  0.00    -0.370 OA
BRANCH  46  47
ATOM     47  C   LIG d   1      10.033   0.861  -7.817  0.00  0.00     0.038 C 
ATOM     48  H   LIG d   1       9.592   1.776  -7.423  0.00  0.00     0.052 H 
ATOM     49  H   LIG d   1      11.099   0.844  -7.590  0.00  0.00     0.052 H 
ATOM     50  H   LIG d   1       9.890   0.823  -8.897  0.00  0.00     0.052 H 
ENDBRANCH  46  47
ENDBRANCH  20  46
BRANCH  28  51
ATOM     51  O   LIG d   1       9.205  -3.609  -6.378  0.00  0.00    -0.510 OA
ATOM     52  H   LIG d   1       8.278  -3.695  -6.641  0.00  0.00     0.292 HD
ENDBRANCH  28  51
BRANCH   1  53
ATOM     53  C   LIG d   1       5.385   1.415  -2.280  0.00  0.00    -0.039 C 
ATOM     54  H   LIG d   1       5.435   1.247  -1.205  0.00  0.00     0.028 H 
ATOM     55  H   LIG d   1       6.260   1.978  -2.602  0.00  0.00     0.028 H 
ATOM     56  H   LIG d   1       4.483   1.979  -2.518  0.00  0.00     0.028 H 
ENDBRANCH   1  53
BRANCH  22  57
ATOM     57  C   LIG d   1       9.343   2.675  -4.629  0.00  0.00    -0.039 C 
ATOM     58  H   LIG d   1       8.934   2.698  -5.639  0.00  0.00     0.028 H 
ATOM     59  H   LIG d   1       8.539   2.496  -3.915  0.00  0.00     0.028 H 
ATOM     60  H   LIG d   1       9.818   3.632  -4.408  0.00  0.00     0.028 H 
ENDBRANCH  22  57
BRANCH   3  61
ATOM     61  O   LIG d   1       3.702  -3.149  -2.687  0.00  0.00    -0.506 OA
ATOM     62  H   LIG d   1       2.942  -3.331  -3.257  0.00  0.00     0.292 HD
ENDBRANCH   3  61
BRANCH  24  63
ATOM     63  O   LIG d   1      13.669   1.034  -3.062  0.00  0.00    -0.506 OA
ATOM     64  H   LIG d   1      13.999   0.273  -2.564  0.00  0.00     0.292 HD
ENDBRANCH  24  63
TORSDOF 10
ENDMDL
MODEL 6
REMARK VINA RESULT:      -6.0      1.721      6.399
REMARK  10 active torsions:
REMARK  status: ('A' for Active; 'I' for Inactive)
REMARK    1  A    between atoms: C_1  and  C_2 
REMARK    2  A    between atoms: C_4  and  O_43 
REMARK    3  A    between atoms: C_12  and  O_39 
REMARK    4  A    between atoms: C_21  and  O_37 
REMARK    5  A    between atoms: C_23  and  C_36 
REMARK    6  A    between atoms: C_25  and  O_35 
REMARK    7  A    between atoms: C_29  and  O_30 
REMARK    8  A    between atoms: O_37  and  C_38 
REMARK    9  A    between atoms: O_39  and  C_40 
REMARK   10  A    between atoms: C_40  and  C_42 
ROOT
ATOM      1  C   LIG d   1       9.174  -0.423  -6.645  0.00  0.00    -0.036 A 
ATOM      2  C   LIG d   1      10.042  -1.380  -6.168  0.00  0.00    -0.016 A 
ATOM      3  C   LIG d   1       9.571  -2.534  -5.547  0.00  0.00     0.131 A 
ATOM      4  C   LIG d   1       8.187  -2.734  -5.427  0.00  0.00     0.105 A 
ATOM      5  C   LIG d   1       7.321  -1.760  -5.885  0.00  0.00    -0.005 A 
ATOM      6  C   LIG d   1       7.793  -0.585  -6.480  0.00  0.00     0.026 A 
ATOM      7  C   LIG d   1       6.838   0.464  -6.885  0.00  0.00     0.173 C 
ATOM      8  O   LIG d   1       7.229   1.463  -7.451  0.00  0.00    -0.291 OA
ATOM      9  C   LIG d   1       5.373   0.282  -6.588  0.00  0.00     0.094 C 
ATOM     10  H   LIG d   1       4.857   1.238  -6.497  0.00  0.00     0.045 H 
ATOM     11  C   LIG d   1       5.314  -0.557  -5.258  0.00  0.00     0.129 C 
ATOM     12  H   LIG d   1       5.989  -0.154  -4.504  0.00  0.00     0.075 H 
ATOM     13  C   LIG d   1       5.813  -1.940  -5.800  0.00  0.00     0.082 C 
ATOM     14  C   LIG d   1       5.423  -3.078  -4.902  0.00  0.00     0.107 C 
ATOM     15  O   LIG d   1       6.299  -4.201  -5.079  0.00  0.00    -0.460 OA
ATOM     16  C   LIG d   1       7.617  -3.964  -4.837  0.00  0.00     0.343 C 
ATOM     17  O   LIG d   1       8.290  -4.723  -4.169  0.00  0.00    -0.245 OA
ATOM     18  C   LIG d   1       5.349  -2.044  -7.246  0.00  0.00     0.067 C 
ATOM     19  H   LIG d   1       6.222  -2.140  -7.891  0.00  0.00     0.042 H 
ATOM     20  C   LIG d   1       4.659  -0.652  -7.515  0.00  0.00     0.119 C 
ATOM     21  C   LIG d   1       4.497  -0.493  -8.965  0.00  0.00    -0.003 A 
ATOM     22  C   LIG d   1       4.800   0.610  -9.722  0.00  0.00    -0.040 A 
ATOM     23  C   LIG d   1       4.574   0.607 -11.091  0.00  0.00    -0.016 A 
ATOM     24  C   LIG d   1       4.025  -0.500 -11.727  0.00  0.00     0.132 A 
ATOM     25  C   LIG d   1       3.708  -1.634 -10.978  0.00  0.00     0.108 A 
ATOM     26  C   LIG d   1       3.979  -1.639  -9.596  0.00  0.00     0.008 A 
ATOM     27  C   LIG d   1       3.728  -2.872  -8.824  0.00  0.00     0.036 C 
ATOM     28  C   LIG d   1       4.348  -3.094  -7.621  0.00  0.00     0.108 C 
ATOM     29  C   LIG d   1       2.793  -3.886  -9.437  0.00  0.00     0.121 C 
ATOM     30  O   LIG d   1       3.105  -3.986 -10.837  0.00  0.00    -0.456 OA
ATOM     31  C   LIG d   1       3.095  -2.838 -11.559  0.00  0.00     0.344 C 
ATOM     32  O   LIG d   1       2.590  -2.805 -12.664  0.00  0.00    -0.245 OA
ATOM     33  H   LIG d   1      11.107  -1.234  -6.279  0.00  0.00     0.066 H 
ATOM     34  H   LIG d   1       5.471  -2.748  -3.865  0.00  0.00     0.071 H 
ATOM     35  H   LIG d   1       4.402  -3.382  -5.134  0.00  0.00     0.071 H 
ATOM     36  H   LIG d   1       4.829   1.481 -11.672  0.00  0.00     0.066 H 
ATOM     37  H   LIG d   1       2.934  -4.855  -8.957  0.00  0.00     0.075 H 
ATOM     38  H   LIG d   1       1.761  -3.559  -9.311  0.00  0.00     0.075 H 
ENDROOT
BRANCH  11  39
ATOM     39  O   LIG d   1       3.977  -0.644  -4.758  0.00  0.00    -0.460 OA
BRANCH  39  40
ATOM     40  C   LIG d   1       3.660   0.152  -3.726  0.00  0.00     0.304 C 
ATOM     41  O   LIG d   1       3.168   1.237  -3.928  0.00  0.00    -0.251 OA
BRANCH  40  42
ATOM     42  C   LIG d   1       3.918  -0.307  -2.313  0.00  0.00     0.033 C 
ATOM     43  H   LIG d   1       4.908   0.022  -1.999  0.00  0.00     0.034 H 
ATOM     44  H   LIG d   1       3.165   0.119  -1.650  0.00  0.00     0.034 H 
ATOM     45  H   LIG d   1       3.866  -1.395  -2.270  0.00  0.00     0.034 H 
ENDBRANCH  40  42
ENDBRANCH  39  40
ENDBRANCH  11  39
BRANCH  20  46
ATOM     46  O   LIG d   1       3.337  -0.795  -6.994  0.00  0.00    -0.370 OA
BRANCH  46  47
ATOM     47  C   LIG d   1       2.464   0.290  -7.319  0.00  0.00     0.038 C 
ATOM     48  H   LIG d   1       2.395   0.388  -8.402  0.00  0.00     0.052 H 
ATOM     49  H   LIG d   1       1.473   0.095  -6.909  0.00  0.00     0.052 H 
ATOM     50  H   LIG d   1       2.858   1.213  -6.894  0.00  0.00     0.052 H 
ENDBRANCH  46  47
ENDBRANCH  20  46
BRANCH  28  51
ATOM     51  O   LIG d   1       4.075  -4.158  -6.831  0.00  0.00    -0.510 OA
ATOM     52  H   LIG d   1       4.666  -4.244  -6.069  0.00  0.00     0.292 HD
ENDBRANCH  28  51
BRANCH   1  53
ATOM     53  C   LIG d   1       9.711   0.803  -7.338  0.00  0.00    -0.039 C 
ATOM     54  H   LIG d   1      10.793   0.846  -7.213  0.00  0.00     0.028 H 
ATOM     55  H   LIG d   1       9.468   0.756  -8.399  0.00  0.00     0.028 H 
ATOM     56  H   LIG d   1       9.259   1.694  -6.901  0.00  0.00     0.028 H 
ENDBRANCH   1  53
BRANCH  22  57
ATOM     57  C   LIG d   1       5.383   1.833  -9.062  0.00  0.00    -0.039 C 
ATOM     58  H   LIG d   1       4.585   2.402  -8.584  0.00  0.00     0.028 H 
ATOM     59  H   LIG d   1       6.112   1.528  -8.312  0.00  0.00     0.028 H 
ATOM     60  H   LIG d   1       5.872   2.453  -9.814  0.00  0.00     0.028 H 
ENDBRANCH  22  57
BRANCH   3  61
ATOM     61  O   LIG d   1      10.439  -3.454  -5.062  0.00  0.00    -0.506 OA
ATOM     62  H   LIG d   1      10.831  -3.215  -4.211  0.00  0.00     0.292 HD
ENDBRANCH   3  61
BRANCH  24  63
ATOM     63  O   LIG d   1       3.799  -0.478 -13.065  0.00  0.00    -0.506 OA
ATOM     64  H   LIG d   1       4.472   0.002 -13.569  0.00  0.00     0.292 HD
ENDBRANCH  24  63
TORSDOF 10
ENDMDL
MODEL 7
REMARK VINA RESULT:      -6.0      2.134      5.995
REMARK  10 active torsions:
REMARK  status: ('A' for Active; 'I' for Inactive)
REMARK    1  A    between atoms: C_1  and  C_2 
REMARK    2  A    between atoms: C_4  and  O_43 
REMARK    3  A    between atoms: C_12  and  O_39 
REMARK    4  A    between atoms: C_21  and  O_37 
REMARK    5  A    between atoms: C_23  and  C_36 
REMARK    6  A    between atoms: C_25  and  O_35 
REMARK    7  A    between atoms: C_29  and  O_30 
REMARK    8  A    between atoms: O_37  and  C_38 
REMARK    9  A    between atoms: O_39  and  C_40 
REMARK   10  A    between atoms: C_40  and  C_42 
ROOT
ATOM      1  C   LIG d   1       9.244  -3.137  -6.235  0.00  0.00    -0.036 A 
ATOM      2  C   LIG d   1       9.709  -4.423  -6.067  0.00  0.00    -0.016 A 
ATOM      3  C   LIG d   1       8.837  -5.474  -5.793  0.00  0.00     0.131 A 
ATOM      4  C   LIG d   1       7.459  -5.220  -5.711  0.00  0.00     0.105 A 
ATOM      5  C   LIG d   1       7.000  -3.926  -5.855  0.00  0.00    -0.005 A 
ATOM      6  C   LIG d   1       7.877  -2.863  -6.098  0.00  0.00     0.026 A 
ATOM      7  C   LIG d   1       7.355  -1.485  -6.169  0.00  0.00     0.173 C 
ATOM      8  O   LIG d   1       8.096  -0.562  -6.433  0.00  0.00    -0.291 OA
ATOM      9  C   LIG d   1       5.893  -1.236  -5.910  0.00  0.00     0.094 C 
ATOM     10  H   LIG d   1       5.713  -0.227  -5.540  0.00  0.00     0.045 H 
ATOM     11  C   LIG d   1       5.455  -2.337  -4.874  0.00  0.00     0.129 C 
ATOM     12  H   LIG d   1       6.163  -2.410  -4.049  0.00  0.00     0.075 H 
ATOM     13  C   LIG d   1       5.515  -3.602  -5.798  0.00  0.00     0.082 C 
ATOM     14  C   LIG d   1       4.703  -4.743  -5.256  0.00  0.00     0.107 C 
ATOM     15  O   LIG d   1       5.173  -6.000  -5.763  0.00  0.00    -0.460 OA
ATOM     16  C   LIG d   1       6.472  -6.298  -5.486  0.00  0.00     0.343 C 
ATOM     17  O   LIG d   1       6.803  -7.392  -5.076  0.00  0.00    -0.245 OA
ATOM     18  C   LIG d   1       5.160  -3.142  -7.205  0.00  0.00     0.067 C 
ATOM     19  H   LIG d   1       6.002  -3.345  -7.867  0.00  0.00     0.042 H 
ATOM     20  C   LIG d   1       4.989  -1.582  -7.052  0.00  0.00     0.119 C 
ATOM     21  C   LIG d   1       5.005  -0.985  -8.393  0.00  0.00    -0.003 A 
ATOM     22  C   LIG d   1       5.712   0.114  -8.809  0.00  0.00    -0.040 A 
ATOM     23  C   LIG d   1       5.608   0.564 -10.117  0.00  0.00    -0.016 A 
ATOM     24  C   LIG d   1       4.779  -0.073 -11.033  0.00  0.00     0.132 A 
ATOM     25  C   LIG d   1       4.049  -1.193 -10.634  0.00  0.00     0.108 A 
ATOM     26  C   LIG d   1       4.191  -1.668  -9.316  0.00  0.00     0.008 A 
ATOM     27  C   LIG d   1       3.489  -2.907  -8.925  0.00  0.00     0.036 C 
ATOM     28  C   LIG d   1       3.903  -3.646  -7.846  0.00  0.00     0.108 C 
ATOM     29  C   LIG d   1       2.325  -3.336  -9.784  0.00  0.00     0.121 C 
ATOM     30  O   LIG d   1       2.698  -3.147 -11.159  0.00  0.00    -0.456 OA
ATOM     31  C   LIG d   1       3.123  -1.911 -11.523  0.00  0.00     0.344 C 
ATOM     32  O   LIG d   1       2.747  -1.407 -12.564  0.00  0.00    -0.245 OA
ATOM     33  H   LIG d   1      10.768  -4.619  -6.151  0.00  0.00     0.066 H 
ATOM     34  H   LIG d   1       4.773  -4.746  -4.169  0.00  0.00     0.071 H 
ATOM     35  H   LIG d   1       3.660  -4.608  -5.546  0.00  0.00     0.071 H 
ATOM     36  H   LIG d   1       6.181   1.424 -10.429  0.00  0.00     0.066 H 
ATOM     37  H   LIG d   1       2.102  -4.388  -9.604  0.00  0.00     0.075 H 
ATOM     38  H   LIG d   1       1.451  -2.728  -9.551  0.00  0.00     0.075 H 
ENDROOT
BRANCH  11  39
ATOM     39  O   LIG d   1       4.128  -2.103  -4.396  0.00  0.00    -0.460 OA
BRANCH  39  40
ATOM     40  C   LIG d   1       3.988  -1.858  -3.084  0.00  0.00     0.304 C 
ATOM     41  O   LIG d   1       3.620  -2.737  -2.341  0.00  0.00    -0.251 OA
BRANCH  40  42
ATOM     42  C   LIG d   1       4.289  -0.486  -2.537  0.00  0.00     0.033 C 
ATOM     43  H   LIG d   1       5.354  -0.408  -2.319  0.00  0.00     0.034 H 
ATOM     44  H   LIG d   1       4.013   0.267  -3.275  0.00  0.00     0.034 H 
ATOM     45  H   LIG d   1       3.718  -0.327  -1.623  0.00  0.00     0.034 H 
ENDBRANCH  40  42
ENDBRANCH  39  40
ENDBRANCH  11  39
BRANCH  20  46
ATOM     46  O   LIG d   1       3.655  -1.408  -6.570  0.00  0.00    -0.370 OA
BRANCH  46  47
ATOM     47  C   LIG d   1       3.236  -0.043  -6.502  0.00  0.00     0.038 C 
ATOM     48  H   LIG d   1       4.062   0.606  -6.791  0.00  0.00     0.052 H 
ATOM     49  H   LIG d   1       2.397   0.113  -7.180  0.00  0.00     0.052 H 
ATOM     50  H   LIG d   1       2.928   0.192  -5.483  0.00  0.00     0.052 H 
ENDBRANCH  46  47
ENDBRANCH  20  46
BRANCH  28  51
ATOM     51  O   LIG d   1       3.234  -4.730  -7.388  0.00  0.00    -0.510 OA
ATOM     52  H   LIG d   1       2.878  -4.624  -6.495  0.00  0.00     0.292 HD
ENDBRANCH  28  51
BRANCH   1  53
ATOM     53  C   LIG d   1      10.207  -2.024  -6.558  0.00  0.00    -0.039 C 
ATOM     54  H   LIG d   1       9.679  -1.070  -6.539  0.00  0.00     0.028 H 
ATOM     55  H   LIG d   1      11.009  -2.011  -5.821  0.00  0.00     0.028 H 
ATOM     56  H   LIG d   1      10.629  -2.186  -7.550  0.00  0.00     0.028 H 
ENDBRANCH   1  53
BRANCH  22  57
ATOM     57  C   LIG d   1       6.608   0.837  -7.837  0.00  0.00    -0.039 C 
ATOM     58  H   LIG d   1       6.809   1.842  -8.208  0.00  0.00     0.028 H 
ATOM     59  H   LIG d   1       6.118   0.898  -6.867  0.00  0.00     0.028 H 
ATOM     60  H   LIG d   1       7.548   0.293  -7.736  0.00  0.00     0.028 H 
ENDBRANCH  22  57
BRANCH   3  61
ATOM     61  O   LIG d   1       9.313  -6.728  -5.608  0.00  0.00    -0.506 OA
ATOM     62  H   LIG d   1       9.534  -7.190  -6.428  0.00  0.00     0.292 HD
ENDBRANCH   3  61
BRANCH  24  63
ATOM     63  O   LIG d   1       4.681   0.391 -12.304  0.00  0.00    -0.506 OA
ATOM     64  H   LIG d   1       5.423   0.141 -12.872  0.00  0.00     0.292 HD
ENDBRANCH  24  63
TORSDOF 10
ENDMDL
MODEL 8
REMARK VINA RESULT:      -6.0      2.193      6.288
REMARK  10 active torsions:
REMARK  status: ('A' for Active; 'I' for Inactive)
REMARK    1  A    between atoms: C_1  and  C_2 
REMARK    2  A    between atoms: C_4  and  O_43 
REMARK    3  A    between atoms: C_12  and  O_39 
REMARK    4  A    between atoms: C_21  and  O_37 
REMARK    5  A    between atoms: C_23  and  C_36 
REMARK    6  A    between atoms: C_25  and  O_35 
REMARK    7  A    between atoms: C_29  and  O_30 
REMARK    8  A    between atoms: O_37  and  C_38 
REMARK    9  A    between atoms: O_39  and  C_40 
REMARK   10  A    between atoms: C_40  and  C_42 
ROOT
ATOM      1  C   LIG d   1       4.499  -1.670  -2.906  0.00  0.00    -0.036 A 
ATOM      2  C   LIG d   1       4.565  -0.439  -2.291  0.00  0.00    -0.016 A 
ATOM      3  C   LIG d   1       5.532   0.496  -2.655  0.00  0.00     0.131 A 
ATOM      4  C   LIG d   1       6.436   0.185  -3.682  0.00  0.00     0.105 A 
ATOM      5  C   LIG d   1       6.381  -1.059  -4.278  0.00  0.00    -0.005 A 
ATOM      6  C   LIG d   1       5.432  -2.013  -3.892  0.00  0.00     0.026 A 
ATOM      7  C   LIG d   1       5.457  -3.357  -4.499  0.00  0.00     0.173 C 
ATOM      8  O   LIG d   1       4.607  -4.173  -4.214  0.00  0.00    -0.291 OA
ATOM      9  C   LIG d   1       6.548  -3.704  -5.478  0.00  0.00     0.094 C 
ATOM     10  H   LIG d   1       6.745  -4.776  -5.500  0.00  0.00     0.045 H 
ATOM     11  C   LIG d   1       7.804  -2.875  -5.020  0.00  0.00     0.129 C 
ATOM     12  H   LIG d   1       7.969  -2.964  -3.946  0.00  0.00     0.075 H 
ATOM     13  C   LIG d   1       7.324  -1.436  -5.412  0.00  0.00     0.082 C 
ATOM     14  C   LIG d   1       8.465  -0.471  -5.549  0.00  0.00     0.107 C 
ATOM     15  O   LIG d   1       8.026   0.882  -5.363  0.00  0.00    -0.460 OA
ATOM     16  C   LIG d   1       7.445   1.153  -4.162  0.00  0.00     0.343 C 
ATOM     17  O   LIG d   1       7.741   2.139  -3.518  0.00  0.00    -0.245 OA
ATOM     18  C   LIG d   1       6.427  -1.583  -6.633  0.00  0.00     0.067 C 
ATOM     19  H   LIG d   1       5.432  -1.211  -6.389  0.00  0.00     0.042 H 
ATOM     20  C   LIG d   1       6.355  -3.143  -6.853  0.00  0.00     0.119 C 
ATOM     21  C   LIG d   1       5.241  -3.427  -7.766  0.00  0.00    -0.003 A 
ATOM     22  C   LIG d   1       4.268  -4.382  -7.624  0.00  0.00    -0.040 A 
ATOM     23  C   LIG d   1       3.284  -4.534  -8.590  0.00  0.00    -0.016 A 
ATOM     24  C   LIG d   1       3.265  -3.738  -9.729  0.00  0.00     0.132 A 
ATOM     25  C   LIG d   1       4.245  -2.758  -9.897  0.00  0.00     0.108 A 
ATOM     26  C   LIG d   1       5.216  -2.583  -8.891  0.00  0.00     0.008 A 
ATOM     27  C   LIG d   1       6.195  -1.485  -9.029  0.00  0.00     0.036 C 
ATOM     28  C   LIG d   1       6.863  -0.991  -7.938  0.00  0.00     0.108 C 
ATOM     29  C   LIG d   1       6.395  -0.915 -10.412  0.00  0.00     0.121 C 
ATOM     30  O   LIG d   1       5.102  -0.782 -11.026  0.00  0.00    -0.456 OA
ATOM     31  C   LIG d   1       4.324  -1.892 -11.082  0.00  0.00     0.344 C 
ATOM     32  O   LIG d   1       3.704  -2.164 -12.092  0.00  0.00    -0.245 OA
ATOM     33  H   LIG d   1       3.855  -0.195  -1.515  0.00  0.00     0.066 H 
ATOM     34  H   LIG d   1       9.223  -0.706  -4.802  0.00  0.00     0.071 H 
ATOM     35  H   LIG d   1       8.900  -0.571  -6.543  0.00  0.00     0.071 H 
ATOM     36  H   LIG d   1       2.520  -5.285  -8.455  0.00  0.00     0.066 H 
ATOM     37  H   LIG d   1       6.872   0.063 -10.341  0.00  0.00     0.075 H 
ATOM     38  H   LIG d   1       7.017  -1.587 -11.002  0.00  0.00     0.075 H 
ENDROOT
BRANCH  11  39
ATOM     39  O   LIG d   1       8.971  -3.253  -5.754  0.00  0.00    -0.460 OA
BRANCH  39  40
ATOM     40  C   LIG d   1       9.874  -4.010  -5.113  0.00  0.00     0.304 C 
ATOM     41  O   LIG d   1      10.667  -4.670  -5.743  0.00  0.00    -0.251 OA
BRANCH  40  42
ATOM     42  C   LIG d   1       9.900  -4.040  -3.605  0.00  0.00     0.033 C 
ATOM     43  H   LIG d   1       8.885  -3.927  -3.223  0.00  0.00     0.034 H 
ATOM     44  H   LIG d   1      10.313  -4.991  -3.268  0.00  0.00     0.034 H 
ATOM     45  H   LIG d   1      10.520  -3.223  -3.237  0.00  0.00     0.034 H 
ENDBRANCH  40  42
ENDBRANCH  39  40
ENDBRANCH  11  39
BRANCH  20  46
ATOM     46  O   LIG d   1       7.541  -3.464  -7.582  0.00  0.00    -0.370 OA
BRANCH  46  47
ATOM     47  C   LIG d   1       7.594  -4.817  -8.039  0.00  0.00     0.038 C 
ATOM     48  H   LIG d   1       6.751  -5.010  -8.702  0.00  0.00     0.052 H 
ATOM     49  H   LIG d   1       8.526  -4.981  -8.580  0.00  0.00     0.052 H 
ATOM     50  H   LIG d   1       7.547  -5.491  -7.184  0.00  0.00     0.052 H 
ENDBRANCH  46  47
ENDBRANCH  20  46
BRANCH  28  51
ATOM     51  O   LIG d   1       7.840  -0.058  -8.026  0.00  0.00    -0.510 OA
ATOM     52  H   LIG d   1       8.323  -0.072  -8.864  0.00  0.00     0.292 HD
ENDBRANCH  28  51
BRANCH   1  53
ATOM     53  C   LIG d   1       3.426  -2.652  -2.511  0.00  0.00    -0.039 C 
ATOM     54  H   LIG d   1       3.809  -3.319  -1.739  0.00  0.00     0.028 H 
ATOM     55  H   LIG d   1       2.561  -2.111  -2.128  0.00  0.00     0.028 H 
ATOM     56  H   LIG d   1       3.131  -3.237  -3.383  0.00  0.00     0.028 H 
ENDBRANCH   1  53
BRANCH  22  57
ATOM     57  C   LIG d   1       4.268  -5.274  -6.408  0.00  0.00    -0.039 C 
ATOM     58  H   LIG d   1       4.398  -6.310  -6.718  0.00  0.00     0.028 H 
ATOM     59  H   LIG d   1       5.084  -4.986  -5.747  0.00  0.00     0.028 H 
ATOM     60  H   LIG d   1       3.319  -5.169  -5.881  0.00  0.00     0.028 H 
ENDBRANCH  22  57
BRANCH   3  61
ATOM     61  O   LIG d   1       5.598   1.692  -2.024  0.00  0.00    -0.506 OA
ATOM     62  H   LIG d   1       6.358   1.784  -1.433  0.00  0.00     0.292 HD
ENDBRANCH   3  61
BRANCH  24  63
ATOM     63  O   LIG d   1       2.303  -3.911 -10.669  0.00  0.00    -0.506 OA
ATOM     64  H   LIG d   1       1.441  -3.546 -10.421  0.00  0.00     0.292 HD
ENDBRANCH  24  63
TORSDOF 10
ENDMDL
MODEL 9
REMARK VINA RESULT:      -6.0      2.218      6.394
REMARK  10 active torsions:
REMARK  status: ('A' for Active; 'I' for Inactive)
REMARK    1  A    between atoms: C_1  and  C_2 
REMARK    2  A    between atoms: C_4  and  O_43 
REMARK    3  A    between atoms: C_12  and  O_39 
REMARK    4  A    between atoms: C_21  and  O_37 
REMARK    5  A    between atoms: C_23  and  C_36 
REMARK    6  A    between atoms: C_25  and  O_35 
REMARK    7  A    between atoms: C_29  and  O_30 
REMARK    8  A    between atoms: O_37  and  C_38 
REMARK    9  A    between atoms: O_39  and  C_40 
REMARK   10  A    between atoms: C_40  and  C_42 
ROOT
ATOM      1  C   LIG d   1       8.611   0.690  -6.771  0.00  0.00    -0.036 A 
ATOM      2  C   LIG d   1       8.893   1.309  -5.574  0.00  0.00    -0.016 A 
ATOM      3  C   LIG d   1       7.984   1.283  -4.519  0.00  0.00     0.131 A 
ATOM      4  C   LIG d   1       6.772   0.594  -4.672  0.00  0.00     0.105 A 
ATOM      5  C   LIG d   1       6.483  -0.004  -5.883  0.00  0.00    -0.005 A 
ATOM      6  C   LIG d   1       7.380   0.047  -6.956  0.00  0.00     0.026 A 
ATOM      7  C   LIG d   1       7.001  -0.538  -8.256  0.00  0.00     0.173 C 
ATOM      8  O   LIG d   1       7.791  -0.548  -9.176  0.00  0.00    -0.291 OA
ATOM      9  C   LIG d   1       5.624  -1.122  -8.428  0.00  0.00     0.094 C 
ATOM     10  H   LIG d   1       5.299  -1.093  -9.468  0.00  0.00     0.045 H 
ATOM     11  C   LIG d   1       4.687  -0.277  -7.487  0.00  0.00     0.129 C 
ATOM     12  H   LIG d   1       4.859   0.792  -7.612  0.00  0.00     0.075 H 
ATOM     13  C   LIG d   1       5.193  -0.783  -6.093  0.00  0.00     0.082 C 
ATOM     14  C   LIG d   1       4.194  -0.537  -5.000  0.00  0.00     0.107 C 
ATOM     15  O   LIG d   1       4.832  -0.483  -3.716  0.00  0.00    -0.460 OA
ATOM     16  C   LIG d   1       5.789   0.473  -3.574  0.00  0.00     0.343 C 
ATOM     17  O   LIG d   1       5.835   1.190  -2.595  0.00  0.00    -0.245 OA
ATOM     18  C   LIG d   1       5.634  -2.228  -6.278  0.00  0.00     0.067 C 
ATOM     19  H   LIG d   1       6.693  -2.309  -6.033  0.00  0.00     0.042 H 
ATOM     20  C   LIG d   1       5.442  -2.479  -7.822  0.00  0.00     0.119 C 
ATOM     21  C   LIG d   1       6.168  -3.704  -8.182  0.00  0.00    -0.003 A 
ATOM     22  C   LIG d   1       7.011  -3.891  -9.247  0.00  0.00    -0.040 A 
ATOM     23  C   LIG d   1       7.614  -5.121  -9.459  0.00  0.00    -0.016 A 
ATOM     24  C   LIG d   1       7.372  -6.197  -8.613  0.00  0.00     0.132 A 
ATOM     25  C   LIG d   1       6.517  -6.032  -7.522  0.00  0.00     0.108 A 
ATOM     26  C   LIG d   1       5.941  -4.767  -7.290  0.00  0.00     0.008 A 
ATOM     27  C   LIG d   1       5.111  -4.572  -6.084  0.00  0.00     0.036 C 
ATOM     28  C   LIG d   1       4.886  -3.319  -5.574  0.00  0.00     0.108 C 
ATOM     29  C   LIG d   1       4.558  -5.812  -5.425  0.00  0.00     0.121 C 
ATOM     30  O   LIG d   1       5.598  -6.804  -5.407  0.00  0.00    -0.456 OA
ATOM     31  C   LIG d   1       6.176  -7.119  -6.593  0.00  0.00     0.344 C 
ATOM     32  O   LIG d   1       6.409  -8.277  -6.881  0.00  0.00    -0.245 OA
ATOM     33  H   LIG d   1       9.836   1.822  -5.450  0.00  0.00     0.066 H 
ATOM     34  H   LIG d   1       3.686   0.409  -5.187  0.00  0.00     0.071 H 
ATOM     35  H   LIG d   1       3.459  -1.343  -5.000  0.00  0.00     0.071 H 
ATOM     36  H   LIG d   1       8.284  -5.247 -10.297  0.00  0.00     0.066 H 
ATOM     37  H   LIG d   1       4.251  -5.581  -4.404  0.00  0.00     0.075 H 
ATOM     38  H   LIG d   1       3.704  -6.181  -5.992  0.00  0.00     0.075 H 
ENDROOT
BRANCH  11  39
ATOM     39  O   LIG d   1       3.311  -0.606  -7.693  0.00  0.00    -0.460 OA
BRANCH  39  40
ATOM     40  C   LIG d   1       2.606   0.205  -8.497  0.00  0.00     0.304 C 
ATOM     41  O   LIG d   1       1.775  -0.257  -9.243  0.00  0.00    -0.251 OA
BRANCH  40  42
ATOM     42  C   LIG d   1       2.850   1.692  -8.469  0.00  0.00     0.033 C 
ATOM     43  H   LIG d   1       2.007   2.208  -8.928  0.00  0.00     0.034 H 
ATOM     44  H   LIG d   1       2.961   2.023  -7.436  0.00  0.00     0.034 H 
ATOM     45  H   LIG d   1       3.761   1.920  -9.023  0.00  0.00     0.034 H 
ENDBRANCH  40  42
ENDBRANCH  39  40
ENDBRANCH  11  39
BRANCH  20  46
ATOM     46  O   LIG d   1       4.056  -2.797  -7.970  0.00  0.00    -0.370 OA
BRANCH  46  47
ATOM     47  C   LIG d   1       3.704  -3.272  -9.271  0.00  0.00     0.038 C 
ATOM     48  H   LIG d   1       2.652  -3.553  -9.283  0.00  0.00     0.052 H 
ATOM     49  H   LIG d   1       3.878  -2.485 -10.005  0.00  0.00     0.052 H 
ATOM     50  H   LIG d   1       4.317  -4.140  -9.518  0.00  0.00     0.052 H 
ENDBRANCH  46  47
ENDBRANCH  20  46
BRANCH  28  51
ATOM     51  O   LIG d   1       4.054  -3.079  -4.534  0.00  0.00    -0.510 OA
ATOM     52  H   LIG d   1       4.360  -2.383  -3.937  0.00  0.00     0.292 HD
ENDBRANCH  28  51
BRANCH   1  53
ATOM     53  C   LIG d   1       9.625   0.709  -7.886  0.00  0.00    -0.039 C 
ATOM     54  H   LIG d   1       9.502   1.619  -8.473  0.00  0.00     0.028 H 
ATOM     55  H   LIG d   1      10.629   0.681  -7.465  0.00  0.00     0.028 H 
ATOM     56  H   LIG d   1       9.476  -0.160  -8.527  0.00  0.00     0.028 H 
ENDBRANCH   1  53
BRANCH  22  57
ATOM     57  C   LIG d   1       7.284  -2.750 -10.194  0.00  0.00    -0.039 C 
ATOM     58  H   LIG d   1       8.129  -2.168  -9.827  0.00  0.00     0.028 H 
ATOM     59  H   LIG d   1       7.516  -3.146 -11.182  0.00  0.00     0.028 H 
ATOM     60  H   LIG d   1       6.403  -2.111 -10.257  0.00  0.00     0.028 H 
ENDBRANCH  22  57
BRANCH   3  61
ATOM     61  O   LIG d   1       8.267   1.918  -3.356  0.00  0.00    -0.506 OA
ATOM     62  H   LIG d   1       8.071   2.865  -3.366  0.00  0.00     0.292 HD
ENDBRANCH   3  61
BRANCH  24  63
ATOM     63  O   LIG d   1       7.961  -7.397  -8.845  0.00  0.00    -0.506 OA
ATOM     64  H   LIG d   1       8.697  -7.358  -9.471  0.00  0.00     0.292 HD
ENDBRANCH  24  63
TORSDOF 10
ENDMDL
