MODEL 1
REMARK VINA RESULT:      -5.6      0.000      0.000
REMARK  14 active torsions:
REMARK  status: ('A' for Active; 'I' for Inactive)
REMARK    1  A    between atoms: C_1  and  C_2 
REMARK    2  A    between atoms: C_2  and  C_3 
REMARK    3  A    between atoms: C_3  and  C_4 
REMARK    4  A    between atoms: C_4  and  C_5 
REMARK    5  A    between atoms: C_5  and  O_7 
REMARK    6  A    between atoms: O_7  and  C_8 
REMARK    7  A    between atoms: C_8  and  C_9 
REMARK    8  A    between atoms: C_9  and  C_10 
REMARK    9  A    between atoms: C_10  and  C_12 
REMARK   10  A    between atoms: C_10  and  C_13 
REMARK   11  A    between atoms: C_13  and  C_14 
REMARK   12  A    between atoms: C_14  and  C_15 
REMARK   13  A    between atoms: C_16  and  C_17 
REMARK   14  A    between atoms: C_16  and  C_18 
ROOT
ATOM      1  C   LIG d   1       2.672  -0.267  -3.093  0.00  0.00    -0.041 C 
ATOM      2  H   LIG d   1       1.669  -0.412  -2.689  0.00  0.00     0.030 H 
ENDROOT
BRANCH   1   3
ATOM      3  C   LIG d   1       2.573   0.166  -4.557  0.00  0.00    -0.016 C 
ATOM      4  H   LIG d   1       1.640  -0.201  -4.983  0.00  0.00     0.030 H 
ATOM      5  H   LIG d   1       2.597   1.254  -4.616  0.00  0.00     0.030 H 
BRANCH   3   6
ATOM      6  C   LIG d   1       3.754  -0.411  -5.340  0.00  0.00     0.093 C 
ATOM      7  H   LIG d   1       4.670  -0.286  -4.762  0.00  0.00     0.070 H 
ATOM      8  H   LIG d   1       3.583  -1.472  -5.525  0.00  0.00     0.070 H 
BRANCH   6   9
ATOM      9  O   LIG d   1       3.883   0.287  -6.607  0.00  0.00    -0.465 OA
BRANCH   9  10
ATOM     10  C   LIG d   1       3.360  -0.312  -7.688  0.00  0.00     0.307 C 
ATOM     11  O   LIG d   1       3.484  -1.504  -7.838  0.00  0.00    -0.251 OA
BRANCH  10  12
ATOM     12  C   LIG d   1       2.619   0.503  -8.716  0.00  0.00     0.045 C 
ATOM     13  H   LIG d   1       2.959   0.227  -9.715  0.00  0.00     0.038 H 
ATOM     14  H   LIG d   1       1.549   0.311  -8.631  0.00  0.00     0.038 H 
BRANCH  12  15
ATOM     15  C   LIG d   1       2.890   1.990  -8.480  0.00  0.00    -0.043 C 
ATOM     16  H   LIG d   1       1.943   2.527  -8.418  0.00  0.00     0.027 H 
ATOM     17  H   LIG d   1       3.440   2.115  -7.546  0.00  0.00     0.027 H 
BRANCH  15  18
ATOM     18  C   LIG d   1       3.718   2.549  -9.639  0.00  0.00    -0.055 C 
ATOM     19  H   LIG d   1       3.213   3.417 -10.061  0.00  0.00     0.026 H 
ATOM     20  H   LIG d   1       4.702   2.843  -9.272  0.00  0.00     0.026 H 
BRANCH  18  21
ATOM     21  C   LIG d   1       3.875   1.475 -10.717  0.00  0.00    -0.065 C 
ATOM     22  H   LIG d   1       2.994   0.833 -10.720  0.00  0.00     0.023 H 
ATOM     23  H   LIG d   1       3.981   1.951 -11.691  0.00  0.00     0.023 H 
ATOM     24  H   LIG d   1       4.761   0.876 -10.508  0.00  0.00     0.023 H 
ENDBRANCH  18  21
ENDBRANCH  15  18
ENDBRANCH  12  15
ENDBRANCH  10  12
ENDBRANCH   9  10
ENDBRANCH   6   9
ENDBRANCH   3   6
ENDBRANCH   1   3
BRANCH   1  25
ATOM     25  C   LIG d   1       3.454  -1.578  -3.000  0.00  0.00    -0.062 C 
ATOM     26  H   LIG d   1       4.519  -1.362  -2.938  0.00  0.00     0.023 H 
ATOM     27  H   LIG d   1       3.141  -2.125  -2.110  0.00  0.00     0.023 H 
ATOM     28  H   LIG d   1       3.256  -2.183  -3.885  0.00  0.00     0.023 H 
ENDBRANCH   1  25
BRANCH   1  29
ATOM     29  C   LIG d   1       3.393   0.816  -2.289  0.00  0.00    -0.047 C 
ATOM     30  H   LIG d   1       3.382   1.752  -2.847  0.00  0.00     0.027 H 
ATOM     31  H   LIG d   1       2.888   0.956  -1.334  0.00  0.00     0.027 H 
BRANCH  29  32
ATOM     32  C   LIG d   1       4.842   0.389  -2.041  0.00  0.00    -0.034 C 
ATOM     33  H   LIG d   1       5.065   0.464  -0.977  0.00  0.00     0.031 H 
ATOM     34  H   LIG d   1       4.977  -0.642  -2.369  0.00  0.00     0.031 H 
BRANCH  32  35
ATOM     35  C   LIG d   1       5.771   1.289  -2.814  0.00  0.00    -0.085 C 
ATOM     36  C   LIG d   1       6.801   0.781  -3.443  0.00  0.00    -0.080 C 
ATOM     37  H   LIG d   1       5.586   2.352  -2.850  0.00  0.00     0.057 H 
BRANCH  36  38
ATOM     38  C   LIG d   1       6.993  -0.713  -3.493  0.00  0.00    -0.044 C 
ATOM     39  H   LIG d   1       8.048  -0.948  -3.354  0.00  0.00     0.027 H 
ATOM     40  H   LIG d   1       6.408  -1.182  -2.703  0.00  0.00     0.027 H 
ATOM     41  H   LIG d   1       6.662  -1.089  -4.462  0.00  0.00     0.027 H 
ENDBRANCH  36  38
BRANCH  36  42
ATOM     42  C   LIG d   1       7.797   1.690  -4.116  0.00  0.00    -0.044 C 
ATOM     43  H   LIG d   1       8.486   2.090  -3.372  0.00  0.00     0.027 H 
ATOM     44  H   LIG d   1       8.356   1.128  -4.863  0.00  0.00     0.027 H 
ATOM     45  H   LIG d   1       7.268   2.512  -4.600  0.00  0.00     0.027 H 
ENDBRANCH  36  42
ENDBRANCH  32  35
ENDBRANCH  29  32
ENDBRANCH   1  29
TORSDOF 14
ENDMDL
MODEL 2
REMARK VINA RESULT:      -5.6      1.439      2.261
REMARK  14 active torsions:
REMARK  status: ('A' for Active; 'I' for Inactive)
REMARK    1  A    between atoms: C_1  and  C_2 
REMARK    2  A    between atoms: C_2  and  C_3 
REMARK    3  A    between atoms: C_3  and  C_4 
REMARK    4  A    between atoms: C_4  and  C_5 
REMARK    5  A    between atoms: C_5  and  O_7 
REMARK    6  A    between atoms: O_7  and  C_8 
REMARK    7  A    between atoms: C_8  and  C_9 
REMARK    8  A    between atoms: C_9  and  C_10 
REMARK    9  A    between atoms: C_10  and  C_12 
REMARK   10  A    between atoms: C_10  and  C_13 
REMARK   11  A    between atoms: C_13  and  C_14 
REMARK   12  A    between atoms: C_14  and  C_15 
REMARK   13  A    between atoms: C_16  and  C_17 
REMARK   14  A    between atoms: C_16  and  C_18 
ROOT
ATOM      1  C   LIG d   1       3.934   0.268  -2.998  0.00  0.00    -0.041 C 
ATOM      2  H   LIG d   1       4.828  -0.017  -3.554  0.00  0.00     0.030 H 
ENDROOT
BRANCH   1   3
ATOM      3  C   LIG d   1       3.076   1.199  -3.856  0.00  0.00    -0.016 C 
ATOM      4  H   LIG d   1       2.228   1.554  -3.272  0.00  0.00     0.030 H 
ATOM      5  H   LIG d   1       3.676   2.049  -4.181  0.00  0.00     0.030 H 
BRANCH   3   6
ATOM      6  C   LIG d   1       2.567   0.437  -5.083  0.00  0.00     0.093 C 
ATOM      7  H   LIG d   1       2.645  -0.636  -4.902  0.00  0.00     0.070 H 
ATOM      8  H   LIG d   1       1.526   0.700  -5.266  0.00  0.00     0.070 H 
BRANCH   6   9
ATOM      9  O   LIG d   1       3.369   0.792  -6.240  0.00  0.00    -0.465 OA
BRANCH   9  10
ATOM     10  C   LIG d   1       3.258   0.005  -7.322  0.00  0.00     0.307 C 
ATOM     11  O   LIG d   1       3.682  -1.125  -7.294  0.00  0.00    -0.251 OA
BRANCH  10  12
ATOM     12  C   LIG d   1       2.604   0.534  -8.573  0.00  0.00     0.045 C 
ATOM     13  H   LIG d   1       3.086   0.098  -9.448  0.00  0.00     0.038 H 
ATOM     14  H   LIG d   1       1.547   0.267  -8.571  0.00  0.00     0.038 H 
BRANCH  12  15
ATOM     15  C   LIG d   1       2.746   2.056  -8.619  0.00  0.00    -0.043 C 
ATOM     16  H   LIG d   1       1.803   2.499  -8.940  0.00  0.00     0.027 H 
ATOM     17  H   LIG d   1       3.001   2.427  -7.625  0.00  0.00     0.027 H 
BRANCH  15  18
ATOM     18  C   LIG d   1       3.852   2.437  -9.605  0.00  0.00    -0.055 C 
ATOM     19  H   LIG d   1       3.643   3.420 -10.023  0.00  0.00     0.026 H 
ATOM     20  H   LIG d   1       4.810   2.458  -9.084  0.00  0.00     0.026 H 
BRANCH  18  21
ATOM     21  C   LIG d   1       3.907   1.403 -10.732  0.00  0.00    -0.065 C 
ATOM     22  H   LIG d   1       4.859   0.874 -10.694  0.00  0.00     0.023 H 
ATOM     23  H   LIG d   1       3.090   0.692 -10.612  0.00  0.00     0.023 H 
ATOM     24  H   LIG d   1       3.808   1.909 -11.694  0.00  0.00     0.023 H 
ENDBRANCH  18  21
ENDBRANCH  15  18
ENDBRANCH  12  15
ENDBRANCH  10  12
ENDBRANCH   9  10
ENDBRANCH   6   9
ENDBRANCH   3   6
ENDBRANCH   1   3
BRANCH   1  25
ATOM     25  C   LIG d   1       4.341   0.989  -1.712  0.00  0.00    -0.062 C 
ATOM     26  H   LIG d   1       5.399   0.815  -1.517  0.00  0.00     0.023 H 
ATOM     27  H   LIG d   1       4.164   2.059  -1.824  0.00  0.00     0.023 H 
ATOM     28  H   LIG d   1       3.750   0.609  -0.879  0.00  0.00     0.023 H 
ENDBRANCH   1  25
BRANCH   1  29
ATOM     29  C   LIG d   1       3.132  -0.986  -2.647  0.00  0.00    -0.047 C 
ATOM     30  H   LIG d   1       2.564  -0.810  -1.733  0.00  0.00     0.027 H 
ATOM     31  H   LIG d   1       2.446  -1.219  -3.462  0.00  0.00     0.027 H 
BRANCH  29  32
ATOM     32  C   LIG d   1       4.087  -2.162  -2.434  0.00  0.00    -0.034 C 
ATOM     33  H   LIG d   1       4.962  -1.822  -1.880  0.00  0.00     0.031 H 
ATOM     34  H   LIG d   1       3.580  -2.943  -1.868  0.00  0.00     0.031 H 
BRANCH  32  35
ATOM     35  C   LIG d   1       4.519  -2.709  -3.770  0.00  0.00    -0.085 C 
ATOM     36  C   LIG d   1       5.759  -2.570  -4.165  0.00  0.00    -0.080 C 
ATOM     37  H   LIG d   1       3.804  -3.216  -4.401  0.00  0.00     0.057 H 
BRANCH  36  38
ATOM     38  C   LIG d   1       6.784  -1.969  -3.236  0.00  0.00    -0.044 C 
ATOM     39  H   LIG d   1       6.599  -0.900  -3.136  0.00  0.00     0.027 H 
ATOM     40  H   LIG d   1       6.712  -2.445  -2.259  0.00  0.00     0.027 H 
ATOM     41  H   LIG d   1       7.782  -2.128  -3.645  0.00  0.00     0.027 H 
ENDBRANCH  36  38
BRANCH  36  42
ATOM     42  C   LIG d   1       6.165  -3.009  -5.548  0.00  0.00    -0.044 C 
ATOM     43  H   LIG d   1       5.920  -4.063  -5.681  0.00  0.00     0.027 H 
ATOM     44  H   LIG d   1       5.631  -2.416  -6.289  0.00  0.00     0.027 H 
ATOM     45  H   LIG d   1       7.239  -2.867  -5.674  0.00  0.00     0.027 H 
ENDBRANCH  36  42
ENDBRANCH  32  35
ENDBRANCH  29  32
ENDBRANCH   1  29
TORSDOF 14
ENDMDL
MODEL 3
REMARK VINA RESULT:      -5.5      1.095      1.491
REMARK  14 active torsions:
REMARK  status: ('A' for Active; 'I' for Inactive)
REMARK    1  A    between atoms: C_1  and  C_2 
REMARK    2  A    between atoms: C_2  and  C_3 
REMARK    3  A    between atoms: C_3  and  C_4 
REMARK    4  A    between atoms: C_4  and  C_5 
REMARK    5  A    between atoms: C_5  and  O_7 
REMARK    6  A    between atoms: O_7  and  C_8 
REMARK    7  A    between atoms: C_8  and  C_9 
REMARK    8  A    between atoms: C_9  and  C_10 
REMARK    9  A    between atoms: C_10  and  C_12 
REMARK   10  A    between atoms: C_10  and  C_13 
REMARK   11  A    between atoms: C_13  and  C_14 
REMARK   12  A    between atoms: C_14  and  C_15 
REMARK   13  A    between atoms: C_16  and  C_17 
REMARK   14  A    between atoms: C_16  and  C_18 
ROOT
ATOM      1  C   LIG d   1       2.934  -0.933  -3.037  0.00  0.00    -0.041 C 
ATOM      2  H   LIG d   1       1.870  -1.127  -2.896  0.00  0.00     0.030 H 
ENDROOT
BRANCH   1   3
ATOM      3  C   LIG d   1       3.264  -0.962  -4.530  0.00  0.00    -0.016 C 
ATOM      4  H   LIG d   1       4.343  -1.021  -4.664  0.00  0.00     0.030 H 
ATOM      5  H   LIG d   1       2.793  -1.832  -4.989  0.00  0.00     0.030 H 
BRANCH   3   6
ATOM      6  C   LIG d   1       2.736   0.312  -5.194  0.00  0.00     0.093 C 
ATOM      7  H   LIG d   1       1.728   0.135  -5.570  0.00  0.00     0.070 H 
ATOM      8  H   LIG d   1       2.715   1.120  -4.463  0.00  0.00     0.070 H 
BRANCH   6   9
ATOM      9  O   LIG d   1       3.606   0.679  -6.297  0.00  0.00    -0.465 OA
BRANCH   9  10
ATOM     10  C   LIG d   1       3.021   0.912  -7.483  0.00  0.00     0.307 C 
ATOM     11  O   LIG d   1       2.980   2.034  -7.926  0.00  0.00    -0.251 OA
BRANCH  10  12
ATOM     12  C   LIG d   1       2.414  -0.228  -8.259  0.00  0.00     0.045 C 
ATOM     13  H   LIG d   1       2.221  -1.065  -7.587  0.00  0.00     0.038 H 
ATOM     14  H   LIG d   1       1.477   0.097  -8.711  0.00  0.00     0.038 H 
BRANCH  12  15
ATOM     15  C   LIG d   1       3.382  -0.671  -9.358  0.00  0.00    -0.043 C 
ATOM     16  H   LIG d   1       4.386  -0.315  -9.122  0.00  0.00     0.027 H 
ATOM     17  H   LIG d   1       3.388  -1.760  -9.420  0.00  0.00     0.027 H 
BRANCH  15  18
ATOM     18  C   LIG d   1       2.935  -0.086 -10.699  0.00  0.00    -0.055 C 
ATOM     19  H   LIG d   1       2.857  -0.885 -11.435  0.00  0.00     0.026 H 
ATOM     20  H   LIG d   1       1.965   0.395 -10.579  0.00  0.00     0.026 H 
BRANCH  18  21
ATOM     21  C   LIG d   1       3.962   0.945 -11.172  0.00  0.00    -0.065 C 
ATOM     22  H   LIG d   1       4.681   1.134 -10.375  0.00  0.00     0.023 H 
ATOM     23  H   LIG d   1       4.483   0.562 -12.049  0.00  0.00     0.023 H 
ATOM     24  H   LIG d   1       3.452   1.874 -11.431  0.00  0.00     0.023 H 
ENDBRANCH  18  21
ENDBRANCH  15  18
ENDBRANCH  12  15
ENDBRANCH  10  12
ENDBRANCH   9  10
ENDBRANCH   6   9
ENDBRANCH   3   6
ENDBRANCH   1   3
BRANCH   1  25
ATOM     25  C   LIG d   1       3.748  -2.007  -2.313  0.00  0.00    -0.062 C 
ATOM     26  H   LIG d   1       4.402  -2.509  -3.025  0.00  0.00     0.023 H 
ATOM     27  H   LIG d   1       4.350  -1.542  -1.532  0.00  0.00     0.023 H 
ATOM     28  H   LIG d   1       3.072  -2.735  -1.864  0.00  0.00     0.023 H 
ENDBRANCH   1  25
BRANCH   1  29
ATOM     29  C   LIG d   1       3.282   0.442  -2.465  0.00  0.00    -0.047 C 
ATOM     30  H   LIG d   1       3.214   1.191  -3.254  0.00  0.00     0.027 H 
ATOM     31  H   LIG d   1       2.583   0.691  -1.667  0.00  0.00     0.027 H 
BRANCH  29  32
ATOM     32  C   LIG d   1       4.706   0.419  -1.907  0.00  0.00    -0.034 C 
ATOM     33  H   LIG d   1       4.697   0.768  -0.874  0.00  0.00     0.031 H 
ATOM     34  H   LIG d   1       5.093  -0.599  -1.942  0.00  0.00     0.031 H 
BRANCH  32  35
ATOM     35  C   LIG d   1       5.586   1.320  -2.734  0.00  0.00    -0.085 C 
ATOM     36  C   LIG d   1       6.621   0.825  -3.366  0.00  0.00    -0.080 C 
ATOM     37  H   LIG d   1       5.363   2.374  -2.805  0.00  0.00     0.057 H 
BRANCH  36  38
ATOM     38  C   LIG d   1       6.865  -0.663  -3.364  0.00  0.00    -0.044 C 
ATOM     39  H   LIG d   1       6.488  -1.093  -4.291  0.00  0.00     0.027 H 
ATOM     40  H   LIG d   1       7.933  -0.856  -3.280  0.00  0.00     0.027 H 
ATOM     41  H   LIG d   1       6.347  -1.114  -2.517  0.00  0.00     0.027 H 
ENDBRANCH  36  38
BRANCH  36  42
ATOM     42  C   LIG d   1       7.569   1.742  -4.095  0.00  0.00    -0.044 C 
ATOM     43  H   LIG d   1       7.785   1.331  -5.081  0.00  0.00     0.027 H 
ATOM     44  H   LIG d   1       7.113   2.725  -4.202  0.00  0.00     0.027 H 
ATOM     45  H   LIG d   1       8.496   1.830  -3.528  0.00  0.00     0.027 H 
ENDBRANCH  36  42
ENDBRANCH  32  35
ENDBRANCH  29  32
ENDBRANCH   1  29
TORSDOF 14
ENDMDL
MODEL 4
REMARK VINA RESULT:      -5.2      1.644      2.844
REMARK  14 active torsions:
REMARK  status: ('A' for Active; 'I' for Inactive)
REMARK    1  A    between atoms: C_1  and  C_2 
REMARK    2  A    between atoms: C_2  and  C_3 
REMARK    3  A    between atoms: C_3  and  C_4 
REMARK    4  A    between atoms: C_4  and  C_5 
REMARK    5  A    between atoms: C_5  and  O_7 
REMARK    6  A    between atoms: O_7  and  C_8 
REMARK    7  A    between atoms: C_8  and  C_9 
REMARK    8  A    between atoms: C_9  and  C_10 
REMARK    9  A    between atoms: C_10  and  C_12 
REMARK   10  A    between atoms: C_10  and  C_13 
REMARK   11  A    between atoms: C_13  and  C_14 
REMARK   12  A    between atoms: C_14  and  C_15 
REMARK   13  A    between atoms: C_16  and  C_17 
REMARK   14  A    between atoms: C_16  and  C_18 
ROOT
ATOM      1  C   LIG d   1       5.039  -2.539  -4.640  0.00  0.00    -0.041 C 
ATOM      2  H   LIG d   1       4.026  -2.137  -4.632  0.00  0.00     0.030 H 
ENDROOT
BRANCH   1   3
ATOM      3  C   LIG d   1       5.868  -1.814  -5.701  0.00  0.00    -0.016 C 
ATOM      4  H   LIG d   1       6.868  -1.624  -5.315  0.00  0.00     0.030 H 
ATOM      5  H   LIG d   1       5.934  -2.433  -6.596  0.00  0.00     0.030 H 
BRANCH   3   6
ATOM      6  C   LIG d   1       5.196  -0.484  -6.051  0.00  0.00     0.093 C 
ATOM      7  H   LIG d   1       5.049   0.099  -5.142  0.00  0.00     0.070 H 
ATOM      8  H   LIG d   1       5.830   0.073  -6.741  0.00  0.00     0.070 H 
BRANCH   6   9
ATOM      9  O   LIG d   1       3.910  -0.741  -6.675  0.00  0.00    -0.465 OA
BRANCH   9  10
ATOM     10  C   LIG d   1       3.163   0.329  -6.993  0.00  0.00     0.307 C 
ATOM     11  O   LIG d   1       2.808   1.096  -6.131  0.00  0.00    -0.251 OA
BRANCH  10  12
ATOM     12  C   LIG d   1       2.768   0.570  -8.427  0.00  0.00     0.045 C 
ATOM     13  H   LIG d   1       3.496   0.100  -9.089  0.00  0.00     0.038 H 
ATOM     14  H   LIG d   1       1.782   0.143  -8.610  0.00  0.00     0.038 H 
BRANCH  12  15
ATOM     15  C   LIG d   1       2.729   2.075  -8.699  0.00  0.00    -0.043 C 
ATOM     16  H   LIG d   1       1.744   2.351  -9.075  0.00  0.00     0.027 H 
ATOM     17  H   LIG d   1       2.930   2.617  -7.774  0.00  0.00     0.027 H 
BRANCH  15  18
ATOM     18  C   LIG d   1       3.792   2.434  -9.740  0.00  0.00    -0.055 C 
ATOM     19  H   LIG d   1       3.514   3.361 -10.239  0.00  0.00     0.026 H 
ATOM     20  H   LIG d   1       4.755   2.560  -9.246  0.00  0.00     0.026 H 
BRANCH  18  21
ATOM     21  C   LIG d   1       3.892   1.309 -10.773  0.00  0.00    -0.065 C 
ATOM     22  H   LIG d   1       4.798   1.440 -11.366  0.00  0.00     0.023 H 
ATOM     23  H   LIG d   1       3.928   0.348 -10.261  0.00  0.00     0.023 H 
ATOM     24  H   LIG d   1       3.021   1.339 -11.429  0.00  0.00     0.023 H 
ENDBRANCH  18  21
ENDBRANCH  15  18
ENDBRANCH  12  15
ENDBRANCH  10  12
ENDBRANCH   9  10
ENDBRANCH   6   9
ENDBRANCH   3   6
ENDBRANCH   1   3
BRANCH   1  25
ATOM     25  C   LIG d   1       4.992  -4.034  -4.962  0.00  0.00    -0.062 C 
ATOM     26  H   LIG d   1       3.988  -4.413  -4.779  0.00  0.00     0.023 H 
ATOM     27  H   LIG d   1       5.253  -4.188  -6.010  0.00  0.00     0.023 H 
ATOM     28  H   LIG d   1       5.703  -4.565  -4.329  0.00  0.00     0.023 H 
ENDBRANCH   1  25
BRANCH   1  29
ATOM     29  C   LIG d   1       5.679  -2.334  -3.266  0.00  0.00    -0.047 C 
ATOM     30  H   LIG d   1       6.161  -3.259  -2.948  0.00  0.00     0.027 H 
ATOM     31  H   LIG d   1       6.422  -1.539  -3.326  0.00  0.00     0.027 H 
BRANCH  29  32
ATOM     32  C   LIG d   1       4.600  -1.949  -2.251  0.00  0.00    -0.034 C 
ATOM     33  H   LIG d   1       3.636  -2.336  -2.583  0.00  0.00     0.031 H 
ATOM     34  H   LIG d   1       4.847  -2.375  -1.280  0.00  0.00     0.031 H 
BRANCH  32  35
ATOM     35  C   LIG d   1       4.527  -0.448  -2.139  0.00  0.00    -0.085 C 
ATOM     36  C   LIG d   1       3.503   0.197  -2.638  0.00  0.00    -0.080 C 
ATOM     37  H   LIG d   1       5.321   0.095  -1.646  0.00  0.00     0.057 H 
BRANCH  36  38
ATOM     38  C   LIG d   1       2.341  -0.566  -3.220  0.00  0.00    -0.044 C 
ATOM     39  H   LIG d   1       1.830   0.056  -3.954  0.00  0.00     0.027 H 
ATOM     40  H   LIG d   1       2.706  -1.473  -3.700  0.00  0.00     0.027 H 
ATOM     41  H   LIG d   1       1.646  -0.832  -2.422  0.00  0.00     0.027 H 
ENDBRANCH  36  38
BRANCH  36  42
ATOM     42  C   LIG d   1       3.486   1.705  -2.632  0.00  0.00    -0.044 C 
ATOM     43  H   LIG d   1       3.019   2.066  -3.548  0.00  0.00     0.027 H 
ATOM     44  H   LIG d   1       2.921   2.058  -1.771  0.00  0.00     0.027 H 
ATOM     45  H   LIG d   1       4.509   2.079  -2.574  0.00  0.00     0.027 H 
ENDBRANCH  36  42
ENDBRANCH  32  35
ENDBRANCH  29  32
ENDBRANCH   1  29
TORSDOF 14
ENDMDL
MODEL 5
REMARK VINA RESULT:      -5.1      1.938      4.800
REMARK  14 active torsions:
REMARK  status: ('A' for Active; 'I' for Inactive)
REMARK    1  A    between atoms: C_1  and  C_2 
REMARK    2  A    between atoms: C_2  and  C_3 
REMARK    3  A    between atoms: C_3  and  C_4 
REMARK    4  A    between atoms: C_4  and  C_5 
REMARK    5  A    between atoms: C_5  and  O_7 
REMARK    6  A    between atoms: O_7  and  C_8 
REMARK    7  A    between atoms: C_8  and  C_9 
REMARK    8  A    between atoms: C_9  and  C_10 
REMARK    9  A    between atoms: C_10  and  C_12 
REMARK   10  A    between atoms: C_10  and  C_13 
REMARK   11  A    between atoms: C_13  and  C_14 
REMARK   12  A    between atoms: C_14  and  C_15 
REMARK   13  A    between atoms: C_16  and  C_17 
REMARK   14  A    between atoms: C_16  and  C_18 
ROOT
ATOM      1  C   LIG d   1       3.239   0.426  -2.604  0.00  0.00    -0.041 C 
ATOM      2  H   LIG d   1       2.407   0.988  -2.179  0.00  0.00     0.030 H 
ENDROOT
BRANCH   1   3
ATOM      3  C   LIG d   1       2.846  -1.046  -2.735  0.00  0.00    -0.016 C 
ATOM      4  H   LIG d   1       1.991  -1.253  -2.094  0.00  0.00     0.030 H 
ATOM      5  H   LIG d   1       2.584  -1.261  -3.771  0.00  0.00     0.030 H 
BRANCH   3   6
ATOM      6  C   LIG d   1       4.024  -1.928  -2.314  0.00  0.00     0.093 C 
ATOM      7  H   LIG d   1       4.953  -1.365  -2.412  0.00  0.00     0.070 H 
ATOM      8  H   LIG d   1       3.894  -2.237  -1.277  0.00  0.00     0.070 H 
BRANCH   6   9
ATOM      9  O   LIG d   1       4.079  -3.102  -3.167  0.00  0.00    -0.465 OA
BRANCH   9  10
ATOM     10  C   LIG d   1       4.808  -3.005  -4.290  0.00  0.00     0.307 C 
ATOM     11  O   LIG d   1       4.441  -3.559  -5.299  0.00  0.00    -0.251 OA
BRANCH  10  12
ATOM     12  C   LIG d   1       6.085  -2.205  -4.292  0.00  0.00     0.045 C 
ATOM     13  H   LIG d   1       6.101  -1.543  -3.427  0.00  0.00     0.038 H 
ATOM     14  H   LIG d   1       6.938  -2.882  -4.246  0.00  0.00     0.038 H 
BRANCH  12  15
ATOM     15  C   LIG d   1       6.164  -1.373  -5.573  0.00  0.00    -0.043 C 
ATOM     16  H   LIG d   1       6.725  -1.922  -6.329  0.00  0.00     0.027 H 
ATOM     17  H   LIG d   1       5.156  -1.175  -5.940  0.00  0.00     0.027 H 
BRANCH  15  18
ATOM     18  C   LIG d   1       6.868  -0.047  -5.277  0.00  0.00    -0.055 C 
ATOM     19  H   LIG d   1       7.772   0.027  -5.881  0.00  0.00     0.026 H 
ATOM     20  H   LIG d   1       6.200   0.780  -5.519  0.00  0.00     0.026 H 
BRANCH  18  21
ATOM     21  C   LIG d   1       7.240   0.013  -3.794  0.00  0.00    -0.065 C 
ATOM     22  H   LIG d   1       7.734   0.961  -3.581  0.00  0.00     0.023 H 
ATOM     23  H   LIG d   1       6.336  -0.070  -3.190  0.00  0.00     0.023 H 
ATOM     24  H   LIG d   1       7.913  -0.811  -3.554  0.00  0.00     0.023 H 
ENDBRANCH  18  21
ENDBRANCH  15  18
ENDBRANCH  12  15
ENDBRANCH  10  12
ENDBRANCH   9  10
ENDBRANCH   6   9
ENDBRANCH   3   6
ENDBRANCH   1   3
BRANCH   1  25
ATOM     25  C   LIG d   1       4.458   0.550  -1.689  0.00  0.00    -0.062 C 
ATOM     26  H   LIG d   1       5.361   0.318  -2.253  0.00  0.00     0.023 H 
ATOM     27  H   LIG d   1       4.522   1.568  -1.303  0.00  0.00     0.023 H 
ATOM     28  H   LIG d   1       4.360  -0.148  -0.856  0.00  0.00     0.023 H 
ENDBRANCH   1  25
BRANCH   1  29
ATOM     29  C   LIG d   1       3.580   0.988  -3.985  0.00  0.00    -0.047 C 
ATOM     30  H   LIG d   1       3.298   2.040  -4.029  0.00  0.00     0.027 H 
ATOM     31  H   LIG d   1       4.651   0.890  -4.163  0.00  0.00     0.027 H 
BRANCH  29  32
ATOM     32  C   LIG d   1       2.812   0.211  -5.057  0.00  0.00    -0.034 C 
ATOM     33  H   LIG d   1       3.378  -0.679  -5.335  0.00  0.00     0.031 H 
ATOM     34  H   LIG d   1       1.840  -0.086  -4.664  0.00  0.00     0.031 H 
BRANCH  32  35
ATOM     35  C   LIG d   1       2.619   1.083  -6.270  0.00  0.00    -0.085 C 
ATOM     36  C   LIG d   1       2.928   0.630  -7.459  0.00  0.00    -0.080 C 
ATOM     37  H   LIG d   1       2.225   2.083  -6.158  0.00  0.00     0.057 H 
BRANCH  36  38
ATOM     38  C   LIG d   1       3.365  -0.803  -7.630  0.00  0.00    -0.044 C 
ATOM     39  H   LIG d   1       2.534  -1.466  -7.393  0.00  0.00     0.027 H 
ATOM     40  H   LIG d   1       3.680  -0.967  -8.660  0.00  0.00     0.027 H 
ATOM     41  H   LIG d   1       4.198  -1.010  -6.958  0.00  0.00     0.027 H 
ENDBRANCH  36  38
BRANCH  36  42
ATOM     42  C   LIG d   1       2.849   1.540  -8.658  0.00  0.00    -0.044 C 
ATOM     43  H   LIG d   1       3.515   1.173  -9.438  0.00  0.00     0.027 H 
ATOM     44  H   LIG d   1       1.826   1.559  -9.032  0.00  0.00     0.027 H 
ATOM     45  H   LIG d   1       3.149   2.548  -8.368  0.00  0.00     0.027 H 
ENDBRANCH  36  42
ENDBRANCH  32  35
ENDBRANCH  29  32
ENDBRANCH   1  29
TORSDOF 14
ENDMDL
MODEL 6
REMARK VINA RESULT:      -5.1      2.306      7.243
REMARK  14 active torsions:
REMARK  status: ('A' for Active; 'I' for Inactive)
REMARK    1  A    between atoms: C_1  and  C_2 
REMARK    2  A    between atoms: C_2  and  C_3 
REMARK    3  A    between atoms: C_3  and  C_4 
REMARK    4  A    between atoms: C_4  and  C_5 
REMARK    5  A    between atoms: C_5  and  O_7 
REMARK    6  A    between atoms: O_7  and  C_8 
REMARK    7  A    between atoms: C_8  and  C_9 
REMARK    8  A    between atoms: C_9  and  C_10 
REMARK    9  A    between atoms: C_10  and  C_12 
REMARK   10  A    between atoms: C_10  and  C_13 
REMARK   11  A    between atoms: C_13  and  C_14 
REMARK   12  A    between atoms: C_14  and  C_15 
REMARK   13  A    between atoms: C_16  and  C_17 
REMARK   14  A    between atoms: C_16  and  C_18 
ROOT
ATOM      1  C   LIG d   1       2.533   0.349  -7.612  0.00  0.00    -0.041 C 
ATOM      2  H   LIG d   1       1.481   0.449  -7.343  0.00  0.00     0.030 H 
ENDROOT
BRANCH   1   3
ATOM      3  C   LIG d   1       3.345  -0.003  -6.365  0.00  0.00    -0.016 C 
ATOM      4  H   LIG d   1       3.581  -1.067  -6.372  0.00  0.00     0.030 H 
ATOM      5  H   LIG d   1       4.270   0.574  -6.359  0.00  0.00     0.030 H 
BRANCH   3   6
ATOM      6  C   LIG d   1       2.529   0.329  -5.113  0.00  0.00     0.093 C 
ATOM      7  H   LIG d   1       1.506   0.571  -5.401  0.00  0.00     0.070 H 
ATOM      8  H   LIG d   1       2.524  -0.531  -4.444  0.00  0.00     0.070 H 
BRANCH   6   9
ATOM      9  O   LIG d   1       3.123   1.468  -4.437  0.00  0.00    -0.465 OA
BRANCH   9  10
ATOM     10  C   LIG d   1       3.822   1.215  -3.318  0.00  0.00     0.307 C 
ATOM     11  O   LIG d   1       4.884   1.760  -3.133  0.00  0.00    -0.251 OA
BRANCH  10  12
ATOM     12  C   LIG d   1       3.282   0.249  -2.296  0.00  0.00     0.045 C 
ATOM     13  H   LIG d   1       3.007   0.793  -1.391  0.00  0.00     0.038 H 
ATOM     14  H   LIG d   1       2.403  -0.254  -2.698  0.00  0.00     0.038 H 
BRANCH  12  15
ATOM     15  C   LIG d   1       4.353  -0.790  -1.958  0.00  0.00    -0.043 C 
ATOM     16  H   LIG d   1       5.280  -0.536  -2.474  0.00  0.00     0.027 H 
ATOM     17  H   LIG d   1       4.526  -0.797  -0.881  0.00  0.00     0.027 H 
BRANCH  15  18
ATOM     18  C   LIG d   1       3.882  -2.174  -2.408  0.00  0.00    -0.055 C 
ATOM     19  H   LIG d   1       4.141  -2.911  -1.648  0.00  0.00     0.026 H 
ATOM     20  H   LIG d   1       2.801  -2.161  -2.549  0.00  0.00     0.026 H 
BRANCH  18  21
ATOM     21  C   LIG d   1       4.564  -2.541  -3.728  0.00  0.00    -0.065 C 
ATOM     22  H   LIG d   1       5.465  -3.120  -3.522  0.00  0.00     0.023 H 
ATOM     23  H   LIG d   1       3.882  -3.134  -4.336  0.00  0.00     0.023 H 
ATOM     24  H   LIG d   1       4.830  -1.630  -4.265  0.00  0.00     0.023 H 
ENDBRANCH  18  21
ENDBRANCH  15  18
ENDBRANCH  12  15
ENDBRANCH  10  12
ENDBRANCH   9  10
ENDBRANCH   6   9
ENDBRANCH   3   6
ENDBRANCH   1   3
BRANCH   1  25
ATOM     25  C   LIG d   1       3.038   1.669  -8.195  0.00  0.00    -0.062 C 
ATOM     26  H   LIG d   1       3.010   2.440  -7.426  0.00  0.00     0.023 H 
ATOM     27  H   LIG d   1       4.063   1.543  -8.546  0.00  0.00     0.023 H 
ATOM     28  H   LIG d   1       2.403   1.965  -9.030  0.00  0.00     0.023 H 
ENDBRANCH   1  25
BRANCH   1  29
ATOM     29  C   LIG d   1       2.689  -0.761  -8.653  0.00  0.00    -0.047 C 
ATOM     30  H   LIG d   1       3.735  -0.835  -8.950  0.00  0.00     0.027 H 
ATOM     31  H   LIG d   1       2.365  -1.710  -8.224  0.00  0.00     0.027 H 
BRANCH  29  32
ATOM     32  C   LIG d   1       1.834  -0.437  -9.879  0.00  0.00    -0.034 C 
ATOM     33  H   LIG d   1       0.997  -1.134  -9.932  0.00  0.00     0.031 H 
ATOM     34  H   LIG d   1       1.453   0.580  -9.796  0.00  0.00     0.031 H 
BRANCH  32  35
ATOM     35  C   LIG d   1       2.672  -0.561 -11.125  0.00  0.00    -0.085 C 
ATOM     36  C   LIG d   1       2.207  -1.205 -12.166  0.00  0.00    -0.080 C 
ATOM     37  H   LIG d   1       3.657  -0.118 -11.158  0.00  0.00     0.057 H 
BRANCH  36  38
ATOM     38  C   LIG d   1       0.791  -1.720 -12.163  0.00  0.00    -0.044 C 
ATOM     39  H   LIG d   1       0.413  -1.739 -11.141  0.00  0.00     0.027 H 
ATOM     40  H   LIG d   1       0.165  -1.066 -12.770  0.00  0.00     0.027 H 
ATOM     41  H   LIG d   1       0.771  -2.729 -12.577  0.00  0.00     0.027 H 
ENDBRANCH  36  38
BRANCH  36  42
ATOM     42  C   LIG d   1       3.088  -1.432 -13.368  0.00  0.00    -0.044 C 
ATOM     43  H   LIG d   1       4.117  -1.175 -13.118  0.00  0.00     0.027 H 
ATOM     44  H   LIG d   1       3.036  -2.479 -13.663  0.00  0.00     0.027 H 
ATOM     45  H   LIG d   1       2.747  -0.804 -14.191  0.00  0.00     0.027 H 
ENDBRANCH  36  42
ENDBRANCH  32  35
ENDBRANCH  29  32
ENDBRANCH   1  29
TORSDOF 14
ENDMDL
MODEL 7
REMARK VINA RESULT:      -5.1      2.128      6.058
REMARK  14 active torsions:
REMARK  status: ('A' for Active; 'I' for Inactive)
REMARK    1  A    between atoms: C_1  and  C_2 
REMARK    2  A    between atoms: C_2  and  C_3 
REMARK    3  A    between atoms: C_3  and  C_4 
REMARK    4  A    between atoms: C_4  and  C_5 
REMARK    5  A    between atoms: C_5  and  O_7 
REMARK    6  A    between atoms: O_7  and  C_8 
REMARK    7  A    between atoms: C_8  and  C_9 
REMARK    8  A    between atoms: C_9  and  C_10 
REMARK    9  A    between atoms: C_10  and  C_12 
REMARK   10  A    between atoms: C_10  and  C_13 
REMARK   11  A    between atoms: C_13  and  C_14 
REMARK   12  A    between atoms: C_14  and  C_15 
REMARK   13  A    between atoms: C_16  and  C_17 
REMARK   14  A    between atoms: C_16  and  C_18 
ROOT
ATOM      1  C   LIG d   1       5.651  -2.359  -5.787  0.00  0.00    -0.041 C 
ATOM      2  H   LIG d   1       6.128  -2.509  -6.756  0.00  0.00     0.030 H 
ENDROOT
BRANCH   1   3
ATOM      3  C   LIG d   1       6.723  -2.136  -4.719  0.00  0.00    -0.016 C 
ATOM      4  H   LIG d   1       6.413  -2.609  -3.788  0.00  0.00     0.030 H 
ATOM      5  H   LIG d   1       7.664  -2.572  -5.053  0.00  0.00     0.030 H 
BRANCH   3   6
ATOM      6  C   LIG d   1       6.910  -0.634  -4.491  0.00  0.00     0.093 C 
ATOM      7  H   LIG d   1       7.917  -0.344  -4.794  0.00  0.00     0.070 H 
ATOM      8  H   LIG d   1       6.180  -0.083  -5.084  0.00  0.00     0.070 H 
BRANCH   6   9
ATOM      9  O   LIG d   1       6.722  -0.331  -3.084  0.00  0.00    -0.465 OA
BRANCH   9  10
ATOM     10  C   LIG d   1       5.828   0.624  -2.781  0.00  0.00     0.307 C 
ATOM     11  O   LIG d   1       6.006   1.758  -3.156  0.00  0.00    -0.251 OA
BRANCH  10  12
ATOM     12  C   LIG d   1       4.604   0.280  -1.972  0.00  0.00     0.045 C 
ATOM     13  H   LIG d   1       4.637   0.810  -1.020  0.00  0.00     0.038 H 
ATOM     14  H   LIG d   1       3.710   0.576  -2.521  0.00  0.00     0.038 H 
BRANCH  12  15
ATOM     15  C   LIG d   1       4.570  -1.227  -1.715  0.00  0.00    -0.043 C 
ATOM     16  H   LIG d   1       5.524  -1.667  -2.005  0.00  0.00     0.027 H 
ATOM     17  H   LIG d   1       4.392  -1.411  -0.654  0.00  0.00     0.027 H 
BRANCH  15  18
ATOM     18  C   LIG d   1       3.444  -1.860  -2.536  0.00  0.00    -0.055 C 
ATOM     19  H   LIG d   1       3.873  -2.424  -3.365  0.00  0.00     0.026 H 
ATOM     20  H   LIG d   1       2.864  -2.529  -1.901  0.00  0.00     0.026 H 
BRANCH  18  21
ATOM     21  C   LIG d   1       2.534  -0.759  -3.085  0.00  0.00    -0.065 C 
ATOM     22  H   LIG d   1       3.139   0.094  -3.391  0.00  0.00     0.023 H 
ATOM     23  H   LIG d   1       1.981  -1.140  -3.944  0.00  0.00     0.023 H 
ATOM     24  H   LIG d   1       1.832  -0.448  -2.311  0.00  0.00     0.023 H 
ENDBRANCH  18  21
ENDBRANCH  15  18
ENDBRANCH  12  15
ENDBRANCH  10  12
ENDBRANCH   9  10
ENDBRANCH   6   9
ENDBRANCH   3   6
ENDBRANCH   1   3
BRANCH   1  25
ATOM     25  C   LIG d   1       4.824  -3.595  -5.430  0.00  0.00    -0.062 C 
ATOM     26  H   LIG d   1       5.126  -4.430  -6.061  0.00  0.00     0.023 H 
ATOM     27  H   LIG d   1       4.988  -3.853  -4.383  0.00  0.00     0.023 H 
ATOM     28  H   LIG d   1       3.766  -3.383  -5.588  0.00  0.00     0.023 H 
ENDBRANCH   1  25
BRANCH   1  29
ATOM     29  C   LIG d   1       4.735  -1.136  -5.854  0.00  0.00    -0.047 C 
ATOM     30  H   LIG d   1       3.997  -1.190  -5.054  0.00  0.00     0.027 H 
ATOM     31  H   LIG d   1       5.331  -0.230  -5.738  0.00  0.00     0.027 H 
BRANCH  29  32
ATOM     32  C   LIG d   1       4.019  -1.106  -7.206  0.00  0.00    -0.034 C 
ATOM     33  H   LIG d   1       4.654  -1.567  -7.963  0.00  0.00     0.031 H 
ATOM     34  H   LIG d   1       3.083  -1.658  -7.132  0.00  0.00     0.031 H 
BRANCH  32  35
ATOM     35  C   LIG d   1       3.732   0.322  -7.593  0.00  0.00    -0.085 C 
ATOM     36  C   LIG d   1       2.863   0.583  -8.536  0.00  0.00    -0.080 C 
ATOM     37  H   LIG d   1       4.244   1.130  -7.091  0.00  0.00     0.057 H 
BRANCH  36  38
ATOM     38  C   LIG d   1       2.062  -0.535  -9.154  0.00  0.00    -0.044 C 
ATOM     39  H   LIG d   1       2.709  -1.396  -9.320  0.00  0.00     0.027 H 
ATOM     40  H   LIG d   1       1.250  -0.814  -8.483  0.00  0.00     0.027 H 
ATOM     41  H   LIG d   1       1.648  -0.202 -10.106  0.00  0.00     0.027 H 
ENDBRANCH  36  38
BRANCH  36  42
ATOM     42  C   LIG d   1       2.662   2.001  -9.006  0.00  0.00    -0.044 C 
ATOM     43  H   LIG d   1       3.280   2.183  -9.885  0.00  0.00     0.027 H 
ATOM     44  H   LIG d   1       1.614   2.155  -9.259  0.00  0.00     0.027 H 
ATOM     45  H   LIG d   1       2.950   2.690  -8.211  0.00  0.00     0.027 H 
ENDBRANCH  36  42
ENDBRANCH  32  35
ENDBRANCH  29  32
ENDBRANCH   1  29
TORSDOF 14
ENDMDL
MODEL 8
REMARK VINA RESULT:      -5.0      1.993      5.236
REMARK  14 active torsions:
REMARK  status: ('A' for Active; 'I' for Inactive)
REMARK    1  A    between atoms: C_1  and  C_2 
REMARK    2  A    between atoms: C_2  and  C_3 
REMARK    3  A    between atoms: C_3  and  C_4 
REMARK    4  A    between atoms: C_4  and  C_5 
REMARK    5  A    between atoms: C_5  and  O_7 
REMARK    6  A    between atoms: O_7  and  C_8 
REMARK    7  A    between atoms: C_8  and  C_9 
REMARK    8  A    between atoms: C_9  and  C_10 
REMARK    9  A    between atoms: C_10  and  C_12 
REMARK   10  A    between atoms: C_10  and  C_13 
REMARK   11  A    between atoms: C_13  and  C_14 
REMARK   12  A    between atoms: C_14  and  C_15 
REMARK   13  A    between atoms: C_16  and  C_17 
REMARK   14  A    between atoms: C_16  and  C_18 
ROOT
ATOM      1  C   LIG d   1       3.722  -0.602  -3.061  0.00  0.00    -0.041 C 
ATOM      2  H   LIG d   1       4.532  -0.534  -3.789  0.00  0.00     0.030 H 
ENDROOT
BRANCH   1   3
ATOM      3  C   LIG d   1       3.878   0.507  -2.020  0.00  0.00    -0.016 C 
ATOM      4  H   LIG d   1       3.058   1.217  -2.119  0.00  0.00     0.030 H 
ATOM      5  H   LIG d   1       3.864   0.072  -1.021  0.00  0.00     0.030 H 
BRANCH   3   6
ATOM      6  C   LIG d   1       5.208   1.231  -2.241  0.00  0.00     0.093 C 
ATOM      7  H   LIG d   1       5.084   2.293  -2.027  0.00  0.00     0.070 H 
ATOM      8  H   LIG d   1       5.964   0.813  -1.577  0.00  0.00     0.070 H 
BRANCH   6   9
ATOM      9  O   LIG d   1       5.627   1.062  -3.621  0.00  0.00    -0.465 OA
BRANCH   9  10
ATOM     10  C   LIG d   1       6.945   0.934  -3.846  0.00  0.00     0.307 C 
ATOM     11  O   LIG d   1       7.713   1.767  -3.428  0.00  0.00    -0.251 OA
BRANCH  10  12
ATOM     12  C   LIG d   1       7.465  -0.249  -4.620  0.00  0.00     0.045 C 
ATOM     13  H   LIG d   1       6.957  -0.306  -5.583  0.00  0.00     0.038 H 
ATOM     14  H   LIG d   1       8.537  -0.136  -4.782  0.00  0.00     0.038 H 
BRANCH  12  15
ATOM     15  C   LIG d   1       7.201  -1.532  -3.829  0.00  0.00    -0.043 C 
ATOM     16  H   LIG d   1       8.146  -1.932  -3.461  0.00  0.00     0.027 H 
ATOM     17  H   LIG d   1       6.546  -1.310  -2.985  0.00  0.00     0.027 H 
BRANCH  15  18
ATOM     18  C   LIG d   1       6.529  -2.563  -4.738  0.00  0.00    -0.055 C 
ATOM     19  H   LIG d   1       5.523  -2.769  -4.373  0.00  0.00     0.026 H 
ATOM     20  H   LIG d   1       6.474  -2.170  -5.754  0.00  0.00     0.026 H 
BRANCH  18  21
ATOM     21  C   LIG d   1       7.347  -3.856  -4.734  0.00  0.00    -0.065 C 
ATOM     22  H   LIG d   1       6.746  -4.666  -4.322  0.00  0.00     0.023 H 
ATOM     23  H   LIG d   1       7.640  -4.104  -5.754  0.00  0.00     0.023 H 
ATOM     24  H   LIG d   1       8.241  -3.719  -4.124  0.00  0.00     0.023 H 
ENDBRANCH  18  21
ENDBRANCH  15  18
ENDBRANCH  12  15
ENDBRANCH  10  12
ENDBRANCH   9  10
ENDBRANCH   6   9
ENDBRANCH   3   6
ENDBRANCH   1   3
BRANCH   1  25
ATOM     25  C   LIG d   1       3.773  -1.964  -2.368  0.00  0.00    -0.062 C 
ATOM     26  H   LIG d   1       4.761  -2.114  -1.933  0.00  0.00     0.023 H 
ATOM     27  H   LIG d   1       3.020  -2.000  -1.580  0.00  0.00     0.023 H 
ATOM     28  H   LIG d   1       3.573  -2.751  -3.096  0.00  0.00     0.023 H 
ENDBRANCH   1  25
BRANCH   1  29
ATOM     29  C   LIG d   1       2.380  -0.444  -3.777  0.00  0.00    -0.047 C 
ATOM     30  H   LIG d   1       1.948  -1.429  -3.961  0.00  0.00     0.027 H 
ATOM     31  H   LIG d   1       1.702   0.139  -3.154  0.00  0.00     0.027 H 
BRANCH  29  32
ATOM     32  C   LIG d   1       2.593   0.275  -5.111  0.00  0.00    -0.034 C 
ATOM     33  H   LIG d   1       1.686   0.201  -5.712  0.00  0.00     0.031 H 
ATOM     34  H   LIG d   1       2.819   1.324  -4.925  0.00  0.00     0.031 H 
BRANCH  32  35
ATOM     35  C   LIG d   1       3.739  -0.364  -5.851  0.00  0.00    -0.085 C 
ATOM     36  C   LIG d   1       3.904  -0.133  -7.129  0.00  0.00    -0.080 C 
ATOM     37  H   LIG d   1       4.425  -1.013  -5.325  0.00  0.00     0.057 H 
BRANCH  36  38
ATOM     38  C   LIG d   1       3.021   0.863  -7.835  0.00  0.00    -0.044 C 
ATOM     39  H   LIG d   1       3.601   1.752  -8.081  0.00  0.00     0.027 H 
ATOM     40  H   LIG d   1       2.630   0.418  -8.750  0.00  0.00     0.027 H 
ATOM     41  H   LIG d   1       2.192   1.140  -7.183  0.00  0.00     0.027 H 
ENDBRANCH  36  38
BRANCH  36  42
ATOM     42  C   LIG d   1       4.977  -0.863  -7.895  0.00  0.00    -0.044 C 
ATOM     43  H   LIG d   1       5.908  -0.841  -7.328  0.00  0.00     0.027 H 
ATOM     44  H   LIG d   1       4.672  -1.897  -8.053  0.00  0.00     0.027 H 
ATOM     45  H   LIG d   1       5.128  -0.378  -8.860  0.00  0.00     0.027 H 
ENDBRANCH  36  42
ENDBRANCH  32  35
ENDBRANCH  29  32
ENDBRANCH   1  29
TORSDOF 14
ENDMDL
MODEL 9
REMARK VINA RESULT:      -5.0      2.048      3.275
REMARK  14 active torsions:
REMARK  status: ('A' for Active; 'I' for Inactive)
REMARK    1  A    between atoms: C_1  and  C_2 
REMARK    2  A    between atoms: C_2  and  C_3 
REMARK    3  A    between atoms: C_3  and  C_4 
REMARK    4  A    between atoms: C_4  and  C_5 
REMARK    5  A    between atoms: C_5  and  O_7 
REMARK    6  A    between atoms: O_7  and  C_8 
REMARK    7  A    between atoms: C_8  and  C_9 
REMARK    8  A    between atoms: C_9  and  C_10 
REMARK    9  A    between atoms: C_10  and  C_12 
REMARK   10  A    between atoms: C_10  and  C_13 
REMARK   11  A    between atoms: C_13  and  C_14 
REMARK   12  A    between atoms: C_14  and  C_15 
REMARK   13  A    between atoms: C_16  and  C_17 
REMARK   14  A    between atoms: C_16  and  C_18 
ROOT
ATOM      1  C   LIG d   1       4.659  -0.703  -1.969  0.00  0.00    -0.041 C 
ATOM      2  H   LIG d   1       5.059  -0.796  -0.959  0.00  0.00     0.030 H 
ENDROOT
BRANCH   1   3
ATOM      3  C   LIG d   1       3.791   0.553  -2.060  0.00  0.00    -0.016 C 
ATOM      4  H   LIG d   1       2.744   0.266  -2.150  0.00  0.00     0.030 H 
ATOM      5  H   LIG d   1       3.928   1.154  -1.161  0.00  0.00     0.030 H 
BRANCH   3   6
ATOM      6  C   LIG d   1       4.204   1.370  -3.287  0.00  0.00     0.093 C 
ATOM      7  H   LIG d   1       4.573   2.344  -2.967  0.00  0.00     0.070 H 
ATOM      8  H   LIG d   1       4.990   0.842  -3.826  0.00  0.00     0.070 H 
BRANCH   6   9
ATOM      9  O   LIG d   1       3.055   1.550  -4.157  0.00  0.00    -0.465 OA
BRANCH   9  10
ATOM     10  C   LIG d   1       2.664   0.485  -4.876  0.00  0.00     0.307 C 
ATOM     11  O   LIG d   1       1.584  -0.017  -4.674  0.00  0.00    -0.251 OA
BRANCH  10  12
ATOM     12  C   LIG d   1       3.572  -0.082  -5.936  0.00  0.00     0.045 C 
ATOM     13  H   LIG d   1       4.488   0.507  -5.984  0.00  0.00     0.038 H 
ATOM     14  H   LIG d   1       3.819  -1.115  -5.689  0.00  0.00     0.038 H 
BRANCH  12  15
ATOM     15  C   LIG d   1       2.866  -0.036  -7.292  0.00  0.00    -0.043 C 
ATOM     16  H   LIG d   1       2.785  -1.047  -7.693  0.00  0.00     0.027 H 
ATOM     17  H   LIG d   1       1.868   0.386  -7.167  0.00  0.00     0.027 H 
BRANCH  15  18
ATOM     18  C   LIG d   1       3.671   0.835  -8.258  0.00  0.00    -0.055 C 
ATOM     19  H   LIG d   1       4.627   1.093  -7.803  0.00  0.00     0.026 H 
ATOM     20  H   LIG d   1       3.845   0.285  -9.183  0.00  0.00     0.026 H 
BRANCH  18  21
ATOM     21  C   LIG d   1       2.889   2.114  -8.564  0.00  0.00    -0.065 C 
ATOM     22  H   LIG d   1       3.438   2.975  -8.183  0.00  0.00     0.023 H 
ATOM     23  H   LIG d   1       2.760   2.212  -9.641  0.00  0.00     0.023 H 
ATOM     24  H   LIG d   1       1.911   2.065  -8.084  0.00  0.00     0.023 H 
ENDBRANCH  18  21
ENDBRANCH  15  18
ENDBRANCH  12  15
ENDBRANCH  10  12
ENDBRANCH   9  10
ENDBRANCH   6   9
ENDBRANCH   3   6
ENDBRANCH   1   3
BRANCH   1  25
ATOM     25  C   LIG d   1       3.812  -1.934  -2.297  0.00  0.00    -0.062 C 
ATOM     26  H   LIG d   1       2.932  -1.629  -2.862  0.00  0.00     0.023 H 
ATOM     27  H   LIG d   1       4.402  -2.633  -2.891  0.00  0.00     0.023 H 
ATOM     28  H   LIG d   1       3.500  -2.419  -1.371  0.00  0.00     0.023 H 
ENDBRANCH   1  25
BRANCH   1  29
ATOM     29  C   LIG d   1       5.814  -0.598  -2.966  0.00  0.00    -0.047 C 
ATOM     30  H   LIG d   1       5.491  -0.029  -3.838  0.00  0.00     0.027 H 
ATOM     31  H   LIG d   1       6.657  -0.094  -2.494  0.00  0.00     0.027 H 
BRANCH  29  32
ATOM     32  C   LIG d   1       6.240  -2.001  -3.405  0.00  0.00    -0.034 C 
ATOM     33  H   LIG d   1       7.137  -2.294  -2.859  0.00  0.00     0.031 H 
ATOM     34  H   LIG d   1       5.438  -2.707  -3.191  0.00  0.00     0.031 H 
BRANCH  32  35
ATOM     35  C   LIG d   1       6.528  -2.000  -4.884  0.00  0.00    -0.085 C 
ATOM     36  C   LIG d   1       6.001  -2.919  -5.654  0.00  0.00    -0.080 C 
ATOM     37  H   LIG d   1       7.170  -1.242  -5.308  0.00  0.00     0.057 H 
BRANCH  36  38
ATOM     38  C   LIG d   1       5.013  -3.905  -5.085  0.00  0.00    -0.044 C 
ATOM     39  H   LIG d   1       4.173  -3.365  -4.649  0.00  0.00     0.027 H 
ATOM     40  H   LIG d   1       4.655  -4.559  -5.878  0.00  0.00     0.027 H 
ATOM     41  H   LIG d   1       5.501  -4.502  -4.313  0.00  0.00     0.027 H 
ENDBRANCH  36  38
BRANCH  36  42
ATOM     42  C   LIG d   1       6.382  -2.991  -7.111  0.00  0.00    -0.044 C 
ATOM     43  H   LIG d   1       7.374  -3.432  -7.205  0.00  0.00     0.027 H 
ATOM     44  H   LIG d   1       5.659  -3.605  -7.645  0.00  0.00     0.027 H 
ATOM     45  H   LIG d   1       6.390  -1.986  -7.534  0.00  0.00     0.027 H 
ENDBRANCH  36  42
ENDBRANCH  32  35
ENDBRANCH  29  32
ENDBRANCH   1  29
TORSDOF 14
ENDMDL
MODEL 10
REMARK VINA RESULT:      -4.8      2.107      3.841
REMARK  14 active torsions:
REMARK  status: ('A' for Active; 'I' for Inactive)
REMARK    1  A    between atoms: C_1  and  C_2 
REMARK    2  A    between atoms: C_2  and  C_3 
REMARK    3  A    between atoms: C_3  and  C_4 
REMARK    4  A    between atoms: C_4  and  C_5 
REMARK    5  A    between atoms: C_5  and  O_7 
REMARK    6  A    between atoms: O_7  and  C_8 
REMARK    7  A    between atoms: C_8  and  C_9 
REMARK    8  A    between atoms: C_9  and  C_10 
REMARK    9  A    between atoms: C_10  and  C_12 
REMARK   10  A    between atoms: C_10  and  C_13 
REMARK   11  A    between atoms: C_13  and  C_14 
REMARK   12  A    between atoms: C_14  and  C_15 
REMARK   13  A    between atoms: C_16  and  C_17 
REMARK   14  A    between atoms: C_16  and  C_18 
ROOT
ATOM      1  C   LIG d   1       5.419  -2.160  -4.034  0.00  0.00    -0.041 C 
ATOM      2  H   LIG d   1       5.008  -1.398  -4.697  0.00  0.00     0.030 H 
ENDROOT
BRANCH   1   3
ATOM      3  C   LIG d   1       6.507  -1.539  -3.157  0.00  0.00    -0.016 C 
ATOM      4  H   LIG d   1       6.065  -1.173  -2.232  0.00  0.00     0.030 H 
ATOM      5  H   LIG d   1       7.261  -2.292  -2.927  0.00  0.00     0.030 H 
BRANCH   3   6
ATOM      6  C   LIG d   1       7.162  -0.375  -3.905  0.00  0.00     0.093 C 
ATOM      7  H   LIG d   1       7.454   0.397  -3.192  0.00  0.00     0.070 H 
ATOM      8  H   LIG d   1       8.045  -0.734  -4.434  0.00  0.00     0.070 H 
BRANCH   6   9
ATOM      9  O   LIG d   1       6.219   0.179  -4.859  0.00  0.00    -0.465 OA
BRANCH   9  10
ATOM     10  C   LIG d   1       6.680   0.437  -6.093  0.00  0.00     0.307 C 
ATOM     11  O   LIG d   1       7.480   1.325  -6.266  0.00  0.00    -0.251 OA
BRANCH  10  12
ATOM     12  C   LIG d   1       6.200  -0.383  -7.263  0.00  0.00     0.045 C 
ATOM     13  H   LIG d   1       6.940  -0.345  -8.063  0.00  0.00     0.038 H 
ATOM     14  H   LIG d   1       6.058  -1.417  -6.949  0.00  0.00     0.038 H 
BRANCH  12  15
ATOM     15  C   LIG d   1       4.871   0.182  -7.770  0.00  0.00    -0.043 C 
ATOM     16  H   LIG d   1       4.667   1.131  -7.273  0.00  0.00     0.027 H 
ATOM     17  H   LIG d   1       4.933   0.342  -8.848  0.00  0.00     0.027 H 
BRANCH  15  18
ATOM     18  C   LIG d   1       3.746  -0.808  -7.465  0.00  0.00    -0.055 C 
ATOM     19  H   LIG d   1       4.008  -1.789  -7.861  0.00  0.00     0.026 H 
ATOM     20  H   LIG d   1       3.605  -0.876  -6.387  0.00  0.00     0.026 H 
BRANCH  18  21
ATOM     21  C   LIG d   1       2.450  -0.324  -8.120  0.00  0.00    -0.065 C 
ATOM     22  H   LIG d   1       1.763  -1.163  -8.230  0.00  0.00     0.023 H 
ATOM     23  H   LIG d   1       1.992   0.442  -7.495  0.00  0.00     0.023 H 
ATOM     24  H   LIG d   1       2.674   0.095  -9.102  0.00  0.00     0.023 H 
ENDBRANCH  18  21
ENDBRANCH  15  18
ENDBRANCH  12  15
ENDBRANCH  10  12
ENDBRANCH   9  10
ENDBRANCH   6   9
ENDBRANCH   3   6
ENDBRANCH   1   3
BRANCH   1  25
ATOM     25  C   LIG d   1       6.018  -3.293  -4.868  0.00  0.00    -0.062 C 
ATOM     26  H   LIG d   1       5.642  -3.232  -5.888  0.00  0.00     0.023 H 
ATOM     27  H   LIG d   1       7.105  -3.202  -4.876  0.00  0.00     0.023 H 
ATOM     28  H   LIG d   1       5.738  -4.253  -4.433  0.00  0.00     0.023 H 
ENDBRANCH   1  25
BRANCH   1  29
ATOM     29  C   LIG d   1       4.304  -2.715  -3.146  0.00  0.00    -0.047 C 
ATOM     30  H   LIG d   1       3.674  -3.387  -3.730  0.00  0.00     0.027 H 
ATOM     31  H   LIG d   1       4.743  -3.263  -2.311  0.00  0.00     0.027 H 
BRANCH  29  32
ATOM     32  C   LIG d   1       3.455  -1.561  -2.608  0.00  0.00    -0.034 C 
ATOM     33  H   LIG d   1       2.597  -1.964  -2.069  0.00  0.00     0.031 H 
ATOM     34  H   LIG d   1       4.056  -0.955  -1.931  0.00  0.00     0.031 H 
BRANCH  32  35
ATOM     35  C   LIG d   1       2.976  -0.711  -3.755  0.00  0.00    -0.085 C 
ATOM     36  C   LIG d   1       3.053   0.594  -3.680  0.00  0.00    -0.080 C 
ATOM     37  H   LIG d   1       2.569  -1.178  -4.640  0.00  0.00     0.057 H 
BRANCH  36  38
ATOM     38  C   LIG d   1       3.728   1.243  -2.499  0.00  0.00    -0.044 C 
ATOM     39  H   LIG d   1       2.975   1.700  -1.857  0.00  0.00     0.027 H 
ATOM     40  H   LIG d   1       4.278   0.490  -1.935  0.00  0.00     0.027 H 
ATOM     41  H   LIG d   1       4.419   2.009  -2.851  0.00  0.00     0.027 H 
ENDBRANCH  36  38
BRANCH  36  42
ATOM     42  C   LIG d   1       2.466   1.449  -4.774  0.00  0.00    -0.044 C 
ATOM     43  H   LIG d   1       1.379   1.414  -4.719  0.00  0.00     0.027 H 
ATOM     44  H   LIG d   1       2.804   2.477  -4.653  0.00  0.00     0.027 H 
ATOM     45  H   LIG d   1       2.793   1.071  -5.744  0.00  0.00     0.027 H 
ENDBRANCH  36  42
ENDBRANCH  32  35
ENDBRANCH  29  32
ENDBRANCH   1  29
TORSDOF 14
ENDMDL
