MODEL 1
REMARK VINA RESULT:      -5.2      0.000      0.000
REMARK  9 active torsions:
REMARK  status: ('A' for Active; 'I' for Inactive)
REMARK    1  A    between atoms: C_1  and  C_2 
REMARK    2  A    between atoms: C_2  and  C_8 
REMARK    3  A    between atoms: N_3  and  N_4 
REMARK       I    between atoms: N_4  and  C_5 
REMARK       I    between atoms: C_5  and  N_7 
REMARK    4  A    between atoms: C_8  and  C_20 
REMARK    5  A    between atoms: C_11  and  C_16 
REMARK    6  A    between atoms: C_13  and  C_14 
REMARK    7  A    between atoms: C_13  and  C_15 
REMARK    8  A    between atoms: C_16  and  O_18 
REMARK    9  A    between atoms: O_18  and  C_19 
ROOT
ATOM      1  C   LIG d   1       4.049  -0.570  -3.854  0.00  0.00     0.013 C 
ATOM      2  C   LIG d   1       3.723  -0.352  -5.346  0.00  0.00    -0.041 C 
ATOM      3  C   LIG d   1       4.723  -1.272  -6.090  0.00  0.00    -0.039 C 
ATOM      4  C   LIG d   1       4.782  -2.522  -5.178  0.00  0.00     0.062 C 
ATOM      5  H   LIG d   1       3.928  -3.172  -5.365  0.00  0.00     0.042 H 
ATOM      6  C   LIG d   1       4.723  -1.949  -3.747  0.00  0.00    -0.011 C 
ATOM      7  H   LIG d   1       2.697  -0.652  -5.560  0.00  0.00     0.027 H 
ATOM      8  H   LIG d   1       3.883   0.689  -5.623  0.00  0.00     0.027 H 
ATOM      9  H   LIG d   1       4.345  -1.533  -7.079  0.00  0.00     0.027 H 
ATOM     10  H   LIG d   1       5.702  -0.799  -6.163  0.00  0.00     0.027 H 
ENDROOT
BRANCH   1  11
ATOM     11  C   LIG d   1       4.990   0.503  -3.369  0.00  0.00     0.040 C 
ATOM     12  N   LIG d   1       5.927   0.923  -4.132  0.00  0.00    -0.188 NA
BRANCH  11  13
ATOM     13  C   LIG d   1       4.830   1.076  -1.984  0.00  0.00    -0.024 C 
ATOM     14  H   LIG d   1       4.372   2.063  -2.050  0.00  0.00     0.029 H 
ATOM     15  H   LIG d   1       4.195   0.419  -1.391  0.00  0.00     0.029 H 
ATOM     16  H   LIG d   1       5.808   1.160  -1.511  0.00  0.00     0.029 H 
ENDBRANCH  11  13
BRANCH  12  17
ATOM     17  N   LIG d   1       6.803   1.921  -3.681  0.00  0.00    -0.191 N 
ATOM     18  C   LIG d   1       8.134   1.724  -3.735  0.00  0.00     0.317 C 
ATOM     19  O   LIG d   1       8.893   2.589  -3.344  0.00  0.00    -0.251 OA
ATOM     20  N   LIG d   1       8.625   0.567  -4.222  0.00  0.00    -0.312 N 
ATOM     21  H   LIG d   1       8.020  -0.124  -4.534  0.00  0.00     0.146 HD
ATOM     22  H   LIG d   1       9.584   0.424  -4.261  0.00  0.00     0.146 HD
ATOM     23  H   LIG d   1       6.449   2.753  -3.331  0.00  0.00     0.179 HD
ENDBRANCH  12  17
ENDBRANCH   1  11
BRANCH   1  24
ATOM     24  C   LIG d   1       2.760  -0.550  -3.028  0.00  0.00    -0.054 C 
ATOM     25  H   LIG d   1       2.188   0.345  -3.271  0.00  0.00     0.024 H 
ATOM     26  H   LIG d   1       2.167  -1.434  -3.258  0.00  0.00     0.024 H 
ATOM     27  H   LIG d   1       3.010  -0.544  -1.967  0.00  0.00     0.024 H 
ENDBRANCH   1  24
BRANCH   6  28
ATOM     28  C   LIG d   1       6.136  -1.800  -3.183  0.00  0.00    -0.058 C 
ATOM     29  H   LIG d   1       6.372  -2.662  -2.558  0.00  0.00     0.024 H 
ATOM     30  H   LIG d   1       6.851  -1.740  -4.003  0.00  0.00     0.024 H 
ATOM     31  H   LIG d   1       6.194  -0.891  -2.583  0.00  0.00     0.024 H 
ENDBRANCH   6  28
BRANCH   6  32
ATOM     32  C   LIG d   1       3.894  -2.870  -2.849  0.00  0.00    -0.058 C 
ATOM     33  H   LIG d   1       2.940  -2.393  -2.622  0.00  0.00     0.024 H 
ATOM     34  H   LIG d   1       3.715  -3.814  -3.362  0.00  0.00     0.024 H 
ATOM     35  H   LIG d   1       4.436  -3.057  -1.922  0.00  0.00     0.024 H 
ENDBRANCH   6  32
BRANCH   4  36
ATOM     36  C   LIG d   1       6.072  -3.272  -5.395  0.00  0.00     0.310 C 
ATOM     37  O   LIG d   1       6.168  -4.422  -5.038  0.00  0.00    -0.251 OA
BRANCH  36  38
ATOM     38  O   LIG d   1       7.112  -2.662  -5.983  0.00  0.00    -0.468 OA
BRANCH  38  39
ATOM     39  C   LIG d   1       8.420  -3.268  -5.802  0.00  0.00     0.082 C 
ATOM     40  H   LIG d   1       8.700  -3.806  -6.708  0.00  0.00     0.066 H 
ATOM     41  H   LIG d   1       9.155  -2.490  -5.598  0.00  0.00     0.066 H 
ATOM     42  H   LIG d   1       8.385  -3.964  -4.963  0.00  0.00     0.066 H 
ENDBRANCH  38  39
ENDBRANCH  36  38
ENDBRANCH   4  36
TORSDOF 9
ENDMDL
MODEL 2
REMARK VINA RESULT:      -5.0      2.632      4.069
REMARK  9 active torsions:
REMARK  status: ('A' for Active; 'I' for Inactive)
REMARK    1  A    between atoms: C_1  and  C_2 
REMARK    2  A    between atoms: C_2  and  C_8 
REMARK    3  A    between atoms: N_3  and  N_4 
REMARK       I    between atoms: N_4  and  C_5 
REMARK       I    between atoms: C_5  and  N_7 
REMARK    4  A    between atoms: C_8  and  C_20 
REMARK    5  A    between atoms: C_11  and  C_16 
REMARK    6  A    between atoms: C_13  and  C_14 
REMARK    7  A    between atoms: C_13  and  C_15 
REMARK    8  A    between atoms: C_16  and  O_18 
REMARK    9  A    between atoms: O_18  and  C_19 
ROOT
ATOM      1  C   LIG d   1       3.731   0.088  -3.315  0.00  0.00     0.013 C 
ATOM      2  C   LIG d   1       3.073  -1.164  -2.702  0.00  0.00    -0.041 C 
ATOM      3  C   LIG d   1       3.994  -2.330  -3.140  0.00  0.00    -0.039 C 
ATOM      4  C   LIG d   1       5.407  -1.705  -3.039  0.00  0.00     0.062 C 
ATOM      5  H   LIG d   1       5.757  -1.716  -2.006  0.00  0.00     0.042 H 
ATOM      6  C   LIG d   1       5.216  -0.255  -3.530  0.00  0.00    -0.011 C 
ATOM      7  H   LIG d   1       3.045  -1.088  -1.615  0.00  0.00     0.027 H 
ATOM      8  H   LIG d   1       2.068  -1.301  -3.102  0.00  0.00     0.027 H 
ATOM      9  H   LIG d   1       3.896  -3.176  -2.460  0.00  0.00     0.027 H 
ATOM     10  H   LIG d   1       3.776  -2.630  -4.165  0.00  0.00     0.027 H 
ENDROOT
BRANCH   1  11
ATOM     11  C   LIG d   1       3.083   0.420  -4.634  0.00  0.00     0.040 C 
ATOM     12  N   LIG d   1       3.064  -0.449  -5.573  0.00  0.00    -0.188 NA
BRANCH  11  13
ATOM     13  C   LIG d   1       2.463   1.777  -4.849  0.00  0.00    -0.024 C 
ATOM     14  H   LIG d   1       1.495   1.817  -4.349  0.00  0.00     0.029 H 
ATOM     15  H   LIG d   1       3.117   2.545  -4.438  0.00  0.00     0.029 H 
ATOM     16  H   LIG d   1       2.327   1.948  -5.917  0.00  0.00     0.029 H 
ENDBRANCH  11  13
BRANCH  12  17
ATOM     17  N   LIG d   1       2.462  -0.141  -6.801  0.00  0.00    -0.191 N 
ATOM     18  C   LIG d   1       2.819  -0.810  -7.914  0.00  0.00     0.317 C 
ATOM     19  O   LIG d   1       2.296  -0.543  -8.979  0.00  0.00    -0.251 OA
ATOM     20  N   LIG d   1       3.756  -1.777  -7.848  0.00  0.00    -0.312 N 
ATOM     21  H   LIG d   1       4.173  -1.990  -6.999  0.00  0.00     0.146 HD
ATOM     22  H   LIG d   1       4.014  -2.259  -8.649  0.00  0.00     0.146 HD
ATOM     23  H   LIG d   1       1.787   0.555  -6.849  0.00  0.00     0.179 HD
ENDBRANCH  12  17
ENDBRANCH   1  11
BRANCH   1  24
ATOM     24  C   LIG d   1       3.601   1.272  -2.354  0.00  0.00    -0.054 C 
ATOM     25  H   LIG d   1       3.747   2.203  -2.903  0.00  0.00     0.024 H 
ATOM     26  H   LIG d   1       2.609   1.268  -1.904  0.00  0.00     0.024 H 
ATOM     27  H   LIG d   1       4.356   1.190  -1.572  0.00  0.00     0.024 H 
ENDBRANCH   1  24
BRANCH   6  28
ATOM     28  C   LIG d   1       5.569  -0.153  -5.014  0.00  0.00    -0.058 C 
ATOM     29  H   LIG d   1       5.111   0.741  -5.436  0.00  0.00     0.024 H 
ATOM     30  H   LIG d   1       6.651  -0.095  -5.128  0.00  0.00     0.024 H 
ATOM     31  H   LIG d   1       5.196  -1.034  -5.538  0.00  0.00     0.024 H 
ENDBRANCH   6  28
BRANCH   6  32
ATOM     32  C   LIG d   1       6.097   0.694  -2.714  0.00  0.00    -0.058 C 
ATOM     33  H   LIG d   1       6.949   0.144  -2.312  0.00  0.00     0.024 H 
ATOM     34  H   LIG d   1       6.455   1.499  -3.356  0.00  0.00     0.024 H 
ATOM     35  H   LIG d   1       5.516   1.114  -1.894  0.00  0.00     0.024 H 
ENDBRANCH   6  32
BRANCH   4  36
ATOM     36  C   LIG d   1       6.375  -2.442  -3.930  0.00  0.00     0.310 C 
ATOM     37  O   LIG d   1       5.961  -3.192  -4.781  0.00  0.00    -0.251 OA
BRANCH  36  38
ATOM     38  O   LIG d   1       7.696  -2.266  -3.775  0.00  0.00    -0.468 OA
BRANCH  38  39
ATOM     39  C   LIG d   1       8.525  -3.459  -3.776  0.00  0.00     0.082 C 
ATOM     40  H   LIG d   1       9.417  -3.282  -3.176  0.00  0.00     0.066 H 
ATOM     41  H   LIG d   1       7.962  -4.292  -3.355  0.00  0.00     0.066 H 
ATOM     42  H   LIG d   1       8.817  -3.698  -4.799  0.00  0.00     0.066 H 
ENDBRANCH  38  39
ENDBRANCH  36  38
ENDBRANCH   4  36
TORSDOF 9
ENDMDL
MODEL 3
REMARK VINA RESULT:      -4.7      3.339      5.506
REMARK  9 active torsions:
REMARK  status: ('A' for Active; 'I' for Inactive)
REMARK    1  A    between atoms: C_1  and  C_2 
REMARK    2  A    between atoms: C_2  and  C_8 
REMARK    3  A    between atoms: N_3  and  N_4 
REMARK       I    between atoms: N_4  and  C_5 
REMARK       I    between atoms: C_5  and  N_7 
REMARK    4  A    between atoms: C_8  and  C_20 
REMARK    5  A    between atoms: C_11  and  C_16 
REMARK    6  A    between atoms: C_13  and  C_14 
REMARK    7  A    between atoms: C_13  and  C_15 
REMARK    8  A    between atoms: C_16  and  O_18 
REMARK    9  A    between atoms: O_18  and  C_19 
ROOT
ATOM      1  C   LIG d   1       5.331  -2.120  -4.046  0.00  0.00     0.013 C 
ATOM      2  C   LIG d   1       6.618  -1.820  -3.251  0.00  0.00    -0.041 C 
ATOM      3  C   LIG d   1       7.506  -1.034  -4.249  0.00  0.00    -0.039 C 
ATOM      4  C   LIG d   1       6.478  -0.149  -4.996  0.00  0.00     0.062 C 
ATOM      5  H   LIG d   1       6.231   0.732  -4.404  0.00  0.00     0.042 H 
ATOM      6  C   LIG d   1       5.242  -1.057  -5.156  0.00  0.00    -0.011 C 
ATOM      7  H   LIG d   1       6.394  -1.209  -2.377  0.00  0.00     0.027 H 
ATOM      8  H   LIG d   1       7.107  -2.748  -2.954  0.00  0.00     0.027 H 
ATOM      9  H   LIG d   1       8.232  -0.419  -3.717  0.00  0.00     0.027 H 
ATOM     10  H   LIG d   1       8.006  -1.714  -4.939  0.00  0.00     0.027 H 
ENDROOT
BRANCH   1  11
ATOM     11  C   LIG d   1       5.408  -3.496  -4.655  0.00  0.00     0.040 C 
ATOM     12  N   LIG d   1       4.333  -4.142  -4.911  0.00  0.00    -0.188 NA
BRANCH  11  13
ATOM     13  C   LIG d   1       6.749  -4.113  -4.957  0.00  0.00    -0.024 C 
ATOM     14  H   LIG d   1       7.152  -4.568  -4.052  0.00  0.00     0.029 H 
ATOM     15  H   LIG d   1       6.633  -4.875  -5.726  0.00  0.00     0.029 H 
ATOM     16  H   LIG d   1       7.432  -3.341  -5.310  0.00  0.00     0.029 H 
ENDBRANCH  11  13
BRANCH  12  17
ATOM     17  N   LIG d   1       4.403  -5.422  -5.478  0.00  0.00    -0.191 N 
ATOM     18  C   LIG d   1       3.931  -5.636  -6.721  0.00  0.00     0.317 C 
ATOM     19  O   LIG d   1       3.993  -6.746  -7.213  0.00  0.00    -0.251 OA
ATOM     20  N   LIG d   1       3.392  -4.618  -7.421  0.00  0.00    -0.312 N 
ATOM     21  H   LIG d   1       3.343  -3.732  -7.029  0.00  0.00     0.146 HD
ATOM     22  H   LIG d   1       3.052  -4.771  -8.317  0.00  0.00     0.146 HD
ATOM     23  H   LIG d   1       4.792  -6.154  -4.974  0.00  0.00     0.179 HD
ENDBRANCH  12  17
ENDBRANCH   1  11
BRANCH   1  24
ATOM     24  C   LIG d   1       4.112  -2.021  -3.125  0.00  0.00    -0.054 C 
ATOM     25  H   LIG d   1       3.973  -0.984  -2.817  0.00  0.00     0.024 H 
ATOM     26  H   LIG d   1       3.226  -2.363  -3.657  0.00  0.00     0.024 H 
ATOM     27  H   LIG d   1       4.271  -2.643  -2.244  0.00  0.00     0.024 H 
ENDBRANCH   1  24
BRANCH   6  28
ATOM     28  C   LIG d   1       5.259  -1.730  -6.528  0.00  0.00    -0.058 C 
ATOM     29  H   LIG d   1       6.260  -1.662  -6.955  0.00  0.00     0.024 H 
ATOM     30  H   LIG d   1       4.981  -2.779  -6.423  0.00  0.00     0.024 H 
ATOM     31  H   LIG d   1       4.549  -1.230  -7.188  0.00  0.00     0.024 H 
ENDBRANCH   6  28
BRANCH   6  32
ATOM     32  C   LIG d   1       3.963  -0.234  -4.991  0.00  0.00    -0.058 C 
ATOM     33  H   LIG d   1       3.388  -0.619  -4.149  0.00  0.00     0.024 H 
ATOM     34  H   LIG d   1       4.222   0.808  -4.808  0.00  0.00     0.024 H 
ATOM     35  H   LIG d   1       3.365  -0.305  -5.900  0.00  0.00     0.024 H 
ENDBRANCH   6  32
BRANCH   4  36
ATOM     36  C   LIG d   1       7.014   0.257  -6.345  0.00  0.00     0.310 C 
ATOM     37  O   LIG d   1       8.065  -0.192  -6.738  0.00  0.00    -0.251 OA
BRANCH  36  38
ATOM     38  O   LIG d   1       6.325   1.119  -7.108  0.00  0.00    -0.468 OA
BRANCH  38  39
ATOM     39  C   LIG d   1       6.909   1.476  -8.391  0.00  0.00     0.082 C 
ATOM     40  H   LIG d   1       6.123   1.823  -9.062  0.00  0.00     0.066 H 
ATOM     41  H   LIG d   1       7.642   2.268  -8.247  0.00  0.00     0.066 H 
ATOM     42  H   LIG d   1       7.397   0.601  -8.823  0.00  0.00     0.066 H 
ENDBRANCH  38  39
ENDBRANCH  36  38
ENDBRANCH   4  36
TORSDOF 9
ENDMDL
MODEL 4
REMARK VINA RESULT:      -4.7      3.074      5.297
REMARK  9 active torsions:
REMARK  status: ('A' for Active; 'I' for Inactive)
REMARK    1  A    between atoms: C_1  and  C_2 
REMARK    2  A    between atoms: C_2  and  C_8 
REMARK    3  A    between atoms: N_3  and  N_4 
REMARK       I    between atoms: N_4  and  C_5 
REMARK       I    between atoms: C_5  and  N_7 
REMARK    4  A    between atoms: C_8  and  C_20 
REMARK    5  A    between atoms: C_11  and  C_16 
REMARK    6  A    between atoms: C_13  and  C_14 
REMARK    7  A    between atoms: C_13  and  C_15 
REMARK    8  A    between atoms: C_16  and  O_18 
REMARK    9  A    between atoms: O_18  and  C_19 
ROOT
ATOM      1  C   LIG d   1       5.655  -2.508  -4.909  0.00  0.00     0.013 C 
ATOM      2  C   LIG d   1       7.141  -2.529  -4.496  0.00  0.00    -0.041 C 
ATOM      3  C   LIG d   1       7.382  -1.128  -3.879  0.00  0.00    -0.039 C 
ATOM      4  C   LIG d   1       6.063  -0.860  -3.115  0.00  0.00     0.062 C 
ATOM      5  H   LIG d   1       6.068  -1.369  -2.151  0.00  0.00     0.042 H 
ATOM      6  C   LIG d   1       4.969  -1.447  -4.030  0.00  0.00    -0.011 C 
ATOM      7  H   LIG d   1       7.321  -3.309  -3.756  0.00  0.00     0.027 H 
ATOM      8  H   LIG d   1       7.776  -2.676  -5.369  0.00  0.00     0.027 H 
ATOM      9  H   LIG d   1       8.229  -1.150  -3.193  0.00  0.00     0.027 H 
ATOM     10  H   LIG d   1       7.536  -0.384  -4.660  0.00  0.00     0.027 H 
ENDROOT
BRANCH   1  11
ATOM     11  C   LIG d   1       5.527  -2.135  -6.363  0.00  0.00     0.040 C 
ATOM     12  N   LIG d   1       4.423  -2.336  -6.980  0.00  0.00    -0.188 NA
BRANCH  11  13
ATOM     13  C   LIG d   1       6.699  -1.531  -7.092  0.00  0.00    -0.024 C 
ATOM     14  H   LIG d   1       6.338  -0.825  -7.840  0.00  0.00     0.029 H 
ATOM     15  H   LIG d   1       7.341  -1.012  -6.381  0.00  0.00     0.029 H 
ATOM     16  H   LIG d   1       7.267  -2.321  -7.584  0.00  0.00     0.029 H 
ENDBRANCH  11  13
BRANCH  12  17
ATOM     17  N   LIG d   1       4.303  -1.989  -8.332  0.00  0.00    -0.191 N 
ATOM     18  C   LIG d   1       3.352  -1.119  -8.723  0.00  0.00     0.317 C 
ATOM     19  O   LIG d   1       3.248  -0.818  -9.897  0.00  0.00    -0.251 OA
ATOM     20  N   LIG d   1       2.516  -0.581  -7.814  0.00  0.00    -0.312 N 
ATOM     21  H   LIG d   1       2.598  -0.821  -6.878  0.00  0.00     0.146 HD
ATOM     22  H   LIG d   1       1.830   0.045  -8.095  0.00  0.00     0.146 HD
ATOM     23  H   LIG d   1       4.906  -2.376  -8.987  0.00  0.00     0.179 HD
ENDBRANCH  12  17
ENDBRANCH   1  11
BRANCH   1  24
ATOM     24  C   LIG d   1       5.023  -3.881  -4.662  0.00  0.00    -0.054 C 
ATOM     25  H   LIG d   1       5.438  -4.312  -3.751  0.00  0.00     0.024 H 
ATOM     26  H   LIG d   1       3.945  -3.771  -4.554  0.00  0.00     0.024 H 
ATOM     27  H   LIG d   1       5.240  -4.537  -5.506  0.00  0.00     0.024 H 
ENDBRANCH   1  24
BRANCH   6  28
ATOM     28  C   LIG d   1       4.373  -0.346  -4.908  0.00  0.00    -0.058 C 
ATOM     29  H   LIG d   1       5.091  -0.066  -5.679  0.00  0.00     0.024 H 
ATOM     30  H   LIG d   1       3.459  -0.709  -5.378  0.00  0.00     0.024 H 
ATOM     31  H   LIG d   1       4.143   0.525  -4.294  0.00  0.00     0.024 H 
ENDBRANCH   6  28
BRANCH   6  32
ATOM     32  C   LIG d   1       3.871  -2.095  -3.185  0.00  0.00    -0.058 C 
ATOM     33  H   LIG d   1       4.295  -2.916  -2.606  0.00  0.00     0.024 H 
ATOM     34  H   LIG d   1       3.447  -1.354  -2.508  0.00  0.00     0.024 H 
ATOM     35  H   LIG d   1       3.088  -2.480  -3.839  0.00  0.00     0.024 H 
ENDBRANCH   6  32
BRANCH   4  36
ATOM     36  C   LIG d   1       5.855   0.621  -2.925  0.00  0.00     0.310 C 
ATOM     37  O   LIG d   1       6.349   1.405  -3.702  0.00  0.00    -0.251 OA
BRANCH  36  38
ATOM     38  O   LIG d   1       5.124   1.069  -1.893  0.00  0.00    -0.468 OA
BRANCH  38  39
ATOM     39  C   LIG d   1       3.768   1.503  -2.185  0.00  0.00     0.082 C 
ATOM     40  H   LIG d   1       3.069   0.960  -1.550  0.00  0.00     0.066 H 
ATOM     41  H   LIG d   1       3.680   2.572  -1.993  0.00  0.00     0.066 H 
ATOM     42  H   LIG d   1       3.540   1.302  -3.233  0.00  0.00     0.066 H 
ENDBRANCH  38  39
ENDBRANCH  36  38
ENDBRANCH   4  36
TORSDOF 9
ENDMDL
MODEL 5
REMARK VINA RESULT:      -4.6      2.273      3.426
REMARK  9 active torsions:
REMARK  status: ('A' for Active; 'I' for Inactive)
REMARK    1  A    between atoms: C_1  and  C_2 
REMARK    2  A    between atoms: C_2  and  C_8 
REMARK    3  A    between atoms: N_3  and  N_4 
REMARK       I    between atoms: N_4  and  C_5 
REMARK       I    between atoms: C_5  and  N_7 
REMARK    4  A    between atoms: C_8  and  C_20 
REMARK    5  A    between atoms: C_11  and  C_16 
REMARK    6  A    between atoms: C_13  and  C_14 
REMARK    7  A    between atoms: C_13  and  C_15 
REMARK    8  A    between atoms: C_16  and  O_18 
REMARK    9  A    between atoms: O_18  and  C_19 
ROOT
ATOM      1  C   LIG d   1       4.442  -0.800  -3.857  0.00  0.00     0.013 C 
ATOM      2  C   LIG d   1       3.076  -0.218  -3.439  0.00  0.00    -0.041 C 
ATOM      3  C   LIG d   1       2.536   0.446  -4.731  0.00  0.00    -0.039 C 
ATOM      4  C   LIG d   1       2.986  -0.541  -5.836  0.00  0.00     0.062 C 
ATOM      5  H   LIG d   1       2.302  -1.388  -5.894  0.00  0.00     0.042 H 
ATOM      6  C   LIG d   1       4.385  -1.005  -5.382  0.00  0.00    -0.011 C 
ATOM      7  H   LIG d   1       2.407  -1.013  -3.110  0.00  0.00     0.027 H 
ATOM      8  H   LIG d   1       3.203   0.525  -2.653  0.00  0.00     0.027 H 
ATOM      9  H   LIG d   1       1.448   0.521  -4.699  0.00  0.00     0.027 H 
ATOM     10  H   LIG d   1       2.987   1.426  -4.879  0.00  0.00     0.027 H 
ENDROOT
BRANCH   1  11
ATOM     11  C   LIG d   1       5.545   0.166  -3.508  0.00  0.00     0.040 C 
ATOM     12  N   LIG d   1       6.758  -0.117  -3.798  0.00  0.00    -0.188 NA
BRANCH  11  13
ATOM     13  C   LIG d   1       5.218   1.463  -2.812  0.00  0.00    -0.024 C 
ATOM     14  H   LIG d   1       4.389   1.306  -2.123  0.00  0.00     0.029 H 
ATOM     15  H   LIG d   1       6.091   1.807  -2.258  0.00  0.00     0.029 H 
ATOM     16  H   LIG d   1       4.940   2.212  -3.553  0.00  0.00     0.029 H 
ENDBRANCH  11  13
BRANCH  12  17
ATOM     17  N   LIG d   1       7.784   0.781  -3.474  0.00  0.00    -0.191 N 
ATOM     18  C   LIG d   1       8.815   0.961  -4.322  0.00  0.00     0.317 C 
ATOM     19  O   LIG d   1       9.705   1.740  -4.041  0.00  0.00    -0.251 OA
ATOM     20  N   LIG d   1       8.860   0.279  -5.483  0.00  0.00    -0.312 N 
ATOM     21  H   LIG d   1       8.150  -0.343  -5.708  0.00  0.00     0.146 HD
ATOM     22  H   LIG d   1       9.602   0.408  -6.094  0.00  0.00     0.146 HD
ATOM     23  H   LIG d   1       7.752   1.272  -2.638  0.00  0.00     0.179 HD
ENDBRANCH  12  17
ENDBRANCH   1  11
BRANCH   1  24
ATOM     24  C   LIG d   1       4.677  -2.140  -3.156  0.00  0.00    -0.054 C 
ATOM     25  H   LIG d   1       5.747  -2.288  -3.006  0.00  0.00     0.024 H 
ATOM     26  H   LIG d   1       4.171  -2.140  -2.191  0.00  0.00     0.024 H 
ATOM     27  H   LIG d   1       4.282  -2.947  -3.773  0.00  0.00     0.024 H 
ENDBRANCH   1  24
BRANCH   6  28
ATOM     28  C   LIG d   1       5.464  -0.164  -6.064  0.00  0.00    -0.058 C 
ATOM     29  H   LIG d   1       6.215  -0.822  -6.503  0.00  0.00     0.024 H 
ATOM     30  H   LIG d   1       5.011   0.443  -6.848  0.00  0.00     0.024 H 
ATOM     31  H   LIG d   1       5.938   0.487  -5.329  0.00  0.00     0.024 H 
ENDBRANCH   6  28
BRANCH   6  32
ATOM     32  C   LIG d   1       4.581  -2.485  -5.719  0.00  0.00    -0.058 C 
ATOM     33  H   LIG d   1       5.070  -2.575  -6.689  0.00  0.00     0.024 H 
ATOM     34  H   LIG d   1       5.200  -2.953  -4.954  0.00  0.00     0.024 H 
ATOM     35  H   LIG d   1       3.611  -2.981  -5.755  0.00  0.00     0.024 H 
ENDBRANCH   6  32
BRANCH   4  36
ATOM     36  C   LIG d   1       3.068   0.161  -7.167  0.00  0.00     0.310 C 
ATOM     37  O   LIG d   1       3.120  -0.484  -8.188  0.00  0.00    -0.251 OA
BRANCH  36  38
ATOM     38  O   LIG d   1       3.084   1.502  -7.219  0.00  0.00    -0.468 OA
BRANCH  38  39
ATOM     39  C   LIG d   1       2.887   2.114  -8.522  0.00  0.00     0.082 C 
ATOM     40  H   LIG d   1       1.885   2.539  -8.575  0.00  0.00     0.066 H 
ATOM     41  H   LIG d   1       3.626   2.902  -8.668  0.00  0.00     0.066 H 
ATOM     42  H   LIG d   1       3.003   1.358  -9.299  0.00  0.00     0.066 H 
ENDBRANCH  38  39
ENDBRANCH  36  38
ENDBRANCH   4  36
TORSDOF 9
ENDMDL
MODEL 6
REMARK VINA RESULT:      -4.4      4.714      6.277
REMARK  9 active torsions:
REMARK  status: ('A' for Active; 'I' for Inactive)
REMARK    1  A    between atoms: C_1  and  C_2 
REMARK    2  A    between atoms: C_2  and  C_8 
REMARK    3  A    between atoms: N_3  and  N_4 
REMARK       I    between atoms: N_4  and  C_5 
REMARK       I    between atoms: C_5  and  N_7 
REMARK    4  A    between atoms: C_8  and  C_20 
REMARK    5  A    between atoms: C_11  and  C_16 
REMARK    6  A    between atoms: C_13  and  C_14 
REMARK    7  A    between atoms: C_13  and  C_15 
REMARK    8  A    between atoms: C_16  and  O_18 
REMARK    9  A    between atoms: O_18  and  C_19 
ROOT
ATOM      1  C   LIG d   1       3.556   0.785  -9.316  0.00  0.00     0.013 C 
ATOM      2  C   LIG d   1       4.399   1.361 -10.472  0.00  0.00    -0.041 C 
ATOM      3  C   LIG d   1       4.661   0.143 -11.394  0.00  0.00    -0.039 C 
ATOM      4  C   LIG d   1       3.321  -0.630 -11.327  0.00  0.00     0.062 C 
ATOM      5  H   LIG d   1       2.588  -0.183 -11.999  0.00  0.00     0.042 H 
ATOM      6  C   LIG d   1       2.871  -0.482  -9.859  0.00  0.00    -0.011 C 
ATOM      7  H   LIG d   1       3.840   2.130 -11.005  0.00  0.00     0.027 H 
ATOM      8  H   LIG d   1       5.338   1.763 -10.095  0.00  0.00     0.027 H 
ATOM      9  H   LIG d   1       4.869   0.469 -12.413  0.00  0.00     0.027 H 
ATOM     10  H   LIG d   1       5.479  -0.464 -11.008  0.00  0.00     0.027 H 
ENDROOT
BRANCH   1  11
ATOM     11  C   LIG d   1       4.448   0.430  -8.154  0.00  0.00     0.040 C 
ATOM     12  N   LIG d   1       3.951   0.312  -6.980  0.00  0.00    -0.188 NA
BRANCH  11  13
ATOM     13  C   LIG d   1       5.924   0.220  -8.373  0.00  0.00    -0.024 C 
ATOM     14  H   LIG d   1       6.486   0.819  -7.656  0.00  0.00     0.029 H 
ATOM     15  H   LIG d   1       6.165  -0.834  -8.234  0.00  0.00     0.029 H 
ATOM     16  H   LIG d   1       6.187   0.523  -9.386  0.00  0.00     0.029 H 
ENDBRANCH  11  13
BRANCH  12  17
ATOM     17  N   LIG d   1       4.779  -0.018  -5.899  0.00  0.00    -0.191 N 
ATOM     18  C   LIG d   1       4.239  -0.449  -4.742  0.00  0.00     0.317 C 
ATOM     19  O   LIG d   1       4.957  -0.736  -3.805  0.00  0.00    -0.251 OA
ATOM     20  N   LIG d   1       2.901  -0.564  -4.626  0.00  0.00    -0.312 N 
ATOM     21  H   LIG d   1       2.328  -0.335  -5.374  0.00  0.00     0.146 HD
ATOM     22  H   LIG d   1       2.511  -0.874  -3.793  0.00  0.00     0.146 HD
ATOM     23  H   LIG d   1       5.742   0.064  -5.983  0.00  0.00     0.179 HD
ENDBRANCH  12  17
ENDBRANCH   1  11
BRANCH   1  24
ATOM     24  C   LIG d   1       2.503   1.804  -8.877  0.00  0.00    -0.054 C 
ATOM     25  H   LIG d   1       2.366   2.546  -9.663  0.00  0.00     0.024 H 
ATOM     26  H   LIG d   1       1.559   1.294  -8.690  0.00  0.00     0.024 H 
ATOM     27  H   LIG d   1       2.835   2.299  -7.964  0.00  0.00     0.024 H 
ENDBRANCH   1  24
BRANCH   6  28
ATOM     28  C   LIG d   1       3.309  -1.703  -9.051  0.00  0.00    -0.058 C 
ATOM     29  H   LIG d   1       2.478  -2.404  -8.970  0.00  0.00     0.024 H 
ATOM     30  H   LIG d   1       4.147  -2.190  -9.551  0.00  0.00     0.024 H 
ATOM     31  H   LIG d   1       3.616  -1.388  -8.053  0.00  0.00     0.024 H 
ENDBRANCH   6  28
BRANCH   6  32
ATOM     32  C   LIG d   1       1.351  -0.326  -9.791  0.00  0.00    -0.058 C 
ATOM     33  H   LIG d   1       0.934  -1.097  -9.143  0.00  0.00     0.024 H 
ATOM     34  H   LIG d   1       1.104   0.657  -9.390  0.00  0.00     0.024 H 
ATOM     35  H   LIG d   1       0.930  -0.426 -10.792  0.00  0.00     0.024 H 
ENDBRANCH   6  32
BRANCH   4  36
ATOM     36  C   LIG d   1       3.533  -2.082 -11.672  0.00  0.00     0.310 C 
ATOM     37  O   LIG d   1       4.649  -2.546 -11.674  0.00  0.00    -0.251 OA
BRANCH  36  38
ATOM     38  O   LIG d   1       2.483  -2.859 -11.977  0.00  0.00    -0.468 OA
BRANCH  38  39
ATOM     39  C   LIG d   1       1.557  -2.354 -12.977  0.00  0.00     0.082 C 
ATOM     40  H   LIG d   1       1.876  -2.685 -13.966  0.00  0.00     0.066 H 
ATOM     41  H   LIG d   1       0.557  -2.734 -12.770  0.00  0.00     0.066 H 
ATOM     42  H   LIG d   1       1.547  -1.264 -12.945  0.00  0.00     0.066 H 
ENDBRANCH  38  39
ENDBRANCH  36  38
ENDBRANCH   4  36
TORSDOF 9
ENDMDL
MODEL 7
REMARK VINA RESULT:      -4.4      3.062      4.619
REMARK  9 active torsions:
REMARK  status: ('A' for Active; 'I' for Inactive)
REMARK    1  A    between atoms: C_1  and  C_2 
REMARK    2  A    between atoms: C_2  and  C_8 
REMARK    3  A    between atoms: N_3  and  N_4 
REMARK       I    between atoms: N_4  and  C_5 
REMARK       I    between atoms: C_5  and  N_7 
REMARK    4  A    between atoms: C_8  and  C_20 
REMARK    5  A    between atoms: C_11  and  C_16 
REMARK    6  A    between atoms: C_13  and  C_14 
REMARK    7  A    between atoms: C_13  and  C_15 
REMARK    8  A    between atoms: C_16  and  O_18 
REMARK    9  A    between atoms: O_18  and  C_19 
ROOT
ATOM      1  C   LIG d   1       6.196  -1.687  -5.726  0.00  0.00     0.013 C 
ATOM      2  C   LIG d   1       7.476  -0.962  -5.264  0.00  0.00    -0.041 C 
ATOM      3  C   LIG d   1       7.031  -0.172  -4.007  0.00  0.00    -0.039 C 
ATOM      4  C   LIG d   1       6.047  -1.149  -3.320  0.00  0.00     0.062 C 
ATOM      5  H   LIG d   1       6.591  -1.901  -2.748  0.00  0.00     0.042 H 
ATOM      6  C   LIG d   1       5.286  -1.806  -4.490  0.00  0.00    -0.011 C 
ATOM      7  H   LIG d   1       8.251  -1.683  -5.006  0.00  0.00     0.027 H 
ATOM      8  H   LIG d   1       7.829  -0.281  -6.038  0.00  0.00     0.027 H 
ATOM      9  H   LIG d   1       7.884   0.037  -3.361  0.00  0.00     0.027 H 
ATOM     10  H   LIG d   1       6.527   0.752  -4.291  0.00  0.00     0.027 H 
ENDROOT
BRANCH   1  11
ATOM     11  C   LIG d   1       5.506  -0.884  -6.799  0.00  0.00     0.040 C 
ATOM     12  N   LIG d   1       5.748   0.368  -6.915  0.00  0.00    -0.188 NA
BRANCH  11  13
ATOM     13  C   LIG d   1       4.528  -1.553  -7.730  0.00  0.00    -0.024 C 
ATOM     14  H   LIG d   1       5.045  -2.317  -8.311  0.00  0.00     0.029 H 
ATOM     15  H   LIG d   1       3.731  -2.015  -7.149  0.00  0.00     0.029 H 
ATOM     16  H   LIG d   1       4.102  -0.809  -8.404  0.00  0.00     0.029 H 
ENDBRANCH  11  13
BRANCH  12  17
ATOM     17  N   LIG d   1       5.106   1.115  -7.913  0.00  0.00    -0.191 N 
ATOM     18  C   LIG d   1       5.835   1.809  -8.808  0.00  0.00     0.317 C 
ATOM     19  O   LIG d   1       5.279   2.458  -9.673  0.00  0.00    -0.251 OA
ATOM     20  N   LIG d   1       7.181   1.784  -8.746  0.00  0.00    -0.312 N 
ATOM     21  H   LIG d   1       7.625   1.268  -8.056  0.00  0.00     0.146 HD
ATOM     22  H   LIG d   1       7.706   2.284  -9.390  0.00  0.00     0.146 HD
ATOM     23  H   LIG d   1       4.138   1.133  -7.957  0.00  0.00     0.179 HD
ENDBRANCH  12  17
ENDBRANCH   1  11
BRANCH   1  24
ATOM     24  C   LIG d   1       6.545  -3.079  -6.257  0.00  0.00    -0.054 C 
ATOM     25  H   LIG d   1       6.864  -3.713  -5.429  0.00  0.00     0.024 H 
ATOM     26  H   LIG d   1       5.669  -3.517  -6.734  0.00  0.00     0.024 H 
ATOM     27  H   LIG d   1       7.353  -2.998  -6.984  0.00  0.00     0.024 H 
ENDBRANCH   1  24
BRANCH   6  28
ATOM     28  C   LIG d   1       3.968  -1.072  -4.737  0.00  0.00    -0.058 C 
ATOM     29  H   LIG d   1       3.807  -0.964  -5.810  0.00  0.00     0.024 H 
ATOM     30  H   LIG d   1       3.147  -1.642  -4.302  0.00  0.00     0.024 H 
ATOM     31  H   LIG d   1       4.009  -0.085  -4.276  0.00  0.00     0.024 H 
ENDBRANCH   6  28
BRANCH   6  32
ATOM     32  C   LIG d   1       5.016  -3.279  -4.178  0.00  0.00    -0.058 C 
ATOM     33  H   LIG d   1       4.392  -3.708  -4.962  0.00  0.00     0.024 H 
ATOM     34  H   LIG d   1       5.961  -3.819  -4.129  0.00  0.00     0.024 H 
ATOM     35  H   LIG d   1       4.502  -3.359  -3.220  0.00  0.00     0.024 H 
ENDBRANCH   6  32
BRANCH   4  36
ATOM     36  C   LIG d   1       5.094  -0.396  -2.426  0.00  0.00     0.310 C 
ATOM     37  O   LIG d   1       4.369  -1.000  -1.671  0.00  0.00    -0.251 OA
BRANCH  36  38
ATOM     38  O   LIG d   1       5.051   0.945  -2.470  0.00  0.00    -0.468 OA
BRANCH  38  39
ATOM     39  C   LIG d   1       3.743   1.557  -2.627  0.00  0.00     0.082 C 
ATOM     40  H   LIG d   1       3.862   2.625  -2.809  0.00  0.00     0.066 H 
ATOM     41  H   LIG d   1       3.226   1.099  -3.470  0.00  0.00     0.066 H 
ATOM     42  H   LIG d   1       3.160   1.406  -1.717  0.00  0.00     0.066 H 
ENDBRANCH  38  39
ENDBRANCH  36  38
ENDBRANCH   4  36
TORSDOF 9
ENDMDL
MODEL 8
REMARK VINA RESULT:      -4.3      8.823     10.909
REMARK  9 active torsions:
REMARK  status: ('A' for Active; 'I' for Inactive)
REMARK    1  A    between atoms: C_1  and  C_2 
REMARK    2  A    between atoms: C_2  and  C_8 
REMARK    3  A    between atoms: N_3  and  N_4 
REMARK       I    between atoms: N_4  and  C_5 
REMARK       I    between atoms: C_5  and  N_7 
REMARK    4  A    between atoms: C_8  and  C_20 
REMARK    5  A    between atoms: C_11  and  C_16 
REMARK    6  A    between atoms: C_13  and  C_14 
REMARK    7  A    between atoms: C_13  and  C_15 
REMARK    8  A    between atoms: C_16  and  O_18 
REMARK    9  A    between atoms: O_18  and  C_19 
ROOT
ATOM      1  C   LIG d   1      11.080   6.887  -3.614  0.00  0.00     0.013 C 
ATOM      2  C   LIG d   1      12.489   7.430  -3.297  0.00  0.00    -0.041 C 
ATOM      3  C   LIG d   1      12.448   7.726  -1.776  0.00  0.00    -0.039 C 
ATOM      4  C   LIG d   1      11.603   6.552  -1.223  0.00  0.00     0.062 C 
ATOM      5  H   LIG d   1      12.217   5.659  -1.110  0.00  0.00     0.042 H 
ATOM      6  C   LIG d   1      10.516   6.329  -2.294  0.00  0.00    -0.011 C 
ATOM      7  H   LIG d   1      13.246   6.678  -3.519  0.00  0.00     0.027 H 
ATOM      8  H   LIG d   1      12.680   8.344  -3.858  0.00  0.00     0.027 H 
ATOM      9  H   LIG d   1      13.453   7.712  -1.354  0.00  0.00     0.027 H 
ATOM     10  H   LIG d   1      11.960   8.680  -1.582  0.00  0.00     0.027 H 
ENDROOT
BRANCH   1  11
ATOM     11  C   LIG d   1      10.199   8.000  -4.121  0.00  0.00     0.040 C 
ATOM     12  N   LIG d   1      10.241   9.152  -3.565  0.00  0.00    -0.188 NA
BRANCH  11  13
ATOM     13  C   LIG d   1       9.266   7.755  -5.279  0.00  0.00    -0.024 C 
ATOM     14  H   LIG d   1       9.543   6.826  -5.777  0.00  0.00     0.029 H 
ATOM     15  H   LIG d   1       8.243   7.681  -4.911  0.00  0.00     0.029 H 
ATOM     16  H   LIG d   1       9.340   8.582  -5.985  0.00  0.00     0.029 H 
ENDBRANCH  11  13
BRANCH  12  17
ATOM     17  N   LIG d   1       9.423  10.188  -4.036  0.00  0.00    -0.191 N 
ATOM     18  C   LIG d   1       8.702  10.925  -3.169  0.00  0.00     0.317 C 
ATOM     19  O   LIG d   1       7.992  11.824  -3.578  0.00  0.00    -0.251 OA
ATOM     20  N   LIG d   1       8.769  10.668  -1.848  0.00  0.00    -0.312 N 
ATOM     21  H   LIG d   1       9.335   9.951  -1.521  0.00  0.00     0.146 HD
ATOM     22  H   LIG d   1       8.250  11.198  -1.222  0.00  0.00     0.146 HD
ATOM     23  H   LIG d   1       9.375  10.373  -4.987  0.00  0.00     0.179 HD
ENDBRANCH  12  17
ENDBRANCH   1  11
BRANCH   1  24
ATOM     24  C   LIG d   1      11.171   5.773  -4.659  0.00  0.00    -0.054 C 
ATOM     25  H   LIG d   1      11.657   4.902  -4.219  0.00  0.00     0.024 H 
ATOM     26  H   LIG d   1      10.169   5.501  -4.988  0.00  0.00     0.024 H 
ATOM     27  H   LIG d   1      11.753   6.122  -5.512  0.00  0.00     0.024 H 
ENDBRANCH   1  24
BRANCH   6  28
ATOM     28  C   LIG d   1       9.240   7.079  -1.911  0.00  0.00    -0.058 C 
ATOM     29  H   LIG d   1       9.116   7.056  -0.829  0.00  0.00     0.024 H 
ATOM     30  H   LIG d   1       9.311   8.113  -2.247  0.00  0.00     0.024 H 
ATOM     31  H   LIG d   1       8.382   6.601  -2.385  0.00  0.00     0.024 H 
ENDBRANCH   6  28
BRANCH   6  32
ATOM     32  C   LIG d   1      10.223   4.835  -2.440  0.00  0.00    -0.058 C 
ATOM     33  H   LIG d   1       9.272   4.699  -2.955  0.00  0.00     0.024 H 
ATOM     34  H   LIG d   1      11.019   4.363  -3.016  0.00  0.00     0.024 H 
ATOM     35  H   LIG d   1      10.170   4.377  -1.452  0.00  0.00     0.024 H 
ENDBRANCH   6  32
BRANCH   4  36
ATOM     36  C   LIG d   1      10.977   6.930   0.096  0.00  0.00     0.310 C 
ATOM     37  O   LIG d   1      10.550   6.071   0.829  0.00  0.00    -0.251 OA
BRANCH  36  38
ATOM     38  O   LIG d   1      10.892   8.221   0.453  0.00  0.00    -0.468 OA
BRANCH  38  39
ATOM     39  C   LIG d   1      11.543   8.605   1.694  0.00  0.00     0.082 C 
ATOM     40  H   LIG d   1      12.180   9.471   1.517  0.00  0.00     0.066 H 
ATOM     41  H   LIG d   1      10.786   8.855   2.437  0.00  0.00     0.066 H 
ATOM     42  H   LIG d   1      12.150   7.775   2.057  0.00  0.00     0.066 H 
ENDBRANCH  38  39
ENDBRANCH  36  38
ENDBRANCH   4  36
TORSDOF 9
ENDMDL
MODEL 9
REMARK VINA RESULT:      -4.2      4.459      6.826
REMARK  9 active torsions:
REMARK  status: ('A' for Active; 'I' for Inactive)
REMARK    1  A    between atoms: C_1  and  C_2 
REMARK    2  A    between atoms: C_2  and  C_8 
REMARK    3  A    between atoms: N_3  and  N_4 
REMARK       I    between atoms: N_4  and  C_5 
REMARK       I    between atoms: C_5  and  N_7 
REMARK    4  A    between atoms: C_8  and  C_20 
REMARK    5  A    between atoms: C_11  and  C_16 
REMARK    6  A    between atoms: C_13  and  C_14 
REMARK    7  A    between atoms: C_13  and  C_15 
REMARK    8  A    between atoms: C_16  and  O_18 
REMARK    9  A    between atoms: O_18  and  C_19 
ROOT
ATOM      1  C   LIG d   1       2.835  -0.827  -9.597  0.00  0.00     0.013 C 
ATOM      2  C   LIG d   1       2.287  -0.229  -8.286  0.00  0.00    -0.041 C 
ATOM      3  C   LIG d   1       3.496   0.527  -7.680  0.00  0.00    -0.039 C 
ATOM      4  C   LIG d   1       4.182   1.133  -8.929  0.00  0.00     0.062 C 
ATOM      5  H   LIG d   1       3.671   2.044  -9.241  0.00  0.00     0.042 H 
ATOM      6  C   LIG d   1       4.040   0.039 -10.007  0.00  0.00    -0.011 C 
ATOM      7  H   LIG d   1       1.470   0.462  -8.494  0.00  0.00     0.027 H 
ATOM      8  H   LIG d   1       1.956  -1.021  -7.615  0.00  0.00     0.027 H 
ATOM      9  H   LIG d   1       3.160   1.313  -7.003  0.00  0.00     0.027 H 
ATOM     10  H   LIG d   1       4.166  -0.163  -7.167  0.00  0.00     0.027 H 
ENDROOT
BRANCH   1  11
ATOM     11  C   LIG d   1       3.276  -2.251  -9.372  0.00  0.00     0.040 C 
ATOM     12  N   LIG d   1       3.665  -2.623  -8.211  0.00  0.00    -0.188 NA
BRANCH  11  13
ATOM     13  C   LIG d   1       3.263  -3.234 -10.514  0.00  0.00    -0.024 C 
ATOM     14  H   LIG d   1       4.284  -3.409 -10.853  0.00  0.00     0.029 H 
ATOM     15  H   LIG d   1       2.824  -4.173 -10.180  0.00  0.00     0.029 H 
ATOM     16  H   LIG d   1       2.672  -2.828 -11.335  0.00  0.00     0.029 H 
ENDBRANCH  11  13
BRANCH  12  17
ATOM     17  N   LIG d   1       4.074  -3.946  -8.000  0.00  0.00    -0.191 N 
ATOM     18  C   LIG d   1       4.226  -4.413  -6.745  0.00  0.00     0.317 C 
ATOM     19  O   LIG d   1       4.581  -5.562  -6.562  0.00  0.00    -0.251 OA
ATOM     20  N   LIG d   1       3.983  -3.608  -5.693  0.00  0.00    -0.312 N 
ATOM     21  H   LIG d   1       3.700  -2.692  -5.838  0.00  0.00     0.146 HD
ATOM     22  H   LIG d   1       4.092  -3.944  -4.789  0.00  0.00     0.146 HD
ATOM     23  H   LIG d   1       4.249  -4.526  -8.758  0.00  0.00     0.179 HD
ENDBRANCH  12  17
ENDBRANCH   1  11
BRANCH   1  24
ATOM     24  C   LIG d   1       1.760  -0.778 -10.685  0.00  0.00    -0.054 C 
ATOM     25  H   LIG d   1       1.175  -1.697 -10.660  0.00  0.00     0.024 H 
ATOM     26  H   LIG d   1       1.105   0.075 -10.511  0.00  0.00     0.024 H 
ATOM     27  H   LIG d   1       2.236  -0.677 -11.661  0.00  0.00     0.024 H 
ENDBRANCH   1  24
BRANCH   6  28
ATOM     28  C   LIG d   1       5.307  -0.816 -10.055  0.00  0.00    -0.058 C 
ATOM     29  H   LIG d   1       5.164  -1.714  -9.455  0.00  0.00     0.024 H 
ATOM     30  H   LIG d   1       5.516  -1.099 -11.087  0.00  0.00     0.024 H 
ATOM     31  H   LIG d   1       6.147  -0.245  -9.659  0.00  0.00     0.024 H 
ENDBRANCH   6  28
BRANCH   6  32
ATOM     32  C   LIG d   1       3.786   0.678 -11.373  0.00  0.00    -0.058 C 
ATOM     33  H   LIG d   1       2.909   0.221 -11.831  0.00  0.00     0.024 H 
ATOM     34  H   LIG d   1       3.615   1.747 -11.247  0.00  0.00     0.024 H 
ATOM     35  H   LIG d   1       4.654   0.522 -12.014  0.00  0.00     0.024 H 
ENDBRANCH   6  32
BRANCH   4  36
ATOM     36  C   LIG d   1       5.636   1.414  -8.648  0.00  0.00     0.310 C 
ATOM     37  O   LIG d   1       6.279   2.090  -9.415  0.00  0.00    -0.251 OA
BRANCH  36  38
ATOM     38  O   LIG d   1       6.215   0.913  -7.546  0.00  0.00    -0.468 OA
BRANCH  38  39
ATOM     39  C   LIG d   1       7.608   1.260  -7.318  0.00  0.00     0.082 C 
ATOM     40  H   LIG d   1       7.729   2.341  -7.388  0.00  0.00     0.066 H 
ATOM     41  H   LIG d   1       7.907   0.924  -6.326  0.00  0.00     0.066 H 
ATOM     42  H   LIG d   1       8.231   0.775  -8.070  0.00  0.00     0.066 H 
ENDBRANCH  38  39
ENDBRANCH  36  38
ENDBRANCH   4  36
TORSDOF 9
ENDMDL
MODEL 10
REMARK VINA RESULT:      -4.2      4.395      6.142
REMARK  9 active torsions:
REMARK  status: ('A' for Active; 'I' for Inactive)
REMARK    1  A    between atoms: C_1  and  C_2 
REMARK    2  A    between atoms: C_2  and  C_8 
REMARK    3  A    between atoms: N_3  and  N_4 
REMARK       I    between atoms: N_4  and  C_5 
REMARK       I    between atoms: C_5  and  N_7 
REMARK    4  A    between atoms: C_8  and  C_20 
REMARK    5  A    between atoms: C_11  and  C_16 
REMARK    6  A    between atoms: C_13  and  C_14 
REMARK    7  A    between atoms: C_13  and  C_15 
REMARK    8  A    between atoms: C_16  and  O_18 
REMARK    9  A    between atoms: O_18  and  C_19 
ROOT
ATOM      1  C   LIG d   1       4.834  -0.204  -8.716  0.00  0.00     0.013 C 
ATOM      2  C   LIG d   1       5.487  -1.347  -9.519  0.00  0.00    -0.041 C 
ATOM      3  C   LIG d   1       4.290  -2.095 -10.158  0.00  0.00    -0.039 C 
ATOM      4  C   LIG d   1       3.326  -0.941 -10.528  0.00  0.00     0.062 C 
ATOM      5  H   LIG d   1       3.631  -0.473 -11.464  0.00  0.00     0.042 H 
ATOM      6  C   LIG d   1       3.459   0.054  -9.357  0.00  0.00    -0.011 C 
ATOM      7  H   LIG d   1       6.142  -0.945 -10.291  0.00  0.00     0.027 H 
ATOM      8  H   LIG d   1       6.041  -2.011  -8.855  0.00  0.00     0.027 H 
ATOM      9  H   LIG d   1       4.605  -2.637 -11.049  0.00  0.00     0.027 H 
ATOM     10  H   LIG d   1       3.827  -2.770  -9.438  0.00  0.00     0.027 H 
ENDROOT
BRANCH   1  11
ATOM     11  C   LIG d   1       4.662  -0.616  -7.276  0.00  0.00     0.040 C 
ATOM     12  N   LIG d   1       4.526   0.276  -6.369  0.00  0.00    -0.188 NA
BRANCH  11  13
ATOM     13  C   LIG d   1       4.655  -2.077  -6.906  0.00  0.00    -0.024 C 
ATOM     14  H   LIG d   1       5.114  -2.205  -5.926  0.00  0.00     0.029 H 
ATOM     15  H   LIG d   1       3.628  -2.439  -6.876  0.00  0.00     0.029 H 
ATOM     16  H   LIG d   1       5.218  -2.642  -7.648  0.00  0.00     0.029 H 
ENDBRANCH  11  13
BRANCH  12  17
ATOM     17  N   LIG d   1       4.366  -0.106  -5.029  0.00  0.00    -0.191 N 
ATOM     18  C   LIG d   1       3.372   0.425  -4.291  0.00  0.00     0.317 C 
ATOM     19  O   LIG d   1       3.233   0.094  -3.130  0.00  0.00    -0.251 OA
ATOM     20  N   LIG d   1       2.531   1.323  -4.840  0.00  0.00    -0.312 N 
ATOM     21  H   LIG d   1       2.642   1.588  -5.767  0.00  0.00     0.146 HD
ATOM     22  H   LIG d   1       1.815   1.707  -4.309  0.00  0.00     0.146 HD
ATOM     23  H   LIG d   1       4.971  -0.753  -4.634  0.00  0.00     0.179 HD
ENDBRANCH  12  17
ENDBRANCH   1  11
BRANCH   1  24
ATOM     24  C   LIG d   1       5.698   1.056  -8.801  0.00  0.00    -0.054 C 
ATOM     25  H   LIG d   1       5.890   1.295  -9.847  0.00  0.00     0.024 H 
ATOM     26  H   LIG d   1       5.176   1.887  -8.329  0.00  0.00     0.024 H 
ATOM     27  H   LIG d   1       6.644   0.883  -8.288  0.00  0.00     0.024 H 
ENDBRANCH   1  24
BRANCH   6  28
ATOM     28  C   LIG d   1       2.349  -0.188  -8.334  0.00  0.00    -0.058 C 
ATOM     29  H   LIG d   1       2.168   0.727  -7.769  0.00  0.00     0.024 H 
ATOM     30  H   LIG d   1       1.435  -0.482  -8.850  0.00  0.00     0.024 H 
ATOM     31  H   LIG d   1       2.651  -0.982  -7.650  0.00  0.00     0.024 H 
ENDBRANCH   6  28
BRANCH   6  32
ATOM     32  C   LIG d   1       3.386   1.490  -9.880  0.00  0.00    -0.058 C 
ATOM     33  H   LIG d   1       3.410   1.483 -10.970  0.00  0.00     0.024 H 
ATOM     34  H   LIG d   1       2.460   1.954  -9.540  0.00  0.00     0.024 H 
ATOM     35  H   LIG d   1       4.237   2.058  -9.503  0.00  0.00     0.024 H 
ENDBRANCH   6  32
BRANCH   4  36
ATOM     36  C   LIG d   1       1.910  -1.450 -10.632  0.00  0.00     0.310 C 
ATOM     37  O   LIG d   1       1.097  -0.843 -11.288  0.00  0.00    -0.251 OA
BRANCH  36  38
ATOM     38  O   LIG d   1       1.554  -2.575  -9.994  0.00  0.00    -0.468 OA
BRANCH  38  39
ATOM     39  C   LIG d   1       0.811  -3.561 -10.762  0.00  0.00     0.082 C 
ATOM     40  H   LIG d   1      -0.169  -3.157 -11.019  0.00  0.00     0.066 H 
ATOM     41  H   LIG d   1       1.358  -3.798 -11.674  0.00  0.00     0.066 H 
ATOM     42  H   LIG d   1       0.686  -4.466 -10.167  0.00  0.00     0.066 H 
ENDBRANCH  38  39
ENDBRANCH  36  38
ENDBRANCH   4  36
TORSDOF 9
ENDMDL
