MODEL 1
REMARK VINA RESULT:      -4.4      0.000      0.000
REMARK  3 active torsions:
REMARK  status: ('A' for Active; 'I' for Inactive)
REMARK    1  A    between atoms: C_1  and  O_2 
REMARK    2  A    between atoms: O_2  and  C_3 
REMARK    3  A    between atoms: C_3  and  C_5 
ROOT
ATOM      1  C   LIG d   1       3.283   0.240  -3.744  0.00  0.00     0.062 A 
ATOM      2  C   LIG d   1       3.959   1.022  -2.803  0.00  0.00    -0.030 A 
ATOM      3  C   LIG d   1       4.542   0.403  -1.713  0.00  0.00     0.028 A 
ATOM      4  N   LIG d   1       4.458  -0.902  -1.550  0.00  0.00    -0.263 NA
ATOM      5  C   LIG d   1       3.824  -1.675  -2.410  0.00  0.00     0.028 A 
ATOM      6  C   LIG d   1       3.218  -1.142  -3.531  0.00  0.00    -0.030 A 
ATOM      7  H   LIG d   1       4.029   2.092  -2.928  0.00  0.00     0.064 H 
ATOM      8  H   LIG d   1       5.070   0.998  -0.982  0.00  0.00     0.083 H 
ATOM      9  H   LIG d   1       3.780  -2.740  -2.237  0.00  0.00     0.083 H 
ATOM     10  H   LIG d   1       2.701  -1.781  -4.231  0.00  0.00     0.064 H 
ENDROOT
BRANCH   1  11
ATOM     11  C   LIG d   1       2.648   0.857  -4.930  0.00  0.00     0.339 C 
ATOM     12  O   LIG d   1       2.407   2.047  -4.940  0.00  0.00    -0.245 OA
BRANCH  11  13
ATOM     13  O   LIG d   1       2.336   0.098  -5.998  0.00  0.00    -0.464 OA
BRANCH  13  14
ATOM     14  C   LIG d   1       3.284   0.089  -7.098  0.00  0.00     0.082 C 
ATOM     15  H   LIG d   1       4.181  -0.454  -6.801  0.00  0.00     0.066 H 
ATOM     16  H   LIG d   1       2.833  -0.401  -7.962  0.00  0.00     0.066 H 
ATOM     17  H   LIG d   1       3.548   1.113  -7.359  0.00  0.00     0.066 H 
ENDBRANCH  13  14
ENDBRANCH  11  13
ENDBRANCH   1  11
TORSDOF 3
ENDMDL
MODEL 2
REMARK VINA RESULT:      -4.2      2.976      3.537
REMARK  3 active torsions:
REMARK  status: ('A' for Active; 'I' for Inactive)
REMARK    1  A    between atoms: C_1  and  O_2 
REMARK    2  A    between atoms: O_2  and  C_3 
REMARK    3  A    between atoms: C_3  and  C_5 
ROOT
ATOM      1  C   LIG d   1       5.201  -0.522  -3.219  0.00  0.00     0.062 A 
ATOM      2  C   LIG d   1       4.290  -0.969  -2.258  0.00  0.00    -0.030 A 
ATOM      3  C   LIG d   1       3.777  -2.247  -2.365  0.00  0.00     0.028 A 
ATOM      4  N   LIG d   1       4.128  -3.037  -3.361  0.00  0.00    -0.263 NA
ATOM      5  C   LIG d   1       4.980  -2.653  -4.291  0.00  0.00     0.028 A 
ATOM      6  C   LIG d   1       5.546  -1.393  -4.258  0.00  0.00    -0.030 A 
ATOM      7  H   LIG d   1       3.994  -0.327  -1.442  0.00  0.00     0.064 H 
ATOM      8  H   LIG d   1       3.075  -2.604  -1.626  0.00  0.00     0.083 H 
ATOM      9  H   LIG d   1       5.240  -3.332  -5.089  0.00  0.00     0.083 H 
ATOM     10  H   LIG d   1       6.243  -1.085  -5.023  0.00  0.00     0.064 H 
ENDROOT
BRANCH   1  11
ATOM     11  C   LIG d   1       5.782   0.838  -3.142  0.00  0.00     0.339 C 
ATOM     12  O   LIG d   1       5.559   1.540  -2.176  0.00  0.00    -0.245 OA
BRANCH  11  13
ATOM     13  O   LIG d   1       6.556   1.297  -4.143  0.00  0.00    -0.464 OA
BRANCH  13  14
ATOM     14  C   LIG d   1       7.917   1.673  -3.804  0.00  0.00     0.082 C 
ATOM     15  H   LIG d   1       7.941   2.079  -2.793  0.00  0.00     0.066 H 
ATOM     16  H   LIG d   1       8.561   0.794  -3.858  0.00  0.00     0.066 H 
ATOM     17  H   LIG d   1       8.272   2.426  -4.507  0.00  0.00     0.066 H 
ENDBRANCH  13  14
ENDBRANCH  11  13
ENDBRANCH   1  11
TORSDOF 3
ENDMDL
MODEL 3
REMARK VINA RESULT:      -4.1      3.242      3.677
REMARK  3 active torsions:
REMARK  status: ('A' for Active; 'I' for Inactive)
REMARK    1  A    between atoms: C_1  and  O_2 
REMARK    2  A    between atoms: O_2  and  C_3 
REMARK    3  A    between atoms: C_3  and  C_5 
ROOT
ATOM      1  C   LIG d   1       5.025  -1.119  -3.062  0.00  0.00     0.062 A 
ATOM      2  C   LIG d   1       4.266  -0.494  -2.068  0.00  0.00    -0.030 A 
ATOM      3  C   LIG d   1       4.542   0.821  -1.743  0.00  0.00     0.028 A 
ATOM      4  N   LIG d   1       5.510   1.479  -2.349  0.00  0.00    -0.263 NA
ATOM      5  C   LIG d   1       6.253   0.925  -3.287  0.00  0.00     0.028 A 
ATOM      6  C   LIG d   1       6.042  -0.383  -3.678  0.00  0.00    -0.030 A 
ATOM      7  H   LIG d   1       3.474  -1.027  -1.565  0.00  0.00     0.064 H 
ATOM      8  H   LIG d   1       3.959   1.315  -0.980  0.00  0.00     0.083 H 
ATOM      9  H   LIG d   1       7.035   1.502  -3.757  0.00  0.00     0.083 H 
ATOM     10  H   LIG d   1       6.654  -0.830  -4.447  0.00  0.00     0.064 H 
ENDROOT
BRANCH   1  11
ATOM     11  C   LIG d   1       4.762  -2.525  -3.448  0.00  0.00     0.339 C 
ATOM     12  O   LIG d   1       3.819  -3.120  -2.967  0.00  0.00    -0.245 OA
BRANCH  11  13
ATOM     13  O   LIG d   1       5.569  -3.142  -4.331  0.00  0.00    -0.464 OA
BRANCH  13  14
ATOM     14  C   LIG d   1       4.937  -4.027  -5.294  0.00  0.00     0.082 C 
ATOM     15  H   LIG d   1       3.913  -3.698  -5.474  0.00  0.00     0.066 H 
ATOM     16  H   LIG d   1       5.496  -4.004  -6.230  0.00  0.00     0.066 H 
ATOM     17  H   LIG d   1       4.929  -5.043  -4.901  0.00  0.00     0.066 H 
ENDBRANCH  13  14
ENDBRANCH  11  13
ENDBRANCH   1  11
TORSDOF 3
ENDMDL
MODEL 4
REMARK VINA RESULT:      -3.9      3.477      4.049
REMARK  3 active torsions:
REMARK  status: ('A' for Active; 'I' for Inactive)
REMARK    1  A    between atoms: C_1  and  O_2 
REMARK    2  A    between atoms: O_2  and  C_3 
REMARK    3  A    between atoms: C_3  and  C_5 
ROOT
ATOM      1  C   LIG d   1       6.252   0.577  -3.297  0.00  0.00     0.062 A 
ATOM      2  C   LIG d   1       5.294   1.237  -2.521  0.00  0.00    -0.030 A 
ATOM      3  C   LIG d   1       4.361   0.488  -1.830  0.00  0.00     0.028 A 
ATOM      4  N   LIG d   1       4.359  -0.828  -1.903  0.00  0.00    -0.263 NA
ATOM      5  C   LIG d   1       5.241  -1.489  -2.628  0.00  0.00     0.028 A 
ATOM      6  C   LIG d   1       6.213  -0.821  -3.346  0.00  0.00    -0.030 A 
ATOM      7  H   LIG d   1       5.286   2.315  -2.459  0.00  0.00     0.064 H 
ATOM      8  H   LIG d   1       3.619   0.988  -1.225  0.00  0.00     0.083 H 
ATOM      9  H   LIG d   1       5.202  -2.568  -2.659  0.00  0.00     0.083 H 
ATOM     10  H   LIG d   1       6.932  -1.368  -3.937  0.00  0.00     0.064 H 
ENDROOT
BRANCH   1  11
ATOM     11  C   LIG d   1       7.276   1.337  -4.050  0.00  0.00     0.339 C 
ATOM     12  O   LIG d   1       7.288   1.299  -5.263  0.00  0.00    -0.245 OA
BRANCH  11  13
ATOM     13  O   LIG d   1       8.192   2.069  -3.389  0.00  0.00    -0.464 OA
BRANCH  13  14
ATOM     14  C   LIG d   1       9.019   2.961  -4.181  0.00  0.00     0.082 C 
ATOM     15  H   LIG d   1      10.004   3.047  -3.724  0.00  0.00     0.066 H 
ATOM     16  H   LIG d   1       9.121   2.561  -5.191  0.00  0.00     0.066 H 
ATOM     17  H   LIG d   1       8.551   3.945  -4.227  0.00  0.00     0.066 H 
ENDBRANCH  13  14
ENDBRANCH  11  13
ENDBRANCH   1  11
TORSDOF 3
ENDMDL
MODEL 5
REMARK VINA RESULT:      -3.8      2.643      4.129
REMARK  3 active torsions:
REMARK  status: ('A' for Active; 'I' for Inactive)
REMARK    1  A    between atoms: C_1  and  O_2 
REMARK    2  A    between atoms: O_2  and  C_3 
REMARK    3  A    between atoms: C_3  and  C_5 
ROOT
ATOM      1  C   LIG d   1       3.461  -0.499  -4.437  0.00  0.00     0.062 A 
ATOM      2  C   LIG d   1       4.454  -1.217  -5.109  0.00  0.00    -0.030 A 
ATOM      3  C   LIG d   1       4.573  -1.073  -6.478  0.00  0.00     0.028 A 
ATOM      4  N   LIG d   1       3.761  -0.282  -7.149  0.00  0.00    -0.263 NA
ATOM      5  C   LIG d   1       2.808   0.409  -6.555  0.00  0.00     0.028 A 
ATOM      6  C   LIG d   1       2.621   0.329  -5.189  0.00  0.00    -0.030 A 
ATOM      7  H   LIG d   1       5.121  -1.870  -4.567  0.00  0.00     0.064 H 
ATOM      8  H   LIG d   1       5.340  -1.620  -7.007  0.00  0.00     0.083 H 
ATOM      9  H   LIG d   1       2.164   1.045  -7.144  0.00  0.00     0.083 H 
ATOM     10  H   LIG d   1       1.838   0.897  -4.708  0.00  0.00     0.064 H 
ENDROOT
BRANCH   1  11
ATOM     11  C   LIG d   1       3.299  -0.616  -2.970  0.00  0.00     0.339 C 
ATOM     12  O   LIG d   1       3.206  -1.712  -2.455  0.00  0.00    -0.245 OA
BRANCH  11  13
ATOM     13  O   LIG d   1       3.255   0.492  -2.207  0.00  0.00    -0.464 OA
BRANCH  13  14
ATOM     14  C   LIG d   1       4.523   1.018  -1.734  0.00  0.00     0.082 C 
ATOM     15  H   LIG d   1       4.590   2.079  -1.976  0.00  0.00     0.066 H 
ATOM     16  H   LIG d   1       4.590   0.887  -0.653  0.00  0.00     0.066 H 
ATOM     17  H   LIG d   1       5.340   0.482  -2.215  0.00  0.00     0.066 H 
ENDBRANCH  13  14
ENDBRANCH  11  13
ENDBRANCH   1  11
TORSDOF 3
ENDMDL
MODEL 6
REMARK VINA RESULT:      -3.7      3.070      4.288
REMARK  3 active torsions:
REMARK  status: ('A' for Active; 'I' for Inactive)
REMARK    1  A    between atoms: C_1  and  O_2 
REMARK    2  A    between atoms: O_2  and  C_3 
REMARK    3  A    between atoms: C_3  and  C_5 
ROOT
ATOM      1  C   LIG d   1       3.989  -1.240  -4.551  0.00  0.00     0.062 A 
ATOM      2  C   LIG d   1       4.327  -1.117  -5.902  0.00  0.00    -0.030 A 
ATOM      3  C   LIG d   1       3.747  -0.110  -6.649  0.00  0.00     0.028 A 
ATOM      4  N   LIG d   1       2.878   0.720  -6.107  0.00  0.00    -0.263 NA
ATOM      5  C   LIG d   1       2.527   0.636  -4.839  0.00  0.00     0.028 A 
ATOM      6  C   LIG d   1       3.063  -0.337  -4.017  0.00  0.00    -0.030 A 
ATOM      7  H   LIG d   1       5.035  -1.795  -6.354  0.00  0.00     0.064 H 
ATOM      8  H   LIG d   1       4.004  -0.004  -7.692  0.00  0.00     0.083 H 
ATOM      9  H   LIG d   1       1.811   1.337  -4.436  0.00  0.00     0.083 H 
ATOM     10  H   LIG d   1       2.771  -0.401  -2.980  0.00  0.00     0.064 H 
ENDROOT
BRANCH   1  11
ATOM     11  C   LIG d   1       4.590  -2.300  -3.710  0.00  0.00     0.339 C 
ATOM     12  O   LIG d   1       3.928  -2.838  -2.846  0.00  0.00    -0.245 OA
BRANCH  11  13
ATOM     13  O   LIG d   1       5.871  -2.666  -3.903  0.00  0.00    -0.464 OA
BRANCH  13  14
ATOM     14  C   LIG d   1       6.895  -1.817  -3.321  0.00  0.00     0.082 C 
ATOM     15  H   LIG d   1       7.515  -1.399  -4.114  0.00  0.00     0.066 H 
ATOM     16  H   LIG d   1       6.421  -1.006  -2.765  0.00  0.00     0.066 H 
ATOM     17  H   LIG d   1       7.514  -2.405  -2.645  0.00  0.00     0.066 H 
ENDBRANCH  13  14
ENDBRANCH  11  13
ENDBRANCH   1  11
TORSDOF 3
ENDMDL
MODEL 7
REMARK VINA RESULT:      -3.6      1.829      2.623
REMARK  3 active torsions:
REMARK  status: ('A' for Active; 'I' for Inactive)
REMARK    1  A    between atoms: C_1  and  O_2 
REMARK    2  A    between atoms: O_2  and  C_3 
REMARK    3  A    between atoms: C_3  and  C_5 
ROOT
ATOM      1  C   LIG d   1       3.185  -0.009  -5.953  0.00  0.00     0.062 A 
ATOM      2  C   LIG d   1       2.444   0.365  -4.828  0.00  0.00    -0.030 A 
ATOM      3  C   LIG d   1       2.801  -0.139  -3.592  0.00  0.00     0.028 A 
ATOM      4  N   LIG d   1       3.818  -0.968  -3.468  0.00  0.00    -0.263 NA
ATOM      5  C   LIG d   1       4.540  -1.351  -4.503  0.00  0.00     0.028 A 
ATOM      6  C   LIG d   1       4.256  -0.891  -5.774  0.00  0.00    -0.030 A 
ATOM      7  H   LIG d   1       1.607   1.042  -4.922  0.00  0.00     0.064 H 
ATOM      8  H   LIG d   1       2.238   0.147  -2.716  0.00  0.00     0.083 H 
ATOM      9  H   LIG d   1       5.364  -2.032  -4.355  0.00  0.00     0.083 H 
ATOM     10  H   LIG d   1       4.851  -1.209  -6.618  0.00  0.00     0.064 H 
ENDROOT
BRANCH   1  11
ATOM     11  C   LIG d   1       2.843   0.511  -7.296  0.00  0.00     0.339 C 
ATOM     12  O   LIG d   1       2.394  -0.238  -8.140  0.00  0.00    -0.245 OA
BRANCH  11  13
ATOM     13  O   LIG d   1       3.029   1.813  -7.582  0.00  0.00    -0.464 OA
BRANCH  13  14
ATOM     14  C   LIG d   1       3.304   2.151  -8.967  0.00  0.00     0.082 C 
ATOM     15  H   LIG d   1       3.671   1.268  -9.491  0.00  0.00     0.066 H 
ATOM     16  H   LIG d   1       2.388   2.502  -9.445  0.00  0.00     0.066 H 
ATOM     17  H   LIG d   1       4.058   2.937  -9.006  0.00  0.00     0.066 H 
ENDBRANCH  13  14
ENDBRANCH  11  13
ENDBRANCH   1  11
TORSDOF 3
ENDMDL
MODEL 8
REMARK VINA RESULT:      -3.6      2.032      2.443
REMARK  3 active torsions:
REMARK  status: ('A' for Active; 'I' for Inactive)
REMARK    1  A    between atoms: C_1  and  O_2 
REMARK    2  A    between atoms: O_2  and  C_3 
REMARK    3  A    between atoms: C_3  and  C_5 
ROOT
ATOM      1  C   LIG d   1       4.367  -0.292  -3.328  0.00  0.00     0.062 A 
ATOM      2  C   LIG d   1       5.661  -0.256  -3.856  0.00  0.00    -0.030 A 
ATOM      3  C   LIG d   1       6.320  -1.447  -4.095  0.00  0.00     0.028 A 
ATOM      4  N   LIG d   1       5.749  -2.603  -3.823  0.00  0.00    -0.263 NA
ATOM      5  C   LIG d   1       4.533  -2.682  -3.319  0.00  0.00     0.028 A 
ATOM      6  C   LIG d   1       3.800  -1.541  -3.054  0.00  0.00    -0.030 A 
ATOM      7  H   LIG d   1       6.137   0.687  -4.078  0.00  0.00     0.064 H 
ATOM      8  H   LIG d   1       7.318  -1.430  -4.507  0.00  0.00     0.083 H 
ATOM      9  H   LIG d   1       4.104  -3.651  -3.111  0.00  0.00     0.083 H 
ATOM     10  H   LIG d   1       2.805  -1.613  -2.641  0.00  0.00     0.064 H 
ENDROOT
BRANCH   1  11
ATOM     11  C   LIG d   1       3.620   0.958  -3.060  0.00  0.00     0.339 C 
ATOM     12  O   LIG d   1       3.487   1.353  -1.920  0.00  0.00    -0.245 OA
BRANCH  11  13
ATOM     13  O   LIG d   1       3.088   1.656  -4.081  0.00  0.00    -0.464 OA
BRANCH  13  14
ATOM     14  C   LIG d   1       2.382   0.899  -5.100  0.00  0.00     0.082 C 
ATOM     15  H   LIG d   1       2.672  -0.150  -5.040  0.00  0.00     0.066 H 
ATOM     16  H   LIG d   1       1.307   0.988  -4.939  0.00  0.00     0.066 H 
ATOM     17  H   LIG d   1       2.635   1.291  -6.084  0.00  0.00     0.066 H 
ENDBRANCH  13  14
ENDBRANCH  11  13
ENDBRANCH   1  11
TORSDOF 3
ENDMDL
MODEL 9
REMARK VINA RESULT:      -3.5      2.927      3.395
REMARK  3 active torsions:
REMARK  status: ('A' for Active; 'I' for Inactive)
REMARK    1  A    between atoms: C_1  and  O_2 
REMARK    2  A    between atoms: O_2  and  C_3 
REMARK    3  A    between atoms: C_3  and  C_5 
ROOT
ATOM      1  C   LIG d   1       5.355   0.156  -3.872  0.00  0.00     0.062 A 
ATOM      2  C   LIG d   1       5.552   0.807  -2.651  0.00  0.00    -0.030 A 
ATOM      3  C   LIG d   1       4.464   1.030  -1.829  0.00  0.00     0.028 A 
ATOM      4  N   LIG d   1       3.254   0.647  -2.187  0.00  0.00    -0.263 NA
ATOM      5  C   LIG d   1       3.025   0.036  -3.332  0.00  0.00     0.028 A 
ATOM      6  C   LIG d   1       4.055  -0.233  -4.212  0.00  0.00    -0.030 A 
ATOM      7  H   LIG d   1       6.539   1.127  -2.352  0.00  0.00     0.064 H 
ATOM      8  H   LIG d   1       4.605   1.528  -0.881  0.00  0.00     0.083 H 
ATOM      9  H   LIG d   1       2.017  -0.261  -3.585  0.00  0.00     0.083 H 
ATOM     10  H   LIG d   1       3.859  -0.734  -5.148  0.00  0.00     0.064 H 
ENDROOT
BRANCH   1  11
ATOM     11  C   LIG d   1       6.491  -0.111  -4.784  0.00  0.00     0.339 C 
ATOM     12  O   LIG d   1       6.491   0.354  -5.906  0.00  0.00    -0.245 OA
BRANCH  11  13
ATOM     13  O   LIG d   1       7.524  -0.868  -4.369  0.00  0.00    -0.464 OA
BRANCH  13  14
ATOM     14  C   LIG d   1       7.228  -2.241  -4.000  0.00  0.00     0.082 C 
ATOM     15  H   LIG d   1       7.870  -2.542  -3.172  0.00  0.00     0.066 H 
ATOM     16  H   LIG d   1       6.184  -2.319  -3.697  0.00  0.00     0.066 H 
ATOM     17  H   LIG d   1       7.407  -2.892  -4.855  0.00  0.00     0.066 H 
ENDBRANCH  13  14
ENDBRANCH  11  13
ENDBRANCH   1  11
TORSDOF 3
ENDMDL
MODEL 10
REMARK VINA RESULT:      -3.5      3.659      4.502
REMARK  3 active torsions:
REMARK  status: ('A' for Active; 'I' for Inactive)
REMARK    1  A    between atoms: C_1  and  O_2 
REMARK    2  A    between atoms: O_2  and  C_3 
REMARK    3  A    between atoms: C_3  and  C_5 
ROOT
ATOM      1  C   LIG d   1       6.217  -0.852  -3.311  0.00  0.00     0.062 A 
ATOM      2  C   LIG d   1       5.221  -1.564  -2.636  0.00  0.00    -0.030 A 
ATOM      3  C   LIG d   1       4.264  -0.866  -1.925  0.00  0.00     0.028 A 
ATOM      4  N   LIG d   1       4.288   0.451  -1.869  0.00  0.00    -0.263 NA
ATOM      5  C   LIG d   1       5.213   1.160  -2.486  0.00  0.00     0.028 A 
ATOM      6  C   LIG d   1       6.204   0.544  -3.224  0.00  0.00    -0.030 A 
ATOM      7  H   LIG d   1       5.197  -2.643  -2.673  0.00  0.00     0.064 H 
ATOM      8  H   LIG d   1       3.488  -1.407  -1.403  0.00  0.00     0.083 H 
ATOM      9  H   LIG d   1       5.194   2.237  -2.414  0.00  0.00     0.083 H 
ATOM     10  H   LIG d   1       6.958   1.131  -3.727  0.00  0.00     0.064 H 
ENDROOT
BRANCH   1  11
ATOM     11  C   LIG d   1       7.261  -1.557  -4.090  0.00  0.00     0.339 C 
ATOM     12  O   LIG d   1       8.059  -0.921  -4.748  0.00  0.00    -0.245 OA
BRANCH  11  13
ATOM     13  O   LIG d   1       7.323  -2.901  -4.070  0.00  0.00    -0.464 OA
BRANCH  13  14
ATOM     14  C   LIG d   1       8.587  -3.496  -3.674  0.00  0.00     0.082 C 
ATOM     15  H   LIG d   1       8.443  -4.088  -2.770  0.00  0.00     0.066 H 
ATOM     16  H   LIG d   1       8.952  -4.140  -4.476  0.00  0.00     0.066 H 
ATOM     17  H   LIG d   1       9.315  -2.709  -3.482  0.00  0.00     0.066 H 
ENDBRANCH  13  14
ENDBRANCH  11  13
ENDBRANCH   1  11
TORSDOF 3
ENDMDL
