MODEL 1
REMARK VINA RESULT:      -7.0      0.000      0.000
REMARK  9 active torsions:
REMARK  status: ('A' for Active; 'I' for Inactive)
REMARK    1  A    between atoms: C_1  and  C_2 
REMARK    2  A    between atoms: N_8  and  C_9 
REMARK    3  A    between atoms: C_9  and  C_10 
REMARK    4  A    between atoms: C_11  and  O_32 
REMARK    5  A    between atoms: C_18  and  O_21 
REMARK    6  A    between atoms: O_21  and  C_22 
REMARK    7  A    between atoms: C_25  and  C_28 
REMARK    8  A    between atoms: C_28  and  O_30 
REMARK    9  A    between atoms: O_30  and  C_31 
ROOT
ATOM      1  C   LIG d   1       7.297  -1.219  -4.089  0.00  0.00     0.081 A 
ATOM      2  C   LIG d   1       7.818  -2.422  -4.535  0.00  0.00     0.129 A 
ATOM      3  C   LIG d   1       8.983  -2.450  -5.300  0.00  0.00    -0.019 A 
ATOM      4  C   LIG d   1       9.628  -1.290  -5.618  0.00  0.00    -0.044 A 
ATOM      5  C   LIG d   1       9.116  -0.069  -5.178  0.00  0.00     0.068 A 
ATOM      6  C   LIG d   1       7.938  -0.030  -4.411  0.00  0.00     0.150 A 
ATOM      7  O   LIG d   1       7.456   1.155  -3.985  0.00  0.00    -0.458 OA
ATOM      8  C   LIG d   1       8.052   2.319  -4.273  0.00  0.00     0.139 A 
ATOM      9  C   LIG d   1       9.182   2.396  -5.004  0.00  0.00     0.210 A 
ATOM     10  C   LIG d   1       9.783   1.204  -5.500  0.00  0.00     0.234 A 
ATOM     11  O   LIG d   1      10.804   1.236  -6.166  0.00  0.00    -0.283 OA
ATOM     12  H   LIG d   1       9.378  -3.397  -5.639  0.00  0.00     0.065 H 
ATOM     13  H   LIG d   1      10.531  -1.317  -6.211  0.00  0.00     0.063 H 
ATOM     14  H   LIG d   1       7.611   3.233  -3.904  0.00  0.00     0.107 H 
ENDROOT
BRANCH   1  15
ATOM     15  C   LIG d   1       6.036  -1.199  -3.264  0.00  0.00     0.001 C 
ATOM     16  H   LIG d   1       6.259  -0.796  -2.264  0.00  0.00     0.087 H 
ATOM     17  H   LIG d   1       5.644  -2.221  -3.168  0.00  0.00     0.087 H 
BRANCH  15  18
ATOM     18  N   LIG d   1       5.035  -0.348  -3.921  0.00  0.00     0.241 N 
ATOM     19  C   LIG d   1       4.015   0.100  -2.965  0.00  0.00    -0.023 C 
ATOM     20  H   LIG d   1       3.461  -0.793  -2.637  0.00  0.00     0.085 H 
ATOM     21  C   LIG d   1       3.076   1.096  -3.648  0.00  0.00    -0.010 C 
ATOM     22  C   LIG d   1       2.412   0.420  -4.851  0.00  0.00    -0.043 C 
ATOM     23  H   LIG d   1       2.303   1.420  -2.934  0.00  0.00     0.032 H 
ATOM     24  H   LIG d   1       3.650   1.970  -3.987  0.00  0.00     0.032 H 
ATOM     25  C   LIG d   1       3.497  -0.081  -5.809  0.00  0.00    -0.012 C 
ATOM     26  H   LIG d   1       1.804  -0.429  -4.506  0.00  0.00     0.027 H 
ATOM     27  H   LIG d   1       1.767   1.146  -5.369  0.00  0.00     0.027 H 
ATOM     28  C   LIG d   1       4.424  -1.042  -5.062  0.00  0.00    -0.031 C 
ATOM     29  H   LIG d   1       3.027  -0.604  -6.655  0.00  0.00     0.032 H 
ATOM     30  H   LIG d   1       4.077   0.776  -6.184  0.00  0.00     0.032 H 
ATOM     31  H   LIG d   1       3.845  -1.904  -4.700  0.00  0.00     0.081 H 
ATOM     32  H   LIG d   1       5.214  -1.392  -5.744  0.00  0.00     0.081 H 
ATOM     33  H   LIG d   1       5.548   0.545  -4.308  0.00  0.00     0.204 HD
BRANCH  19  34
ATOM     34  C   LIG d   1       4.696   0.776  -1.773  0.00  0.00    -0.022 C 
ATOM     35  H   LIG d   1       5.786   0.649  -1.853  0.00  0.00     0.028 H 
ATOM     36  H   LIG d   1       4.341   0.317  -0.839  0.00  0.00     0.028 H 
ATOM     37  H   LIG d   1       4.452   1.848  -1.771  0.00  0.00     0.028 H 
ENDBRANCH  19  34
ENDBRANCH  15  18
ENDBRANCH   1  15
BRANCH   2  38
ATOM     38  O   LIG d   1       7.188  -3.583  -4.225  0.00  0.00    -0.506 OA
ATOM     39  H   LIG d   1       7.458  -4.512  -4.749  0.00  0.00     0.292 HD
ENDBRANCH   2  38
BRANCH   9  40
ATOM     40  O   LIG d   1       9.747   3.607  -5.265  0.00  0.00    -0.449 OA
BRANCH  40  41
ATOM     41  C   LIG d   1       9.768   4.529  -4.269  0.00  0.00     0.129 A 
ATOM     42  C   LIG d   1      10.270   4.185  -3.018  0.00  0.00    -0.019 A 
ATOM     43  C   LIG d   1      10.293   5.118  -2.005  0.00  0.00    -0.044 A 
ATOM     44  H   LIG d   1      10.642   3.187  -2.841  0.00  0.00     0.065 H 
ATOM     45  C   LIG d   1       9.811   6.410  -2.235  0.00  0.00     0.059 A 
ATOM     46  H   LIG d   1      10.682   4.850  -1.034  0.00  0.00     0.063 H 
ATOM     47  C   LIG d   1       9.307   6.750  -3.494  0.00  0.00    -0.044 A 
ATOM     48  C   LIG d   1       9.292   5.814  -4.503  0.00  0.00    -0.019 A 
ATOM     49  H   LIG d   1       8.935   7.747  -3.676  0.00  0.00     0.063 H 
ATOM     50  H   LIG d   1       8.907   6.077  -5.477  0.00  0.00     0.065 H 
BRANCH  45  51
ATOM     51  C   LIG d   1       9.833   7.410  -1.152  0.00  0.00     0.339 C 
ATOM     52  O   LIG d   1      10.874   7.666  -0.582  0.00  0.00    -0.245 OA
BRANCH  51  53
ATOM     53  O   LIG d   1       8.697   8.042  -0.797  0.00  0.00    -0.465 OA
BRANCH  53  54
ATOM     54  C   LIG d   1       8.726   9.494  -0.791  0.00  0.00     0.082 C 
ATOM     55  H   LIG d   1       9.518   9.848  -1.468  0.00  0.00     0.066 H 
ATOM     56  H   LIG d   1       8.928   9.853   0.229  0.00  0.00     0.066 H 
ATOM     57  H   LIG d   1       7.755   9.881  -1.131  0.00  0.00     0.066 H 
ENDBRANCH  53  54
ENDBRANCH  51  53
ENDBRANCH  45  51
ENDBRANCH  40  41
ENDBRANCH   9  40
TORSDOF 9
ENDMDL
MODEL 2
REMARK VINA RESULT:      -6.8      2.094      2.774
REMARK  9 active torsions:
REMARK  status: ('A' for Active; 'I' for Inactive)
REMARK    1  A    between atoms: C_1  and  C_2 
REMARK    2  A    between atoms: N_8  and  C_9 
REMARK    3  A    between atoms: C_9  and  C_10 
REMARK    4  A    between atoms: C_11  and  O_32 
REMARK    5  A    between atoms: C_18  and  O_21 
REMARK    6  A    between atoms: O_21  and  C_22 
REMARK    7  A    between atoms: C_25  and  C_28 
REMARK    8  A    between atoms: C_28  and  O_30 
REMARK    9  A    between atoms: O_30  and  C_31 
ROOT
ATOM      1  C   LIG d   1       6.158  -0.143  -6.897  0.00  0.00     0.081 A 
ATOM      2  C   LIG d   1       5.510   0.065  -8.104  0.00  0.00     0.129 A 
ATOM      3  C   LIG d   1       5.953   1.048  -8.986  0.00  0.00    -0.019 A 
ATOM      4  C   LIG d   1       7.035   1.820  -8.672  0.00  0.00    -0.044 A 
ATOM      5  C   LIG d   1       7.698   1.625  -7.461  0.00  0.00     0.068 A 
ATOM      6  C   LIG d   1       7.255   0.638  -6.561  0.00  0.00     0.150 A 
ATOM      7  O   LIG d   1       7.907   0.453  -5.396  0.00  0.00    -0.458 OA
ATOM      8  C   LIG d   1       8.971   1.186  -5.044  0.00  0.00     0.139 A 
ATOM      9  C   LIG d   1       9.476   2.160  -5.828  0.00  0.00     0.210 A 
ATOM     10  C   LIG d   1       8.868   2.437  -7.086  0.00  0.00     0.234 A 
ATOM     11  O   LIG d   1       9.297   3.310  -7.821  0.00  0.00    -0.283 OA
ATOM     12  H   LIG d   1       5.439   1.198  -9.924  0.00  0.00     0.065 H 
ATOM     13  H   LIG d   1       7.374   2.582  -9.360  0.00  0.00     0.063 H 
ATOM     14  H   LIG d   1       9.445   0.989  -4.094  0.00  0.00     0.107 H 
ENDROOT
BRANCH   1  15
ATOM     15  C   LIG d   1       5.670  -1.208  -5.949  0.00  0.00     0.001 C 
ATOM     16  H   LIG d   1       6.515  -1.847  -5.649  0.00  0.00     0.087 H 
ATOM     17  H   LIG d   1       4.906  -1.822  -6.448  0.00  0.00     0.087 H 
BRANCH  15  18
ATOM     18  N   LIG d   1       5.089  -0.575  -4.758  0.00  0.00     0.241 N 
ATOM     19  C   LIG d   1       5.181  -1.462  -3.592  0.00  0.00    -0.023 C 
ATOM     20  H   LIG d   1       4.540  -2.333  -3.793  0.00  0.00     0.085 H 
ATOM     21  C   LIG d   1       4.701  -0.718  -2.344  0.00  0.00    -0.010 C 
ATOM     22  C   LIG d   1       3.252  -0.265  -2.551  0.00  0.00    -0.043 C 
ATOM     23  H   LIG d   1       4.757  -1.388  -1.473  0.00  0.00     0.032 H 
ATOM     24  H   LIG d   1       5.339   0.161  -2.172  0.00  0.00     0.032 H 
ATOM     25  C   LIG d   1       3.175   0.617  -3.800  0.00  0.00    -0.012 C 
ATOM     26  H   LIG d   1       2.608  -1.148  -2.683  0.00  0.00     0.027 H 
ATOM     27  H   LIG d   1       2.917   0.305  -1.673  0.00  0.00     0.027 H 
ATOM     28  C   LIG d   1       3.700  -0.166  -5.006  0.00  0.00    -0.031 C 
ATOM     29  H   LIG d   1       2.130   0.911  -3.978  0.00  0.00     0.032 H 
ATOM     30  H   LIG d   1       3.789   1.518  -3.650  0.00  0.00     0.032 H 
ATOM     31  H   LIG d   1       3.077  -1.059  -5.163  0.00  0.00     0.081 H 
ATOM     32  H   LIG d   1       3.660   0.471  -5.902  0.00  0.00     0.081 H 
ATOM     33  H   LIG d   1       5.671   0.332  -4.537  0.00  0.00     0.204 HD
BRANCH  19  34
ATOM     34  C   LIG d   1       6.635  -1.898  -3.398  0.00  0.00    -0.022 C 
ATOM     35  H   LIG d   1       6.692  -2.628  -2.577  0.00  0.00     0.028 H 
ATOM     36  H   LIG d   1       7.250  -1.021  -3.152  0.00  0.00     0.028 H 
ATOM     37  H   LIG d   1       7.006  -2.359  -4.324  0.00  0.00     0.028 H 
ENDBRANCH  19  34
ENDBRANCH  15  18
ENDBRANCH   1  15
BRANCH   2  38
ATOM     38  O   LIG d   1       4.434  -0.696  -8.428  0.00  0.00    -0.506 OA
ATOM     39  H   LIG d   1       3.828  -0.442  -9.311  0.00  0.00     0.292 HD
ENDBRANCH   2  38
BRANCH   9  40
ATOM     40  O   LIG d   1      10.562   2.873  -5.421  0.00  0.00    -0.449 OA
BRANCH  40  41
ATOM     41  C   LIG d   1      10.389   3.787  -4.432  0.00  0.00     0.129 A 
ATOM     42  C   LIG d   1      10.857   3.518  -3.150  0.00  0.00    -0.019 A 
ATOM     43  C   LIG d   1      10.683   4.442  -2.145  0.00  0.00    -0.044 A 
ATOM     44  H   LIG d   1      11.356   2.583  -2.944  0.00  0.00     0.065 H 
ATOM     45  C   LIG d   1      10.036   5.652  -2.413  0.00  0.00     0.059 A 
ATOM     46  H   LIG d   1      11.046   4.232  -1.150  0.00  0.00     0.063 H 
ATOM     47  C   LIG d   1       9.568   5.918  -3.704  0.00  0.00    -0.044 A 
ATOM     48  C   LIG d   1       9.750   4.991  -4.705  0.00  0.00    -0.019 A 
ATOM     49  H   LIG d   1       9.068   6.852  -3.915  0.00  0.00     0.063 H 
ATOM     50  H   LIG d   1       9.392   5.197  -5.703  0.00  0.00     0.065 H 
BRANCH  45  51
ATOM     51  C   LIG d   1       9.848   6.644  -1.339  0.00  0.00     0.339 C 
ATOM     52  O   LIG d   1       9.335   7.716  -1.585  0.00  0.00    -0.245 OA
BRANCH  51  53
ATOM     53  O   LIG d   1      10.244   6.358  -0.083  0.00  0.00    -0.465 OA
BRANCH  53  54
ATOM     54  C   LIG d   1      11.059   7.353   0.592  0.00  0.00     0.082 C 
ATOM     55  H   LIG d   1      11.869   7.679  -0.078  0.00  0.00     0.066 H 
ATOM     56  H   LIG d   1      11.492   6.915   1.503  0.00  0.00     0.066 H 
ATOM     57  H   LIG d   1      10.436   8.218   0.861  0.00  0.00     0.066 H 
ENDBRANCH  53  54
ENDBRANCH  51  53
ENDBRANCH  45  51
ENDBRANCH  40  41
ENDBRANCH   9  40
TORSDOF 9
ENDMDL
MODEL 3
REMARK VINA RESULT:      -6.4      2.675      3.976
REMARK  9 active torsions:
REMARK  status: ('A' for Active; 'I' for Inactive)
REMARK    1  A    between atoms: C_1  and  C_2 
REMARK    2  A    between atoms: N_8  and  C_9 
REMARK    3  A    between atoms: C_9  and  C_10 
REMARK    4  A    between atoms: C_11  and  O_32 
REMARK    5  A    between atoms: C_18  and  O_21 
REMARK    6  A    between atoms: O_21  and  C_22 
REMARK    7  A    between atoms: C_25  and  C_28 
REMARK    8  A    between atoms: C_28  and  O_30 
REMARK    9  A    between atoms: O_30  and  C_31 
ROOT
ATOM      1  C   LIG d   1       4.486  -0.051  -7.064  0.00  0.00     0.081 A 
ATOM      2  C   LIG d   1       3.499   0.133  -8.018  0.00  0.00     0.129 A 
ATOM      3  C   LIG d   1       3.749   0.896  -9.157  0.00  0.00    -0.019 A 
ATOM      4  C   LIG d   1       4.972   1.473  -9.348  0.00  0.00    -0.044 A 
ATOM      5  C   LIG d   1       5.976   1.297  -8.396  0.00  0.00     0.068 A 
ATOM      6  C   LIG d   1       5.732   0.533  -7.240  0.00  0.00     0.150 A 
ATOM      7  O   LIG d   1       6.713   0.365  -6.330  0.00  0.00    -0.458 OA
ATOM      8  C   LIG d   1       7.927   0.911  -6.473  0.00  0.00     0.139 A 
ATOM      9  C   LIG d   1       8.266   1.664  -7.538  0.00  0.00     0.210 A 
ATOM     10  C   LIG d   1       7.309   1.902  -8.565  0.00  0.00     0.234 A 
ATOM     11  O   LIG d   1       7.579   2.579  -9.543  0.00  0.00    -0.283 OA
ATOM     12  H   LIG d   1       2.970   1.031  -9.894  0.00  0.00     0.065 H 
ATOM     13  H   LIG d   1       5.160   2.064 -10.232  0.00  0.00     0.063 H 
ATOM     14  H   LIG d   1       8.666   0.741  -5.704  0.00  0.00     0.107 H 
ENDROOT
BRANCH   1  15
ATOM     15  C   LIG d   1       4.206  -0.878  -5.835  0.00  0.00     0.001 C 
ATOM     16  H   LIG d   1       4.887  -1.742  -5.812  0.00  0.00     0.087 H 
ATOM     17  H   LIG d   1       3.165  -1.232  -5.860  0.00  0.00     0.087 H 
BRANCH  15  18
ATOM     18  N   LIG d   1       4.417  -0.057  -4.635  0.00  0.00     0.241 N 
ATOM     19  C   LIG d   1       4.843  -0.884  -3.499  0.00  0.00    -0.023 C 
ATOM     20  H   LIG d   1       4.004  -1.549  -3.247  0.00  0.00     0.085 H 
ATOM     21  C   LIG d   1       5.191   0.017  -2.313  0.00  0.00    -0.010 C 
ATOM     22  C   LIG d   1       3.963   0.847  -1.930  0.00  0.00    -0.043 C 
ATOM     23  H   LIG d   1       5.497  -0.605  -1.458  0.00  0.00     0.032 H 
ATOM     24  H   LIG d   1       6.017   0.688  -2.591  0.00  0.00     0.032 H 
ATOM     25  C   LIG d   1       3.509   1.662  -3.145  0.00  0.00    -0.012 C 
ATOM     26  H   LIG d   1       3.151   0.175  -1.613  0.00  0.00     0.027 H 
ATOM     27  H   LIG d   1       4.221   1.525  -1.104  0.00  0.00     0.027 H 
ATOM     28  C   LIG d   1       3.210   0.713  -4.307  0.00  0.00    -0.031 C 
ATOM     29  H   LIG d   1       2.602   2.229  -2.888  0.00  0.00     0.032 H 
ATOM     30  H   LIG d   1       4.308   2.361  -3.435  0.00  0.00     0.032 H 
ATOM     31  H   LIG d   1       2.402   0.024  -4.020  0.00  0.00     0.081 H 
ATOM     32  H   LIG d   1       2.898   1.298  -5.186  0.00  0.00     0.081 H 
ATOM     33  H   LIG d   1       5.224   0.659  -4.850  0.00  0.00     0.204 HD
BRANCH  19  34
ATOM     34  C   LIG d   1       6.074  -1.701  -3.898  0.00  0.00    -0.022 C 
ATOM     35  H   LIG d   1       6.263  -2.474  -3.139  0.00  0.00     0.028 H 
ATOM     36  H   LIG d   1       6.947  -1.037  -3.970  0.00  0.00     0.028 H 
ATOM     37  H   LIG d   1       5.897  -2.179  -4.872  0.00  0.00     0.028 H 
ENDBRANCH  19  34
ENDBRANCH  15  18
ENDBRANCH   1  15
BRANCH   2  38
ATOM     38  O   LIG d   1       2.279  -0.434  -7.842  0.00  0.00    -0.506 OA
ATOM     39  H   LIG d   1       1.754  -0.321  -6.882  0.00  0.00     0.292 HD
ENDBRANCH   2  38
BRANCH   9  40
ATOM     40  O   LIG d   1       9.517   2.194  -7.632  0.00  0.00    -0.449 OA
BRANCH  40  41
ATOM     41  C   LIG d   1       9.835   3.226  -6.810  0.00  0.00     0.129 A 
ATOM     42  C   LIG d   1       9.567   4.533  -7.203  0.00  0.00    -0.019 A 
ATOM     43  C   LIG d   1       9.888   5.582  -6.372  0.00  0.00    -0.044 A 
ATOM     44  H   LIG d   1       9.106   4.724  -8.161  0.00  0.00     0.065 H 
ATOM     45  C   LIG d   1      10.485   5.333  -5.133  0.00  0.00     0.059 A 
ATOM     46  H   LIG d   1       9.680   6.597  -6.678  0.00  0.00     0.063 H 
ATOM     47  C   LIG d   1      10.753   4.018  -4.742  0.00  0.00    -0.044 A 
ATOM     48  C   LIG d   1      10.424   2.973  -5.576  0.00  0.00    -0.019 A 
ATOM     49  H   LIG d   1      11.213   3.821  -3.785  0.00  0.00     0.063 H 
ATOM     50  H   LIG d   1      10.626   1.957  -5.274  0.00  0.00     0.065 H 
BRANCH  45  51
ATOM     51  C   LIG d   1      10.831   6.455  -4.241  0.00  0.00     0.339 C 
ATOM     52  O   LIG d   1      11.210   7.509  -4.709  0.00  0.00    -0.245 OA
BRANCH  51  53
ATOM     53  O   LIG d   1      10.727   6.309  -2.905  0.00  0.00    -0.465 OA
BRANCH  53  54
ATOM     54  C   LIG d   1       9.498   6.775  -2.286  0.00  0.00     0.082 C 
ATOM     55  H   LIG d   1       9.678   7.745  -1.799  0.00  0.00     0.066 H 
ATOM     56  H   LIG d   1       9.166   6.044  -1.534  0.00  0.00     0.066 H 
ATOM     57  H   LIG d   1       8.721   6.889  -3.055  0.00  0.00     0.066 H 
ENDBRANCH  53  54
ENDBRANCH  51  53
ENDBRANCH  45  51
ENDBRANCH  40  41
ENDBRANCH   9  40
TORSDOF 9
ENDMDL
MODEL 4
REMARK VINA RESULT:      -6.3      1.324      2.101
REMARK  9 active torsions:
REMARK  status: ('A' for Active; 'I' for Inactive)
REMARK    1  A    between atoms: C_1  and  C_2 
REMARK    2  A    between atoms: N_8  and  C_9 
REMARK    3  A    between atoms: C_9  and  C_10 
REMARK    4  A    between atoms: C_11  and  O_32 
REMARK    5  A    between atoms: C_18  and  O_21 
REMARK    6  A    between atoms: O_21  and  C_22 
REMARK    7  A    between atoms: C_25  and  C_28 
REMARK    8  A    between atoms: C_28  and  O_30 
REMARK    9  A    between atoms: O_30  and  C_31 
ROOT
ATOM      1  C   LIG d   1       7.718  -1.028  -5.409  0.00  0.00     0.081 A 
ATOM      2  C   LIG d   1       8.419  -2.222  -5.345  0.00  0.00     0.129 A 
ATOM      3  C   LIG d   1       9.811  -2.223  -5.286  0.00  0.00    -0.019 A 
ATOM      4  C   LIG d   1      10.504  -1.047  -5.288  0.00  0.00    -0.044 A 
ATOM      5  C   LIG d   1       9.814   0.163  -5.353  0.00  0.00     0.068 A 
ATOM      6  C   LIG d   1       8.409   0.175  -5.420  0.00  0.00     0.150 A 
ATOM      7  O   LIG d   1       7.751   1.352  -5.476  0.00  0.00    -0.458 OA
ATOM      8  C   LIG d   1       8.387   2.530  -5.482  0.00  0.00     0.139 A 
ATOM      9  C   LIG d   1       9.730   2.634  -5.427  0.00  0.00     0.210 A 
ATOM     10  C   LIG d   1      10.525   1.454  -5.358  0.00  0.00     0.234 A 
ATOM     11  O   LIG d   1      11.741   1.509  -5.308  0.00  0.00    -0.283 OA
ATOM     12  H   LIG d   1      10.344  -3.162  -5.235  0.00  0.00     0.065 H 
ATOM     13  H   LIG d   1      11.583  -1.054  -5.242  0.00  0.00     0.063 H 
ATOM     14  H   LIG d   1       7.800   3.435  -5.533  0.00  0.00     0.107 H 
ENDROOT
BRANCH   1  15
ATOM     15  C   LIG d   1       6.213  -1.037  -5.474  0.00  0.00     0.001 C 
ATOM     16  H   LIG d   1       5.874  -1.939  -6.007  0.00  0.00     0.087 H 
ATOM     17  H   LIG d   1       5.863  -0.143  -6.011  0.00  0.00     0.087 H 
BRANCH  15  18
ATOM     18  N   LIG d   1       5.664  -1.038  -4.112  0.00  0.00     0.241 N 
ATOM     19  C   LIG d   1       4.464  -1.880  -4.028  0.00  0.00    -0.023 C 
ATOM     20  H   LIG d   1       3.688  -1.405  -4.648  0.00  0.00     0.085 H 
ATOM     21  C   LIG d   1       4.006  -1.973  -2.572  0.00  0.00    -0.010 C 
ATOM     22  C   LIG d   1       3.702  -0.568  -2.046  0.00  0.00    -0.043 C 
ATOM     23  H   LIG d   1       3.098  -2.593  -2.512  0.00  0.00     0.032 H 
ATOM     24  H   LIG d   1       4.801  -2.430  -1.964  0.00  0.00     0.032 H 
ATOM     25  C   LIG d   1       4.954   0.303  -2.189  0.00  0.00    -0.012 C 
ATOM     26  H   LIG d   1       2.878  -0.128  -2.627  0.00  0.00     0.027 H 
ATOM     27  H   LIG d   1       3.412  -0.627  -0.986  0.00  0.00     0.027 H 
ATOM     28  C   LIG d   1       5.385   0.330  -3.657  0.00  0.00    -0.031 C 
ATOM     29  H   LIG d   1       4.730   1.326  -1.852  0.00  0.00     0.032 H 
ATOM     30  H   LIG d   1       5.764  -0.117  -1.574  0.00  0.00     0.032 H 
ATOM     31  H   LIG d   1       4.579   0.763  -4.268  0.00  0.00     0.081 H 
ATOM     32  H   LIG d   1       6.293   0.944  -3.761  0.00  0.00     0.081 H 
ATOM     33  H   LIG d   1       6.422  -1.467  -3.440  0.00  0.00     0.204 HD
BRANCH  19  34
ATOM     34  C   LIG d   1       4.787  -3.281  -4.552  0.00  0.00    -0.022 C 
ATOM     35  H   LIG d   1       4.722  -3.286  -5.650  0.00  0.00     0.028 H 
ATOM     36  H   LIG d   1       4.067  -4.001  -4.139  0.00  0.00     0.028 H 
ATOM     37  H   LIG d   1       5.805  -3.562  -4.244  0.00  0.00     0.028 H 
ENDBRANCH  19  34
ENDBRANCH  15  18
ENDBRANCH   1  15
BRANCH   2  38
ATOM     38  O   LIG d   1       7.743  -3.398  -5.341  0.00  0.00    -0.506 OA
ATOM     39  H   LIG d   1       8.284  -4.342  -5.177  0.00  0.00     0.292 HD
ENDBRANCH   2  38
BRANCH   9  40
ATOM     40  O   LIG d   1      10.323   3.859  -5.435  0.00  0.00    -0.449 OA
BRANCH  40  41
ATOM     41  C   LIG d   1      10.167   4.650  -4.343  0.00  0.00     0.129 A 
ATOM     42  C   LIG d   1       9.576   5.902  -4.473  0.00  0.00    -0.019 A 
ATOM     43  C   LIG d   1       9.416   6.707  -3.368  0.00  0.00    -0.044 A 
ATOM     44  H   LIG d   1       9.244   6.243  -5.442  0.00  0.00     0.065 H 
ATOM     45  C   LIG d   1       9.848   6.264  -2.114  0.00  0.00     0.059 A 
ATOM     46  H   LIG d   1       8.958   7.680  -3.470  0.00  0.00     0.063 H 
ATOM     47  C   LIG d   1      10.441   5.005  -1.988  0.00  0.00    -0.044 A 
ATOM     48  C   LIG d   1      10.593   4.203  -3.097  0.00  0.00    -0.019 A 
ATOM     49  H   LIG d   1      10.775   4.659  -1.021  0.00  0.00     0.063 H 
ATOM     50  H   LIG d   1      11.047   3.229  -3.000  0.00  0.00     0.065 H 
BRANCH  45  51
ATOM     51  C   LIG d   1       9.679   7.124  -0.928  0.00  0.00     0.339 C 
ATOM     52  O   LIG d   1       8.886   8.044  -0.952  0.00  0.00    -0.245 OA
BRANCH  51  53
ATOM     53  O   LIG d   1      10.403   6.887   0.183  0.00  0.00    -0.465 OA
BRANCH  53  54
ATOM     54  C   LIG d   1      11.221   7.979   0.681  0.00  0.00     0.082 C 
ATOM     55  H   LIG d   1      11.605   8.566  -0.167  0.00  0.00     0.066 H 
ATOM     56  H   LIG d   1      12.065   7.572   1.257  0.00  0.00     0.066 H 
ATOM     57  H   LIG d   1      10.613   8.627   1.328  0.00  0.00     0.066 H 
ENDBRANCH  53  54
ENDBRANCH  51  53
ENDBRANCH  45  51
ENDBRANCH  40  41
ENDBRANCH   9  40
TORSDOF 9
ENDMDL
MODEL 5
REMARK VINA RESULT:      -6.3      4.971     10.857
REMARK  9 active torsions:
REMARK  status: ('A' for Active; 'I' for Inactive)
REMARK    1  A    between atoms: C_1  and  C_2 
REMARK    2  A    between atoms: N_8  and  C_9 
REMARK    3  A    between atoms: C_9  and  C_10 
REMARK    4  A    between atoms: C_11  and  O_32 
REMARK    5  A    between atoms: C_18  and  O_21 
REMARK    6  A    between atoms: O_21  and  C_22 
REMARK    7  A    between atoms: C_25  and  C_28 
REMARK    8  A    between atoms: C_28  and  O_30 
REMARK    9  A    between atoms: O_30  and  C_31 
ROOT
ATOM      1  C   LIG d   1       5.183  -2.021  -6.109  0.00  0.00     0.081 A 
ATOM      2  C   LIG d   1       4.746  -1.145  -7.090  0.00  0.00     0.129 A 
ATOM      3  C   LIG d   1       4.014  -1.610  -8.180  0.00  0.00    -0.019 A 
ATOM      4  C   LIG d   1       3.717  -2.938  -8.297  0.00  0.00    -0.044 A 
ATOM      5  C   LIG d   1       4.150  -3.833  -7.319  0.00  0.00     0.068 A 
ATOM      6  C   LIG d   1       4.894  -3.374  -6.217  0.00  0.00     0.150 A 
ATOM      7  O   LIG d   1       5.302  -4.247  -5.274  0.00  0.00    -0.458 OA
ATOM      8  C   LIG d   1       5.036  -5.558  -5.346  0.00  0.00     0.139 A 
ATOM      9  C   LIG d   1       4.336  -6.104  -6.359  0.00  0.00     0.210 A 
ATOM     10  C   LIG d   1       3.849  -5.272  -7.408  0.00  0.00     0.234 A 
ATOM     11  O   LIG d   1       3.213  -5.732  -8.341  0.00  0.00    -0.283 OA
ATOM     12  H   LIG d   1       3.679  -0.915  -8.937  0.00  0.00     0.065 H 
ATOM     13  H   LIG d   1       3.149  -3.293  -9.145  0.00  0.00     0.063 H 
ATOM     14  H   LIG d   1       5.397  -6.203  -4.558  0.00  0.00     0.107 H 
ENDROOT
BRANCH   1  15
ATOM     15  C   LIG d   1       5.975  -1.508  -4.934  0.00  0.00     0.001 C 
ATOM     16  H   LIG d   1       6.900  -1.033  -5.295  0.00  0.00     0.087 H 
ATOM     17  H   LIG d   1       6.228  -2.345  -4.268  0.00  0.00     0.087 H 
BRANCH  15  18
ATOM     18  N   LIG d   1       5.174  -0.521  -4.198  0.00  0.00     0.241 N 
ATOM     19  C   LIG d   1       6.013   0.260  -3.281  0.00  0.00    -0.023 C 
ATOM     20  H   LIG d   1       6.389  -0.433  -2.513  0.00  0.00     0.085 H 
ATOM     21  C   LIG d   1       5.176   1.370  -2.641  0.00  0.00    -0.010 C 
ATOM     22  C   LIG d   1       4.003   0.744  -1.881  0.00  0.00    -0.043 C 
ATOM     23  H   LIG d   1       5.803   1.945  -1.943  0.00  0.00     0.032 H 
ATOM     24  H   LIG d   1       4.792   2.039  -3.424  0.00  0.00     0.032 H 
ATOM     25  C   LIG d   1       3.173  -0.104  -2.848  0.00  0.00    -0.012 C 
ATOM     26  H   LIG d   1       4.389   0.107  -1.070  0.00  0.00     0.027 H 
ATOM     27  H   LIG d   1       3.377   1.541  -1.454  0.00  0.00     0.027 H 
ATOM     28  C   LIG d   1       4.068  -1.170  -3.482  0.00  0.00    -0.031 C 
ATOM     29  H   LIG d   1       2.352  -0.589  -2.299  0.00  0.00     0.032 H 
ATOM     30  H   LIG d   1       2.755   0.543  -3.634  0.00  0.00     0.032 H 
ATOM     31  H   LIG d   1       4.473  -1.824  -2.696  0.00  0.00     0.081 H 
ATOM     32  H   LIG d   1       3.476  -1.772  -4.189  0.00  0.00     0.081 H 
ATOM     33  H   LIG d   1       4.737   0.176  -4.929  0.00  0.00     0.204 HD
BRANCH  19  34
ATOM     34  C   LIG d   1       7.175   0.881  -4.058  0.00  0.00    -0.022 C 
ATOM     35  H   LIG d   1       7.927   0.109  -4.273  0.00  0.00     0.028 H 
ATOM     36  H   LIG d   1       7.632   1.681  -3.457  0.00  0.00     0.028 H 
ATOM     37  H   LIG d   1       6.801   1.302  -5.003  0.00  0.00     0.028 H 
ENDBRANCH  19  34
ENDBRANCH  15  18
ENDBRANCH   1  15
BRANCH   2  38
ATOM     38  O   LIG d   1       5.034   0.177  -6.987  0.00  0.00    -0.506 OA
ATOM     39  H   LIG d   1       6.055   0.535  -7.184  0.00  0.00     0.292 HD
ENDBRANCH   2  38
BRANCH   9  40
ATOM     40  O   LIG d   1       4.093  -7.444  -6.380  0.00  0.00    -0.449 OA
BRANCH  40  41
ATOM     41  C   LIG d   1       4.976  -8.261  -5.751  0.00  0.00     0.129 A 
ATOM     42  C   LIG d   1       4.570  -9.002  -4.647  0.00  0.00    -0.019 A 
ATOM     43  C   LIG d   1       5.462  -9.832  -4.007  0.00  0.00    -0.044 A 
ATOM     44  H   LIG d   1       3.553  -8.926  -4.291  0.00  0.00     0.065 H 
ATOM     45  C   LIG d   1       6.779  -9.929  -4.468  0.00  0.00     0.059 A 
ATOM     46  H   LIG d   1       5.146 -10.406  -3.149  0.00  0.00     0.063 H 
ATOM     47  C   LIG d   1       7.183  -9.182  -5.579  0.00  0.00    -0.044 A 
ATOM     48  C   LIG d   1       6.283  -8.358  -6.217  0.00  0.00    -0.019 A 
ATOM     49  H   LIG d   1       8.198  -9.255  -5.939  0.00  0.00     0.063 H 
ATOM     50  H   LIG d   1       6.593  -7.784  -7.077  0.00  0.00     0.065 H 
BRANCH  45  51
ATOM     51  C   LIG d   1       7.738 -10.816  -3.785  0.00  0.00     0.339 C 
ATOM     52  O   LIG d   1       7.554 -12.016  -3.773  0.00  0.00    -0.245 OA
BRANCH  51  53
ATOM     53  O   LIG d   1       8.820 -10.294  -3.175  0.00  0.00    -0.465 OA
BRANCH  53  54
ATOM     54  C   LIG d   1       8.577  -9.353  -2.095  0.00  0.00     0.082 C 
ATOM     55  H   LIG d   1       8.612  -9.883  -1.132  0.00  0.00     0.066 H 
ATOM     56  H   LIG d   1       7.585  -8.895  -2.224  0.00  0.00     0.066 H 
ATOM     57  H   LIG d   1       9.348  -8.570  -2.111  0.00  0.00     0.066 H 
ENDBRANCH  53  54
ENDBRANCH  51  53
ENDBRANCH  45  51
ENDBRANCH  40  41
ENDBRANCH   9  40
TORSDOF 9
ENDMDL
MODEL 6
REMARK VINA RESULT:      -6.2      1.401      2.316
REMARK  9 active torsions:
REMARK  status: ('A' for Active; 'I' for Inactive)
REMARK    1  A    between atoms: C_1  and  C_2 
REMARK    2  A    between atoms: N_8  and  C_9 
REMARK    3  A    between atoms: C_9  and  C_10 
REMARK    4  A    between atoms: C_11  and  O_32 
REMARK    5  A    between atoms: C_18  and  O_21 
REMARK    6  A    between atoms: O_21  and  C_22 
REMARK    7  A    between atoms: C_25  and  C_28 
REMARK    8  A    between atoms: C_28  and  O_30 
REMARK    9  A    between atoms: O_30  and  C_31 
ROOT
ATOM      1  C   LIG d   1       5.943  -2.106  -5.287  0.00  0.00     0.081 A 
ATOM      2  C   LIG d   1       6.267  -3.440  -5.108  0.00  0.00     0.129 A 
ATOM      3  C   LIG d   1       7.600  -3.847  -5.077  0.00  0.00    -0.019 A 
ATOM      4  C   LIG d   1       8.605  -2.934  -5.222  0.00  0.00    -0.044 A 
ATOM      5  C   LIG d   1       8.294  -1.586  -5.404  0.00  0.00     0.068 A 
ATOM      6  C   LIG d   1       6.952  -1.166  -5.443  0.00  0.00     0.150 A 
ATOM      7  O   LIG d   1       6.664   0.140  -5.613  0.00  0.00    -0.458 OA
ATOM      8  C   LIG d   1       7.615   1.072  -5.761  0.00  0.00     0.139 A 
ATOM      9  C   LIG d   1       8.930   0.779  -5.745  0.00  0.00     0.210 A 
ATOM     10  C   LIG d   1       9.349  -0.570  -5.564  0.00  0.00     0.234 A 
ATOM     11  O   LIG d   1      10.530  -0.872  -5.545  0.00  0.00    -0.283 OA
ATOM     12  H   LIG d   1       7.838  -4.891  -4.935  0.00  0.00     0.065 H 
ATOM     13  H   LIG d   1       9.636  -3.254  -5.197  0.00  0.00     0.063 H 
ATOM     14  H   LIG d   1       7.315   2.100  -5.898  0.00  0.00     0.107 H 
ENDROOT
BRANCH   1  15
ATOM     15  C   LIG d   1       4.498  -1.676  -5.321  0.00  0.00     0.001 C 
ATOM     16  H   LIG d   1       3.865  -2.539  -5.575  0.00  0.00     0.087 H 
ATOM     17  H   LIG d   1       4.367  -0.889  -6.078  0.00  0.00     0.087 H 
BRANCH  15  18
ATOM     18  N   LIG d   1       4.112  -1.156  -4.002  0.00  0.00     0.241 N 
ATOM     19  C   LIG d   1       3.792   0.275  -4.073  0.00  0.00    -0.023 C 
ATOM     20  H   LIG d   1       4.723   0.805  -4.327  0.00  0.00     0.085 H 
ATOM     21  C   LIG d   1       3.256   0.747  -2.720  0.00  0.00    -0.010 C 
ATOM     22  C   LIG d   1       4.314   0.494  -1.641  0.00  0.00    -0.043 C 
ATOM     23  H   LIG d   1       3.031   1.823  -2.770  0.00  0.00     0.032 H 
ATOM     24  H   LIG d   1       2.340   0.192  -2.473  0.00  0.00     0.032 H 
ATOM     25  C   LIG d   1       4.665  -0.996  -1.621  0.00  0.00    -0.012 C 
ATOM     26  H   LIG d   1       5.216   1.082  -1.867  0.00  0.00     0.027 H 
ATOM     27  H   LIG d   1       3.916   0.794  -0.661  0.00  0.00     0.027 H 
ATOM     28  C   LIG d   1       5.159  -1.418  -3.007  0.00  0.00    -0.031 C 
ATOM     29  H   LIG d   1       5.455  -1.177  -0.877  0.00  0.00     0.032 H 
ATOM     30  H   LIG d   1       3.770  -1.579  -1.356  0.00  0.00     0.032 H 
ATOM     31  H   LIG d   1       6.062  -0.844  -3.264  0.00  0.00     0.081 H 
ATOM     32  H   LIG d   1       5.398  -2.492  -2.999  0.00  0.00     0.081 H 
ATOM     33  H   LIG d   1       3.203  -1.688  -3.680  0.00  0.00     0.204 HD
BRANCH  19  34
ATOM     34  C   LIG d   1       2.731   0.507  -5.151  0.00  0.00    -0.022 C 
ATOM     35  H   LIG d   1       1.862  -0.138  -4.955  0.00  0.00     0.028 H 
ATOM     36  H   LIG d   1       3.152   0.265  -6.137  0.00  0.00     0.028 H 
ATOM     37  H   LIG d   1       2.417   1.561  -5.135  0.00  0.00     0.028 H 
ENDBRANCH  19  34
ENDBRANCH  15  18
ENDBRANCH   1  15
BRANCH   2  38
ATOM     38  O   LIG d   1       5.279  -4.358  -4.962  0.00  0.00    -0.506 OA
ATOM     39  H   LIG d   1       5.444  -5.399  -5.278  0.00  0.00     0.292 HD
ENDBRANCH   2  38
BRANCH   9  40
ATOM     40  O   LIG d   1       9.854   1.767  -5.898  0.00  0.00    -0.449 OA
BRANCH  40  41
ATOM     41  C   LIG d   1       9.878   2.765  -4.978  0.00  0.00     0.129 A 
ATOM     42  C   LIG d   1      10.163   2.474  -3.648  0.00  0.00    -0.019 A 
ATOM     43  C   LIG d   1      10.189   3.483  -2.712  0.00  0.00    -0.044 A 
ATOM     44  H   LIG d   1      10.363   1.456  -3.350  0.00  0.00     0.065 H 
ATOM     45  C   LIG d   1       9.929   4.801  -3.099  0.00  0.00     0.059 A 
ATOM     46  H   LIG d   1      10.409   3.256  -1.680  0.00  0.00     0.063 H 
ATOM     47  C   LIG d   1       9.644   5.089  -4.438  0.00  0.00    -0.044 A 
ATOM     48  C   LIG d   1       9.624   4.075  -5.369  0.00  0.00    -0.019 A 
ATOM     49  H   LIG d   1       9.443   6.105  -4.741  0.00  0.00     0.063 H 
ATOM     50  H   LIG d   1       9.408   4.297  -6.403  0.00  0.00     0.065 H 
BRANCH  45  51
ATOM     51  C   LIG d   1       9.955   5.884  -2.100  0.00  0.00     0.339 C 
ATOM     52  O   LIG d   1       9.186   6.819  -2.196  0.00  0.00    -0.245 OA
BRANCH  51  53
ATOM     53  O   LIG d   1      10.832   5.835  -1.078  0.00  0.00    -0.465 OA
BRANCH  53  54
ATOM     54  C   LIG d   1      10.737   6.885  -0.078  0.00  0.00     0.082 C 
ATOM     55  H   LIG d   1      11.560   6.778   0.644  0.00  0.00     0.066 H 
ATOM     56  H   LIG d   1       9.775   6.804   0.448  0.00  0.00     0.066 H 
ATOM     57  H   LIG d   1      10.806   7.866  -0.569  0.00  0.00     0.066 H 
ENDBRANCH  53  54
ENDBRANCH  51  53
ENDBRANCH  45  51
ENDBRANCH  40  41
ENDBRANCH   9  40
TORSDOF 9
ENDMDL
MODEL 7
REMARK VINA RESULT:      -6.2      2.041      2.704
REMARK  9 active torsions:
REMARK  status: ('A' for Active; 'I' for Inactive)
REMARK    1  A    between atoms: C_1  and  C_2 
REMARK    2  A    between atoms: N_8  and  C_9 
REMARK    3  A    between atoms: C_9  and  C_10 
REMARK    4  A    between atoms: C_11  and  O_32 
REMARK    5  A    between atoms: C_18  and  O_21 
REMARK    6  A    between atoms: O_21  and  C_22 
REMARK    7  A    between atoms: C_25  and  C_28 
REMARK    8  A    between atoms: C_28  and  O_30 
REMARK    9  A    between atoms: O_30  and  C_31 
ROOT
ATOM      1  C   LIG d   1       6.024  -0.789  -6.404  0.00  0.00     0.081 A 
ATOM      2  C   LIG d   1       6.455  -1.794  -7.254  0.00  0.00     0.129 A 
ATOM      3  C   LIG d   1       7.813  -2.079  -7.384  0.00  0.00    -0.019 A 
ATOM      4  C   LIG d   1       8.738  -1.371  -6.673  0.00  0.00    -0.044 A 
ATOM      5  C   LIG d   1       8.321  -0.354  -5.813  0.00  0.00     0.068 A 
ATOM      6  C   LIG d   1       6.953  -0.056  -5.680  0.00  0.00     0.150 A 
ATOM      7  O   LIG d   1       6.561   0.925  -4.840  0.00  0.00    -0.458 OA
ATOM      8  C   LIG d   1       7.431   1.647  -4.123  0.00  0.00     0.139 A 
ATOM      9  C   LIG d   1       8.763   1.448  -4.179  0.00  0.00     0.210 A 
ATOM     10  C   LIG d   1       9.288   0.432  -5.029  0.00  0.00     0.234 A 
ATOM     11  O   LIG d   1      10.487   0.224  -5.105  0.00  0.00    -0.283 OA
ATOM     12  H   LIG d   1       8.134  -2.867  -8.050  0.00  0.00     0.065 H 
ATOM     13  H   LIG d   1       9.790  -1.595  -6.778  0.00  0.00     0.063 H 
ATOM     14  H   LIG d   1       7.051   2.421  -3.473  0.00  0.00     0.107 H 
ENDROOT
BRANCH   1  15
ATOM     15  C   LIG d   1       4.554  -0.488  -6.271  0.00  0.00     0.001 C 
ATOM     16  H   LIG d   1       4.027  -0.831  -7.175  0.00  0.00     0.087 H 
ATOM     17  H   LIG d   1       4.410   0.596  -6.152  0.00  0.00     0.087 H 
BRANCH  15  18
ATOM     18  N   LIG d   1       4.015  -1.186  -5.096  0.00  0.00     0.241 N 
ATOM     19  C   LIG d   1       3.481  -0.232  -4.116  0.00  0.00    -0.023 C 
ATOM     20  H   LIG d   1       4.331   0.354  -3.735  0.00  0.00     0.085 H 
ATOM     21  C   LIG d   1       2.801  -0.996  -2.978  0.00  0.00    -0.010 C 
ATOM     22  C   LIG d   1       3.821  -1.924  -2.311  0.00  0.00    -0.043 C 
ATOM     23  H   LIG d   1       2.414  -0.281  -2.236  0.00  0.00     0.032 H 
ATOM     24  H   LIG d   1       1.969  -1.592  -3.380  0.00  0.00     0.032 H 
ATOM     25  C   LIG d   1       4.398  -2.875  -3.364  0.00  0.00    -0.012 C 
ATOM     26  H   LIG d   1       4.632  -1.324  -1.873  0.00  0.00     0.027 H 
ATOM     27  H   LIG d   1       3.325  -2.505  -1.519  0.00  0.00     0.027 H 
ATOM     28  C   LIG d   1       5.031  -2.057  -4.491  0.00  0.00    -0.031 C 
ATOM     29  H   LIG d   1       5.161  -3.517  -2.900  0.00  0.00     0.032 H 
ATOM     30  H   LIG d   1       3.590  -3.502  -3.772  0.00  0.00     0.032 H 
ATOM     31  H   LIG d   1       5.846  -1.441  -4.084  0.00  0.00     0.081 H 
ATOM     32  H   LIG d   1       5.434  -2.738  -5.257  0.00  0.00     0.081 H 
ATOM     33  H   LIG d   1       3.183  -1.824  -5.431  0.00  0.00     0.204 HD
BRANCH  19  34
ATOM     34  C   LIG d   1       2.461   0.682  -4.798  0.00  0.00    -0.022 C 
ATOM     35  H   LIG d   1       1.728   0.070  -5.344  0.00  0.00     0.028 H 
ATOM     36  H   LIG d   1       2.980   1.348  -5.502  0.00  0.00     0.028 H 
ATOM     37  H   LIG d   1       1.943   1.284  -4.038  0.00  0.00     0.028 H 
ENDBRANCH  19  34
ENDBRANCH  15  18
ENDBRANCH   1  15
BRANCH   2  38
ATOM     38  O   LIG d   1       5.546  -2.507  -7.967  0.00  0.00    -0.506 OA
ATOM     39  H   LIG d   1       5.872  -3.371  -8.564  0.00  0.00     0.292 HD
ENDBRANCH   2  38
BRANCH   9  40
ATOM     40  O   LIG d   1       9.602   2.211  -3.426  0.00  0.00    -0.449 OA
BRANCH  40  41
ATOM     41  C   LIG d   1       9.662   3.541  -3.691  0.00  0.00     0.129 A 
ATOM     42  C   LIG d   1       9.503   3.997  -4.995  0.00  0.00    -0.019 A 
ATOM     43  C   LIG d   1       9.563   5.345  -5.267  0.00  0.00    -0.044 A 
ATOM     44  H   LIG d   1       9.332   3.292  -5.795  0.00  0.00     0.065 H 
ATOM     45  C   LIG d   1       9.785   6.256  -4.230  0.00  0.00     0.059 A 
ATOM     46  H   LIG d   1       9.440   5.697  -6.280  0.00  0.00     0.063 H 
ATOM     47  C   LIG d   1       9.944   5.794  -2.921  0.00  0.00    -0.044 A 
ATOM     48  C   LIG d   1       9.877   4.445  -2.656  0.00  0.00    -0.019 A 
ATOM     49  H   LIG d   1      10.115   6.495  -2.117  0.00  0.00     0.063 H 
ATOM     50  H   LIG d   1       9.996   4.087  -1.644  0.00  0.00     0.065 H 
BRANCH  45  51
ATOM     51  C   LIG d   1       9.851   7.701  -4.518  0.00  0.00     0.339 C 
ATOM     52  O   LIG d   1      10.438   8.445  -3.759  0.00  0.00    -0.245 OA
BRANCH  51  53
ATOM     53  O   LIG d   1       9.261   8.194  -5.625  0.00  0.00    -0.465 OA
BRANCH  53  54
ATOM     54  C   LIG d   1       9.549   9.577  -5.963  0.00  0.00     0.082 C 
ATOM     55  H   LIG d   1       8.830  10.236  -5.453  0.00  0.00     0.066 H 
ATOM     56  H   LIG d   1       9.462   9.714  -7.051  0.00  0.00     0.066 H 
ATOM     57  H   LIG d   1      10.569   9.829  -5.641  0.00  0.00     0.066 H 
ENDBRANCH  53  54
ENDBRANCH  51  53
ENDBRANCH  45  51
ENDBRANCH  40  41
ENDBRANCH   9  40
TORSDOF 9
ENDMDL
MODEL 8
REMARK VINA RESULT:      -6.1      2.866      4.173
REMARK  9 active torsions:
REMARK  status: ('A' for Active; 'I' for Inactive)
REMARK    1  A    between atoms: C_1  and  C_2 
REMARK    2  A    between atoms: N_8  and  C_9 
REMARK    3  A    between atoms: C_9  and  C_10 
REMARK    4  A    between atoms: C_11  and  O_32 
REMARK    5  A    between atoms: C_18  and  O_21 
REMARK    6  A    between atoms: O_21  and  C_22 
REMARK    7  A    between atoms: C_25  and  C_28 
REMARK    8  A    between atoms: C_28  and  O_30 
REMARK    9  A    between atoms: O_30  and  C_31 
ROOT
ATOM      1  C   LIG d   1       5.924  -0.473  -5.986  0.00  0.00     0.081 A 
ATOM      2  C   LIG d   1       5.149  -0.854  -4.902  0.00  0.00     0.129 A 
ATOM      3  C   LIG d   1       5.414  -0.350  -3.630  0.00  0.00    -0.019 A 
ATOM      4  C   LIG d   1       6.442   0.527  -3.435  0.00  0.00    -0.044 A 
ATOM      5  C   LIG d   1       7.232   0.920  -4.515  0.00  0.00     0.068 A 
ATOM      6  C   LIG d   1       6.976   0.413  -5.802  0.00  0.00     0.150 A 
ATOM      7  O   LIG d   1       7.743   0.804  -6.840  0.00  0.00    -0.458 OA
ATOM      8  C   LIG d   1       8.762   1.661  -6.698  0.00  0.00     0.139 A 
ATOM      9  C   LIG d   1       9.097   2.203  -5.510  0.00  0.00     0.210 A 
ATOM     10  C   LIG d   1       8.350   1.864  -4.346  0.00  0.00     0.234 A 
ATOM     11  O   LIG d   1       8.625   2.334  -3.255  0.00  0.00    -0.283 OA
ATOM     12  H   LIG d   1       4.801  -0.655  -2.795  0.00  0.00     0.065 H 
ATOM     13  H   LIG d   1       6.644   0.914  -2.447  0.00  0.00     0.063 H 
ATOM     14  H   LIG d   1       9.339   1.930  -7.571  0.00  0.00     0.107 H 
ENDROOT
BRANCH   1  15
ATOM     15  C   LIG d   1       5.630  -1.024  -7.358  0.00  0.00     0.001 C 
ATOM     16  H   LIG d   1       5.668  -2.123  -7.327  0.00  0.00     0.087 H 
ATOM     17  H   LIG d   1       6.379  -0.651  -8.071  0.00  0.00     0.087 H 
BRANCH  15  18
ATOM     18  N   LIG d   1       4.291  -0.593  -7.781  0.00  0.00     0.241 N 
ATOM     19  C   LIG d   1       3.754  -1.485  -8.817  0.00  0.00    -0.023 C 
ATOM     20  H   LIG d   1       4.387  -1.367  -9.709  0.00  0.00     0.085 H 
ATOM     21  C   LIG d   1       2.308  -1.094  -9.128  0.00  0.00    -0.010 C 
ATOM     22  C   LIG d   1       2.269   0.359  -9.610  0.00  0.00    -0.043 C 
ATOM     23  H   LIG d   1       1.911  -1.754  -9.914  0.00  0.00     0.032 H 
ATOM     24  H   LIG d   1       1.695  -1.196  -8.221  0.00  0.00     0.032 H 
ATOM     25  C   LIG d   1       2.879   1.262  -8.534  0.00  0.00    -0.012 C 
ATOM     26  H   LIG d   1       2.848   0.452 -10.541  0.00  0.00     0.027 H 
ATOM     27  H   LIG d   1       1.227   0.656  -9.796  0.00  0.00     0.027 H 
ATOM     28  C   LIG d   1       4.309   0.802  -8.240  0.00  0.00    -0.031 C 
ATOM     29  H   LIG d   1       2.893   2.302  -8.892  0.00  0.00     0.032 H 
ATOM     30  H   LIG d   1       2.274   1.198  -7.617  0.00  0.00     0.032 H 
ATOM     31  H   LIG d   1       4.915   0.880  -9.154  0.00  0.00     0.081 H 
ATOM     32  H   LIG d   1       4.744   1.440  -7.456  0.00  0.00     0.081 H 
ATOM     33  H   LIG d   1       3.623  -0.651  -6.909  0.00  0.00     0.204 HD
BRANCH  19  34
ATOM     34  C   LIG d   1       3.795  -2.930  -8.315  0.00  0.00    -0.022 C 
ATOM     35  H   LIG d   1       4.839  -3.271  -8.267  0.00  0.00     0.028 H 
ATOM     36  H   LIG d   1       3.230  -3.573  -9.006  0.00  0.00     0.028 H 
ATOM     37  H   LIG d   1       3.345  -2.983  -7.314  0.00  0.00     0.028 H 
ENDBRANCH  19  34
ENDBRANCH  15  18
ENDBRANCH   1  15
BRANCH   2  38
ATOM     38  O   LIG d   1       4.124  -1.724  -5.082  0.00  0.00    -0.506 OA
ATOM     39  H   LIG d   1       3.634  -1.801  -6.064  0.00  0.00     0.292 HD
ENDBRANCH   2  38
BRANCH   9  40
ATOM     40  O   LIG d   1      10.143   3.070  -5.424  0.00  0.00    -0.449 OA
BRANCH  40  41
ATOM     41  C   LIG d   1       9.925   4.367  -5.763  0.00  0.00     0.129 A 
ATOM     42  C   LIG d   1      10.153   4.790  -7.068  0.00  0.00    -0.019 A 
ATOM     43  C   LIG d   1       9.932   6.104  -7.415  0.00  0.00    -0.044 A 
ATOM     44  H   LIG d   1      10.502   4.087  -7.809  0.00  0.00     0.065 H 
ATOM     45  C   LIG d   1       9.480   7.013  -6.454  0.00  0.00     0.059 A 
ATOM     46  H   LIG d   1      10.110   6.431  -8.428  0.00  0.00     0.063 H 
ATOM     47  C   LIG d   1       9.253   6.583  -5.143  0.00  0.00    -0.044 A 
ATOM     48  C   LIG d   1       9.470   5.266  -4.805  0.00  0.00    -0.019 A 
ATOM     49  H   LIG d   1       8.903   7.282  -4.398  0.00  0.00     0.063 H 
ATOM     50  H   LIG d   1       9.291   4.932  -3.794  0.00  0.00     0.065 H 
BRANCH  45  51
ATOM     51  C   LIG d   1       9.245   8.421  -6.821  0.00  0.00     0.339 C 
ATOM     52  O   LIG d   1       8.852   8.701  -7.936  0.00  0.00    -0.245 OA
BRANCH  51  53
ATOM     53  O   LIG d   1       9.464   9.398  -5.919  0.00  0.00    -0.465 OA
BRANCH  53  54
ATOM     54  C   LIG d   1      10.818   9.915  -5.825  0.00  0.00     0.082 C 
ATOM     55  H   LIG d   1      11.475   9.147  -5.390  0.00  0.00     0.066 H 
ATOM     56  H   LIG d   1      10.826  10.809  -5.184  0.00  0.00     0.066 H 
ATOM     57  H   LIG d   1      11.180  10.180  -6.829  0.00  0.00     0.066 H 
ENDBRANCH  53  54
ENDBRANCH  51  53
ENDBRANCH  45  51
ENDBRANCH  40  41
ENDBRANCH   9  40
TORSDOF 9
ENDMDL
MODEL 9
REMARK VINA RESULT:      -6.1      5.000      9.390
REMARK  9 active torsions:
REMARK  status: ('A' for Active; 'I' for Inactive)
REMARK    1  A    between atoms: C_1  and  C_2 
REMARK    2  A    between atoms: N_8  and  C_9 
REMARK    3  A    between atoms: C_9  and  C_10 
REMARK    4  A    between atoms: C_11  and  O_32 
REMARK    5  A    between atoms: C_18  and  O_21 
REMARK    6  A    between atoms: O_21  and  C_22 
REMARK    7  A    between atoms: C_25  and  C_28 
REMARK    8  A    between atoms: C_28  and  O_30 
REMARK    9  A    between atoms: O_30  and  C_31 
ROOT
ATOM      1  C   LIG d   1       7.011  -0.541  -5.661  0.00  0.00     0.081 A 
ATOM      2  C   LIG d   1       8.300  -0.035  -5.625  0.00  0.00     0.129 A 
ATOM      3  C   LIG d   1       8.712   0.921  -6.551  0.00  0.00    -0.019 A 
ATOM      4  C   LIG d   1       7.849   1.373  -7.508  0.00  0.00    -0.044 A 
ATOM      5  C   LIG d   1       6.548   0.872  -7.559  0.00  0.00     0.068 A 
ATOM      6  C   LIG d   1       6.125  -0.097  -6.632  0.00  0.00     0.150 A 
ATOM      7  O   LIG d   1       4.863  -0.569  -6.687  0.00  0.00    -0.458 OA
ATOM      8  C   LIG d   1       3.981  -0.158  -7.607  0.00  0.00     0.139 A 
ATOM      9  C   LIG d   1       4.283   0.763  -8.544  0.00  0.00     0.210 A 
ATOM     10  C   LIG d   1       5.587   1.334  -8.575  0.00  0.00     0.234 A 
ATOM     11  O   LIG d   1       5.896   2.168  -9.409  0.00  0.00    -0.283 OA
ATOM     12  H   LIG d   1       9.720   1.308  -6.510  0.00  0.00     0.065 H 
ATOM     13  H   LIG d   1       8.174   2.114  -8.224  0.00  0.00     0.063 H 
ATOM     14  H   LIG d   1       2.987  -0.580  -7.598  0.00  0.00     0.107 H 
ENDROOT
BRANCH   1  15
ATOM     15  C   LIG d   1       6.576  -1.576  -4.656  0.00  0.00     0.001 C 
ATOM     16  H   LIG d   1       7.462  -2.085  -4.247  0.00  0.00     0.087 H 
ATOM     17  H   LIG d   1       5.923  -2.313  -5.147  0.00  0.00     0.087 H 
BRANCH  15  18
ATOM     18  N   LIG d   1       5.842  -0.921  -3.566  0.00  0.00     0.241 N 
ATOM     19  C   LIG d   1       4.430  -1.325  -3.563  0.00  0.00    -0.023 C 
ATOM     20  H   LIG d   1       3.978  -0.934  -4.487  0.00  0.00     0.085 H 
ATOM     21  C   LIG d   1       3.733  -0.739  -2.333  0.00  0.00    -0.010 C 
ATOM     22  C   LIG d   1       3.846   0.788  -2.367  0.00  0.00    -0.043 C 
ATOM     23  H   LIG d   1       2.672  -1.031  -2.340  0.00  0.00     0.032 H 
ATOM     24  H   LIG d   1       4.212  -1.123  -1.421  0.00  0.00     0.032 H 
ATOM     25  C   LIG d   1       5.324   1.181  -2.419  0.00  0.00    -0.012 C 
ATOM     26  H   LIG d   1       3.330   1.174  -3.259  0.00  0.00     0.027 H 
ATOM     27  H   LIG d   1       3.381   1.210  -1.464  0.00  0.00     0.027 H 
ATOM     28  C   LIG d   1       5.976   0.540  -3.646  0.00  0.00    -0.031 C 
ATOM     29  H   LIG d   1       5.410   2.276  -2.485  0.00  0.00     0.032 H 
ATOM     30  H   LIG d   1       5.829   0.829  -1.506  0.00  0.00     0.032 H 
ATOM     31  H   LIG d   1       5.479   0.904  -4.557  0.00  0.00     0.081 H 
ATOM     32  H   LIG d   1       7.042   0.809  -3.678  0.00  0.00     0.081 H 
ATOM     33  H   LIG d   1       6.286  -1.246  -2.613  0.00  0.00     0.204 HD
BRANCH  19  34
ATOM     34  C   LIG d   1       4.338  -2.851  -3.523  0.00  0.00    -0.022 C 
ATOM     35  H   LIG d   1       5.217  -3.258  -3.003  0.00  0.00     0.028 H 
ATOM     36  H   LIG d   1       4.306  -3.243  -4.550  0.00  0.00     0.028 H 
ATOM     37  H   LIG d   1       3.425  -3.150  -2.989  0.00  0.00     0.028 H 
ENDBRANCH  19  34
ENDBRANCH  15  18
ENDBRANCH   1  15
BRANCH   2  38
ATOM     38  O   LIG d   1       9.168  -0.474  -4.679  0.00  0.00    -0.506 OA
ATOM     39  H   LIG d   1      10.042   0.138  -4.408  0.00  0.00     0.292 HD
ENDBRANCH   2  38
BRANCH   9  40
ATOM     40  O   LIG d   1       3.346   1.145  -9.455  0.00  0.00    -0.449 OA
BRANCH  40  41
ATOM     41  C   LIG d   1       3.013   0.266 -10.434  0.00  0.00     0.129 A 
ATOM     42  C   LIG d   1       1.815  -0.435 -10.357  0.00  0.00    -0.019 A 
ATOM     43  C   LIG d   1       1.474  -1.327 -11.348  0.00  0.00    -0.044 A 
ATOM     44  H   LIG d   1       1.152  -0.280  -9.519  0.00  0.00     0.065 H 
ATOM     45  C   LIG d   1       2.333  -1.529 -12.432  0.00  0.00     0.059 A 
ATOM     46  H   LIG d   1       0.543  -1.873 -11.287  0.00  0.00     0.063 H 
ATOM     47  C   LIG d   1       3.537  -0.821 -12.505  0.00  0.00    -0.044 A 
ATOM     48  C   LIG d   1       3.869   0.074 -11.513  0.00  0.00    -0.019 A 
ATOM     49  H   LIG d   1       4.204  -0.973 -13.341  0.00  0.00     0.063 H 
ATOM     50  H   LIG d   1       4.796   0.623 -11.570  0.00  0.00     0.065 H 
BRANCH  45  51
ATOM     51  C   LIG d   1       1.972  -2.484 -13.495  0.00  0.00     0.339 C 
ATOM     52  O   LIG d   1       1.033  -2.251 -14.229  0.00  0.00    -0.245 OA
BRANCH  51  53
ATOM     53  O   LIG d   1       2.685  -3.617 -13.653  0.00  0.00    -0.465 OA
BRANCH  53  54
ATOM     54  C   LIG d   1       2.254  -4.778 -12.895  0.00  0.00     0.082 C 
ATOM     55  H   LIG d   1       1.529  -5.354 -13.488  0.00  0.00     0.066 H 
ATOM     56  H   LIG d   1       1.781  -4.449 -11.957  0.00  0.00     0.066 H 
ATOM     57  H   LIG d   1       3.124  -5.409 -12.665  0.00  0.00     0.066 H 
ENDBRANCH  53  54
ENDBRANCH  51  53
ENDBRANCH  45  51
ENDBRANCH  40  41
ENDBRANCH   9  40
TORSDOF 9
ENDMDL
MODEL 10
REMARK VINA RESULT:      -6.1      4.510      9.440
REMARK  9 active torsions:
REMARK  status: ('A' for Active; 'I' for Inactive)
REMARK    1  A    between atoms: C_1  and  C_2 
REMARK    2  A    between atoms: N_8  and  C_9 
REMARK    3  A    between atoms: C_9  and  C_10 
REMARK    4  A    between atoms: C_11  and  O_32 
REMARK    5  A    between atoms: C_18  and  O_21 
REMARK    6  A    between atoms: O_21  and  C_22 
REMARK    7  A    between atoms: C_25  and  C_28 
REMARK    8  A    between atoms: C_28  and  O_30 
REMARK    9  A    between atoms: O_30  and  C_31 
ROOT
ATOM      1  C   LIG d   1       7.156   0.286  -5.294  0.00  0.00     0.081 A 
ATOM      2  C   LIG d   1       8.535   0.155  -5.304  0.00  0.00     0.129 A 
ATOM      3  C   LIG d   1       9.207  -0.163  -6.482  0.00  0.00    -0.019 A 
ATOM      4  C   LIG d   1       8.515  -0.349  -7.644  0.00  0.00    -0.044 A 
ATOM      5  C   LIG d   1       7.126  -0.222  -7.651  0.00  0.00     0.068 A 
ATOM      6  C   LIG d   1       6.437   0.093  -6.465  0.00  0.00     0.150 A 
ATOM      7  O   LIG d   1       5.095   0.220  -6.485  0.00  0.00    -0.458 OA
ATOM      8  C   LIG d   1       4.373   0.045  -7.599  0.00  0.00     0.139 A 
ATOM      9  C   LIG d   1       4.930  -0.263  -8.787  0.00  0.00     0.210 A 
ATOM     10  C   LIG d   1       6.343  -0.415  -8.883  0.00  0.00     0.234 A 
ATOM     11  O   LIG d   1       6.882  -0.695  -9.941  0.00  0.00    -0.283 OA
ATOM     12  H   LIG d   1      10.283  -0.260  -6.475  0.00  0.00     0.065 H 
ATOM     13  H   LIG d   1       9.041  -0.596  -8.555  0.00  0.00     0.063 H 
ATOM     14  H   LIG d   1       3.300   0.157  -7.544  0.00  0.00     0.107 H 
ENDROOT
BRANCH   1  15
ATOM     15  C   LIG d   1       6.437   0.630  -4.014  0.00  0.00     0.001 C 
ATOM     16  H   LIG d   1       6.028   1.649  -4.086  0.00  0.00     0.087 H 
ATOM     17  H   LIG d   1       7.142   0.577  -3.172  0.00  0.00     0.087 H 
BRANCH  15  18
ATOM     18  N   LIG d   1       5.341  -0.324  -3.798  0.00  0.00     0.241 N 
ATOM     19  C   LIG d   1       4.492   0.096  -2.676  0.00  0.00    -0.023 C 
ATOM     20  H   LIG d   1       5.105   0.038  -1.764  0.00  0.00     0.085 H 
ATOM     21  C   LIG d   1       3.284  -0.837  -2.572  0.00  0.00    -0.010 C 
ATOM     22  C   LIG d   1       3.771  -2.274  -2.358  0.00  0.00    -0.043 C 
ATOM     23  H   LIG d   1       2.656  -0.531  -1.722  0.00  0.00     0.032 H 
ATOM     24  H   LIG d   1       2.696  -0.783  -3.499  0.00  0.00     0.032 H 
ATOM     25  C   LIG d   1       4.692  -2.669  -3.515  0.00  0.00    -0.012 C 
ATOM     26  H   LIG d   1       4.324  -2.336  -1.409  0.00  0.00     0.027 H 
ATOM     27  H   LIG d   1       2.906  -2.952  -2.324  0.00  0.00     0.027 H 
ATOM     28  C   LIG d   1       5.859  -1.683  -3.592  0.00  0.00    -0.031 C 
ATOM     29  H   LIG d   1       5.078  -3.685  -3.346  0.00  0.00     0.032 H 
ATOM     30  H   LIG d   1       4.125  -2.645  -4.459  0.00  0.00     0.032 H 
ATOM     31  H   LIG d   1       6.432  -1.718  -2.654  0.00  0.00     0.081 H 
ATOM     32  H   LIG d   1       6.515  -1.956  -4.433  0.00  0.00     0.081 H 
ATOM     33  H   LIG d   1       4.717  -0.337  -4.704  0.00  0.00     0.204 HD
BRANCH  19  34
ATOM     34  C   LIG d   1       4.011   1.529  -2.909  0.00  0.00    -0.022 C 
ATOM     35  H   LIG d   1       3.372   1.560  -3.803  0.00  0.00     0.028 H 
ATOM     36  H   LIG d   1       4.879   2.187  -3.057  0.00  0.00     0.028 H 
ATOM     37  H   LIG d   1       3.437   1.870  -2.036  0.00  0.00     0.028 H 
ENDBRANCH  19  34
ENDBRANCH  15  18
ENDBRANCH   1  15
BRANCH   2  38
ATOM     38  O   LIG d   1       9.235   0.339  -4.157  0.00  0.00    -0.506 OA
ATOM     39  H   LIG d   1       8.705   0.428  -3.197  0.00  0.00     0.292 HD
ENDBRANCH   2  38
BRANCH   9  40
ATOM     40  O   LIG d   1       4.147  -0.428  -9.888  0.00  0.00    -0.449 OA
BRANCH  40  41
ATOM     41  C   LIG d   1       3.383  -1.547  -9.965  0.00  0.00     0.129 A 
ATOM     42  C   LIG d   1       3.954  -2.794  -9.732  0.00  0.00    -0.019 A 
ATOM     43  C   LIG d   1       3.182  -3.931  -9.809  0.00  0.00    -0.044 A 
ATOM     44  H   LIG d   1       5.004  -2.869  -9.491  0.00  0.00     0.065 H 
ATOM     45  C   LIG d   1       1.823  -3.832 -10.123  0.00  0.00     0.059 A 
ATOM     46  H   LIG d   1       3.627  -4.898  -9.629  0.00  0.00     0.063 H 
ATOM     47  C   LIG d   1       1.254  -2.577 -10.357  0.00  0.00    -0.044 A 
ATOM     48  C   LIG d   1       2.031  -1.443 -10.272  0.00  0.00    -0.019 A 
ATOM     49  H   LIG d   1       0.205  -2.496 -10.599  0.00  0.00     0.063 H 
ATOM     50  H   LIG d   1       1.591  -0.473 -10.449  0.00  0.00     0.065 H 
BRANCH  45  51
ATOM     51  C   LIG d   1       0.994  -5.048 -10.208  0.00  0.00     0.339 C 
ATOM     52  O   LIG d   1       1.424  -6.107  -9.797  0.00  0.00    -0.245 OA
BRANCH  51  53
ATOM     53  O   LIG d   1      -0.243  -4.983 -10.739  0.00  0.00    -0.465 OA
BRANCH  53  54
ATOM     54  C   LIG d   1      -1.317  -5.604  -9.985  0.00  0.00     0.082 C 
ATOM     55  H   LIG d   1      -1.149  -5.444  -8.909  0.00  0.00     0.066 H 
ATOM     56  H   LIG d   1      -1.337  -6.683 -10.195  0.00  0.00     0.066 H 
ATOM     57  H   LIG d   1      -2.277  -5.155 -10.276  0.00  0.00     0.066 H 
ENDBRANCH  53  54
ENDBRANCH  51  53
ENDBRANCH  45  51
ENDBRANCH  40  41
ENDBRANCH   9  40
TORSDOF 9
ENDMDL
