MODEL 1
REMARK VINA RESULT:      -7.4      0.000      0.000
REMARK  7 active torsions:
REMARK  status: ('A' for Active; 'I' for Inactive)
REMARK    1  A    between atoms: C_1  and  C_2 
REMARK    2  A    between atoms: C_2  and  C_3 
REMARK    3  A    between atoms: C_2  and  C_4 
REMARK    4  A    between atoms: C_10  and  C_15 
REMARK    5  A    between atoms: C_15  and  S_16 
REMARK    6  A    between atoms: S_16  and  C_17 
REMARK    7  A    between atoms: C_19  and  C_27 
ROOT
ATOM      1  C   LIG d   1       3.943  -3.484  -8.302  0.00  0.00     0.115 A 
ATOM      2  C   LIG d   1       2.948  -3.548  -9.293  0.00  0.00     0.095 A 
ATOM      3  C   LIG d   1       2.422  -2.352  -9.787  0.00  0.00     0.080 A 
ATOM      4  C   LIG d   1       2.901  -1.149  -9.281  0.00  0.00    -0.013 A 
ATOM      5  C   LIG d   1       3.875  -1.162  -8.306  0.00  0.00     0.046 A 
ATOM      6  N   LIG d   1       4.356  -2.313  -7.851  0.00  0.00    -0.244 NA
ATOM      7  C   LIG d   1       4.430   0.104  -7.705  0.00  0.00    -0.010 C 
ATOM      8  C   LIG d   1       4.125   1.302  -8.602  0.00  0.00    -0.047 C 
ATOM      9  C   LIG d   1       2.624   1.302  -8.916  0.00  0.00    -0.049 C 
ATOM     10  C   LIG d   1       2.326   0.125  -9.842  0.00  0.00    -0.025 C 
ATOM     11  C   LIG d   1       2.482  -4.810  -9.785  0.00  0.00     0.102 C 
ATOM     12  N   LIG d   1       2.114  -5.812 -10.174  0.00  0.00    -0.191 NA
ATOM     13  H   LIG d   1       3.981   0.266  -6.725  0.00  0.00     0.033 H 
ATOM     14  H   LIG d   1       5.509   0.006  -7.593  0.00  0.00     0.033 H 
ATOM     15  H   LIG d   1       4.392   2.224  -8.086  0.00  0.00     0.027 H 
ATOM     16  H   LIG d   1       4.693   1.222  -9.528  0.00  0.00     0.027 H 
ATOM     17  H   LIG d   1       2.056   1.196  -7.992  0.00  0.00     0.027 H 
ATOM     18  H   LIG d   1       2.351   2.236  -9.408  0.00  0.00     0.027 H 
ATOM     19  H   LIG d   1       2.765   0.317 -10.821  0.00  0.00     0.031 H 
ATOM     20  H   LIG d   1       1.247   0.016  -9.949  0.00  0.00     0.031 H 
ENDROOT
BRANCH   1  21
ATOM     21  S   LIG d   1       4.637  -4.969  -7.655  0.00  0.00    -0.100 SA
BRANCH  21  22
ATOM     22  C   LIG d   1       4.373  -4.693  -5.886  0.00  0.00     0.026 C 
ATOM     23  H   LIG d   1       4.104  -5.635  -5.407  0.00  0.00     0.043 H 
ATOM     24  H   LIG d   1       3.568  -3.970  -5.746  0.00  0.00     0.043 H 
BRANCH  22  25
ATOM     25  C   LIG d   1       5.640  -4.158  -5.267  0.00  0.00    -0.020 A 
ATOM     26  C   LIG d   1       5.625  -2.938  -4.454  0.00  0.00     0.022 A 
ATOM     27  C   LIG d   1       6.830  -2.476  -3.896  0.00  0.00     0.139 A 
ATOM     28  C   LIG d   1       4.436  -2.236  -4.230  0.00  0.00    -0.047 A 
ATOM     29  C   LIG d   1       6.823  -1.320  -3.125  0.00  0.00    -0.018 A 
ATOM     30  O   LIG d   1       7.976  -3.155  -4.114  0.00  0.00    -0.422 OA
ATOM     31  C   LIG d   1       5.642  -0.639  -2.920  0.00  0.00    -0.055 A 
ATOM     32  H   LIG d   1       7.742  -0.954  -2.691  0.00  0.00     0.065 H 
ATOM     33  C   LIG d   1       4.453  -1.102  -3.468  0.00  0.00    -0.044 A 
ATOM     34  H   LIG d   1       5.640   0.261  -2.324  0.00  0.00     0.062 H 
ATOM     35  C   LIG d   1       7.997  -4.273  -4.857  0.00  0.00     0.338 A 
ATOM     36  C   LIG d   1       6.826  -4.794  -5.446  0.00  0.00     0.028 A 
ATOM     37  O   LIG d   1       9.055  -4.852  -5.024  0.00  0.00    -0.245 OA
ATOM     38  H   LIG d   1       6.872  -5.695  -6.040  0.00  0.00     0.069 H 
ATOM     39  H   LIG d   1       3.510  -2.589  -4.658  0.00  0.00     0.063 H 
BRANCH  33  40
ATOM     40  C   LIG d   1       3.173  -0.344  -3.227  0.00  0.00    -0.021 C 
ATOM     41  H   LIG d   1       2.477  -0.972  -2.672  0.00  0.00     0.034 H 
BRANCH  40  42
ATOM     42  C   LIG d   1       2.550   0.045  -4.570  0.00  0.00    -0.059 C 
ATOM     43  H   LIG d   1       1.490  -0.208  -4.565  0.00  0.00     0.024 H 
ATOM     44  H   LIG d   1       2.667   1.117  -4.727  0.00  0.00     0.024 H 
ATOM     45  H   LIG d   1       3.049  -0.497  -5.372  0.00  0.00     0.024 H 
ENDBRANCH  40  42
BRANCH  40  46
ATOM     46  C   LIG d   1       3.474   0.921  -2.420  0.00  0.00    -0.059 C 
ATOM     47  H   LIG d   1       4.379   1.391  -2.804  0.00  0.00     0.024 H 
ATOM     48  H   LIG d   1       2.638   1.615  -2.508  0.00  0.00     0.024 H 
ATOM     49  H   LIG d   1       3.617   0.657  -1.372  0.00  0.00     0.024 H 
ENDBRANCH  40  46
ENDBRANCH  33  40
ENDBRANCH  22  25
ENDBRANCH  21  22
ENDBRANCH   1  21
BRANCH   3  50
ATOM     50  C   LIG d   1       1.353  -2.365 -10.850  0.00  0.00     0.419 C 
ATOM     51  F   LIG d   1       0.839  -1.074 -11.010  0.00  0.00    -0.166 F 
ATOM     52  F   LIG d   1       1.904  -2.802 -12.059  0.00  0.00    -0.166 F 
ATOM     53  F   LIG d   1       0.325  -3.232 -10.465  0.00  0.00    -0.166 F 
ENDBRANCH   3  50
TORSDOF 7
ENDMDL
MODEL 2
REMARK VINA RESULT:      -7.4      2.766      3.415
REMARK  7 active torsions:
REMARK  status: ('A' for Active; 'I' for Inactive)
REMARK    1  A    between atoms: C_1  and  C_2 
REMARK    2  A    between atoms: C_2  and  C_3 
REMARK    3  A    between atoms: C_2  and  C_4 
REMARK    4  A    between atoms: C_10  and  C_15 
REMARK    5  A    between atoms: C_15  and  S_16 
REMARK    6  A    between atoms: S_16  and  C_17 
REMARK    7  A    between atoms: C_19  and  C_27 
ROOT
ATOM      1  C   LIG d   1       4.771  -2.378  -8.411  0.00  0.00     0.115 A 
ATOM      2  C   LIG d   1       6.041  -1.840  -8.685  0.00  0.00     0.095 A 
ATOM      3  C   LIG d   1       6.148  -0.464  -8.903  0.00  0.00     0.080 A 
ATOM      4  C   LIG d   1       5.000   0.317  -8.841  0.00  0.00    -0.013 A 
ATOM      5  C   LIG d   1       3.787  -0.280  -8.572  0.00  0.00     0.046 A 
ATOM      6  N   LIG d   1       3.711  -1.590  -8.372  0.00  0.00    -0.244 NA
ATOM      7  C   LIG d   1       2.502   0.506  -8.502  0.00  0.00    -0.010 C 
ATOM      8  C   LIG d   1       2.792   1.993  -8.313  0.00  0.00    -0.047 C 
ATOM      9  C   LIG d   1       3.795   2.431  -9.386  0.00  0.00    -0.049 C 
ATOM     10  C   LIG d   1       5.148   1.799  -9.065  0.00  0.00    -0.025 C 
ATOM     11  C   LIG d   1       7.197  -2.683  -8.742  0.00  0.00     0.102 C 
ATOM     12  N   LIG d   1       8.115  -3.351  -8.786  0.00  0.00    -0.191 NA
ATOM     13  H   LIG d   1       1.942   0.363  -9.426  0.00  0.00     0.033 H 
ATOM     14  H   LIG d   1       1.906   0.147  -7.663  0.00  0.00     0.033 H 
ATOM     15  H   LIG d   1       1.869   2.563  -8.419  0.00  0.00     0.027 H 
ATOM     16  H   LIG d   1       3.215   2.162  -7.323  0.00  0.00     0.027 H 
ATOM     17  H   LIG d   1       3.455   2.095 -10.365  0.00  0.00     0.027 H 
ATOM     18  H   LIG d   1       3.887   3.518  -9.381  0.00  0.00     0.027 H 
ATOM     19  H   LIG d   1       5.557   2.259  -8.166  0.00  0.00     0.031 H 
ATOM     20  H   LIG d   1       5.831   1.970  -9.897  0.00  0.00     0.031 H 
ENDROOT
BRANCH   1  21
ATOM     21  S   LIG d   1       4.591  -4.107  -8.126  0.00  0.00    -0.100 SA
BRANCH  21  22
ATOM     22  C   LIG d   1       4.196  -4.096  -6.361  0.00  0.00     0.026 C 
ATOM     23  H   LIG d   1       3.833  -5.080  -6.063  0.00  0.00     0.043 H 
ATOM     24  H   LIG d   1       3.425  -3.350  -6.165  0.00  0.00     0.043 H 
BRANCH  22  25
ATOM     25  C   LIG d   1       5.434  -3.756  -5.571  0.00  0.00    -0.020 A 
ATOM     26  C   LIG d   1       5.450  -2.617  -4.648  0.00  0.00     0.022 A 
ATOM     27  C   LIG d   1       6.628  -2.338  -3.932  0.00  0.00     0.139 A 
ATOM     28  C   LIG d   1       4.319  -1.814  -4.474  0.00  0.00    -0.047 A 
ATOM     29  C   LIG d   1       6.651  -1.259  -3.056  0.00  0.00    -0.018 A 
ATOM     30  O   LIG d   1       7.719  -3.114  -4.101  0.00  0.00    -0.422 OA
ATOM     31  C   LIG d   1       5.526  -0.476  -2.902  0.00  0.00    -0.055 A 
ATOM     32  H   LIG d   1       7.549  -1.033  -2.499  0.00  0.00     0.065 H 
ATOM     33  C   LIG d   1       4.364  -0.759  -3.606  0.00  0.00    -0.044 A 
ATOM     34  H   LIG d   1       5.548   0.363  -2.223  0.00  0.00     0.062 H 
ATOM     35  C   LIG d   1       7.711  -4.159  -4.944  0.00  0.00     0.338 A 
ATOM     36  C   LIG d   1       6.564  -4.497  -5.694  0.00  0.00     0.028 A 
ATOM     37  O   LIG d   1       8.719  -4.831  -5.064  0.00  0.00    -0.245 OA
ATOM     38  H   LIG d   1       6.587  -5.343  -6.366  0.00  0.00     0.069 H 
ATOM     39  H   LIG d   1       3.414  -2.027  -5.023  0.00  0.00     0.063 H 
BRANCH  33  40
ATOM     40  C   LIG d   1       3.146   0.107  -3.419  0.00  0.00    -0.021 C 
ATOM     41  H   LIG d   1       2.407  -0.428  -2.822  0.00  0.00     0.034 H 
BRANCH  40  42
ATOM     42  C   LIG d   1       2.547   0.448  -4.786  0.00  0.00    -0.059 C 
ATOM     43  H   LIG d   1       3.332   0.427  -5.541  0.00  0.00     0.024 H 
ATOM     44  H   LIG d   1       1.780  -0.284  -5.038  0.00  0.00     0.024 H 
ATOM     45  H   LIG d   1       2.104   1.443  -4.749  0.00  0.00     0.024 H 
ENDBRANCH  40  42
BRANCH  40  46
ATOM     46  C   LIG d   1       3.544   1.398  -2.700  0.00  0.00    -0.059 C 
ATOM     47  H   LIG d   1       2.674   2.048  -2.612  0.00  0.00     0.024 H 
ATOM     48  H   LIG d   1       3.921   1.159  -1.706  0.00  0.00     0.024 H 
ATOM     49  H   LIG d   1       4.321   1.906  -3.271  0.00  0.00     0.024 H 
ENDBRANCH  40  46
ENDBRANCH  33  40
ENDBRANCH  22  25
ENDBRANCH  21  22
ENDBRANCH   1  21
BRANCH   3  50
ATOM     50  C   LIG d   1       7.486   0.163  -9.201  0.00  0.00     0.419 C 
ATOM     51  F   LIG d   1       8.042  -0.442 -10.333  0.00  0.00    -0.166 F 
ATOM     52  F   LIG d   1       7.317   1.531  -9.437  0.00  0.00    -0.166 F 
ATOM     53  F   LIG d   1       8.340  -0.020  -8.108  0.00  0.00    -0.166 F 
ENDBRANCH   3  50
TORSDOF 7
ENDMDL
MODEL 3
REMARK VINA RESULT:      -7.4      7.044      9.114
REMARK  7 active torsions:
REMARK  status: ('A' for Active; 'I' for Inactive)
REMARK    1  A    between atoms: C_1  and  C_2 
REMARK    2  A    between atoms: C_2  and  C_3 
REMARK    3  A    between atoms: C_2  and  C_4 
REMARK    4  A    between atoms: C_10  and  C_15 
REMARK    5  A    between atoms: C_15  and  S_16 
REMARK    6  A    between atoms: S_16  and  C_17 
REMARK    7  A    between atoms: C_19  and  C_27 
ROOT
ATOM      1  C   LIG d   1       7.771   1.424  -4.183  0.00  0.00     0.115 A 
ATOM      2  C   LIG d   1       8.103   0.103  -4.534  0.00  0.00     0.095 A 
ATOM      3  C   LIG d   1       7.253  -0.928  -4.124  0.00  0.00     0.080 A 
ATOM      4  C   LIG d   1       6.118  -0.610  -3.388  0.00  0.00    -0.013 A 
ATOM      5  C   LIG d   1       5.859   0.707  -3.076  0.00  0.00     0.046 A 
ATOM      6  N   LIG d   1       6.684   1.668  -3.474  0.00  0.00    -0.244 NA
ATOM      7  C   LIG d   1       4.653   1.121  -2.271  0.00  0.00    -0.010 C 
ATOM      8  C   LIG d   1       3.604   0.012  -2.267  0.00  0.00    -0.047 C 
ATOM      9  C   LIG d   1       4.283  -1.296  -1.845  0.00  0.00    -0.049 C 
ATOM     10  C   LIG d   1       5.214  -1.740  -2.973  0.00  0.00    -0.025 C 
ATOM     11  C   LIG d   1       9.284  -0.180  -5.293  0.00  0.00     0.102 C 
ATOM     12  N   LIG d   1      10.221  -0.404  -5.895  0.00  0.00    -0.191 NA
ATOM     13  H   LIG d   1       4.959   1.331  -1.246  0.00  0.00     0.033 H 
ATOM     14  H   LIG d   1       4.222   2.022  -2.707  0.00  0.00     0.033 H 
ATOM     15  H   LIG d   1       2.811   0.259  -1.561  0.00  0.00     0.027 H 
ATOM     16  H   LIG d   1       3.182  -0.098  -3.266  0.00  0.00     0.027 H 
ATOM     17  H   LIG d   1       4.860  -1.133  -0.935  0.00  0.00     0.027 H 
ATOM     18  H   LIG d   1       3.528  -2.062  -1.669  0.00  0.00     0.027 H 
ATOM     19  H   LIG d   1       4.617  -2.056  -3.828  0.00  0.00     0.031 H 
ATOM     20  H   LIG d   1       5.820  -2.578  -2.629  0.00  0.00     0.031 H 
ENDROOT
BRANCH   1  21
ATOM     21  S   LIG d   1       8.813   2.754  -4.683  0.00  0.00    -0.100 SA
BRANCH  21  22
ATOM     22  C   LIG d   1       9.544   3.196  -3.088  0.00  0.00     0.026 C 
ATOM     23  H   LIG d   1       9.436   2.362  -2.395  0.00  0.00     0.043 H 
ATOM     24  H   LIG d   1       9.036   4.072  -2.684  0.00  0.00     0.043 H 
BRANCH  22  25
ATOM     25  C   LIG d   1      11.007   3.508  -3.275  0.00  0.00    -0.020 A 
ATOM     26  C   LIG d   1      11.697   4.450  -2.388  0.00  0.00     0.022 A 
ATOM     27  C   LIG d   1      13.062   4.711  -2.601  0.00  0.00     0.139 A 
ATOM     28  C   LIG d   1      11.018   5.085  -1.344  0.00  0.00    -0.047 A 
ATOM     29  C   LIG d   1      13.722   5.603  -1.764  0.00  0.00    -0.018 A 
ATOM     30  O   LIG d   1      13.715   4.097  -3.610  0.00  0.00    -0.422 OA
ATOM     31  C   LIG d   1      13.033   6.223  -0.743  0.00  0.00    -0.055 A 
ATOM     32  H   LIG d   1      14.770   5.813  -1.916  0.00  0.00     0.065 H 
ATOM     33  C   LIG d   1      11.687   5.958  -0.533  0.00  0.00    -0.044 A 
ATOM     34  H   LIG d   1      13.548   6.919  -0.096  0.00  0.00     0.062 H 
ATOM     35  C   LIG d   1      13.091   3.234  -4.426  0.00  0.00     0.338 A 
ATOM     36  C   LIG d   1      11.722   2.924  -4.270  0.00  0.00     0.028 A 
ATOM     37  O   LIG d   1      13.722   2.703  -5.322  0.00  0.00    -0.245 OA
ATOM     38  H   LIG d   1      11.245   2.226  -4.942  0.00  0.00     0.069 H 
ATOM     39  H   LIG d   1       9.969   4.887  -1.179  0.00  0.00     0.063 H 
BRANCH  33  40
ATOM     40  C   LIG d   1      10.956   6.644   0.592  0.00  0.00    -0.021 C 
ATOM     41  H   LIG d   1       9.922   6.825   0.298  0.00  0.00     0.034 H 
BRANCH  40  42
ATOM     42  C   LIG d   1      11.638   7.978   0.907  0.00  0.00    -0.059 C 
ATOM     43  H   LIG d   1      12.416   7.821   1.653  0.00  0.00     0.024 H 
ATOM     44  H   LIG d   1      12.083   8.380  -0.003  0.00  0.00     0.024 H 
ATOM     45  H   LIG d   1      10.900   8.680   1.292  0.00  0.00     0.024 H 
ENDBRANCH  40  42
BRANCH  40  46
ATOM     46  C   LIG d   1      10.984   5.752   1.836  0.00  0.00    -0.059 C 
ATOM     47  H   LIG d   1      10.103   5.951   2.445  0.00  0.00     0.024 H 
ATOM     48  H   LIG d   1      10.986   4.705   1.532  0.00  0.00     0.024 H 
ATOM     49  H   LIG d   1      11.883   5.963   2.414  0.00  0.00     0.024 H 
ENDBRANCH  40  46
ENDBRANCH  33  40
ENDBRANCH  22  25
ENDBRANCH  21  22
ENDBRANCH   1  21
BRANCH   3  50
ATOM     50  C   LIG d   1       7.563  -2.361  -4.474  0.00  0.00     0.419 C 
ATOM     51  F   LIG d   1       8.746  -2.751  -3.837  0.00  0.00    -0.166 F 
ATOM     52  F   LIG d   1       6.512  -3.181  -4.050  0.00  0.00    -0.166 F 
ATOM     53  F   LIG d   1       7.717  -2.479  -5.859  0.00  0.00    -0.166 F 
ENDBRANCH   3  50
TORSDOF 7
ENDMDL
MODEL 4
REMARK VINA RESULT:      -7.3      7.043      9.106
REMARK  7 active torsions:
REMARK  status: ('A' for Active; 'I' for Inactive)
REMARK    1  A    between atoms: C_1  and  C_2 
REMARK    2  A    between atoms: C_2  and  C_3 
REMARK    3  A    between atoms: C_2  and  C_4 
REMARK    4  A    between atoms: C_10  and  C_15 
REMARK    5  A    between atoms: C_15  and  S_16 
REMARK    6  A    between atoms: S_16  and  C_17 
REMARK    7  A    between atoms: C_19  and  C_27 
ROOT
ATOM      1  C   LIG d   1       8.202   0.819  -4.226  0.00  0.00     0.115 A 
ATOM      2  C   LIG d   1       8.207  -0.543  -4.573  0.00  0.00     0.095 A 
ATOM      3  C   LIG d   1       7.137  -1.339  -4.157  0.00  0.00     0.080 A 
ATOM      4  C   LIG d   1       6.114  -0.757  -3.418  0.00  0.00    -0.013 A 
ATOM      5  C   LIG d   1       6.179   0.584  -3.109  0.00  0.00     0.046 A 
ATOM      6  N   LIG d   1       7.208   1.319  -3.514  0.00  0.00    -0.244 NA
ATOM      7  C   LIG d   1       5.111   1.277  -2.302  0.00  0.00    -0.010 C 
ATOM      8  C   LIG d   1       3.826   0.451  -2.291  0.00  0.00    -0.047 C 
ATOM      9  C   LIG d   1       4.175  -0.981  -1.866  0.00  0.00    -0.049 C 
ATOM     10  C   LIG d   1       4.967  -1.637  -2.996  0.00  0.00    -0.025 C 
ATOM     11  C   LIG d   1       9.283  -1.103  -5.334  0.00  0.00     0.102 C 
ATOM     12  N   LIG d   1      10.137  -1.545  -5.939  0.00  0.00    -0.191 NA
ATOM     13  H   LIG d   1       5.461   1.410  -1.278  0.00  0.00     0.033 H 
ATOM     14  H   LIG d   1       4.905   2.254  -2.740  0.00  0.00     0.033 H 
ATOM     15  H   LIG d   1       3.119   0.882  -1.582  0.00  0.00     0.027 H 
ATOM     16  H   LIG d   1       3.386   0.442  -3.288  0.00  0.00     0.027 H 
ATOM     17  H   LIG d   1       4.777  -0.958  -0.959  0.00  0.00     0.027 H 
ATOM     18  H   LIG d   1       3.259  -1.543  -1.685  0.00  0.00     0.027 H 
ATOM     19  H   LIG d   1       4.309  -1.804  -3.848  0.00  0.00     0.031 H 
ATOM     20  H   LIG d   1       5.357  -2.595  -2.651  0.00  0.00     0.031 H 
ENDROOT
BRANCH   1  21
ATOM     21  S   LIG d   1       9.530   1.861  -4.733  0.00  0.00    -0.100 SA
BRANCH  21  22
ATOM     22  C   LIG d   1       9.347   3.208  -3.539  0.00  0.00     0.026 C 
ATOM     23  H   LIG d   1      10.053   3.067  -2.721  0.00  0.00     0.043 H 
ATOM     24  H   LIG d   1       8.330   3.210  -3.145  0.00  0.00     0.043 H 
BRANCH  22  25
ATOM     25  C   LIG d   1       9.622   4.524  -4.220  0.00  0.00    -0.020 A 
ATOM     26  C   LIG d   1       9.999   5.710  -3.445  0.00  0.00     0.022 A 
ATOM     27  C   LIG d   1      10.247   6.917  -4.123  0.00  0.00     0.139 A 
ATOM     28  C   LIG d   1      10.115   5.654  -2.053  0.00  0.00    -0.047 A 
ATOM     29  C   LIG d   1      10.604   8.045  -3.394  0.00  0.00    -0.018 A 
ATOM     30  O   LIG d   1      10.135   6.969  -5.467  0.00  0.00    -0.422 OA
ATOM     31  C   LIG d   1      10.708   7.970  -2.021  0.00  0.00    -0.055 A 
ATOM     32  H   LIG d   1      10.797   8.978  -3.902  0.00  0.00     0.065 H 
ATOM     33  C   LIG d   1      10.468   6.776  -1.357  0.00  0.00    -0.044 A 
ATOM     34  H   LIG d   1      10.983   8.850  -1.458  0.00  0.00     0.062 H 
ATOM     35  C   LIG d   1       9.790   5.887  -6.184  0.00  0.00     0.338 A 
ATOM     36  C   LIG d   1       9.527   4.644  -5.570  0.00  0.00     0.028 A 
ATOM     37  O   LIG d   1       9.702   5.982  -7.394  0.00  0.00    -0.245 OA
ATOM     38  H   LIG d   1       9.251   3.790  -6.171  0.00  0.00     0.069 H 
ATOM     39  H   LIG d   1       9.925   4.728  -1.530  0.00  0.00     0.063 H 
BRANCH  33  40
ATOM     40  C   LIG d   1      10.592   6.716   0.144  0.00  0.00    -0.021 C 
ATOM     41  H   LIG d   1       9.609   6.555   0.584  0.00  0.00     0.034 H 
BRANCH  40  42
ATOM     42  C   LIG d   1      11.174   8.034   0.661  0.00  0.00    -0.059 C 
ATOM     43  H   LIG d   1      10.554   8.863   0.319  0.00  0.00     0.024 H 
ATOM     44  H   LIG d   1      11.192   8.019   1.751  0.00  0.00     0.024 H 
ATOM     45  H   LIG d   1      12.188   8.157   0.281  0.00  0.00     0.024 H 
ENDBRANCH  40  42
BRANCH  40  46
ATOM     46  C   LIG d   1      11.520   5.563   0.533  0.00  0.00    -0.059 C 
ATOM     47  H   LIG d   1      10.925   4.676   0.753  0.00  0.00     0.024 H 
ATOM     48  H   LIG d   1      12.199   5.349  -0.292  0.00  0.00     0.024 H 
ATOM     49  H   LIG d   1      12.096   5.842   1.414  0.00  0.00     0.024 H 
ENDBRANCH  40  46
ENDBRANCH  33  40
ENDBRANCH  22  25
ENDBRANCH  21  22
ENDBRANCH   1  21
BRANCH   3  50
ATOM     50  C   LIG d   1       7.094  -2.806  -4.503  0.00  0.00     0.419 C 
ATOM     51  F   LIG d   1       7.277  -2.966  -5.880  0.00  0.00    -0.166 F 
ATOM     52  F   LIG d   1       8.111  -3.477  -3.815  0.00  0.00    -0.166 F 
ATOM     53  F   LIG d   1       5.853  -3.335  -4.132  0.00  0.00    -0.166 F 
ENDBRANCH   3  50
TORSDOF 7
ENDMDL
MODEL 5
REMARK VINA RESULT:      -7.3      2.594      4.050
REMARK  7 active torsions:
REMARK  status: ('A' for Active; 'I' for Inactive)
REMARK    1  A    between atoms: C_1  and  C_2 
REMARK    2  A    between atoms: C_2  and  C_3 
REMARK    3  A    between atoms: C_2  and  C_4 
REMARK    4  A    between atoms: C_10  and  C_15 
REMARK    5  A    between atoms: C_15  and  S_16 
REMARK    6  A    between atoms: S_16  and  C_17 
REMARK    7  A    between atoms: C_19  and  C_27 
ROOT
ATOM      1  C   LIG d   1       5.931  -1.236  -8.727  0.00  0.00     0.115 A 
ATOM      2  C   LIG d   1       5.675   0.147  -8.752  0.00  0.00     0.095 A 
ATOM      3  C   LIG d   1       4.430   0.585  -9.207  0.00  0.00     0.080 A 
ATOM      4  C   LIG d   1       3.494  -0.359  -9.617  0.00  0.00    -0.013 A 
ATOM      5  C   LIG d   1       3.816  -1.698  -9.570  0.00  0.00     0.046 A 
ATOM      6  N   LIG d   1       5.008  -2.088  -9.136  0.00  0.00    -0.244 NA
ATOM      7  C   LIG d   1       2.855  -2.772 -10.011  0.00  0.00    -0.010 C 
ATOM      8  C   LIG d   1       1.428  -2.230 -10.057  0.00  0.00    -0.047 C 
ATOM      9  C   LIG d   1       1.427  -0.940 -10.885  0.00  0.00    -0.049 C 
ATOM     10  C   LIG d   1       2.155   0.143 -10.089  0.00  0.00    -0.025 C 
ATOM     11  C   LIG d   1       6.669   1.084  -8.322  0.00  0.00     0.102 C 
ATOM     12  N   LIG d   1       7.457   1.827  -7.980  0.00  0.00    -0.191 NA
ATOM     13  H   LIG d   1       3.137  -3.125 -11.002  0.00  0.00     0.033 H 
ATOM     14  H   LIG d   1       2.899  -3.605  -9.308  0.00  0.00     0.033 H 
ATOM     15  H   LIG d   1       0.771  -2.965 -10.521  0.00  0.00     0.027 H 
ATOM     16  H   LIG d   1       1.083  -2.017  -9.045  0.00  0.00     0.027 H 
ATOM     17  H   LIG d   1       1.942  -1.110 -11.830  0.00  0.00     0.027 H 
ATOM     18  H   LIG d   1       0.401  -0.627 -11.077  0.00  0.00     0.027 H 
ATOM     19  H   LIG d   1       1.551   0.423  -9.227  0.00  0.00     0.031 H 
ATOM     20  H   LIG d   1       2.302   1.017 -10.724  0.00  0.00     0.031 H 
ENDROOT
BRANCH   1  21
ATOM     21  S   LIG d   1       7.487  -1.833  -8.156  0.00  0.00    -0.100 SA
BRANCH  21  22
ATOM     22  C   LIG d   1       7.318  -1.507  -6.384  0.00  0.00     0.026 C 
ATOM     23  H   LIG d   1       6.931  -0.499  -6.235  0.00  0.00     0.043 H 
ATOM     24  H   LIG d   1       8.292  -1.597  -5.902  0.00  0.00     0.043 H 
BRANCH  22  25
ATOM     25  C   LIG d   1       6.366  -2.506  -5.778  0.00  0.00    -0.020 A 
ATOM     26  C   LIG d   1       5.571  -2.168  -4.594  0.00  0.00     0.022 A 
ATOM     27  C   LIG d   1       4.695  -3.132  -4.063  0.00  0.00     0.139 A 
ATOM     28  C   LIG d   1       5.672  -0.909  -3.994  0.00  0.00    -0.047 A 
ATOM     29  C   LIG d   1       3.939  -2.818  -2.940  0.00  0.00    -0.018 A 
ATOM     30  O   LIG d   1       4.599  -4.346  -4.644  0.00  0.00    -0.422 OA
ATOM     31  C   LIG d   1       4.057  -1.572  -2.359  0.00  0.00    -0.055 A 
ATOM     32  H   LIG d   1       3.263  -3.549  -2.522  0.00  0.00     0.065 H 
ATOM     33  C   LIG d   1       4.918  -0.622  -2.890  0.00  0.00    -0.044 A 
ATOM     34  H   LIG d   1       3.470  -1.333  -1.485  0.00  0.00     0.062 H 
ATOM     35  C   LIG d   1       5.324  -4.663  -5.728  0.00  0.00     0.338 A 
ATOM     36  C   LIG d   1       6.221  -3.745  -6.315  0.00  0.00     0.028 A 
ATOM     37  O   LIG d   1       5.202  -5.771  -6.218  0.00  0.00    -0.245 OA
ATOM     38  H   LIG d   1       6.793  -4.027  -7.186  0.00  0.00     0.069 H 
ATOM     39  H   LIG d   1       6.344  -0.168  -4.400  0.00  0.00     0.063 H 
BRANCH  33  40
ATOM     40  C   LIG d   1       5.027   0.734  -2.242  0.00  0.00    -0.021 C 
ATOM     41  H   LIG d   1       5.344   0.618  -1.206  0.00  0.00     0.034 H 
BRANCH  40  42
ATOM     42  C   LIG d   1       3.666   1.431  -2.285  0.00  0.00    -0.059 C 
ATOM     43  H   LIG d   1       3.445   1.735  -3.308  0.00  0.00     0.024 H 
ATOM     44  H   LIG d   1       2.895   0.743  -1.936  0.00  0.00     0.024 H 
ATOM     45  H   LIG d   1       3.688   2.310  -1.641  0.00  0.00     0.024 H 
ENDBRANCH  40  42
BRANCH  40  46
ATOM     46  C   LIG d   1       6.056   1.578  -2.998  0.00  0.00    -0.059 C 
ATOM     47  H   LIG d   1       5.716   2.612  -3.041  0.00  0.00     0.024 H 
ATOM     48  H   LIG d   1       7.014   1.531  -2.481  0.00  0.00     0.024 H 
ATOM     49  H   LIG d   1       6.171   1.190  -4.010  0.00  0.00     0.024 H 
ENDBRANCH  40  46
ENDBRANCH  33  40
ENDBRANCH  22  25
ENDBRANCH  21  22
ENDBRANCH   1  21
BRANCH   3  50
ATOM     50  C   LIG d   1       4.105   2.056  -9.255  0.00  0.00     0.419 C 
ATOM     51  F   LIG d   1       3.524   2.366 -10.489  0.00  0.00    -0.166 F 
ATOM     52  F   LIG d   1       3.210   2.368  -8.226  0.00  0.00    -0.166 F 
ATOM     53  F   LIG d   1       5.280   2.797  -9.092  0.00  0.00    -0.166 F 
ENDBRANCH   3  50
TORSDOF 7
ENDMDL
MODEL 6
REMARK VINA RESULT:      -7.2      3.623      6.115
REMARK  7 active torsions:
REMARK  status: ('A' for Active; 'I' for Inactive)
REMARK    1  A    between atoms: C_1  and  C_2 
REMARK    2  A    between atoms: C_2  and  C_3 
REMARK    3  A    between atoms: C_2  and  C_4 
REMARK    4  A    between atoms: C_10  and  C_15 
REMARK    5  A    between atoms: C_15  and  S_16 
REMARK    6  A    between atoms: S_16  and  C_17 
REMARK    7  A    between atoms: C_19  and  C_27 
ROOT
ATOM      1  C   LIG d   1       5.403  -3.387  -5.403  0.00  0.00     0.115 A 
ATOM      2  C   LIG d   1       6.220  -2.384  -5.956  0.00  0.00     0.095 A 
ATOM      3  C   LIG d   1       6.290  -1.150  -5.305  0.00  0.00     0.080 A 
ATOM      4  C   LIG d   1       5.553  -0.960  -4.143  0.00  0.00    -0.013 A 
ATOM      5  C   LIG d   1       4.768  -1.986  -3.661  0.00  0.00     0.046 A 
ATOM      6  N   LIG d   1       4.716  -3.149  -4.300  0.00  0.00    -0.244 NA
ATOM      7  C   LIG d   1       3.935  -1.845  -2.413  0.00  0.00    -0.010 C 
ATOM      8  C   LIG d   1       4.421  -0.665  -1.574  0.00  0.00    -0.047 C 
ATOM      9  C   LIG d   1       4.502   0.571  -2.478  0.00  0.00    -0.049 C 
ATOM     10  C   LIG d   1       5.660   0.375  -3.455  0.00  0.00    -0.025 C 
ATOM     11  C   LIG d   1       6.961  -2.622  -7.157  0.00  0.00     0.102 C 
ATOM     12  N   LIG d   1       7.550  -2.812  -8.110  0.00  0.00    -0.191 NA
ATOM     13  H   LIG d   1       2.893  -1.683  -2.692  0.00  0.00     0.033 H 
ATOM     14  H   LIG d   1       4.010  -2.759  -1.825  0.00  0.00     0.033 H 
ATOM     15  H   LIG d   1       3.719  -0.480  -0.761  0.00  0.00     0.027 H 
ATOM     16  H   LIG d   1       5.406  -0.887  -1.165  0.00  0.00     0.027 H 
ATOM     17  H   LIG d   1       3.569   0.683  -3.030  0.00  0.00     0.027 H 
ATOM     18  H   LIG d   1       4.679   1.459  -1.871  0.00  0.00     0.027 H 
ATOM     19  H   LIG d   1       6.602   0.426  -2.912  0.00  0.00     0.031 H 
ATOM     20  H   LIG d   1       5.635   1.168  -4.204  0.00  0.00     0.031 H 
ENDROOT
BRANCH   1  21
ATOM     21  S   LIG d   1       5.288  -4.960  -6.189  0.00  0.00    -0.100 SA
BRANCH  21  22
ATOM     22  C   LIG d   1       3.825  -4.690  -7.218  0.00  0.00     0.026 C 
ATOM     23  H   LIG d   1       3.228  -3.881  -6.797  0.00  0.00     0.043 H 
ATOM     24  H   LIG d   1       3.229  -5.603  -7.250  0.00  0.00     0.043 H 
BRANCH  22  25
ATOM     25  C   LIG d   1       4.254  -4.324  -8.616  0.00  0.00    -0.020 A 
ATOM     26  C   LIG d   1       4.052  -2.968  -9.136  0.00  0.00     0.022 A 
ATOM     27  C   LIG d   1       4.469  -2.671 -10.445  0.00  0.00     0.139 A 
ATOM     28  C   LIG d   1       3.457  -1.976  -8.350  0.00  0.00    -0.047 A 
ATOM     29  C   LIG d   1       4.280  -1.387 -10.945  0.00  0.00    -0.018 A 
ATOM     30  O   LIG d   1       5.044  -3.629 -11.202  0.00  0.00    -0.422 OA
ATOM     31  C   LIG d   1       3.686  -0.425 -10.156  0.00  0.00    -0.055 A 
ATOM     32  H   LIG d   1       4.595  -1.146 -11.949  0.00  0.00     0.065 H 
ATOM     33  C   LIG d   1       3.281  -0.721  -8.862  0.00  0.00    -0.044 A 
ATOM     34  H   LIG d   1       3.537   0.570 -10.548  0.00  0.00     0.062 H 
ATOM     35  C   LIG d   1       5.233  -4.873 -10.733  0.00  0.00     0.338 A 
ATOM     36  C   LIG d   1       4.840  -5.241  -9.428  0.00  0.00     0.028 A 
ATOM     37  O   LIG d   1       5.757  -5.704 -11.452  0.00  0.00    -0.245 OA
ATOM     38  H   LIG d   1       5.003  -6.249  -9.078  0.00  0.00     0.069 H 
ATOM     39  H   LIG d   1       3.135  -2.202  -7.344  0.00  0.00     0.063 H 
BRANCH  33  40
ATOM     40  C   LIG d   1       2.638   0.347  -8.016  0.00  0.00    -0.021 C 
ATOM     41  H   LIG d   1       1.554   0.258  -8.078  0.00  0.00     0.034 H 
BRANCH  40  42
ATOM     42  C   LIG d   1       3.066   1.727  -8.524  0.00  0.00    -0.059 C 
ATOM     43  H   LIG d   1       3.537   2.282  -7.713  0.00  0.00     0.024 H 
ATOM     44  H   LIG d   1       3.775   1.607  -9.343  0.00  0.00     0.024 H 
ATOM     45  H   LIG d   1       2.190   2.271  -8.877  0.00  0.00     0.024 H 
ENDBRANCH  40  42
BRANCH  40  46
ATOM     46  C   LIG d   1       3.081   0.180  -6.561  0.00  0.00    -0.059 C 
ATOM     47  H   LIG d   1       4.159   0.320  -6.491  0.00  0.00     0.024 H 
ATOM     48  H   LIG d   1       2.577   0.922  -5.941  0.00  0.00     0.024 H 
ATOM     49  H   LIG d   1       2.819  -0.819  -6.214  0.00  0.00     0.024 H 
ENDBRANCH  40  46
ENDBRANCH  33  40
ENDBRANCH  22  25
ENDBRANCH  21  22
ENDBRANCH   1  21
BRANCH   3  50
ATOM     50  C   LIG d   1       7.151  -0.041  -5.856  0.00  0.00     0.419 C 
ATOM     51  F   LIG d   1       6.623   0.396  -7.075  0.00  0.00    -0.166 F 
ATOM     52  F   LIG d   1       7.176   1.023  -4.948  0.00  0.00    -0.166 F 
ATOM     53  F   LIG d   1       8.452  -0.517  -6.054  0.00  0.00    -0.166 F 
ENDBRANCH   3  50
TORSDOF 7
ENDMDL
MODEL 7
REMARK VINA RESULT:      -7.2      7.510      9.762
REMARK  7 active torsions:
REMARK  status: ('A' for Active; 'I' for Inactive)
REMARK    1  A    between atoms: C_1  and  C_2 
REMARK    2  A    between atoms: C_2  and  C_3 
REMARK    3  A    between atoms: C_2  and  C_4 
REMARK    4  A    between atoms: C_10  and  C_15 
REMARK    5  A    between atoms: C_15  and  S_16 
REMARK    6  A    between atoms: S_16  and  C_17 
REMARK    7  A    between atoms: C_19  and  C_27 
ROOT
ATOM      1  C   LIG d   1      10.301   4.234  -3.107  0.00  0.00     0.115 A 
ATOM      2  C   LIG d   1      10.057   5.142  -4.153  0.00  0.00     0.095 A 
ATOM      3  C   LIG d   1       9.961   6.501  -3.844  0.00  0.00     0.080 A 
ATOM      4  C   LIG d   1      10.108   6.902  -2.521  0.00  0.00    -0.013 A 
ATOM      5  C   LIG d   1      10.340   5.955  -1.547  0.00  0.00     0.046 A 
ATOM      6  N   LIG d   1      10.425   4.669  -1.866  0.00  0.00    -0.244 NA
ATOM      7  C   LIG d   1      10.499   6.318  -0.093  0.00  0.00    -0.010 C 
ATOM      8  C   LIG d   1      10.814   7.805   0.057  0.00  0.00    -0.047 C 
ATOM      9  C   LIG d   1       9.770   8.604  -0.731  0.00  0.00    -0.049 C 
ATOM     10  C   LIG d   1      10.014   8.374  -2.221  0.00  0.00    -0.025 C 
ATOM     11  C   LIG d   1       9.909   4.685  -5.502  0.00  0.00     0.102 C 
ATOM     12  N   LIG d   1       9.793   4.322  -6.572  0.00  0.00    -0.191 NA
ATOM     13  H   LIG d   1       9.574   6.092   0.438  0.00  0.00     0.033 H 
ATOM     14  H   LIG d   1      11.311   5.734   0.338  0.00  0.00     0.033 H 
ATOM     15  H   LIG d   1      10.772   8.084   1.110  0.00  0.00     0.027 H 
ATOM     16  H   LIG d   1      11.809   8.011  -0.337  0.00  0.00     0.027 H 
ATOM     17  H   LIG d   1       8.770   8.262  -0.465  0.00  0.00     0.027 H 
ATOM     18  H   LIG d   1       9.869   9.665  -0.501  0.00  0.00     0.027 H 
ATOM     19  H   LIG d   1      10.943   8.861  -2.513  0.00  0.00     0.031 H 
ATOM     20  H   LIG d   1       9.190   8.805  -2.791  0.00  0.00     0.031 H 
ENDROOT
BRANCH   1  21
ATOM     21  S   LIG d   1      10.434   2.511  -3.452  0.00  0.00    -0.100 SA
BRANCH  21  22
ATOM     22  C   LIG d   1       8.688   2.103  -3.691  0.00  0.00     0.026 C 
ATOM     23  H   LIG d   1       8.195   2.915  -4.226  0.00  0.00     0.043 H 
ATOM     24  H   LIG d   1       8.210   1.964  -2.721  0.00  0.00     0.043 H 
BRANCH  22  25
ATOM     25  C   LIG d   1       8.575   0.831  -4.492  0.00  0.00    -0.020 A 
ATOM     26  C   LIG d   1       7.474  -0.110  -4.261  0.00  0.00     0.022 A 
ATOM     27  C   LIG d   1       7.408  -1.284  -5.032  0.00  0.00     0.139 A 
ATOM     28  C   LIG d   1       6.498   0.146  -3.293  0.00  0.00    -0.047 A 
ATOM     29  C   LIG d   1       6.368  -2.181  -4.818  0.00  0.00    -0.018 A 
ATOM     30  O   LIG d   1       8.351  -1.529  -5.967  0.00  0.00    -0.422 OA
ATOM     31  C   LIG d   1       5.418  -1.912  -3.855  0.00  0.00    -0.055 A 
ATOM     32  H   LIG d   1       6.305  -3.086  -5.403  0.00  0.00     0.065 H 
ATOM     33  C   LIG d   1       5.484  -0.750  -3.100  0.00  0.00    -0.044 A 
ATOM     34  H   LIG d   1       4.613  -2.613  -3.689  0.00  0.00     0.062 H 
ATOM     35  C   LIG d   1       9.361  -0.673  -6.184  0.00  0.00     0.338 A 
ATOM     36  C   LIG d   1       9.489   0.525  -5.448  0.00  0.00     0.028 A 
ATOM     37  O   LIG d   1      10.187  -0.936  -7.039  0.00  0.00    -0.245 OA
ATOM     38  H   LIG d   1      10.313   1.195  -5.643  0.00  0.00     0.069 H 
ATOM     39  H   LIG d   1       6.547   1.046  -2.699  0.00  0.00     0.063 H 
BRANCH  33  40
ATOM     40  C   LIG d   1       4.433  -0.475  -2.056  0.00  0.00    -0.021 C 
ATOM     41  H   LIG d   1       4.588  -1.133  -1.201  0.00  0.00     0.034 H 
BRANCH  40  42
ATOM     42  C   LIG d   1       3.045  -0.728  -2.649  0.00  0.00    -0.059 C 
ATOM     43  H   LIG d   1       2.409  -1.197  -1.898  0.00  0.00     0.024 H 
ATOM     44  H   LIG d   1       2.605   0.220  -2.958  0.00  0.00     0.024 H 
ATOM     45  H   LIG d   1       3.135  -1.387  -3.513  0.00  0.00     0.024 H 
ENDBRANCH  40  42
BRANCH  40  46
ATOM     46  C   LIG d   1       4.535   0.983  -1.602  0.00  0.00    -0.059 C 
ATOM     47  H   LIG d   1       4.695   1.018  -0.525  0.00  0.00     0.024 H 
ATOM     48  H   LIG d   1       5.371   1.464  -2.109  0.00  0.00     0.024 H 
ATOM     49  H   LIG d   1       3.611   1.506  -1.850  0.00  0.00     0.024 H 
ENDBRANCH  40  46
ENDBRANCH  33  40
ENDBRANCH  22  25
ENDBRANCH  21  22
ENDBRANCH   1  21
BRANCH   3  50
ATOM     50  C   LIG d   1       9.699   7.516  -4.928  0.00  0.00     0.419 C 
ATOM     51  F   LIG d   1      10.683   7.405  -5.917  0.00  0.00    -0.166 F 
ATOM     52  F   LIG d   1       8.441   7.281  -5.492  0.00  0.00    -0.166 F 
ATOM     53  F   LIG d   1       9.732   8.802  -4.378  0.00  0.00    -0.166 F 
ENDBRANCH   3  50
TORSDOF 7
ENDMDL
MODEL 8
REMARK VINA RESULT:      -7.2      4.125      6.890
REMARK  7 active torsions:
REMARK  status: ('A' for Active; 'I' for Inactive)
REMARK    1  A    between atoms: C_1  and  C_2 
REMARK    2  A    between atoms: C_2  and  C_3 
REMARK    3  A    between atoms: C_2  and  C_4 
REMARK    4  A    between atoms: C_10  and  C_15 
REMARK    5  A    between atoms: C_15  and  S_16 
REMARK    6  A    between atoms: S_16  and  C_17 
REMARK    7  A    between atoms: C_19  and  C_27 
ROOT
ATOM      1  C   LIG d   1       7.296  -2.242  -5.416  0.00  0.00     0.115 A 
ATOM      2  C   LIG d   1       7.838  -0.948  -5.325  0.00  0.00     0.095 A 
ATOM      3  C   LIG d   1       7.252  -0.042  -4.437  0.00  0.00     0.080 A 
ATOM      4  C   LIG d   1       6.160  -0.453  -3.681  0.00  0.00    -0.013 A 
ATOM      5  C   LIG d   1       5.678  -1.736  -3.827  0.00  0.00     0.046 A 
ATOM      6  N   LIG d   1       6.251  -2.576  -4.680  0.00  0.00    -0.244 NA
ATOM      7  C   LIG d   1       4.491  -2.243  -3.049  0.00  0.00    -0.010 C 
ATOM      8  C   LIG d   1       4.228  -1.356  -1.833  0.00  0.00    -0.047 C 
ATOM      9  C   LIG d   1       4.157   0.102  -2.304  0.00  0.00    -0.049 C 
ATOM     10  C   LIG d   1       5.559   0.540  -2.722  0.00  0.00    -0.025 C 
ATOM     11  C   LIG d   1       8.963  -0.566  -6.124  0.00  0.00     0.102 C 
ATOM     12  N   LIG d   1       9.857  -0.264  -6.757  0.00  0.00    -0.191 NA
ATOM     13  H   LIG d   1       3.611  -2.242  -3.692  0.00  0.00     0.033 H 
ATOM     14  H   LIG d   1       4.689  -3.261  -2.714  0.00  0.00     0.033 H 
ATOM     15  H   LIG d   1       3.282  -1.639  -1.371  0.00  0.00     0.027 H 
ATOM     16  H   LIG d   1       5.037  -1.471  -1.113  0.00  0.00     0.027 H 
ATOM     17  H   LIG d   1       3.478   0.180  -3.153  0.00  0.00     0.027 H 
ATOM     18  H   LIG d   1       3.802   0.734  -1.490  0.00  0.00     0.027 H 
ATOM     19  H   LIG d   1       6.192   0.615  -1.838  0.00  0.00     0.031 H 
ATOM     20  H   LIG d   1       5.502   1.516  -3.204  0.00  0.00     0.031 H 
ENDROOT
BRANCH   1  21
ATOM     21  S   LIG d   1       8.005  -3.417  -6.520  0.00  0.00    -0.100 SA
BRANCH  21  22
ATOM     22  C   LIG d   1       7.378  -2.787  -8.096  0.00  0.00     0.026 C 
ATOM     23  H   LIG d   1       7.901  -3.276  -8.918  0.00  0.00     0.043 H 
ATOM     24  H   LIG d   1       7.542  -1.710  -8.149  0.00  0.00     0.043 H 
BRANCH  22  25
ATOM     25  C   LIG d   1       5.901  -3.073  -8.199  0.00  0.00    -0.020 A 
ATOM     26  C   LIG d   1       4.957  -2.028  -8.606  0.00  0.00     0.022 A 
ATOM     27  C   LIG d   1       3.589  -2.341  -8.689  0.00  0.00     0.139 A 
ATOM     28  C   LIG d   1       5.399  -0.737  -8.910  0.00  0.00    -0.047 A 
ATOM     29  C   LIG d   1       2.688  -1.355  -9.074  0.00  0.00    -0.018 A 
ATOM     30  O   LIG d   1       3.164  -3.588  -8.396  0.00  0.00    -0.422 OA
ATOM     31  C   LIG d   1       3.143  -0.086  -9.364  0.00  0.00    -0.055 A 
ATOM     32  H   LIG d   1       1.634  -1.581  -9.141  0.00  0.00     0.065 H 
ATOM     33  C   LIG d   1       4.495   0.217  -9.286  0.00  0.00    -0.044 A 
ATOM     34  H   LIG d   1       2.440   0.679  -9.659  0.00  0.00     0.062 H 
ATOM     35  C   LIG d   1       4.023  -4.550  -8.023  0.00  0.00     0.338 A 
ATOM     36  C   LIG d   1       5.409  -4.307  -7.919  0.00  0.00     0.028 A 
ATOM     37  O   LIG d   1       3.594  -5.661  -7.769  0.00  0.00    -0.245 OA
ATOM     38  H   LIG d   1       6.077  -5.100  -7.615  0.00  0.00     0.069 H 
ATOM     39  H   LIG d   1       6.449  -0.494  -8.846  0.00  0.00     0.063 H 
BRANCH  33  40
ATOM     40  C   LIG d   1       4.970   1.609  -9.613  0.00  0.00    -0.021 C 
ATOM     41  H   LIG d   1       5.148   1.691 -10.685  0.00  0.00     0.034 H 
BRANCH  40  42
ATOM     42  C   LIG d   1       6.270   1.895  -8.856  0.00  0.00    -0.059 C 
ATOM     43  H   LIG d   1       6.727   0.955  -8.551  0.00  0.00     0.024 H 
ATOM     44  H   LIG d   1       6.955   2.439  -9.507  0.00  0.00     0.024 H 
ATOM     45  H   LIG d   1       6.051   2.497  -7.974  0.00  0.00     0.024 H 
ENDBRANCH  40  42
BRANCH  40  46
ATOM     46  C   LIG d   1       3.903   2.623  -9.194  0.00  0.00    -0.059 C 
ATOM     47  H   LIG d   1       4.386   3.516  -8.797  0.00  0.00     0.024 H 
ATOM     48  H   LIG d   1       3.298   2.892 -10.060  0.00  0.00     0.024 H 
ATOM     49  H   LIG d   1       3.265   2.183  -8.428  0.00  0.00     0.024 H 
ENDBRANCH  40  46
ENDBRANCH  33  40
ENDBRANCH  22  25
ENDBRANCH  21  22
ENDBRANCH   1  21
BRANCH   3  50
ATOM     50  C   LIG d   1       7.796   1.358  -4.301  0.00  0.00     0.419 C 
ATOM     51  F   LIG d   1       6.960   2.102  -3.461  0.00  0.00    -0.166 F 
ATOM     52  F   LIG d   1       9.082   1.306  -3.753  0.00  0.00    -0.166 F 
ATOM     53  F   LIG d   1       7.849   1.961  -5.561  0.00  0.00    -0.166 F 
ENDBRANCH   3  50
TORSDOF 7
ENDMDL
MODEL 9
REMARK VINA RESULT:      -7.1      1.921      2.537
REMARK  7 active torsions:
REMARK  status: ('A' for Active; 'I' for Inactive)
REMARK    1  A    between atoms: C_1  and  C_2 
REMARK    2  A    between atoms: C_2  and  C_3 
REMARK    3  A    between atoms: C_2  and  C_4 
REMARK    4  A    between atoms: C_10  and  C_15 
REMARK    5  A    between atoms: C_15  and  S_16 
REMARK    6  A    between atoms: S_16  and  C_17 
REMARK    7  A    between atoms: C_19  and  C_27 
ROOT
ATOM      1  C   LIG d   1       5.878  -1.873  -8.813  0.00  0.00     0.115 A 
ATOM      2  C   LIG d   1       4.660  -2.406  -9.273  0.00  0.00     0.095 A 
ATOM      3  C   LIG d   1       3.604  -1.528  -9.529  0.00  0.00     0.080 A 
ATOM      4  C   LIG d   1       3.796  -0.167  -9.318  0.00  0.00    -0.013 A 
ATOM      5  C   LIG d   1       5.015   0.284  -8.861  0.00  0.00     0.046 A 
ATOM      6  N   LIG d   1       6.002  -0.571  -8.622  0.00  0.00    -0.244 NA
ATOM      7  C   LIG d   1       5.287   1.744  -8.600  0.00  0.00    -0.010 C 
ATOM      8  C   LIG d   1       4.258   2.617  -9.315  0.00  0.00    -0.047 C 
ATOM      9  C   LIG d   1       2.857   2.113  -8.948  0.00  0.00    -0.049 C 
ATOM     10  C   LIG d   1       2.644   0.756  -9.617  0.00  0.00    -0.025 C 
ATOM     11  C   LIG d   1       4.506  -3.815  -9.474  0.00  0.00     0.102 C 
ATOM     12  N   LIG d   1       4.385  -4.933  -9.634  0.00  0.00    -0.191 NA
ATOM     13  H   LIG d   1       5.238   1.934  -7.528  0.00  0.00     0.033 H 
ATOM     14  H   LIG d   1       6.284   1.994  -8.963  0.00  0.00     0.033 H 
ATOM     15  H   LIG d   1       4.371   3.653  -8.995  0.00  0.00     0.027 H 
ATOM     16  H   LIG d   1       4.403   2.548 -10.393  0.00  0.00     0.027 H 
ATOM     17  H   LIG d   1       2.777   2.007  -7.866  0.00  0.00     0.027 H 
ATOM     18  H   LIG d   1       2.107   2.820  -9.304  0.00  0.00     0.027 H 
ATOM     19  H   LIG d   1       2.563   0.895 -10.694  0.00  0.00     0.031 H 
ATOM     20  H   LIG d   1       1.721   0.312  -9.242  0.00  0.00     0.031 H 
ENDROOT
BRANCH   1  21
ATOM     21  S   LIG d   1       7.237  -2.943  -8.482  0.00  0.00    -0.100 SA
BRANCH  21  22
ATOM     22  C   LIG d   1       7.467  -2.622  -6.716  0.00  0.00     0.026 C 
ATOM     23  H   LIG d   1       7.454  -1.547  -6.537  0.00  0.00     0.043 H 
ATOM     24  H   LIG d   1       8.425  -3.032  -6.393  0.00  0.00     0.043 H 
BRANCH  22  25
ATOM     25  C   LIG d   1       6.354  -3.275  -5.937  0.00  0.00    -0.020 A 
ATOM     26  C   LIG d   1       5.748  -2.606  -4.783  0.00  0.00     0.022 A 
ATOM     27  C   LIG d   1       4.712  -3.253  -4.086  0.00  0.00     0.139 A 
ATOM     28  C   LIG d   1       6.183  -1.342  -4.372  0.00  0.00    -0.047 A 
ATOM     29  C   LIG d   1       4.133  -2.624  -2.991  0.00  0.00    -0.018 A 
ATOM     30  O   LIG d   1       4.292  -4.472  -4.485  0.00  0.00    -0.422 OA
ATOM     31  C   LIG d   1       4.580  -1.380  -2.598  0.00  0.00    -0.055 A 
ATOM     32  H   LIG d   1       3.336  -3.110  -2.447  0.00  0.00     0.065 H 
ATOM     33  C   LIG d   1       5.599  -0.743  -3.292  0.00  0.00    -0.044 A 
ATOM     34  H   LIG d   1       4.131  -0.896  -1.744  0.00  0.00     0.062 H 
ATOM     35  C   LIG d   1       4.843  -5.092  -5.541  0.00  0.00     0.338 A 
ATOM     36  C   LIG d   1       5.885  -4.501  -6.287  0.00  0.00     0.028 A 
ATOM     37  O   LIG d   1       4.431  -6.191  -5.864  0.00  0.00    -0.245 OA
ATOM     38  H   LIG d   1       6.310  -5.022  -7.131  0.00  0.00     0.069 H 
ATOM     39  H   LIG d   1       6.979  -0.844  -4.905  0.00  0.00     0.063 H 
BRANCH  33  40
ATOM     40  C   LIG d   1       6.069   0.618  -2.847  0.00  0.00    -0.021 C 
ATOM     41  H   LIG d   1       6.548   0.538  -1.872  0.00  0.00     0.034 H 
BRANCH  40  42
ATOM     42  C   LIG d   1       4.871   1.566  -2.750  0.00  0.00    -0.059 C 
ATOM     43  H   LIG d   1       4.365   1.611  -3.714  0.00  0.00     0.024 H 
ATOM     44  H   LIG d   1       4.178   1.197  -1.993  0.00  0.00     0.024 H 
ATOM     45  H   LIG d   1       5.217   2.561  -2.473  0.00  0.00     0.024 H 
ENDBRANCH  40  42
BRANCH  40  46
ATOM     46  C   LIG d   1       7.072   1.168  -3.865  0.00  0.00    -0.059 C 
ATOM     47  H   LIG d   1       6.864   2.222  -4.046  0.00  0.00     0.024 H 
ATOM     48  H   LIG d   1       8.083   1.059  -3.473  0.00  0.00     0.024 H 
ATOM     49  H   LIG d   1       6.983   0.614  -4.798  0.00  0.00     0.024 H 
ENDBRANCH  40  46
ENDBRANCH  33  40
ENDBRANCH  22  25
ENDBRANCH  21  22
ENDBRANCH   1  21
BRANCH   3  50
ATOM     50  C   LIG d   1       2.278  -2.048 -10.023  0.00  0.00     0.419 C 
ATOM     51  F   LIG d   1       2.011  -3.285  -9.427  0.00  0.00    -0.166 F 
ATOM     52  F   LIG d   1       1.268  -1.140  -9.688  0.00  0.00    -0.166 F 
ATOM     53  F   LIG d   1       2.327  -2.199 -11.413  0.00  0.00    -0.166 F 
ENDBRANCH   3  50
TORSDOF 7
ENDMDL
MODEL 10
REMARK VINA RESULT:      -7.1      8.148     10.178
REMARK  7 active torsions:
REMARK  status: ('A' for Active; 'I' for Inactive)
REMARK    1  A    between atoms: C_1  and  C_2 
REMARK    2  A    between atoms: C_2  and  C_3 
REMARK    3  A    between atoms: C_2  and  C_4 
REMARK    4  A    between atoms: C_10  and  C_15 
REMARK    5  A    between atoms: C_15  and  S_16 
REMARK    6  A    between atoms: S_16  and  C_17 
REMARK    7  A    between atoms: C_19  and  C_27 
ROOT
ATOM      1  C   LIG d   1       9.913   5.063  -3.833  0.00  0.00     0.115 A 
ATOM      2  C   LIG d   1      10.033   6.164  -2.967  0.00  0.00     0.095 A 
ATOM      3  C   LIG d   1       9.999   7.448  -3.515  0.00  0.00     0.080 A 
ATOM      4  C   LIG d   1       9.849   7.589  -4.889  0.00  0.00    -0.013 A 
ATOM      5  C   LIG d   1       9.743   6.464  -5.679  0.00  0.00     0.046 A 
ATOM      6  N   LIG d   1       9.781   5.254  -5.134  0.00  0.00    -0.244 NA
ATOM      7  C   LIG d   1       9.590   6.543  -7.176  0.00  0.00    -0.010 C 
ATOM      8  C   LIG d   1       9.129   7.937  -7.596  0.00  0.00    -0.047 C 
ATOM      9  C   LIG d   1      10.064   8.970  -6.954  0.00  0.00    -0.049 C 
ATOM     10  C   LIG d   1       9.802   8.986  -5.449  0.00  0.00    -0.025 C 
ATOM     11  C   LIG d   1      10.188   5.973  -1.556  0.00  0.00     0.102 C 
ATOM     12  N   LIG d   1      10.310   5.821  -0.437  0.00  0.00    -0.191 NA
ATOM     13  H   LIG d   1      10.548   6.324  -7.648  0.00  0.00     0.033 H 
ATOM     14  H   LIG d   1       8.854   5.808  -7.502  0.00  0.00     0.033 H 
ATOM     15  H   LIG d   1       9.172   8.027  -8.681  0.00  0.00     0.027 H 
ATOM     16  H   LIG d   1       8.107   8.104  -7.255  0.00  0.00     0.027 H 
ATOM     17  H   LIG d   1      11.100   8.694  -7.145  0.00  0.00     0.027 H 
ATOM     18  H   LIG d   1       9.863   9.957  -7.373  0.00  0.00     0.027 H 
ATOM     19  H   LIG d   1       8.819   9.416  -5.260  0.00  0.00     0.031 H 
ATOM     20  H   LIG d   1      10.561   9.596  -4.959  0.00  0.00     0.031 H 
ENDROOT
BRANCH   1  21
ATOM     21  S   LIG d   1       9.946   3.425  -3.185  0.00  0.00    -0.100 SA
BRANCH  21  22
ATOM     22  C   LIG d   1       8.399   2.784  -3.870  0.00  0.00     0.026 C 
ATOM     23  H   LIG d   1       8.084   3.411  -4.704  0.00  0.00     0.043 H 
ATOM     24  H   LIG d   1       7.629   2.790  -3.098  0.00  0.00     0.043 H 
BRANCH  22  25
ATOM     25  C   LIG d   1       8.611   1.372  -4.354  0.00  0.00    -0.020 A 
ATOM     26  C   LIG d   1       7.656   0.310  -4.024  0.00  0.00     0.022 A 
ATOM     27  C   LIG d   1       7.894  -0.992  -4.498  0.00  0.00     0.139 A 
ATOM     28  C   LIG d   1       6.521   0.576  -3.252  0.00  0.00    -0.047 A 
ATOM     29  C   LIG d   1       6.992  -2.004  -4.189  0.00  0.00    -0.018 A 
ATOM     30  O   LIG d   1       8.990  -1.247  -5.244  0.00  0.00    -0.422 OA
ATOM     31  C   LIG d   1       5.882  -1.722  -3.421  0.00  0.00    -0.055 A 
ATOM     32  H   LIG d   1       7.163  -3.008  -4.546  0.00  0.00     0.065 H 
ATOM     33  C   LIG d   1       5.648  -0.434  -2.961  0.00  0.00    -0.044 A 
ATOM     34  H   LIG d   1       5.185  -2.511  -3.180  0.00  0.00     0.062 H 
ATOM     35  C   LIG d   1       9.869  -0.280  -5.550  0.00  0.00     0.338 A 
ATOM     36  C   LIG d   1       9.693   1.049  -5.109  0.00  0.00     0.028 A 
ATOM     37  O   LIG d   1      10.843  -0.558  -6.226  0.00  0.00    -0.245 OA
ATOM     38  H   LIG d   1      10.417   1.807  -5.369  0.00  0.00     0.069 H 
ATOM     39  H   LIG d   1       6.336   1.576  -2.887  0.00  0.00     0.063 H 
BRANCH  33  40
ATOM     40  C   LIG d   1       4.425  -0.148  -2.128  0.00  0.00    -0.021 C 
ATOM     41  H   LIG d   1       4.637  -0.369  -1.082  0.00  0.00     0.034 H 
BRANCH  40  42
ATOM     42  C   LIG d   1       3.264  -1.021  -2.608  0.00  0.00    -0.059 C 
ATOM     43  H   LIG d   1       3.136  -1.862  -1.927  0.00  0.00     0.024 H 
ATOM     44  H   LIG d   1       2.349  -0.429  -2.629  0.00  0.00     0.024 H 
ATOM     45  H   LIG d   1       3.480  -1.393  -3.610  0.00  0.00     0.024 H 
ENDBRANCH  40  42
BRANCH  40  46
ATOM     46  C   LIG d   1       4.045   1.328  -2.270  0.00  0.00    -0.059 C 
ATOM     47  H   LIG d   1       4.774   1.943  -1.742  0.00  0.00     0.024 H 
ATOM     48  H   LIG d   1       4.037   1.600  -3.325  0.00  0.00     0.024 H 
ATOM     49  H   LIG d   1       3.055   1.491  -1.845  0.00  0.00     0.024 H 
ENDBRANCH  40  46
ENDBRANCH  33  40
ENDBRANCH  22  25
ENDBRANCH  21  22
ENDBRANCH   1  21
BRANCH   3  50
ATOM     50  C   LIG d   1      10.124   8.662  -2.629  0.00  0.00     0.419 C 
ATOM     51  F   LIG d   1      11.414   8.716  -2.092  0.00  0.00    -0.166 F 
ATOM     52  F   LIG d   1       9.884   9.815  -3.385  0.00  0.00    -0.166 F 
ATOM     53  F   LIG d   1       9.189   8.581  -1.593  0.00  0.00    -0.166 F 
ENDBRANCH   3  50
TORSDOF 7
ENDMDL
