MODEL 1
REMARK VINA RESULT:      -5.0      0.000      0.000
REMARK  5 active torsions:
REMARK  status: ('A' for Active; 'I' for Inactive)
REMARK    1  A    between atoms: C_1  and  C_2 
REMARK    2  A    between atoms: C_3  and  C_13 
REMARK    3  A    between atoms: C_6  and  O_11 
REMARK    4  A    between atoms: O_11  and  C_12 
REMARK    5  A    between atoms: C_16  and  N_18 
ROOT
ATOM      1  C   LIG d   1       4.718  -2.747  -6.894  0.00  0.00     0.112 A 
ATOM      2  C   LIG d   1       4.229  -1.509  -6.653  0.00  0.00     0.049 A 
ATOM      3  C   LIG d   1       4.121  -1.396  -5.187  0.00  0.00     0.033 A 
ATOM      4  C   LIG d   1       3.695  -0.392  -4.321  0.00  0.00    -0.009 A 
ATOM      5  C   LIG d   1       3.717  -0.614  -2.957  0.00  0.00     0.121 A 
ATOM      6  C   LIG d   1       4.171  -1.830  -2.454  0.00  0.00    -0.016 A 
ATOM      7  C   LIG d   1       4.593  -2.828  -3.306  0.00  0.00    -0.015 A 
ATOM      8  C   LIG d   1       4.574  -2.624  -4.680  0.00  0.00     0.136 A 
ATOM      9  O   LIG d   1       4.918  -3.394  -5.733  0.00  0.00    -0.459 OA
ATOM     10  H   LIG d   1       3.347   0.552  -4.711  0.00  0.00     0.066 H 
ATOM     11  H   LIG d   1       4.188  -1.996  -1.387  0.00  0.00     0.066 H 
ATOM     12  H   LIG d   1       4.940  -3.768  -2.906  0.00  0.00     0.066 H 
ENDROOT
BRANCH   2  13
ATOM     13  C   LIG d   1       3.873  -0.478  -7.658  0.00  0.00     0.084 A 
ATOM     14  N   LIG d   1       4.692   0.546  -7.890  0.00  0.00    -0.225 NA
ATOM     15  C   LIG d   1       4.393   1.470  -8.785  0.00  0.00     0.156 A 
ATOM     16  S   LIG d   1       2.810   0.894  -9.378  0.00  0.00    -0.060 SA
ATOM     17  C   LIG d   1       2.700  -0.566  -8.352  0.00  0.00     0.005 A 
ATOM     18  H   LIG d   1       1.921  -1.311  -8.296  0.00  0.00     0.072 H 
BRANCH  15  19
ATOM     19  N   LIG d   1       5.115   2.592  -9.160  0.00  0.00    -0.338 N 
ATOM     20  H   LIG d   1       5.689   2.560  -9.941  0.00  0.00     0.144 HD
ATOM     21  H   LIG d   1       5.047   3.409  -8.641  0.00  0.00     0.144 HD
ENDBRANCH  15  19
ENDBRANCH   2  13
BRANCH   1  22
ATOM     22  C   LIG d   1       4.998  -3.315  -8.261  0.00  0.00    -0.006 C 
ATOM     23  H   LIG d   1       5.564  -2.591  -8.848  0.00  0.00     0.031 H 
ATOM     24  H   LIG d   1       5.578  -4.233  -8.161  0.00  0.00     0.031 H 
ATOM     25  H   LIG d   1       4.056  -3.534  -8.764  0.00  0.00     0.031 H 
ENDBRANCH   1  22
BRANCH   5  26
ATOM     26  O   LIG d   1       3.299   0.358  -2.103  0.00  0.00    -0.495 OA
BRANCH  26  27
ATOM     27  C   LIG d   1       4.230   1.397  -1.797  0.00  0.00     0.079 C 
ATOM     28  H   LIG d   1       3.690   2.277  -1.445  0.00  0.00     0.066 H 
ATOM     29  H   LIG d   1       4.914   1.056  -1.020  0.00  0.00     0.066 H 
ATOM     30  H   LIG d   1       4.796   1.653  -2.692  0.00  0.00     0.066 H 
ENDBRANCH  26  27
ENDBRANCH   5  26
TORSDOF 5
ENDMDL
MODEL 2
REMARK VINA RESULT:      -5.0      4.190      6.132
REMARK  5 active torsions:
REMARK  status: ('A' for Active; 'I' for Inactive)
REMARK    1  A    between atoms: C_1  and  C_2 
REMARK    2  A    between atoms: C_3  and  C_13 
REMARK    3  A    between atoms: C_6  and  O_11 
REMARK    4  A    between atoms: O_11  and  C_12 
REMARK    5  A    between atoms: C_16  and  N_18 
ROOT
ATOM      1  C   LIG d   1       3.412  -0.805 -12.220  0.00  0.00     0.112 A 
ATOM      2  C   LIG d   1       2.953  -1.264 -11.033  0.00  0.00     0.049 A 
ATOM      3  C   LIG d   1       3.103  -0.147 -10.083  0.00  0.00     0.033 A 
ATOM      4  C   LIG d   1       2.820   0.019  -8.729  0.00  0.00    -0.009 A 
ATOM      5  C   LIG d   1       3.094   1.229  -8.119  0.00  0.00     0.121 A 
ATOM      6  C   LIG d   1       3.638   2.276  -8.857  0.00  0.00    -0.016 A 
ATOM      7  C   LIG d   1       3.921   2.118 -10.196  0.00  0.00    -0.015 A 
ATOM      8  C   LIG d   1       3.658   0.907 -10.825  0.00  0.00     0.136 A 
ATOM      9  O   LIG d   1       3.823   0.469 -12.090  0.00  0.00    -0.459 OA
ATOM     10  H   LIG d   1       2.394  -0.792  -8.159  0.00  0.00     0.066 H 
ATOM     11  H   LIG d   1       3.846   3.219  -8.374  0.00  0.00     0.066 H 
ATOM     12  H   LIG d   1       4.347   2.936 -10.758  0.00  0.00     0.066 H 
ENDROOT
BRANCH   2  13
ATOM     13  C   LIG d   1       2.411  -2.615 -10.748  0.00  0.00     0.084 A 
ATOM     14  N   LIG d   1       1.097  -2.804 -10.649  0.00  0.00    -0.225 NA
ATOM     15  C   LIG d   1       0.597  -4.001 -10.400  0.00  0.00     0.156 A 
ATOM     16  S   LIG d   1       2.080  -4.989 -10.273  0.00  0.00    -0.060 SA
ATOM     17  C   LIG d   1       3.254  -3.675 -10.578  0.00  0.00     0.005 A 
ATOM     18  H   LIG d   1       4.333  -3.711 -10.618  0.00  0.00     0.072 H 
BRANCH  15  19
ATOM     19  N   LIG d   1      -0.727  -4.387 -10.268  0.00  0.00    -0.338 N 
ATOM     20  H   LIG d   1      -1.217  -4.172  -9.459  0.00  0.00     0.144 HD
ATOM     21  H   LIG d   1      -1.165  -4.874 -10.985  0.00  0.00     0.144 HD
ENDBRANCH  15  19
ENDBRANCH   2  13
BRANCH   1  22
ATOM     22  C   LIG d   1       3.455  -1.602 -13.497  0.00  0.00    -0.006 C 
ATOM     23  H   LIG d   1       3.936  -2.562 -13.312  0.00  0.00     0.031 H 
ATOM     24  H   LIG d   1       2.439  -1.769 -13.856  0.00  0.00     0.031 H 
ATOM     25  H   LIG d   1       4.020  -1.052 -14.250  0.00  0.00     0.031 H 
ENDBRANCH   1  22
BRANCH   5  26
ATOM     26  O   LIG d   1       2.825   1.400  -6.798  0.00  0.00    -0.495 OA
BRANCH  26  27
ATOM     27  C   LIG d   1       2.870   0.236  -5.970  0.00  0.00     0.079 C 
ATOM     28  H   LIG d   1       1.955  -0.342  -6.103  0.00  0.00     0.066 H 
ATOM     29  H   LIG d   1       3.729  -0.375  -6.248  0.00  0.00     0.066 H 
ATOM     30  H   LIG d   1       2.962   0.536  -4.926  0.00  0.00     0.066 H 
ENDBRANCH  26  27
ENDBRANCH   5  26
TORSDOF 5
ENDMDL
MODEL 3
REMARK VINA RESULT:      -4.9      4.056      5.310
REMARK  5 active torsions:
REMARK  status: ('A' for Active; 'I' for Inactive)
REMARK    1  A    between atoms: C_1  and  C_2 
REMARK    2  A    between atoms: C_3  and  C_13 
REMARK    3  A    between atoms: C_6  and  O_11 
REMARK    4  A    between atoms: O_11  and  C_12 
REMARK    5  A    between atoms: C_16  and  N_18 
ROOT
ATOM      1  C   LIG d   1       7.395   1.412  -3.724  0.00  0.00     0.112 A 
ATOM      2  C   LIG d   1       7.422   0.265  -4.440  0.00  0.00     0.049 A 
ATOM      3  C   LIG d   1       6.311  -0.557  -3.928  0.00  0.00     0.033 A 
ATOM      4  C   LIG d   1       5.816  -1.821  -4.240  0.00  0.00    -0.009 A 
ATOM      5  C   LIG d   1       4.729  -2.318  -3.546  0.00  0.00     0.121 A 
ATOM      6  C   LIG d   1       4.129  -1.555  -2.549  0.00  0.00    -0.016 A 
ATOM      7  C   LIG d   1       4.614  -0.304  -2.234  0.00  0.00    -0.015 A 
ATOM      8  C   LIG d   1       5.709   0.210  -2.918  0.00  0.00     0.136 A 
ATOM      9  O   LIG d   1       6.388   1.372  -2.834  0.00  0.00    -0.459 OA
ATOM     10  H   LIG d   1       6.280  -2.411  -5.016  0.00  0.00     0.066 H 
ATOM     11  H   LIG d   1       3.277  -1.948  -2.013  0.00  0.00     0.066 H 
ATOM     12  H   LIG d   1       4.143   0.278  -1.456  0.00  0.00     0.066 H 
ENDROOT
BRANCH   2  13
ATOM     13  C   LIG d   1       8.375  -0.091  -5.519  0.00  0.00     0.084 A 
ATOM     14  N   LIG d   1       9.532  -0.681  -5.226  0.00  0.00    -0.225 NA
ATOM     15  C   LIG d   1      10.391  -1.010  -6.175  0.00  0.00     0.156 A 
ATOM     16  S   LIG d   1       9.539  -0.444  -7.639  0.00  0.00    -0.060 SA
ATOM     17  C   LIG d   1       8.079   0.187  -6.822  0.00  0.00     0.005 A 
ATOM     18  H   LIG d   1       7.203   0.658  -7.243  0.00  0.00     0.072 H 
BRANCH  15  19
ATOM     19  N   LIG d   1      11.627  -1.626  -6.063  0.00  0.00    -0.338 N 
ATOM     20  H   LIG d   1      12.039  -1.730  -5.192  0.00  0.00     0.144 HD
ATOM     21  H   LIG d   1      12.080  -1.953  -6.857  0.00  0.00     0.144 HD
ENDBRANCH  15  19
ENDBRANCH   2  13
BRANCH   1  22
ATOM     22  C   LIG d   1       8.351   2.563  -3.898  0.00  0.00    -0.006 C 
ATOM     23  H   LIG d   1       8.157   3.316  -3.134  0.00  0.00     0.031 H 
ATOM     24  H   LIG d   1       9.376   2.203  -3.800  0.00  0.00     0.031 H 
ATOM     25  H   LIG d   1       8.214   3.003  -4.886  0.00  0.00     0.031 H 
ENDBRANCH   1  22
BRANCH   5  26
ATOM     26  O   LIG d   1       4.241  -3.552  -3.841  0.00  0.00    -0.495 OA
BRANCH  26  27
ATOM     27  C   LIG d   1       4.787  -4.211  -4.985  0.00  0.00     0.079 C 
ATOM     28  H   LIG d   1       4.086  -4.138  -5.816  0.00  0.00     0.066 H 
ATOM     29  H   LIG d   1       5.729  -3.737  -5.261  0.00  0.00     0.066 H 
ATOM     30  H   LIG d   1       4.964  -5.260  -4.750  0.00  0.00     0.066 H 
ENDBRANCH  26  27
ENDBRANCH   5  26
TORSDOF 5
ENDMDL
MODEL 4
REMARK VINA RESULT:      -4.9      3.323      3.695
REMARK  5 active torsions:
REMARK  status: ('A' for Active; 'I' for Inactive)
REMARK    1  A    between atoms: C_1  and  C_2 
REMARK    2  A    between atoms: C_3  and  C_13 
REMARK    3  A    between atoms: C_6  and  O_11 
REMARK    4  A    between atoms: O_11  and  C_12 
REMARK    5  A    between atoms: C_16  and  N_18 
ROOT
ATOM      1  C   LIG d   1       4.842  -3.949  -4.815  0.00  0.00     0.112 A 
ATOM      2  C   LIG d   1       5.705  -2.984  -5.207  0.00  0.00     0.049 A 
ATOM      3  C   LIG d   1       5.543  -1.880  -4.243  0.00  0.00     0.033 A 
ATOM      4  C   LIG d   1       6.131  -0.626  -4.098  0.00  0.00    -0.009 A 
ATOM      5  C   LIG d   1       5.739   0.194  -3.056  0.00  0.00     0.121 A 
ATOM      6  C   LIG d   1       4.770  -0.237  -2.155  0.00  0.00    -0.016 A 
ATOM      7  C   LIG d   1       4.184  -1.476  -2.294  0.00  0.00    -0.015 A 
ATOM      8  C   LIG d   1       4.562  -2.312  -3.338  0.00  0.00     0.136 A 
ATOM      9  O   LIG d   1       4.176  -3.547  -3.718  0.00  0.00    -0.459 OA
ATOM     10  H   LIG d   1       6.885  -0.295  -4.795  0.00  0.00     0.066 H 
ATOM     11  H   LIG d   1       4.471   0.407  -1.342  0.00  0.00     0.066 H 
ATOM     12  H   LIG d   1       3.430  -1.799  -1.591  0.00  0.00     0.066 H 
ENDROOT
BRANCH   2  13
ATOM     13  C   LIG d   1       6.626  -3.029  -6.369  0.00  0.00     0.084 A 
ATOM     14  N   LIG d   1       6.230  -2.577  -7.557  0.00  0.00    -0.225 NA
ATOM     15  C   LIG d   1       7.038  -2.605  -8.602  0.00  0.00     0.156 A 
ATOM     16  S   LIG d   1       8.506  -3.341  -7.899  0.00  0.00    -0.060 SA
ATOM     17  C   LIG d   1       7.884  -3.539  -6.234  0.00  0.00     0.005 A 
ATOM     18  H   LIG d   1       8.371  -3.949  -5.361  0.00  0.00     0.072 H 
BRANCH  15  19
ATOM     19  N   LIG d   1       6.806  -2.181  -9.900  0.00  0.00    -0.338 N 
ATOM     20  H   LIG d   1       7.314  -2.563 -10.633  0.00  0.00     0.144 HD
ATOM     21  H   LIG d   1       6.137  -1.500 -10.076  0.00  0.00     0.144 HD
ENDBRANCH  15  19
ENDBRANCH   2  13
BRANCH   1  22
ATOM     22  C   LIG d   1       4.656  -5.275  -5.503  0.00  0.00    -0.006 C 
ATOM     23  H   LIG d   1       3.838  -5.819  -5.031  0.00  0.00     0.031 H 
ATOM     24  H   LIG d   1       4.421  -5.109  -6.555  0.00  0.00     0.031 H 
ATOM     25  H   LIG d   1       5.574  -5.858  -5.424  0.00  0.00     0.031 H 
ENDBRANCH   1  22
BRANCH   5  26
ATOM     26  O   LIG d   1       6.304   1.421  -2.908  0.00  0.00    -0.495 OA
BRANCH  26  27
ATOM     27  C   LIG d   1       7.447   1.712  -3.715  0.00  0.00     0.079 C 
ATOM     28  H   LIG d   1       8.312   1.172  -3.329  0.00  0.00     0.066 H 
ATOM     29  H   LIG d   1       7.254   1.404  -4.742  0.00  0.00     0.066 H 
ATOM     30  H   LIG d   1       7.647   2.783  -3.688  0.00  0.00     0.066 H 
ENDBRANCH  26  27
ENDBRANCH   5  26
TORSDOF 5
ENDMDL
MODEL 5
REMARK VINA RESULT:      -4.8      3.307      6.126
REMARK  5 active torsions:
REMARK  status: ('A' for Active; 'I' for Inactive)
REMARK    1  A    between atoms: C_1  and  C_2 
REMARK    2  A    between atoms: C_3  and  C_13 
REMARK    3  A    between atoms: C_6  and  O_11 
REMARK    4  A    between atoms: O_11  and  C_12 
REMARK    5  A    between atoms: C_16  and  N_18 
ROOT
ATOM      1  C   LIG d   1       3.127   0.228  -5.496  0.00  0.00     0.112 A 
ATOM      2  C   LIG d   1       4.066  -0.468  -6.176  0.00  0.00     0.049 A 
ATOM      3  C   LIG d   1       4.060   0.076  -7.546  0.00  0.00     0.033 A 
ATOM      4  C   LIG d   1       4.779  -0.207  -8.705  0.00  0.00    -0.009 A 
ATOM      5  C   LIG d   1       4.519   0.506  -9.860  0.00  0.00     0.121 A 
ATOM      6  C   LIG d   1       3.552   1.507  -9.860  0.00  0.00    -0.016 A 
ATOM      7  C   LIG d   1       2.836   1.791  -8.717  0.00  0.00    -0.015 A 
ATOM      8  C   LIG d   1       3.081   1.081  -7.548  0.00  0.00     0.136 A 
ATOM      9  O   LIG d   1       2.554   1.135  -6.307  0.00  0.00    -0.459 OA
ATOM     10  H   LIG d   1       5.532  -0.981  -8.703  0.00  0.00     0.066 H 
ATOM     11  H   LIG d   1       3.356   2.062 -10.765  0.00  0.00     0.066 H 
ATOM     12  H   LIG d   1       2.085   2.567  -8.729  0.00  0.00     0.066 H 
ENDROOT
BRANCH   2  13
ATOM     13  C   LIG d   1       4.925  -1.557  -5.650  0.00  0.00     0.084 A 
ATOM     14  N   LIG d   1       5.896  -1.286  -4.780  0.00  0.00    -0.225 NA
ATOM     15  C   LIG d   1       6.668  -2.244  -4.298  0.00  0.00     0.156 A 
ATOM     16  S   LIG d   1       6.010  -3.683  -5.126  0.00  0.00    -0.060 SA
ATOM     17  C   LIG d   1       4.732  -2.846  -6.055  0.00  0.00     0.005 A 
ATOM     18  H   LIG d   1       4.007  -3.249  -6.747  0.00  0.00     0.072 H 
BRANCH  15  19
ATOM     19  N   LIG d   1       7.712  -2.155  -3.393  0.00  0.00    -0.338 N 
ATOM     20  H   LIG d   1       7.582  -1.703  -2.545  0.00  0.00     0.144 HD
ATOM     21  H   LIG d   1       8.576  -2.544  -3.607  0.00  0.00     0.144 HD
ENDBRANCH  15  19
ENDBRANCH   2  13
BRANCH   1  22
ATOM     22  C   LIG d   1       2.776   0.020  -4.046  0.00  0.00    -0.006 C 
ATOM     23  H   LIG d   1       2.509  -1.024  -3.882  0.00  0.00     0.031 H 
ATOM     24  H   LIG d   1       3.635   0.277  -3.424  0.00  0.00     0.031 H 
ATOM     25  H   LIG d   1       1.933   0.658  -3.781  0.00  0.00     0.031 H 
ENDBRANCH   1  22
BRANCH   5  26
ATOM     26  O   LIG d   1       5.213   0.235 -10.997  0.00  0.00    -0.495 OA
BRANCH  26  27
ATOM     27  C   LIG d   1       4.455  -0.159 -12.142  0.00  0.00     0.079 C 
ATOM     28  H   LIG d   1       4.016  -1.142 -11.968  0.00  0.00     0.066 H 
ATOM     29  H   LIG d   1       3.661   0.567 -12.320  0.00  0.00     0.066 H 
ATOM     30  H   LIG d   1       5.108  -0.202 -13.013  0.00  0.00     0.066 H 
ENDBRANCH  26  27
ENDBRANCH   5  26
TORSDOF 5
ENDMDL
MODEL 6
REMARK VINA RESULT:      -4.8      8.460     10.505
REMARK  5 active torsions:
REMARK  status: ('A' for Active; 'I' for Inactive)
REMARK    1  A    between atoms: C_1  and  C_2 
REMARK    2  A    between atoms: C_3  and  C_13 
REMARK    3  A    between atoms: C_6  and  O_11 
REMARK    4  A    between atoms: O_11  and  C_12 
REMARK    5  A    between atoms: C_16  and  N_18 
ROOT
ATOM      1  C   LIG d   1       9.767   6.718  -3.857  0.00  0.00     0.112 A 
ATOM      2  C   LIG d   1      10.189   5.776  -2.983  0.00  0.00     0.049 A 
ATOM      3  C   LIG d   1      10.434   6.484  -1.714  0.00  0.00     0.033 A 
ATOM      4  C   LIG d   1      10.872   6.088  -0.452  0.00  0.00    -0.009 A 
ATOM      5  C   LIG d   1      11.002   7.031   0.551  0.00  0.00     0.121 A 
ATOM      6  C   LIG d   1      10.688   8.363   0.302  0.00  0.00    -0.016 A 
ATOM      7  C   LIG d   1      10.254   8.762  -0.944  0.00  0.00    -0.015 A 
ATOM      8  C   LIG d   1      10.122   7.829  -1.966  0.00  0.00     0.136 A 
ATOM      9  O   LIG d   1       9.730   7.919  -3.253  0.00  0.00    -0.459 OA
ATOM     10  H   LIG d   1      11.112   5.054  -0.259  0.00  0.00     0.066 H 
ATOM     11  H   LIG d   1      10.788   9.093   1.091  0.00  0.00     0.066 H 
ATOM     12  H   LIG d   1      10.017   9.798  -1.127  0.00  0.00     0.066 H 
ENDROOT
BRANCH   2  13
ATOM     13  C   LIG d   1      10.369   4.328  -3.250  0.00  0.00     0.084 A 
ATOM     14  N   LIG d   1       9.314   3.518  -3.297  0.00  0.00    -0.225 NA
ATOM     15  C   LIG d   1       9.455   2.226  -3.538  0.00  0.00     0.156 A 
ATOM     16  S   LIG d   1      11.228   2.087  -3.710  0.00  0.00    -0.060 SA
ATOM     17  C   LIG d   1      11.618   3.812  -3.443  0.00  0.00     0.005 A 
ATOM     18  H   LIG d   1      12.577   4.308  -3.437  0.00  0.00     0.072 H 
BRANCH  15  19
ATOM     19  N   LIG d   1       8.486   1.241  -3.628  0.00  0.00    -0.338 N 
ATOM     20  H   LIG d   1       8.154   0.812  -2.824  0.00  0.00     0.144 HD
ATOM     21  H   LIG d   1       8.139   0.980  -4.496  0.00  0.00     0.144 HD
ENDBRANCH  15  19
ENDBRANCH   2  13
BRANCH   1  22
ATOM     22  C   LIG d   1       9.393   6.461  -5.294  0.00  0.00    -0.006 C 
ATOM     23  H   LIG d   1       8.590   5.725  -5.335  0.00  0.00     0.031 H 
ATOM     24  H   LIG d   1       9.057   7.391  -5.754  0.00  0.00     0.031 H 
ATOM     25  H   LIG d   1      10.261   6.083  -5.833  0.00  0.00     0.031 H 
ENDBRANCH   1  22
BRANCH   5  26
ATOM     26  O   LIG d   1      11.433   6.655   1.784  0.00  0.00    -0.495 OA
BRANCH  26  27
ATOM     27  C   LIG d   1      10.822   5.500   2.362  0.00  0.00     0.079 C 
ATOM     28  H   LIG d   1      10.256   4.967   1.597  0.00  0.00     0.066 H 
ATOM     29  H   LIG d   1      11.593   4.845   2.767  0.00  0.00     0.066 H 
ATOM     30  H   LIG d   1      10.150   5.806   3.163  0.00  0.00     0.066 H 
ENDBRANCH  26  27
ENDBRANCH   5  26
TORSDOF 5
ENDMDL
MODEL 7
REMARK VINA RESULT:      -4.8      5.332      5.826
REMARK  5 active torsions:
REMARK  status: ('A' for Active; 'I' for Inactive)
REMARK    1  A    between atoms: C_1  and  C_2 
REMARK    2  A    between atoms: C_3  and  C_13 
REMARK    3  A    between atoms: C_6  and  O_11 
REMARK    4  A    between atoms: O_11  and  C_12 
REMARK    5  A    between atoms: C_16  and  N_18 
ROOT
ATOM      1  C   LIG d   1       9.270   0.046  -5.306  0.00  0.00     0.112 A 
ATOM      2  C   LIG d   1       8.698   0.940  -4.467  0.00  0.00     0.049 A 
ATOM      3  C   LIG d   1       7.477   0.291  -3.957  0.00  0.00     0.033 A 
ATOM      4  C   LIG d   1       6.470   0.677  -3.075  0.00  0.00    -0.009 A 
ATOM      5  C   LIG d   1       5.430  -0.192  -2.806  0.00  0.00     0.121 A 
ATOM      6  C   LIG d   1       5.396  -1.448  -3.405  0.00  0.00    -0.016 A 
ATOM      7  C   LIG d   1       6.388  -1.836  -4.278  0.00  0.00    -0.015 A 
ATOM      8  C   LIG d   1       7.440  -0.973  -4.565  0.00  0.00     0.136 A 
ATOM      9  O   LIG d   1       8.526  -1.073  -5.358  0.00  0.00    -0.459 OA
ATOM     10  H   LIG d   1       6.499   1.650  -2.609  0.00  0.00     0.066 H 
ATOM     11  H   LIG d   1       4.582  -2.124  -3.187  0.00  0.00     0.066 H 
ATOM     12  H   LIG d   1       6.351  -2.811  -4.740  0.00  0.00     0.066 H 
ENDROOT
BRANCH   2  13
ATOM     13  C   LIG d   1       9.199   2.295  -4.131  0.00  0.00     0.084 A 
ATOM     14  N   LIG d   1       9.941   2.487  -3.044  0.00  0.00    -0.225 NA
ATOM     15  C   LIG d   1      10.399   3.686  -2.732  0.00  0.00     0.156 A 
ATOM     16  S   LIG d   1       9.738   4.678  -4.062  0.00  0.00    -0.060 SA
ATOM     17  C   LIG d   1       8.898   3.360  -4.931  0.00  0.00     0.005 A 
ATOM     18  H   LIG d   1       8.313   3.396  -5.838  0.00  0.00     0.072 H 
BRANCH  15  19
ATOM     19  N   LIG d   1      11.181   4.072  -1.656  0.00  0.00    -0.338 N 
ATOM     20  H   LIG d   1      11.304   3.471  -0.905  0.00  0.00     0.144 HD
ATOM     21  H   LIG d   1      11.606   4.945  -1.653  0.00  0.00     0.144 HD
ENDBRANCH  15  19
ENDBRANCH   2  13
BRANCH   1  22
ATOM     22  C   LIG d   1      10.550   0.270  -6.068  0.00  0.00    -0.006 C 
ATOM     23  H   LIG d   1      10.952   1.253  -5.823  0.00  0.00     0.031 H 
ATOM     24  H   LIG d   1      11.275  -0.497  -5.793  0.00  0.00     0.031 H 
ATOM     25  H   LIG d   1      10.350   0.214  -7.138  0.00  0.00     0.031 H 
ENDBRANCH   1  22
BRANCH   5  26
ATOM     26  O   LIG d   1       4.440   0.177  -1.950  0.00  0.00    -0.495 OA
BRANCH  26  27
ATOM     27  C   LIG d   1       3.601   1.259  -2.355  0.00  0.00     0.079 C 
ATOM     28  H   LIG d   1       4.173   2.187  -2.346  0.00  0.00     0.066 H 
ATOM     29  H   LIG d   1       3.227   1.072  -3.361  0.00  0.00     0.066 H 
ATOM     30  H   LIG d   1       2.761   1.345  -1.666  0.00  0.00     0.066 H 
ENDBRANCH  26  27
ENDBRANCH   5  26
TORSDOF 5
ENDMDL
MODEL 8
REMARK VINA RESULT:      -4.8      3.486      5.677
REMARK  5 active torsions:
REMARK  status: ('A' for Active; 'I' for Inactive)
REMARK    1  A    between atoms: C_1  and  C_2 
REMARK    2  A    between atoms: C_3  and  C_13 
REMARK    3  A    between atoms: C_6  and  O_11 
REMARK    4  A    between atoms: O_11  and  C_12 
REMARK    5  A    between atoms: C_16  and  N_18 
ROOT
ATOM      1  C   LIG d   1       3.959  -1.477  -3.821  0.00  0.00     0.112 A 
ATOM      2  C   LIG d   1       4.824  -1.741  -4.826  0.00  0.00     0.049 A 
ATOM      3  C   LIG d   1       4.398  -0.899  -5.959  0.00  0.00     0.033 A 
ATOM      4  C   LIG d   1       4.864  -0.712  -7.257  0.00  0.00    -0.009 A 
ATOM      5  C   LIG d   1       4.214   0.176  -8.094  0.00  0.00     0.121 A 
ATOM      6  C   LIG d   1       3.107   0.883  -7.636  0.00  0.00    -0.016 A 
ATOM      7  C   LIG d   1       2.639   0.702  -6.353  0.00  0.00    -0.015 A 
ATOM      8  C   LIG d   1       3.277  -0.190  -5.499  0.00  0.00     0.136 A 
ATOM      9  O   LIG d   1       3.055  -0.566  -4.223  0.00  0.00    -0.459 OA
ATOM     10  H   LIG d   1       5.726  -1.259  -7.610  0.00  0.00     0.066 H 
ATOM     11  H   LIG d   1       2.606   1.578  -8.294  0.00  0.00     0.066 H 
ATOM     12  H   LIG d   1       1.777   1.254  -6.009  0.00  0.00     0.066 H 
ENDROOT
BRANCH   2  13
ATOM     13  C   LIG d   1       5.968  -2.685  -4.794  0.00  0.00     0.084 A 
ATOM     14  N   LIG d   1       7.120  -2.326  -4.234  0.00  0.00    -0.225 NA
ATOM     15  C   LIG d   1       8.148  -3.156  -4.193  0.00  0.00     0.156 A 
ATOM     16  S   LIG d   1       7.480  -4.591  -5.020  0.00  0.00    -0.060 SA
ATOM     17  C   LIG d   1       5.851  -3.930  -5.344  0.00  0.00     0.005 A 
ATOM     18  H   LIG d   1       5.007  -4.388  -5.838  0.00  0.00     0.072 H 
BRANCH  15  19
ATOM     19  N   LIG d   1       9.409  -2.962  -3.655  0.00  0.00    -0.338 N 
ATOM     20  H   LIG d   1      10.059  -3.682  -3.670  0.00  0.00     0.144 HD
ATOM     21  H   LIG d   1       9.643  -2.105  -3.262  0.00  0.00     0.144 HD
ENDBRANCH  15  19
ENDBRANCH   2  13
BRANCH   1  22
ATOM     22  C   LIG d   1       4.002  -2.108  -2.454  0.00  0.00    -0.006 C 
ATOM     23  H   LIG d   1       4.980  -1.937  -2.004  0.00  0.00     0.031 H 
ATOM     24  H   LIG d   1       3.231  -1.662  -1.824  0.00  0.00     0.031 H 
ATOM     25  H   LIG d   1       3.824  -3.179  -2.542  0.00  0.00     0.031 H 
ENDBRANCH   1  22
BRANCH   5  26
ATOM     26  O   LIG d   1       4.660   0.363  -9.365  0.00  0.00    -0.495 OA
BRANCH  26  27
ATOM     27  C   LIG d   1       3.924   1.272 -10.184  0.00  0.00     0.079 C 
ATOM     28  H   LIG d   1       3.146   1.751  -9.589  0.00  0.00     0.066 H 
ATOM     29  H   LIG d   1       4.597   2.032 -10.580  0.00  0.00     0.066 H 
ATOM     30  H   LIG d   1       3.466   0.728 -11.010  0.00  0.00     0.066 H 
ENDBRANCH  26  27
ENDBRANCH   5  26
TORSDOF 5
ENDMDL
MODEL 9
REMARK VINA RESULT:      -4.7     10.533     13.066
REMARK  5 active torsions:
REMARK  status: ('A' for Active; 'I' for Inactive)
REMARK    1  A    between atoms: C_1  and  C_2 
REMARK    2  A    between atoms: C_3  and  C_13 
REMARK    3  A    between atoms: C_6  and  O_11 
REMARK    4  A    between atoms: O_11  and  C_12 
REMARK    5  A    between atoms: C_16  and  N_18 
ROOT
ATOM      1  C   LIG d   1      11.388   9.567   1.065  0.00  0.00     0.112 A 
ATOM      2  C   LIG d   1      10.956   9.304  -0.190  0.00  0.00     0.049 A 
ATOM      3  C   LIG d   1      10.901   7.835  -0.299  0.00  0.00     0.033 A 
ATOM      4  C   LIG d   1      10.544   6.952  -1.315  0.00  0.00    -0.009 A 
ATOM      5  C   LIG d   1      10.610   5.590  -1.087  0.00  0.00     0.121 A 
ATOM      6  C   LIG d   1      11.022   5.108   0.152  0.00  0.00    -0.016 A 
ATOM      7  C   LIG d   1      11.377   5.976   1.161  0.00  0.00    -0.015 A 
ATOM      8  C   LIG d   1      11.322   7.349   0.948  0.00  0.00     0.136 A 
ATOM      9  O   LIG d   1      11.600   8.415   1.726  0.00  0.00    -0.459 OA
ATOM     10  H   LIG d   1      10.221   7.327  -2.274  0.00  0.00     0.066 H 
ATOM     11  H   LIG d   1      11.068   4.042   0.324  0.00  0.00     0.066 H 
ATOM     12  H   LIG d   1      11.699   5.592   2.116  0.00  0.00     0.066 H 
ENDROOT
BRANCH   2  13
ATOM     13  C   LIG d   1      10.610  10.293  -1.240  0.00  0.00     0.084 A 
ATOM     14  N   LIG d   1       9.341  10.480  -1.595  0.00  0.00    -0.225 NA
ATOM     15  C   LIG d   1       9.014  11.360  -2.524  0.00  0.00     0.156 A 
ATOM     16  S   LIG d   1      10.615  12.005  -2.984  0.00  0.00    -0.060 SA
ATOM     17  C   LIG d   1      11.590  11.017  -1.857  0.00  0.00     0.005 A 
ATOM     18  H   LIG d   1      12.659  10.998  -1.705  0.00  0.00     0.072 H 
BRANCH  15  19
ATOM     19  N   LIG d   1       7.762  11.691  -3.016  0.00  0.00    -0.338 N 
ATOM     20  H   LIG d   1       7.638  11.844  -3.965  0.00  0.00     0.144 HD
ATOM     21  H   LIG d   1       7.008  11.770  -2.409  0.00  0.00     0.144 HD
ENDBRANCH  15  19
ENDBRANCH   2  13
BRANCH   1  22
ATOM     22  C   LIG d   1      11.599  10.944   1.637  0.00  0.00    -0.006 C 
ATOM     23  H   LIG d   1      10.851  11.626   1.232  0.00  0.00     0.031 H 
ATOM     24  H   LIG d   1      11.504  10.905   2.723  0.00  0.00     0.031 H 
ATOM     25  H   LIG d   1      12.595  11.299   1.372  0.00  0.00     0.031 H 
ENDBRANCH   1  22
BRANCH   5  26
ATOM     26  O   LIG d   1      10.267   4.719  -2.073  0.00  0.00    -0.495 OA
BRANCH  26  27
ATOM     27  C   LIG d   1      10.116   5.254  -3.389  0.00  0.00     0.079 C 
ATOM     28  H   LIG d   1      10.020   6.339  -3.332  0.00  0.00     0.066 H 
ATOM     29  H   LIG d   1      10.988   4.997  -3.989  0.00  0.00     0.066 H 
ATOM     30  H   LIG d   1       9.222   4.835  -3.851  0.00  0.00     0.066 H 
ENDBRANCH  26  27
ENDBRANCH   5  26
TORSDOF 5
ENDMDL
MODEL 10
REMARK VINA RESULT:      -4.7      3.994      5.642
REMARK  5 active torsions:
REMARK  status: ('A' for Active; 'I' for Inactive)
REMARK    1  A    between atoms: C_1  and  C_2 
REMARK    2  A    between atoms: C_3  and  C_13 
REMARK    3  A    between atoms: C_6  and  O_11 
REMARK    4  A    between atoms: O_11  and  C_12 
REMARK    5  A    between atoms: C_16  and  N_18 
ROOT
ATOM      1  C   LIG d   1       5.083  -1.254  -3.017  0.00  0.00     0.112 A 
ATOM      2  C   LIG d   1       5.789  -1.670  -4.092  0.00  0.00     0.049 A 
ATOM      3  C   LIG d   1       6.698  -0.560  -4.433  0.00  0.00     0.033 A 
ATOM      4  C   LIG d   1       7.662  -0.365  -5.418  0.00  0.00    -0.009 A 
ATOM      5  C   LIG d   1       8.355   0.830  -5.466  0.00  0.00     0.121 A 
ATOM      6  C   LIG d   1       8.097   1.825  -4.528  0.00  0.00    -0.016 A 
ATOM      7  C   LIG d   1       7.143   1.639  -3.551  0.00  0.00    -0.015 A 
ATOM      8  C   LIG d   1       6.433   0.446  -3.491  0.00  0.00     0.136 A 
ATOM      9  O   LIG d   1       5.466  -0.013  -2.670  0.00  0.00    -0.459 OA
ATOM     10  H   LIG d   1       7.865  -1.139  -6.143  0.00  0.00     0.066 H 
ATOM     11  H   LIG d   1       8.645   2.755  -4.569  0.00  0.00     0.066 H 
ATOM     12  H   LIG d   1       6.947   2.419  -2.831  0.00  0.00     0.066 H 
ENDROOT
BRANCH   2  13
ATOM     13  C   LIG d   1       5.672  -2.976  -4.787  0.00  0.00     0.084 A 
ATOM     14  N   LIG d   1       4.533  -3.319  -5.384  0.00  0.00    -0.225 NA
ATOM     15  C   LIG d   1       4.413  -4.476  -6.011  0.00  0.00     0.156 A 
ATOM     16  S   LIG d   1       6.029  -5.192  -5.753  0.00  0.00    -0.060 SA
ATOM     17  C   LIG d   1       6.728  -3.840  -4.814  0.00  0.00     0.005 A 
ATOM     18  H   LIG d   1       7.715  -3.736  -4.387  0.00  0.00     0.072 H 
BRANCH  15  19
ATOM     19  N   LIG d   1       3.321  -4.998  -6.686  0.00  0.00    -0.338 N 
ATOM     20  H   LIG d   1       3.398  -5.845  -7.151  0.00  0.00     0.144 HD
ATOM     21  H   LIG d   1       2.480  -4.514  -6.694  0.00  0.00     0.144 HD
ENDBRANCH  15  19
ENDBRANCH   2  13
BRANCH   1  22
ATOM     22  C   LIG d   1       4.025  -2.062  -2.311  0.00  0.00    -0.006 C 
ATOM     23  H   LIG d   1       3.181  -1.419  -2.062  0.00  0.00     0.031 H 
ATOM     24  H   LIG d   1       3.687  -2.867  -2.964  0.00  0.00     0.031 H 
ATOM     25  H   LIG d   1       4.441  -2.486  -1.397  0.00  0.00     0.031 H 
ENDBRANCH   1  22
BRANCH   5  26
ATOM     26  O   LIG d   1       9.296   1.032  -6.426  0.00  0.00    -0.495 OA
BRANCH  26  27
ATOM     27  C   LIG d   1       9.033   2.054  -7.389  0.00  0.00     0.079 C 
ATOM     28  H   LIG d   1       7.961   2.104  -7.582  0.00  0.00     0.066 H 
ATOM     29  H   LIG d   1       9.378   3.014  -7.005  0.00  0.00     0.066 H 
ATOM     30  H   LIG d   1       9.557   1.824  -8.316  0.00  0.00     0.066 H 
ENDBRANCH  26  27
ENDBRANCH   5  26
TORSDOF 5
ENDMDL
