MODEL 1
REMARK VINA RESULT:      -7.2      0.000      0.000
REMARK  8 active torsions:
REMARK  status: ('A' for Active; 'I' for Inactive)
REMARK    1  A    between atoms: C_1  and  C_2 
REMARK    2  A    between atoms: C_2  and  C_4 
REMARK    3  A    between atoms: C_2  and  O_8 
REMARK    4  A    between atoms: C_4  and  O_6 
REMARK    5  A    between atoms: O_6  and  C_7 
REMARK    6  A    between atoms: O_8  and  C_9 
REMARK    7  A    between atoms: C_17  and  C_18 
REMARK    8  A    between atoms: C_21  and  C_24 
ROOT
ATOM      1  C   LIG d   1      -0.835  -5.173 -11.336  0.00  0.00     0.125 A 
ATOM      2  C   LIG d   1      -0.566  -4.876 -12.669  0.00  0.00    -0.019 A 
ATOM      3  C   LIG d   1       0.323  -3.889 -12.987  0.00  0.00    -0.044 A 
ATOM      4  C   LIG d   1       0.961  -3.174 -11.972  0.00  0.00     0.068 A 
ATOM      5  C   LIG d   1       0.697  -3.464 -10.624  0.00  0.00     0.143 A 
ATOM      6  C   LIG d   1      -0.209  -4.471 -10.318  0.00  0.00     0.023 A 
ATOM      7  O   LIG d   1       1.427  -2.649  -9.831  0.00  0.00    -0.451 OA
ATOM      8  C   LIG d   1       2.194  -1.799 -10.553  0.00  0.00     0.176 A 
ATOM      9  C   LIG d   1       3.036  -0.858 -10.055  0.00  0.00    -0.008 C 
ATOM     10  C   LIG d   1       1.943  -2.075 -11.976  0.00  0.00     0.232 A 
ATOM     11  O   LIG d   1       2.436  -1.520 -12.942  0.00  0.00    -0.283 OA
ATOM     12  H   LIG d   1      -1.060  -5.429 -13.455  0.00  0.00     0.065 H 
ATOM     13  H   LIG d   1       0.532  -3.661 -14.022  0.00  0.00     0.063 H 
ATOM     14  H   LIG d   1      -0.425  -4.709  -9.286  0.00  0.00     0.069 H 
ATOM     15  H   LIG d   1       3.537  -0.174 -10.723  0.00  0.00     0.066 H 
ENDROOT
BRANCH   9  16
ATOM     16  C   LIG d   1       3.266  -0.772  -8.608  0.00  0.00    -0.021 A 
ATOM     17  C   LIG d   1       2.615   0.212  -7.852  0.00  0.00    -0.054 A 
ATOM     18  C   LIG d   1       2.826   0.286  -6.504  0.00  0.00    -0.053 A 
ATOM     19  H   LIG d   1       1.943   0.907  -8.332  0.00  0.00     0.062 H 
ATOM     20  C   LIG d   1       3.698  -0.609  -5.882  0.00  0.00    -0.018 A 
ATOM     21  H   LIG d   1       2.322   1.041  -5.920  0.00  0.00     0.062 H 
ATOM     22  C   LIG d   1       4.348  -1.590  -6.633  0.00  0.00    -0.053 A 
ATOM     23  C   LIG d   1       4.137  -1.672  -7.981  0.00  0.00    -0.054 A 
ATOM     24  H   LIG d   1       5.019  -2.283  -6.150  0.00  0.00     0.062 H 
ATOM     25  H   LIG d   1       4.640  -2.431  -8.562  0.00  0.00     0.062 H 
BRANCH  20  26
ATOM     26  C   LIG d   1       3.930  -0.522  -4.421  0.00  0.00    -0.018 A 
ATOM     27  C   LIG d   1       4.388  -1.635  -3.717  0.00  0.00    -0.054 A 
ATOM     28  C   LIG d   1       4.606  -1.547  -2.358  0.00  0.00    -0.061 A 
ATOM     29  H   LIG d   1       4.577  -2.563  -4.237  0.00  0.00     0.062 H 
ATOM     30  C   LIG d   1       4.361  -0.361  -1.690  0.00  0.00    -0.062 A 
ATOM     31  H   LIG d   1       4.965  -2.407  -1.812  0.00  0.00     0.062 H 
ATOM     32  C   LIG d   1       3.905   0.748  -2.383  0.00  0.00    -0.061 A 
ATOM     33  H   LIG d   1       4.528  -0.297  -0.626  0.00  0.00     0.062 H 
ATOM     34  C   LIG d   1       3.689   0.673  -3.744  0.00  0.00    -0.054 A 
ATOM     35  H   LIG d   1       3.720   1.672  -1.858  0.00  0.00     0.062 H 
ATOM     36  H   LIG d   1       3.334   1.539  -4.283  0.00  0.00     0.062 H 
ENDBRANCH  20  26
ENDBRANCH   9  16
BRANCH   1  37
ATOM     37  O   LIG d   1      -1.720  -6.156 -11.031  0.00  0.00    -0.478 OA
BRANCH  37  38
ATOM     38  C   LIG d   1      -3.105  -5.802 -11.020  0.00  0.00     0.193 C 
ATOM     39  H   LIG d   1      -3.272  -4.971 -11.705  0.00  0.00     0.085 H 
BRANCH  38  40
ATOM     40  C   LIG d   1      -3.942  -7.003 -11.459  0.00  0.00    -0.017 C 
ATOM     41  H   LIG d   1      -4.416  -6.786 -12.416  0.00  0.00     0.027 H 
ATOM     42  H   LIG d   1      -3.297  -7.877 -11.564  0.00  0.00     0.027 H 
ATOM     43  H   LIG d   1      -4.708  -7.206 -10.711  0.00  0.00     0.027 H 
ENDBRANCH  38  40
BRANCH  38  44
ATOM     44  C   LIG d   1      -3.506  -5.392  -9.626  0.00  0.00     0.348 C 
ATOM     45  O   LIG d   1      -3.199  -6.079  -8.681  0.00  0.00    -0.247 OA
BRANCH  44  46
ATOM     46  O   LIG d   1      -4.206  -4.262  -9.435  0.00  0.00    -0.465 OA
BRANCH  46  47
ATOM     47  C   LIG d   1      -4.888  -3.706 -10.589  0.00  0.00     0.082 C 
ATOM     48  H   LIG d   1      -4.749  -4.365 -11.446  0.00  0.00     0.066 H 
ATOM     49  H   LIG d   1      -5.952  -3.612 -10.372  0.00  0.00     0.066 H 
ATOM     50  H   LIG d   1      -4.476  -2.723 -10.817  0.00  0.00     0.066 H 
ENDBRANCH  46  47
ENDBRANCH  44  46
ENDBRANCH  38  44
ENDBRANCH  37  38
ENDBRANCH   1  37
TORSDOF 8
ENDMDL
MODEL 2
REMARK VINA RESULT:      -6.9      8.697     12.723
REMARK  8 active torsions:
REMARK  status: ('A' for Active; 'I' for Inactive)
REMARK    1  A    between atoms: C_1  and  C_2 
REMARK    2  A    between atoms: C_2  and  C_4 
REMARK    3  A    between atoms: C_2  and  O_8 
REMARK    4  A    between atoms: C_4  and  O_6 
REMARK    5  A    between atoms: O_6  and  C_7 
REMARK    6  A    between atoms: O_8  and  C_9 
REMARK    7  A    between atoms: C_17  and  C_18 
REMARK    8  A    between atoms: C_21  and  C_24 
ROOT
ATOM      1  C   LIG d   1      11.511  -7.896  -1.119  0.00  0.00     0.125 A 
ATOM      2  C   LIG d   1      12.094  -8.636  -2.143  0.00  0.00    -0.019 A 
ATOM      3  C   LIG d   1      11.708  -8.438  -3.439  0.00  0.00    -0.044 A 
ATOM      4  C   LIG d   1      10.725  -7.493  -3.735  0.00  0.00     0.068 A 
ATOM      5  C   LIG d   1      10.130  -6.740  -2.710  0.00  0.00     0.143 A 
ATOM      6  C   LIG d   1      10.534  -6.954  -1.399  0.00  0.00     0.023 A 
ATOM      7  O   LIG d   1       9.215  -5.897  -3.237  0.00  0.00    -0.451 OA
ATOM      8  C   LIG d   1       9.136  -6.016  -4.583  0.00  0.00     0.176 A 
ATOM      9  C   LIG d   1       8.316  -5.312  -5.404  0.00  0.00    -0.008 C 
ATOM     10  C   LIG d   1      10.096  -7.052  -4.994  0.00  0.00     0.232 A 
ATOM     11  O   LIG d   1      10.322  -7.455  -6.121  0.00  0.00    -0.283 OA
ATOM     12  H   LIG d   1      12.854  -9.368  -1.914  0.00  0.00     0.065 H 
ATOM     13  H   LIG d   1      12.162  -9.013  -4.233  0.00  0.00     0.063 H 
ATOM     14  H   LIG d   1      10.087  -6.384  -0.596  0.00  0.00     0.069 H 
ATOM     15  H   LIG d   1       8.273  -5.548  -6.457  0.00  0.00     0.066 H 
ENDROOT
BRANCH   9  16
ATOM     16  C   LIG d   1       7.486  -4.230  -4.860  0.00  0.00    -0.021 A 
ATOM     17  C   LIG d   1       6.105  -4.218  -5.098  0.00  0.00    -0.054 A 
ATOM     18  C   LIG d   1       5.335  -3.212  -4.586  0.00  0.00    -0.053 A 
ATOM     19  H   LIG d   1       5.650  -5.004  -5.681  0.00  0.00     0.062 H 
ATOM     20  C   LIG d   1       5.924  -2.192  -3.836  0.00  0.00    -0.018 A 
ATOM     21  H   LIG d   1       4.270  -3.204  -4.765  0.00  0.00     0.062 H 
ATOM     22  C   LIG d   1       7.299  -2.203  -3.598  0.00  0.00    -0.053 A 
ATOM     23  C   LIG d   1       8.074  -3.208  -4.103  0.00  0.00    -0.054 A 
ATOM     24  H   LIG d   1       7.751  -1.415  -3.014  0.00  0.00     0.062 H 
ATOM     25  H   LIG d   1       9.138  -3.216  -3.919  0.00  0.00     0.062 H 
BRANCH  20  26
ATOM     26  C   LIG d   1       5.086  -1.100  -3.287  0.00  0.00    -0.018 A 
ATOM     27  C   LIG d   1       3.698  -1.233  -3.248  0.00  0.00    -0.054 A 
ATOM     28  C   LIG d   1       2.924  -0.216  -2.732  0.00  0.00    -0.061 A 
ATOM     29  H   LIG d   1       3.232  -2.134  -3.619  0.00  0.00     0.062 H 
ATOM     30  C   LIG d   1       3.520   0.941  -2.261  0.00  0.00    -0.062 A 
ATOM     31  H   LIG d   1       1.850  -0.319  -2.697  0.00  0.00     0.062 H 
ATOM     32  C   LIG d   1       4.897   1.079  -2.297  0.00  0.00    -0.061 A 
ATOM     33  H   LIG d   1       2.910   1.737  -1.862  0.00  0.00     0.062 H 
ATOM     34  C   LIG d   1       5.682   0.065  -2.806  0.00  0.00    -0.054 A 
ATOM     35  H   LIG d   1       5.357   1.982  -1.924  0.00  0.00     0.062 H 
ATOM     36  H   LIG d   1       6.756   0.175  -2.833  0.00  0.00     0.062 H 
ENDBRANCH  20  26
ENDBRANCH   9  16
BRANCH   1  37
ATOM     37  O   LIG d   1      11.901  -8.100   0.165  0.00  0.00    -0.478 OA
BRANCH  37  38
ATOM     38  C   LIG d   1      10.911  -8.581   1.076  0.00  0.00     0.193 C 
ATOM     39  H   LIG d   1       9.961  -8.084   0.875  0.00  0.00     0.085 H 
BRANCH  38  40
ATOM     40  C   LIG d   1      10.744 -10.090   0.898  0.00  0.00    -0.017 C 
ATOM     41  H   LIG d   1      10.178 -10.495   1.738  0.00  0.00     0.027 H 
ATOM     42  H   LIG d   1      10.209 -10.290  -0.030  0.00  0.00     0.027 H 
ATOM     43  H   LIG d   1      11.725 -10.562   0.860  0.00  0.00     0.027 H 
ENDBRANCH  38  40
BRANCH  38  44
ATOM     44  C   LIG d   1      11.343  -8.285   2.489  0.00  0.00     0.348 C 
ATOM     45  O   LIG d   1      10.573  -8.450   3.405  0.00  0.00    -0.247 OA
BRANCH  44  46
ATOM     46  O   LIG d   1      12.586  -7.837   2.730  0.00  0.00    -0.465 OA
BRANCH  46  47
ATOM     47  C   LIG d   1      13.329  -8.494   3.789  0.00  0.00     0.082 C 
ATOM     48  H   LIG d   1      12.634  -8.939   4.500  0.00  0.00     0.066 H 
ATOM     49  H   LIG d   1      13.960  -9.273   3.361  0.00  0.00     0.066 H 
ATOM     50  H   LIG d   1      13.954  -7.763   4.303  0.00  0.00     0.066 H 
ENDBRANCH  46  47
ENDBRANCH  44  46
ENDBRANCH  38  44
ENDBRANCH  37  38
ENDBRANCH   1  37
TORSDOF 8
ENDMDL
MODEL 3
REMARK VINA RESULT:      -6.9      7.695     11.083
REMARK  8 active torsions:
REMARK  status: ('A' for Active; 'I' for Inactive)
REMARK    1  A    between atoms: C_1  and  C_2 
REMARK    2  A    between atoms: C_2  and  C_4 
REMARK    3  A    between atoms: C_2  and  O_8 
REMARK    4  A    between atoms: C_4  and  O_6 
REMARK    5  A    between atoms: O_6  and  C_7 
REMARK    6  A    between atoms: O_8  and  C_9 
REMARK    7  A    between atoms: C_17  and  C_18 
REMARK    8  A    between atoms: C_21  and  C_24 
ROOT
ATOM      1  C   LIG d   1       6.417  -0.185  -3.853  0.00  0.00     0.125 A 
ATOM      2  C   LIG d   1       6.646  -0.665  -5.140  0.00  0.00    -0.019 A 
ATOM      3  C   LIG d   1       7.433   0.039  -6.006  0.00  0.00    -0.044 A 
ATOM      4  C   LIG d   1       8.009   1.244  -5.600  0.00  0.00     0.068 A 
ATOM      5  C   LIG d   1       7.785   1.739  -4.305  0.00  0.00     0.143 A 
ATOM      6  C   LIG d   1       6.982   1.010  -3.438  0.00  0.00     0.023 A 
ATOM      7  O   LIG d   1       8.440   2.909  -4.145  0.00  0.00    -0.451 OA
ATOM      8  C   LIG d   1       9.115   3.265  -5.263  0.00  0.00     0.176 A 
ATOM      9  C   LIG d   1       9.868   4.384  -5.424  0.00  0.00    -0.008 C 
ATOM     10  C   LIG d   1       8.880   2.224  -6.274  0.00  0.00     0.232 A 
ATOM     11  O   LIG d   1       9.310   2.179  -7.414  0.00  0.00    -0.283 OA
ATOM     12  H   LIG d   1       6.200  -1.598  -5.454  0.00  0.00     0.065 H 
ATOM     13  H   LIG d   1       7.610  -0.335  -7.004  0.00  0.00     0.063 H 
ATOM     14  H   LIG d   1       6.798   1.375  -2.437  0.00  0.00     0.069 H 
ATOM     15  H   LIG d   1      10.295   4.613  -6.388  0.00  0.00     0.066 H 
ENDROOT
BRANCH   9  16
ATOM     16  C   LIG d   1      10.100   5.281  -4.286  0.00  0.00    -0.021 A 
ATOM     17  C   LIG d   1      10.988   4.907  -3.268  0.00  0.00    -0.054 A 
ATOM     18  C   LIG d   1      11.207   5.747  -2.213  0.00  0.00    -0.053 A 
ATOM     19  H   LIG d   1      11.501   3.959  -3.319  0.00  0.00     0.062 H 
ATOM     20  C   LIG d   1      10.540   6.971  -2.142  0.00  0.00    -0.018 A 
ATOM     21  H   LIG d   1      11.893   5.462  -1.429  0.00  0.00     0.062 H 
ATOM     22  C   LIG d   1       9.656   7.346  -3.156  0.00  0.00    -0.053 A 
ATOM     23  C   LIG d   1       9.437   6.513  -4.216  0.00  0.00    -0.054 A 
ATOM     24  H   LIG d   1       9.145   8.296  -3.102  0.00  0.00     0.062 H 
ATOM     25  H   LIG d   1       8.752   6.803  -5.000  0.00  0.00     0.062 H 
BRANCH  20  26
ATOM     26  C   LIG d   1      10.776   7.878  -0.994  0.00  0.00    -0.018 A 
ATOM     27  C   LIG d   1      11.429   7.409   0.146  0.00  0.00    -0.054 A 
ATOM     28  C   LIG d   1      11.650   8.258   1.210  0.00  0.00    -0.061 A 
ATOM     29  H   LIG d   1      11.765   6.383   0.192  0.00  0.00     0.062 H 
ATOM     30  C   LIG d   1      11.216   9.570   1.153  0.00  0.00    -0.062 A 
ATOM     31  H   LIG d   1      12.159   7.898   2.091  0.00  0.00     0.062 H 
ATOM     32  C   LIG d   1      10.567  10.042   0.024  0.00  0.00    -0.061 A 
ATOM     33  H   LIG d   1      11.387  10.231   1.990  0.00  0.00     0.062 H 
ATOM     34  C   LIG d   1      10.345   9.203  -1.048  0.00  0.00    -0.054 A 
ATOM     35  H   LIG d   1      10.235  11.068  -0.016  0.00  0.00     0.062 H 
ATOM     36  H   LIG d   1       9.839   9.572  -1.927  0.00  0.00     0.062 H 
ENDBRANCH  20  26
ENDBRANCH   9  16
BRANCH   1  37
ATOM     37  O   LIG d   1       5.633  -0.892  -3.001  0.00  0.00    -0.478 OA
BRANCH  37  38
ATOM     38  C   LIG d   1       4.240  -0.965  -3.309  0.00  0.00     0.193 C 
ATOM     39  H   LIG d   1       4.113  -1.248  -4.354  0.00  0.00     0.085 H 
BRANCH  38  40
ATOM     40  C   LIG d   1       3.572  -2.009  -2.413  0.00  0.00    -0.017 C 
ATOM     41  H   LIG d   1       4.033  -2.982  -2.583  0.00  0.00     0.027 H 
ATOM     42  H   LIG d   1       3.699  -1.725  -1.368  0.00  0.00     0.027 H 
ATOM     43  H   LIG d   1       2.510  -2.063  -2.647  0.00  0.00     0.027 H 
ENDBRANCH  38  40
BRANCH  38  44
ATOM     44  C   LIG d   1       3.604   0.381  -3.073  0.00  0.00     0.348 C 
ATOM     45  O   LIG d   1       3.534   0.829  -1.953  0.00  0.00    -0.247 OA
BRANCH  44  46
ATOM     46  O   LIG d   1       3.114   1.082  -4.108  0.00  0.00    -0.465 OA
BRANCH  46  47
ATOM     47  C   LIG d   1       2.749   0.334  -5.297  0.00  0.00     0.082 C 
ATOM     48  H   LIG d   1       1.679   0.130  -5.284  0.00  0.00     0.066 H 
ATOM     49  H   LIG d   1       2.998   0.916  -6.183  0.00  0.00     0.066 H 
ATOM     50  H   LIG d   1       3.298  -0.608  -5.317  0.00  0.00     0.066 H 
ENDBRANCH  46  47
ENDBRANCH  44  46
ENDBRANCH  38  44
ENDBRANCH  37  38
ENDBRANCH   1  37
TORSDOF 8
ENDMDL
MODEL 4
REMARK VINA RESULT:      -6.8      9.698     14.121
REMARK  8 active torsions:
REMARK  status: ('A' for Active; 'I' for Inactive)
REMARK    1  A    between atoms: C_1  and  C_2 
REMARK    2  A    between atoms: C_2  and  C_4 
REMARK    3  A    between atoms: C_2  and  O_8 
REMARK    4  A    between atoms: C_4  and  O_6 
REMARK    5  A    between atoms: O_6  and  C_7 
REMARK    6  A    between atoms: O_8  and  C_9 
REMARK    7  A    between atoms: C_17  and  C_18 
REMARK    8  A    between atoms: C_21  and  C_24 
ROOT
ATOM      1  C   LIG d   1       9.697   9.026  -5.968  0.00  0.00     0.125 A 
ATOM      2  C   LIG d   1      10.705   9.103  -6.926  0.00  0.00    -0.019 A 
ATOM      3  C   LIG d   1      11.245   7.961  -7.448  0.00  0.00    -0.044 A 
ATOM      4  C   LIG d   1      10.786   6.715  -7.018  0.00  0.00     0.068 A 
ATOM      5  C   LIG d   1       9.770   6.625  -6.053  0.00  0.00     0.143 A 
ATOM      6  C   LIG d   1       9.233   7.795  -5.533  0.00  0.00     0.023 A 
ATOM      7  O   LIG d   1       9.496   5.327  -5.800  0.00  0.00    -0.451 OA
ATOM      8  C   LIG d   1      10.267   4.496  -6.539  0.00  0.00     0.176 A 
ATOM      9  C   LIG d   1      10.235   3.139  -6.517  0.00  0.00    -0.008 C 
ATOM     10  C   LIG d   1      11.151   5.330  -7.368  0.00  0.00     0.232 A 
ATOM     11  O   LIG d   1      11.995   4.961  -8.165  0.00  0.00    -0.283 OA
ATOM     12  H   LIG d   1      11.061  10.067  -7.258  0.00  0.00     0.065 H 
ATOM     13  H   LIG d   1      12.026   8.023  -8.191  0.00  0.00     0.063 H 
ATOM     14  H   LIG d   1       8.450   7.746  -4.789  0.00  0.00     0.069 H 
ATOM     15  H   LIG d   1      10.956   2.572  -7.087  0.00  0.00     0.066 H 
ENDROOT
BRANCH   9  16
ATOM     16  C   LIG d   1       9.221   2.443  -5.717  0.00  0.00    -0.021 A 
ATOM     17  C   LIG d   1       8.311   1.576  -6.337  0.00  0.00    -0.054 A 
ATOM     18  C   LIG d   1       7.372   0.925  -5.589  0.00  0.00    -0.053 A 
ATOM     19  H   LIG d   1       8.355   1.420  -7.405  0.00  0.00     0.062 H 
ATOM     20  C   LIG d   1       7.310   1.130  -4.210  0.00  0.00    -0.018 A 
ATOM     21  H   LIG d   1       6.672   0.254  -6.066  0.00  0.00     0.062 H 
ATOM     22  C   LIG d   1       8.216   1.992  -3.589  0.00  0.00    -0.053 A 
ATOM     23  C   LIG d   1       9.160   2.642  -4.331  0.00  0.00    -0.054 A 
ATOM     24  H   LIG d   1       8.169   2.146  -2.522  0.00  0.00     0.062 H 
ATOM     25  H   LIG d   1       9.860   3.310  -3.851  0.00  0.00     0.062 H 
BRANCH  20  26
ATOM     26  C   LIG d   1       6.286   0.426  -3.402  0.00  0.00    -0.018 A 
ATOM     27  C   LIG d   1       5.419   1.150  -2.584  0.00  0.00    -0.054 A 
ATOM     28  C   LIG d   1       4.466   0.490  -1.838  0.00  0.00    -0.061 A 
ATOM     29  H   LIG d   1       5.493   2.226  -2.539  0.00  0.00     0.062 H 
ATOM     30  C   LIG d   1       4.374  -0.890  -1.892  0.00  0.00    -0.062 A 
ATOM     31  H   LIG d   1       3.791   1.049  -1.207  0.00  0.00     0.062 H 
ATOM     32  C   LIG d   1       5.231  -1.615  -2.702  0.00  0.00    -0.061 A 
ATOM     33  H   LIG d   1       3.629  -1.403  -1.303  0.00  0.00     0.062 H 
ATOM     34  C   LIG d   1       6.186  -0.964  -3.457  0.00  0.00    -0.054 A 
ATOM     35  H   LIG d   1       5.152  -2.690  -2.743  0.00  0.00     0.062 H 
ATOM     36  H   LIG d   1       6.854  -1.531  -4.088  0.00  0.00     0.062 H 
ENDBRANCH  20  26
ENDBRANCH   9  16
BRANCH   1  37
ATOM     37  O   LIG d   1       9.168  10.166  -5.456  0.00  0.00    -0.478 OA
BRANCH  37  38
ATOM     38  C   LIG d   1       9.897  10.805  -4.406  0.00  0.00     0.193 C 
ATOM     39  H   LIG d   1      10.708  10.155  -4.079  0.00  0.00     0.085 H 
BRANCH  38  40
ATOM     40  C   LIG d   1      10.474  12.125  -4.916  0.00  0.00    -0.017 C 
ATOM     41  H   LIG d   1       9.713  12.903  -4.856  0.00  0.00     0.027 H 
ATOM     42  H   LIG d   1      11.331  12.408  -4.303  0.00  0.00     0.027 H 
ATOM     43  H   LIG d   1      10.793  12.007  -5.952  0.00  0.00     0.027 H 
ENDBRANCH  38  40
BRANCH  38  44
ATOM     44  C   LIG d   1       8.972  11.075  -3.247  0.00  0.00     0.348 C 
ATOM     45  O   LIG d   1       8.015  11.798  -3.392  0.00  0.00    -0.247 OA
BRANCH  44  46
ATOM     46  O   LIG d   1       9.213  10.513  -2.052  0.00  0.00    -0.465 OA
BRANCH  46  47
ATOM     47  C   LIG d   1      10.051   9.328  -2.038  0.00  0.00     0.082 C 
ATOM     48  H   LIG d   1       9.424   8.439  -2.083  0.00  0.00     0.066 H 
ATOM     49  H   LIG d   1      10.719   9.346  -2.899  0.00  0.00     0.066 H 
ATOM     50  H   LIG d   1      10.641   9.310  -1.122  0.00  0.00     0.066 H 
ENDBRANCH  46  47
ENDBRANCH  44  46
ENDBRANCH  38  44
ENDBRANCH  37  38
ENDBRANCH   1  37
TORSDOF 8
ENDMDL
MODEL 5
REMARK VINA RESULT:      -6.6      9.009     13.910
REMARK  8 active torsions:
REMARK  status: ('A' for Active; 'I' for Inactive)
REMARK    1  A    between atoms: C_1  and  C_2 
REMARK    2  A    between atoms: C_2  and  C_4 
REMARK    3  A    between atoms: C_2  and  O_8 
REMARK    4  A    between atoms: C_4  and  O_6 
REMARK    5  A    between atoms: O_6  and  C_7 
REMARK    6  A    between atoms: O_8  and  C_9 
REMARK    7  A    between atoms: C_17  and  C_18 
REMARK    8  A    between atoms: C_21  and  C_24 
ROOT
ATOM      1  C   LIG d   1      10.175   8.021  -4.130  0.00  0.00     0.125 A 
ATOM      2  C   LIG d   1      10.956   8.326  -5.241  0.00  0.00    -0.019 A 
ATOM      3  C   LIG d   1      11.137   7.400  -6.228  0.00  0.00    -0.044 A 
ATOM      4  C   LIG d   1      10.539   6.143  -6.122  0.00  0.00     0.068 A 
ATOM      5  C   LIG d   1       9.750   5.823  -5.005  0.00  0.00     0.143 A 
ATOM      6  C   LIG d   1       9.576   6.777  -4.010  0.00  0.00     0.023 A 
ATOM      7  O   LIG d   1       9.281   4.562  -5.124  0.00  0.00    -0.451 OA
ATOM      8  C   LIG d   1       9.700   3.975  -6.270  0.00  0.00     0.176 A 
ATOM      9  C   LIG d   1       9.404   2.716  -6.681  0.00  0.00    -0.008 C 
ATOM     10  C   LIG d   1      10.540   4.948  -6.985  0.00  0.00     0.232 A 
ATOM     11  O   LIG d   1      11.109   4.801  -8.053  0.00  0.00    -0.283 OA
ATOM     12  H   LIG d   1      11.420   9.299  -5.324  0.00  0.00     0.065 H 
ATOM     13  H   LIG d   1      11.742   7.638  -7.091  0.00  0.00     0.063 H 
ATOM     14  H   LIG d   1       8.972   6.550  -3.144  0.00  0.00     0.069 H 
ATOM     15  H   LIG d   1       9.863   2.318  -7.574  0.00  0.00     0.066 H 
ENDROOT
BRANCH   9  16
ATOM     16  C   LIG d   1       8.461   1.896  -5.912  0.00  0.00    -0.021 A 
ATOM     17  C   LIG d   1       8.296   2.118  -4.538  0.00  0.00    -0.054 A 
ATOM     18  C   LIG d   1       7.413   1.357  -3.826  0.00  0.00    -0.053 A 
ATOM     19  H   LIG d   1       8.863   2.892  -4.044  0.00  0.00     0.062 H 
ATOM     20  C   LIG d   1       6.684   0.351  -4.463  0.00  0.00    -0.018 A 
ATOM     21  H   LIG d   1       7.283   1.529  -2.768  0.00  0.00     0.062 H 
ATOM     22  C   LIG d   1       6.845   0.129  -5.832  0.00  0.00    -0.053 A 
ATOM     23  C   LIG d   1       7.724   0.890  -6.550  0.00  0.00    -0.054 A 
ATOM     24  H   LIG d   1       6.277  -0.646  -6.323  0.00  0.00     0.062 H 
ATOM     25  H   LIG d   1       7.849   0.717  -7.609  0.00  0.00     0.062 H 
BRANCH  20  26
ATOM     26  C   LIG d   1       5.731  -0.476  -3.686  0.00  0.00    -0.018 A 
ATOM     27  C   LIG d   1       5.372  -1.745  -4.142  0.00  0.00    -0.054 A 
ATOM     28  C   LIG d   1       4.488  -2.512  -3.412  0.00  0.00    -0.061 A 
ATOM     29  H   LIG d   1       5.790  -2.127  -5.061  0.00  0.00     0.062 H 
ATOM     30  C   LIG d   1       3.949  -2.022  -2.237  0.00  0.00    -0.062 A 
ATOM     31  H   LIG d   1       4.213  -3.496  -3.761  0.00  0.00     0.062 H 
ATOM     32  C   LIG d   1       4.301  -0.764  -1.779  0.00  0.00    -0.061 A 
ATOM     33  H   LIG d   1       3.254  -2.625  -1.671  0.00  0.00     0.062 H 
ATOM     34  C   LIG d   1       5.188   0.011  -2.498  0.00  0.00    -0.054 A 
ATOM     35  H   LIG d   1       3.880  -0.389  -0.859  0.00  0.00     0.062 H 
ATOM     36  H   LIG d   1       5.462   0.992  -2.140  0.00  0.00     0.062 H 
ENDBRANCH  20  26
ENDBRANCH   9  16
BRANCH   1  37
ATOM     37  O   LIG d   1      10.002   8.948  -3.154  0.00  0.00    -0.478 OA
BRANCH  37  38
ATOM     38  C   LIG d   1      10.892   8.890  -2.038  0.00  0.00     0.193 C 
ATOM     39  H   LIG d   1      11.598   8.071  -2.178  0.00  0.00     0.085 H 
BRANCH  38  40
ATOM     40  C   LIG d   1      11.657  10.210  -1.926  0.00  0.00    -0.017 C 
ATOM     41  H   LIG d   1      12.568  10.054  -1.347  0.00  0.00     0.027 H 
ATOM     42  H   LIG d   1      11.917  10.565  -2.924  0.00  0.00     0.027 H 
ATOM     43  H   LIG d   1      11.032  10.951  -1.429  0.00  0.00     0.027 H 
ENDBRANCH  38  40
BRANCH  38  44
ATOM     44  C   LIG d   1      10.100   8.660  -0.776  0.00  0.00     0.348 C 
ATOM     45  O   LIG d   1       9.891   9.576  -0.017  0.00  0.00    -0.247 OA
BRANCH  44  46
ATOM     46  O   LIG d   1       9.627   7.435  -0.496  0.00  0.00    -0.465 OA
BRANCH  46  47
ATOM     47  C   LIG d   1      10.600   6.366  -0.369  0.00  0.00     0.082 C 
ATOM     48  H   LIG d   1      10.746   6.130   0.684  0.00  0.00     0.066 H 
ATOM     49  H   LIG d   1      10.238   5.481  -0.893  0.00  0.00     0.066 H 
ATOM     50  H   LIG d   1      11.548   6.683  -0.805  0.00  0.00     0.066 H 
ENDBRANCH  46  47
ENDBRANCH  44  46
ENDBRANCH  38  44
ENDBRANCH  37  38
ENDBRANCH   1  37
TORSDOF 8
ENDMDL
MODEL 6
REMARK VINA RESULT:      -6.5      1.471      2.621
REMARK  8 active torsions:
REMARK  status: ('A' for Active; 'I' for Inactive)
REMARK    1  A    between atoms: C_1  and  C_2 
REMARK    2  A    between atoms: C_2  and  C_4 
REMARK    3  A    between atoms: C_2  and  O_8 
REMARK    4  A    between atoms: C_4  and  O_6 
REMARK    5  A    between atoms: O_6  and  C_7 
REMARK    6  A    between atoms: O_8  and  C_9 
REMARK    7  A    between atoms: C_17  and  C_18 
REMARK    8  A    between atoms: C_21  and  C_24 
ROOT
ATOM      1  C   LIG d   1      -0.614  -4.890 -11.499  0.00  0.00     0.125 A 
ATOM      2  C   LIG d   1      -0.317  -4.542 -12.814  0.00  0.00    -0.019 A 
ATOM      3  C   LIG d   1       0.580  -3.545 -13.074  0.00  0.00    -0.044 A 
ATOM      4  C   LIG d   1       1.198  -2.872 -12.020  0.00  0.00     0.068 A 
ATOM      5  C   LIG d   1       0.906  -3.214 -10.689  0.00  0.00     0.143 A 
ATOM      6  C   LIG d   1      -0.008  -4.230 -10.442  0.00  0.00     0.023 A 
ATOM      7  O   LIG d   1       1.621  -2.433  -9.851  0.00  0.00    -0.451 OA
ATOM      8  C   LIG d   1       2.404  -1.556 -10.523  0.00  0.00     0.176 A 
ATOM      9  C   LIG d   1       3.237  -0.638  -9.971  0.00  0.00    -0.008 C 
ATOM     10  C   LIG d   1       2.182  -1.776 -11.960  0.00  0.00     0.232 A 
ATOM     11  O   LIG d   1       2.696  -1.185 -12.894  0.00  0.00    -0.283 OA
ATOM     12  H   LIG d   1      -0.796  -5.062 -13.631  0.00  0.00     0.065 H 
ATOM     13  H   LIG d   1       0.810  -3.277 -14.095  0.00  0.00     0.063 H 
ATOM     14  H   LIG d   1      -0.246  -4.507  -9.425  0.00  0.00     0.069 H 
ATOM     15  H   LIG d   1       3.753   0.071 -10.601  0.00  0.00     0.066 H 
ENDROOT
BRANCH   9  16
ATOM     16  C   LIG d   1       3.437  -0.609  -8.517  0.00  0.00    -0.021 A 
ATOM     17  C   LIG d   1       4.418  -1.418  -7.928  0.00  0.00    -0.054 A 
ATOM     18  C   LIG d   1       4.606  -1.385  -6.575  0.00  0.00    -0.053 A 
ATOM     19  H   LIG d   1       5.027  -2.064  -8.542  0.00  0.00     0.062 H 
ATOM     20  C   LIG d   1       3.816  -0.554  -5.779  0.00  0.00    -0.018 A 
ATOM     21  H   LIG d   1       5.364  -2.005  -6.120  0.00  0.00     0.062 H 
ATOM     22  C   LIG d   1       2.839   0.253  -6.364  0.00  0.00    -0.053 A 
ATOM     23  C   LIG d   1       2.649   0.228  -7.717  0.00  0.00    -0.054 A 
ATOM     24  H   LIG d   1       2.232   0.898  -5.747  0.00  0.00     0.062 H 
ATOM     25  H   LIG d   1       1.893   0.852  -8.169  0.00  0.00     0.062 H 
BRANCH  20  26
ATOM     26  C   LIG d   1       4.019  -0.524  -4.311  0.00  0.00    -0.018 A 
ATOM     27  C   LIG d   1       3.942   0.684  -3.618  0.00  0.00    -0.054 A 
ATOM     28  C   LIG d   1       4.127   0.705  -2.252  0.00  0.00    -0.061 A 
ATOM     29  H   LIG d   1       3.733   1.600  -4.151  0.00  0.00     0.062 H 
ATOM     30  C   LIG d   1       4.400  -0.468  -1.569  0.00  0.00    -0.062 A 
ATOM     31  H   LIG d   1       4.064   1.638  -1.713  0.00  0.00     0.062 H 
ATOM     32  C   LIG d   1       4.477  -1.670  -2.251  0.00  0.00    -0.061 A 
ATOM     33  H   LIG d   1       4.548  -0.446  -0.500  0.00  0.00     0.062 H 
ATOM     34  C   LIG d   1       4.288  -1.704  -3.618  0.00  0.00    -0.054 A 
ATOM     35  H   LIG d   1       4.685  -2.582  -1.713  0.00  0.00     0.062 H 
ATOM     36  H   LIG d   1       4.348  -2.642  -4.148  0.00  0.00     0.062 H 
ENDBRANCH  20  26
ENDBRANCH   9  16
BRANCH   1  37
ATOM     37  O   LIG d   1      -1.507  -5.882 -11.251  0.00  0.00    -0.478 OA
BRANCH  37  38
ATOM     38  C   LIG d   1      -1.069  -6.955 -10.415  0.00  0.00     0.193 C 
ATOM     39  H   LIG d   1      -0.094  -6.711  -9.992  0.00  0.00     0.085 H 
BRANCH  38  40
ATOM     40  C   LIG d   1      -2.077  -7.165  -9.285  0.00  0.00    -0.017 C 
ATOM     41  H   LIG d   1      -3.089  -7.127  -9.688  0.00  0.00     0.027 H 
ATOM     42  H   LIG d   1      -1.906  -8.138  -8.822  0.00  0.00     0.027 H 
ATOM     43  H   LIG d   1      -1.954  -6.382  -8.537  0.00  0.00     0.027 H 
ENDBRANCH  38  40
BRANCH  38  44
ATOM     44  C   LIG d   1      -0.960  -8.216 -11.233  0.00  0.00     0.348 C 
ATOM     45  O   LIG d   1      -1.670  -8.374 -12.198  0.00  0.00    -0.247 OA
BRANCH  44  46
ATOM     46  O   LIG d   1      -0.075  -9.164 -10.889  0.00  0.00    -0.465 OA
BRANCH  46  47
ATOM     47  C   LIG d   1       1.284  -8.730 -10.619  0.00  0.00     0.082 C 
ATOM     48  H   LIG d   1       1.843  -9.548 -10.166  0.00  0.00     0.066 H 
ATOM     49  H   LIG d   1       1.763  -8.436 -11.553  0.00  0.00     0.066 H 
ATOM     50  H   LIG d   1       1.266  -7.880  -9.938  0.00  0.00     0.066 H 
ENDBRANCH  46  47
ENDBRANCH  44  46
ENDBRANCH  38  44
ENDBRANCH  37  38
ENDBRANCH   1  37
TORSDOF 8
ENDMDL
MODEL 7
REMARK VINA RESULT:      -6.4      6.838     10.495
REMARK  8 active torsions:
REMARK  status: ('A' for Active; 'I' for Inactive)
REMARK    1  A    between atoms: C_1  and  C_2 
REMARK    2  A    between atoms: C_2  and  C_4 
REMARK    3  A    between atoms: C_2  and  O_8 
REMARK    4  A    between atoms: C_4  and  O_6 
REMARK    5  A    between atoms: O_6  and  C_7 
REMARK    6  A    between atoms: O_8  and  C_9 
REMARK    7  A    between atoms: C_17  and  C_18 
REMARK    8  A    between atoms: C_21  and  C_24 
ROOT
ATOM      1  C   LIG d   1       5.263  -1.173  -5.189  0.00  0.00     0.125 A 
ATOM      2  C   LIG d   1       6.115  -0.246  -5.785  0.00  0.00    -0.019 A 
ATOM      3  C   LIG d   1       7.464  -0.460  -5.793  0.00  0.00    -0.044 A 
ATOM      4  C   LIG d   1       7.991  -1.608  -5.200  0.00  0.00     0.068 A 
ATOM      5  C   LIG d   1       7.142  -2.549  -4.595  0.00  0.00     0.143 A 
ATOM      6  C   LIG d   1       5.773  -2.317  -4.596  0.00  0.00     0.023 A 
ATOM      7  O   LIG d   1       7.875  -3.568  -4.094  0.00  0.00    -0.451 OA
ATOM      8  C   LIG d   1       9.198  -3.392  -4.316  0.00  0.00     0.176 A 
ATOM      9  C   LIG d   1      10.194  -4.234  -3.937  0.00  0.00    -0.008 C 
ATOM     10  C   LIG d   1       9.363  -2.121  -5.036  0.00  0.00     0.232 A 
ATOM     11  O   LIG d   1      10.401  -1.605  -5.413  0.00  0.00    -0.283 OA
ATOM     12  H   LIG d   1       5.707   0.643  -6.243  0.00  0.00     0.065 H 
ATOM     13  H   LIG d   1       8.123   0.260  -6.256  0.00  0.00     0.063 H 
ATOM     14  H   LIG d   1       5.104  -3.030  -4.136  0.00  0.00     0.069 H 
ATOM     15  H   LIG d   1      11.225  -3.955  -4.091  0.00  0.00     0.066 H 
ENDROOT
BRANCH   9  16
ATOM     16  C   LIG d   1       9.867  -5.525  -3.320  0.00  0.00    -0.021 A 
ATOM     17  C   LIG d   1       9.491  -6.611  -4.121  0.00  0.00    -0.054 A 
ATOM     18  C   LIG d   1       9.193  -7.813  -3.544  0.00  0.00    -0.053 A 
ATOM     19  H   LIG d   1       9.439  -6.499  -5.194  0.00  0.00     0.062 H 
ATOM     20  C   LIG d   1       9.253  -7.957  -2.157  0.00  0.00    -0.018 A 
ATOM     21  H   LIG d   1       8.906  -8.652  -4.161  0.00  0.00     0.062 H 
ATOM     22  C   LIG d   1       9.630  -6.877  -1.356  0.00  0.00    -0.053 A 
ATOM     23  C   LIG d   1       9.933  -5.674  -1.929  0.00  0.00    -0.054 A 
ATOM     24  H   LIG d   1       9.680  -6.992  -0.284  0.00  0.00     0.062 H 
ATOM     25  H   LIG d   1      10.223  -4.838  -1.308  0.00  0.00     0.062 H 
BRANCH  20  26
ATOM     26  C   LIG d   1       8.925  -9.261  -1.534  0.00  0.00    -0.018 A 
ATOM     27  C   LIG d   1       7.600  -9.693  -1.471  0.00  0.00    -0.054 A 
ATOM     28  C   LIG d   1       7.301 -10.910  -0.894  0.00  0.00    -0.061 A 
ATOM     29  H   LIG d   1       6.812  -9.078  -1.877  0.00  0.00     0.062 H 
ATOM     30  C   LIG d   1       8.311 -11.697  -0.368  0.00  0.00    -0.062 A 
ATOM     31  H   LIG d   1       6.277 -11.248  -0.847  0.00  0.00     0.062 H 
ATOM     32  C   LIG d   1       9.627 -11.273  -0.428  0.00  0.00    -0.061 A 
ATOM     33  H   LIG d   1       8.072 -12.646   0.087  0.00  0.00     0.062 H 
ATOM     34  C   LIG d   1       9.939 -10.061  -1.008  0.00  0.00    -0.054 A 
ATOM     35  H   LIG d   1      10.411 -11.893  -0.020  0.00  0.00     0.062 H 
ATOM     36  H   LIG d   1      10.966  -9.732  -1.053  0.00  0.00     0.062 H 
ENDBRANCH  20  26
ENDBRANCH   9  16
BRANCH   1  37
ATOM     37  O   LIG d   1       3.924  -0.952  -5.187  0.00  0.00    -0.478 OA
BRANCH  37  38
ATOM     38  C   LIG d   1       3.462   0.222  -4.516  0.00  0.00     0.193 C 
ATOM     39  H   LIG d   1       4.250   0.975  -4.516  0.00  0.00     0.085 H 
BRANCH  38  40
ATOM     40  C   LIG d   1       2.231   0.771  -5.239  0.00  0.00    -0.017 C 
ATOM     41  H   LIG d   1       1.407   0.064  -5.144  0.00  0.00     0.027 H 
ATOM     42  H   LIG d   1       1.944   1.725  -4.795  0.00  0.00     0.027 H 
ATOM     43  H   LIG d   1       2.464   0.918  -6.294  0.00  0.00     0.027 H 
ENDBRANCH  38  40
BRANCH  38  44
ATOM     44  C   LIG d   1       3.097  -0.123  -3.095  0.00  0.00     0.348 C 
ATOM     45  O   LIG d   1       2.627  -1.206  -2.837  0.00  0.00    -0.247 OA
BRANCH  44  46
ATOM     46  O   LIG d   1       3.293   0.774  -2.116  0.00  0.00    -0.465 OA
BRANCH  46  47
ATOM     47  C   LIG d   1       4.659   0.969  -1.665  0.00  0.00     0.082 C 
ATOM     48  H   LIG d   1       4.677   1.037  -0.578  0.00  0.00     0.066 H 
ATOM     49  H   LIG d   1       5.272   0.127  -1.987  0.00  0.00     0.066 H 
ATOM     50  H   LIG d   1       5.056   1.890  -2.092  0.00  0.00     0.066 H 
ENDBRANCH  46  47
ENDBRANCH  44  46
ENDBRANCH  38  44
ENDBRANCH  37  38
ENDBRANCH   1  37
TORSDOF 8
ENDMDL
MODEL 8
REMARK VINA RESULT:      -6.3      7.144     10.874
REMARK  8 active torsions:
REMARK  status: ('A' for Active; 'I' for Inactive)
REMARK    1  A    between atoms: C_1  and  C_2 
REMARK    2  A    between atoms: C_2  and  C_4 
REMARK    3  A    between atoms: C_2  and  O_8 
REMARK    4  A    between atoms: C_4  and  O_6 
REMARK    5  A    between atoms: O_6  and  C_7 
REMARK    6  A    between atoms: O_8  and  C_9 
REMARK    7  A    between atoms: C_17  and  C_18 
REMARK    8  A    between atoms: C_21  and  C_24 
ROOT
ATOM      1  C   LIG d   1       5.536  -0.492  -3.351  0.00  0.00     0.125 A 
ATOM      2  C   LIG d   1       6.163  -1.414  -4.185  0.00  0.00    -0.019 A 
ATOM      3  C   LIG d   1       7.369  -1.115  -4.753  0.00  0.00    -0.044 A 
ATOM      4  C   LIG d   1       7.972   0.117  -4.500  0.00  0.00     0.068 A 
ATOM      5  C   LIG d   1       7.348   1.056  -3.662  0.00  0.00     0.143 A 
ATOM      6  C   LIG d   1       6.123   0.736  -3.091  0.00  0.00     0.023 A 
ATOM      7  O   LIG d   1       8.115   2.163  -3.568  0.00  0.00    -0.451 OA
ATOM      8  C   LIG d   1       9.250   2.054  -4.298  0.00  0.00     0.176 A 
ATOM      9  C   LIG d   1      10.224   2.992  -4.413  0.00  0.00    -0.008 C 
ATOM     10  C   LIG d   1       9.232   0.736  -4.950  0.00  0.00     0.232 A 
ATOM     11  O   LIG d   1      10.071   0.260  -5.694  0.00  0.00    -0.283 OA
ATOM     12  H   LIG d   1       5.696  -2.368  -4.381  0.00  0.00     0.065 H 
ATOM     13  H   LIG d   1       7.855  -1.832  -5.399  0.00  0.00     0.063 H 
ATOM     14  H   LIG d   1       5.627   1.445  -2.443  0.00  0.00     0.069 H 
ATOM     15  H   LIG d   1      11.048   2.835  -5.091  0.00  0.00     0.066 H 
ENDROOT
BRANCH   9  16
ATOM     16  C   LIG d   1      10.156   4.221  -3.613  0.00  0.00    -0.021 A 
ATOM     17  C   LIG d   1       9.618   5.391  -4.168  0.00  0.00    -0.054 A 
ATOM     18  C   LIG d   1       9.551   6.531  -3.420  0.00  0.00    -0.053 A 
ATOM     19  H   LIG d   1       9.253   5.388  -5.184  0.00  0.00     0.062 H 
ATOM     20  C   LIG d   1      10.027   6.537  -2.108  0.00  0.00    -0.018 A 
ATOM     21  H   LIG d   1       9.133   7.432  -3.845  0.00  0.00     0.062 H 
ATOM     22  C   LIG d   1      10.563   5.374  -1.553  0.00  0.00    -0.053 A 
ATOM     23  C   LIG d   1      10.628   4.228  -2.295  0.00  0.00    -0.054 A 
ATOM     24  H   LIG d   1      10.927   5.379  -0.536  0.00  0.00     0.062 H 
ATOM     25  H   LIG d   1      11.044   3.328  -1.865  0.00  0.00     0.062 H 
BRANCH  20  26
ATOM     26  C   LIG d   1       9.958   7.778  -1.301  0.00  0.00    -0.018 A 
ATOM     27  C   LIG d   1       8.766   8.499  -1.225  0.00  0.00    -0.054 A 
ATOM     28  C   LIG d   1       8.706   9.650  -0.469  0.00  0.00    -0.061 A 
ATOM     29  H   LIG d   1       7.891   8.152  -1.755  0.00  0.00     0.062 H 
ATOM     30  C   LIG d   1       9.828  10.097   0.206  0.00  0.00    -0.062 A 
ATOM     31  H   LIG d   1       7.783  10.207  -0.406  0.00  0.00     0.062 H 
ATOM     32  C   LIG d   1      11.014   9.387   0.135  0.00  0.00    -0.061 A 
ATOM     33  H   LIG d   1       9.777  11.002   0.794  0.00  0.00     0.062 H 
ATOM     34  C   LIG d   1      11.084   8.230  -0.614  0.00  0.00    -0.054 A 
ATOM     35  H   LIG d   1      11.884   9.738   0.668  0.00  0.00     0.062 H 
ATOM     36  H   LIG d   1      12.009   7.677  -0.668  0.00  0.00     0.062 H 
ENDBRANCH  20  26
ENDBRANCH   9  16
BRANCH   1  37
ATOM     37  O   LIG d   1       4.338  -0.798  -2.791  0.00  0.00    -0.478 OA
BRANCH  37  38
ATOM     38  C   LIG d   1       3.303   0.182  -2.896  0.00  0.00     0.193 C 
ATOM     39  H   LIG d   1       2.384  -0.213  -2.463  0.00  0.00     0.085 H 
BRANCH  38  40
ATOM     40  C   LIG d   1       3.719   1.446  -2.143  0.00  0.00    -0.017 C 
ATOM     41  H   LIG d   1       2.937   2.200  -2.239  0.00  0.00     0.027 H 
ATOM     42  H   LIG d   1       3.868   1.209  -1.089  0.00  0.00     0.027 H 
ATOM     43  H   LIG d   1       4.648   1.831  -2.563  0.00  0.00     0.027 H 
ENDBRANCH  38  40
BRANCH  38  44
ATOM     44  C   LIG d   1       3.073   0.514  -4.348  0.00  0.00     0.348 C 
ATOM     45  O   LIG d   1       2.772   1.638  -4.671  0.00  0.00    -0.247 OA
BRANCH  44  46
ATOM     46  O   LIG d   1       3.200  -0.442  -5.282  0.00  0.00    -0.465 OA
BRANCH  46  47
ATOM     47  C   LIG d   1       3.217  -0.010  -6.668  0.00  0.00     0.082 C 
ATOM     48  H   LIG d   1       2.983  -0.855  -7.315  0.00  0.00     0.066 H 
ATOM     49  H   LIG d   1       2.476   0.776  -6.813  0.00  0.00     0.066 H 
ATOM     50  H   LIG d   1       4.206   0.375  -6.917  0.00  0.00     0.066 H 
ENDBRANCH  46  47
ENDBRANCH  44  46
ENDBRANCH  38  44
ENDBRANCH  37  38
ENDBRANCH   1  37
TORSDOF 8
ENDMDL
MODEL 9
REMARK VINA RESULT:      -6.3      6.832     10.673
REMARK  8 active torsions:
REMARK  status: ('A' for Active; 'I' for Inactive)
REMARK    1  A    between atoms: C_1  and  C_2 
REMARK    2  A    between atoms: C_2  and  C_4 
REMARK    3  A    between atoms: C_2  and  O_8 
REMARK    4  A    between atoms: C_4  and  O_6 
REMARK    5  A    between atoms: O_6  and  C_7 
REMARK    6  A    between atoms: O_8  and  C_9 
REMARK    7  A    between atoms: C_17  and  C_18 
REMARK    8  A    between atoms: C_21  and  C_24 
ROOT
ATOM      1  C   LIG d   1       6.971  -0.092  -4.168  0.00  0.00     0.125 A 
ATOM      2  C   LIG d   1       7.931   0.498  -4.986  0.00  0.00    -0.019 A 
ATOM      3  C   LIG d   1       8.977  -0.243  -5.461  0.00  0.00    -0.044 A 
ATOM      4  C   LIG d   1       9.084  -1.592  -5.122  0.00  0.00     0.068 A 
ATOM      5  C   LIG d   1       8.122  -2.197  -4.298  0.00  0.00     0.143 A 
ATOM      6  C   LIG d   1       7.065  -1.430  -3.824  0.00  0.00     0.023 A 
ATOM      7  O   LIG d   1       8.435  -3.498  -4.112  0.00  0.00    -0.451 OA
ATOM      8  C   LIG d   1       9.569  -3.842  -4.765  0.00  0.00     0.176 A 
ATOM      9  C   LIG d   1      10.147  -5.070  -4.777  0.00  0.00    -0.008 C 
ATOM     10  C   LIG d   1      10.066  -2.641  -5.454  0.00  0.00     0.232 A 
ATOM     11  O   LIG d   1      11.064  -2.535  -6.144  0.00  0.00    -0.283 OA
ATOM     12  H   LIG d   1       7.849   1.543  -5.248  0.00  0.00     0.065 H 
ATOM     13  H   LIG d   1       9.721   0.216  -6.096  0.00  0.00     0.063 H 
ATOM     14  H   LIG d   1       6.315  -1.878  -3.189  0.00  0.00     0.069 H 
ATOM     15  H   LIG d   1      11.101  -5.213  -5.263  0.00  0.00     0.066 H 
ENDROOT
BRANCH   9  16
ATOM     16  C   LIG d   1       9.476  -6.204  -4.130  0.00  0.00    -0.021 A 
ATOM     17  C   LIG d   1       8.504  -6.934  -4.827  0.00  0.00    -0.054 A 
ATOM     18  C   LIG d   1       7.885  -7.992  -4.225  0.00  0.00    -0.053 A 
ATOM     19  H   LIG d   1       8.248  -6.664  -5.841  0.00  0.00     0.062 H 
ATOM     20  C   LIG d   1       8.211  -8.339  -2.913  0.00  0.00    -0.018 A 
ATOM     21  H   LIG d   1       7.139  -8.559  -4.762  0.00  0.00     0.062 H 
ATOM     22  C   LIG d   1       9.179  -7.613  -2.216  0.00  0.00    -0.053 A 
ATOM     23  C   LIG d   1       9.805  -6.557  -2.815  0.00  0.00    -0.054 A 
ATOM     24  H   LIG d   1       9.432  -7.886  -1.203  0.00  0.00     0.062 H 
ATOM     25  H   LIG d   1      10.553  -5.995  -2.276  0.00  0.00     0.062 H 
BRANCH  20  26
ATOM     26  C   LIG d   1       7.534  -9.484  -2.260  0.00  0.00    -0.018 A 
ATOM     27  C   LIG d   1       8.143 -10.143  -1.192  0.00  0.00    -0.054 A 
ATOM     28  C   LIG d   1       7.506 -11.205  -0.585  0.00  0.00    -0.061 A 
ATOM     29  H   LIG d   1       9.110  -9.817  -0.838  0.00  0.00     0.062 H 
ATOM     30  C   LIG d   1       6.269 -11.625  -1.041  0.00  0.00    -0.062 A 
ATOM     31  H   LIG d   1       7.974 -11.713   0.244  0.00  0.00     0.062 H 
ATOM     32  C   LIG d   1       5.659 -10.976  -2.101  0.00  0.00    -0.061 A 
ATOM     33  H   LIG d   1       5.775 -12.460  -0.566  0.00  0.00     0.062 H 
ATOM     34  C   LIG d   1       6.284  -9.909  -2.712  0.00  0.00    -0.054 A 
ATOM     35  H   LIG d   1       4.692 -11.306  -2.449  0.00  0.00     0.062 H 
ATOM     36  H   LIG d   1       5.807  -9.403  -3.538  0.00  0.00     0.062 H 
ENDBRANCH  20  26
ENDBRANCH   9  16
BRANCH   1  37
ATOM     37  O   LIG d   1       5.936   0.653  -3.703  0.00  0.00    -0.478 OA
BRANCH  37  38
ATOM     38  C   LIG d   1       4.837  -0.055  -3.125  0.00  0.00     0.193 C 
ATOM     39  H   LIG d   1       5.125  -1.091  -2.946  0.00  0.00     0.085 H 
BRANCH  38  40
ATOM     40  C   LIG d   1       4.446   0.603  -1.801  0.00  0.00    -0.017 C 
ATOM     41  H   LIG d   1       3.426   0.319  -1.541  0.00  0.00     0.027 H 
ATOM     42  H   LIG d   1       5.126   0.271  -1.016  0.00  0.00     0.027 H 
ATOM     43  H   LIG d   1       4.508   1.686  -1.901  0.00  0.00     0.027 H 
ENDBRANCH  38  40
BRANCH  38  44
ATOM     44  C   LIG d   1       3.664  -0.017  -4.071  0.00  0.00     0.348 C 
ATOM     45  O   LIG d   1       2.557  -0.292  -3.673  0.00  0.00    -0.247 OA
BRANCH  44  46
ATOM     46  O   LIG d   1       3.850   0.322  -5.357  0.00  0.00    -0.465 OA
BRANCH  46  47
ATOM     47  C   LIG d   1       2.679   0.324  -6.214  0.00  0.00     0.082 C 
ATOM     48  H   LIG d   1       2.622   1.271  -6.749  0.00  0.00     0.066 H 
ATOM     49  H   LIG d   1       2.751  -0.495  -6.930  0.00  0.00     0.066 H 
ATOM     50  H   LIG d   1       1.783   0.195  -5.607  0.00  0.00     0.066 H 
ENDBRANCH  46  47
ENDBRANCH  44  46
ENDBRANCH  38  44
ENDBRANCH  37  38
ENDBRANCH   1  37
TORSDOF 8
ENDMDL
MODEL 10
REMARK VINA RESULT:      -6.3      8.204     11.416
REMARK  8 active torsions:
REMARK  status: ('A' for Active; 'I' for Inactive)
REMARK    1  A    between atoms: C_1  and  C_2 
REMARK    2  A    between atoms: C_2  and  C_4 
REMARK    3  A    between atoms: C_2  and  O_8 
REMARK    4  A    between atoms: C_4  and  O_6 
REMARK    5  A    between atoms: O_6  and  C_7 
REMARK    6  A    between atoms: O_8  and  C_9 
REMARK    7  A    between atoms: C_17  and  C_18 
REMARK    8  A    between atoms: C_21  and  C_24 
ROOT
ATOM      1  C   LIG d   1       6.999   0.312  -3.612  0.00  0.00     0.125 A 
ATOM      2  C   LIG d   1       7.533  -0.674  -4.438  0.00  0.00    -0.019 A 
ATOM      3  C   LIG d   1       8.432  -0.342  -5.410  0.00  0.00    -0.044 A 
ATOM      4  C   LIG d   1       8.816   0.989  -5.579  0.00  0.00     0.068 A 
ATOM      5  C   LIG d   1       8.284   1.993  -4.753  0.00  0.00     0.143 A 
ATOM      6  C   LIG d   1       7.370   1.638  -3.769  0.00  0.00     0.023 A 
ATOM      7  O   LIG d   1       8.800   3.191  -5.103  0.00  0.00    -0.451 OA
ATOM      8  C   LIG d   1       9.670   3.084  -6.134  0.00  0.00     0.176 A 
ATOM      9  C   LIG d   1      10.354   4.102  -6.716  0.00  0.00    -0.008 C 
ATOM     10  C   LIG d   1       9.736   1.664  -6.513  0.00  0.00     0.232 A 
ATOM     11  O   LIG d   1      10.401   1.158  -7.399  0.00  0.00    -0.283 OA
ATOM     12  H   LIG d   1       7.236  -1.704  -4.307  0.00  0.00     0.065 H 
ATOM     13  H   LIG d   1       8.846  -1.108  -6.049  0.00  0.00     0.063 H 
ATOM     14  H   LIG d   1       6.950   2.396  -3.124  0.00  0.00     0.069 H 
ATOM     15  H   LIG d   1      10.959   3.915  -7.590  0.00  0.00     0.066 H 
ENDROOT
BRANCH   9  16
ATOM     16  C   LIG d   1      10.270   5.456  -6.157  0.00  0.00    -0.021 A 
ATOM     17  C   LIG d   1       9.594   6.464  -6.859  0.00  0.00    -0.054 A 
ATOM     18  C   LIG d   1       9.513   7.722  -6.333  0.00  0.00    -0.053 A 
ATOM     19  H   LIG d   1       9.135   6.245  -7.811  0.00  0.00     0.062 H 
ATOM     20  C   LIG d   1      10.110   8.008  -5.105  0.00  0.00    -0.018 A 
ATOM     21  H   LIG d   1       8.989   8.499  -6.871  0.00  0.00     0.062 H 
ATOM     22  C   LIG d   1      10.783   7.005  -4.403  0.00  0.00    -0.053 A 
ATOM     23  C   LIG d   1      10.864   5.744  -4.922  0.00  0.00    -0.054 A 
ATOM     24  H   LIG d   1      11.241   7.227  -3.451  0.00  0.00     0.062 H 
ATOM     25  H   LIG d   1      11.385   4.969  -4.379  0.00  0.00     0.062 H 
BRANCH  20  26
ATOM     26  C   LIG d   1      10.025   9.375  -4.540  0.00  0.00    -0.018 A 
ATOM     27  C   LIG d   1       9.476  10.412  -5.295  0.00  0.00    -0.054 A 
ATOM     28  C   LIG d   1       9.395  11.681  -4.763  0.00  0.00    -0.061 A 
ATOM     29  H   LIG d   1       9.112  10.219  -6.293  0.00  0.00     0.062 H 
ATOM     30  C   LIG d   1       9.865  11.931  -3.486  0.00  0.00    -0.062 A 
ATOM     31  H   LIG d   1       8.967  12.484  -5.345  0.00  0.00     0.062 H 
ATOM     32  C   LIG d   1      10.411  10.906  -2.731  0.00  0.00    -0.061 A 
ATOM     33  H   LIG d   1       9.804  12.927  -3.075  0.00  0.00     0.062 H 
ATOM     34  C   LIG d   1      10.492   9.631  -3.252  0.00  0.00    -0.054 A 
ATOM     35  H   LIG d   1      10.772  11.106  -1.734  0.00  0.00     0.062 H 
ATOM     36  H   LIG d   1      10.918   8.833  -2.662  0.00  0.00     0.062 H 
ENDBRANCH  20  26
ENDBRANCH   9  16
BRANCH   1  37
ATOM     37  O   LIG d   1       6.106  -0.028  -2.649  0.00  0.00    -0.478 OA
BRANCH  37  38
ATOM     38  C   LIG d   1       4.852  -0.558  -3.084  0.00  0.00     0.193 C 
ATOM     39  H   LIG d   1       4.971  -1.007  -4.070  0.00  0.00     0.085 H 
BRANCH  38  40
ATOM     40  C   LIG d   1       4.376  -1.621  -2.093  0.00  0.00    -0.017 C 
ATOM     41  H   LIG d   1       4.806  -1.421  -1.111  0.00  0.00     0.027 H 
ATOM     42  H   LIG d   1       3.288  -1.593  -2.025  0.00  0.00     0.027 H 
ATOM     43  H   LIG d   1       4.693  -2.605  -2.435  0.00  0.00     0.027 H 
ENDBRANCH  38  40
BRANCH  38  44
ATOM     44  C   LIG d   1       3.836   0.553  -3.156  0.00  0.00     0.348 C 
ATOM     45  O   LIG d   1       3.337   0.983  -2.144  0.00  0.00    -0.247 OA
BRANCH  44  46
ATOM     46  O   LIG d   1       3.485   1.064  -4.347  0.00  0.00    -0.465 OA
BRANCH  46  47
ATOM     47  C   LIG d   1       2.311   0.499  -4.986  0.00  0.00     0.082 C 
ATOM     48  H   LIG d   1       2.045  -0.438  -4.496  0.00  0.00     0.066 H 
ATOM     49  H   LIG d   1       1.480   1.200  -4.904  0.00  0.00     0.066 H 
ATOM     50  H   LIG d   1       2.523   0.310  -6.038  0.00  0.00     0.066 H 
ENDBRANCH  46  47
ENDBRANCH  44  46
ENDBRANCH  38  44
ENDBRANCH  37  38
ENDBRANCH   1  37
TORSDOF 8
ENDMDL
