MODEL 1
REMARK VINA RESULT:      -7.5      0.000      0.000
REMARK  4 active torsions:
REMARK  status: ('A' for Active; 'I' for Inactive)
REMARK    1  A    between atoms: C_4  and  C_7 
REMARK       I    between atoms: C_7  and  N_9 
REMARK    2  A    between atoms: N_9  and  C_10 
REMARK    3  A    between atoms: C_25  and  C_26 
REMARK    4  A    between atoms: C_25  and  N_61 
ROOT
ATOM      1  C   LIG d   1       4.289  -1.292  -7.587  0.00  0.00     0.099 C 
ATOM      2  C   LIG d   1       4.735  -2.479  -7.070  0.00  0.00    -0.034 C 
ATOM      3  C   LIG d   1       4.669  -2.681  -5.687  0.00  0.00    -0.040 C 
ATOM      4  C   LIG d   1       4.159  -1.721  -4.873  0.00  0.00     0.030 C 
ATOM      5  N   LIG d   1       3.638  -0.582  -5.389  0.00  0.00    -0.310 N 
ATOM      6  C   LIG d   1       3.766  -0.319  -6.712  0.00  0.00     0.273 C 
ATOM      7  O   LIG d   1       3.421   0.767  -7.151  0.00  0.00    -0.266 OA
ATOM      8  C   LIG d   1       2.878   0.381  -4.590  0.00  0.00     0.034 C 
ATOM      9  C   LIG d   1       3.176   0.260  -3.105  0.00  0.00     0.018 C 
ATOM     10  H   LIG d   1       2.412   0.807  -2.554  0.00  0.00     0.037 H 
ATOM     11  C   LIG d   1       3.100  -1.210  -2.687  0.00  0.00    -0.031 C 
ATOM     12  C   LIG d   1       4.249  -1.951  -3.380  0.00  0.00     0.040 C 
ATOM     13  H   LIG d   1       4.218  -3.017  -3.155  0.00  0.00     0.042 H 
ATOM     14  C   LIG d   1       5.572  -1.336  -2.895  0.00  0.00    -0.024 C 
ATOM     15  C   LIG d   1       4.536   0.850  -2.754  0.00  0.00    -0.027 C 
ATOM     16  H   LIG d   1       5.127  -3.247  -7.720  0.00  0.00     0.064 H 
ATOM     17  H   LIG d   1       5.027  -3.607  -5.264  0.00  0.00     0.064 H 
ATOM     18  H   LIG d   1       3.128   1.390  -4.920  0.00  0.00     0.050 H 
ATOM     19  H   LIG d   1       1.813   0.213  -4.752  0.00  0.00     0.050 H 
ATOM     20  H   LIG d   1       2.145  -1.634  -3.000  0.00  0.00     0.028 H 
ATOM     21  H   LIG d   1       3.205  -1.294  -1.606  0.00  0.00     0.028 H 
ATOM     22  H   LIG d   1       5.617  -1.371  -1.807  0.00  0.00     0.082 H 
ATOM     23  H   LIG d   1       6.412  -1.889  -3.317  0.00  0.00     0.082 H 
ATOM     24  H   LIG d   1       4.653   0.857  -1.670  0.00  0.00     0.082 H 
ATOM     25  H   LIG d   1       4.589   1.872  -3.126  0.00  0.00     0.082 H 
ATOM     26  N   LIG d   1       5.617   0.062  -3.380  0.00  0.00     0.236 N 
ATOM     27  H   LIG d   1       5.487   0.066  -4.398  0.00  0.00     0.203 HD
ENDROOT
BRANCH  26  28
ATOM     28  C   LIG d   1       6.929   0.665  -3.062  0.00  0.00    -0.029 C 
ATOM     29  H   LIG d   1       6.839   1.242  -2.142  0.00  0.00     0.082 H 
ATOM     30  H   LIG d   1       7.658  -0.133  -2.922  0.00  0.00     0.082 H 
BRANCH  28  31
ATOM     31  C   LIG d   1       7.386   1.583  -4.197  0.00  0.00    -0.001 C 
ATOM     32  C   LIG d   1       8.708   2.252  -3.812  0.00  0.00    -0.045 C 
ATOM     33  C   LIG d   1       9.165   3.169  -4.948  0.00  0.00    -0.053 C 
ATOM     34  H   LIG d   1       8.565   2.840  -2.905  0.00  0.00     0.027 H 
ATOM     35  H   LIG d   1       9.463   1.487  -3.635  0.00  0.00     0.027 H 
ATOM     36  C   LIG d   1       9.364   2.344  -6.221  0.00  0.00    -0.053 C 
ATOM     37  H   LIG d   1       8.409   3.933  -5.125  0.00  0.00     0.026 H 
ATOM     38  H   LIG d   1      10.106   3.645  -4.673  0.00  0.00     0.026 H 
ATOM     39  C   LIG d   1       8.044   1.674  -6.606  0.00  0.00    -0.053 C 
ATOM     40  H   LIG d   1       9.691   2.996  -7.030  0.00  0.00     0.026 H 
ATOM     41  H   LIG d   1      10.121   1.579  -6.043  0.00  0.00     0.026 H 
ATOM     42  C   LIG d   1       7.585   0.757  -5.471  0.00  0.00    -0.045 C 
ATOM     43  H   LIG d   1       7.288   2.439  -6.784  0.00  0.00     0.026 H 
ATOM     44  H   LIG d   1       8.185   1.086  -7.513  0.00  0.00     0.026 H 
ATOM     45  H   LIG d   1       8.342  -0.007  -5.294  0.00  0.00     0.027 H 
ATOM     46  H   LIG d   1       6.645   0.281  -5.746  0.00  0.00     0.027 H 
ATOM     47  H   LIG d   1       6.630   2.347  -4.376  0.00  0.00     0.035 H 
ENDBRANCH  28  31
ENDBRANCH  26  28
BRANCH   1  48
ATOM     48  N   LIG d   1       4.356  -1.047  -8.965  0.00  0.00    -0.277 N 
ATOM     49  C   LIG d   1       3.363  -1.468  -9.773  0.00  0.00     0.248 C 
ATOM     50  O   LIG d   1       2.377  -1.998  -9.299  0.00  0.00    -0.270 OA
ATOM     51  H   LIG d   1       5.116  -0.574  -9.336  0.00  0.00     0.155 HD
BRANCH  49  52
ATOM     52  C   LIG d   1       3.473  -1.285 -11.235  0.00  0.00     0.037 A 
ATOM     53  C   LIG d   1       2.472  -1.769 -12.080  0.00  0.00    -0.050 A 
ATOM     54  C   LIG d   1       2.581  -1.594 -13.444  0.00  0.00    -0.061 A 
ATOM     55  H   LIG d   1       1.614  -2.279 -11.667  0.00  0.00     0.062 H 
ATOM     56  C   LIG d   1       3.680  -0.941 -13.975  0.00  0.00    -0.062 A 
ATOM     57  H   LIG d   1       1.808  -1.968 -14.098  0.00  0.00     0.062 H 
ATOM     58  C   LIG d   1       4.675  -0.460 -13.145  0.00  0.00    -0.061 A 
ATOM     59  H   LIG d   1       3.760  -0.808 -15.044  0.00  0.00     0.062 H 
ATOM     60  C   LIG d   1       4.575  -0.623 -11.778  0.00  0.00    -0.050 A 
ATOM     61  H   LIG d   1       5.530   0.049 -13.565  0.00  0.00     0.062 H 
ATOM     62  H   LIG d   1       5.351  -0.242 -11.130  0.00  0.00     0.062 H 
ENDBRANCH  49  52
ENDBRANCH   1  48
TORSDOF 4
ENDMDL
MODEL 2
REMARK VINA RESULT:      -7.3      4.282      7.505
REMARK  4 active torsions:
REMARK  status: ('A' for Active; 'I' for Inactive)
REMARK    1  A    between atoms: C_4  and  C_7 
REMARK       I    between atoms: C_7  and  N_9 
REMARK    2  A    between atoms: N_9  and  C_10 
REMARK    3  A    between atoms: C_25  and  C_26 
REMARK    4  A    between atoms: C_25  and  N_61 
ROOT
ATOM      1  C   LIG d   1       4.752  -5.303  -6.086  0.00  0.00     0.099 C 
ATOM      2  C   LIG d   1       3.823  -5.273  -7.091  0.00  0.00    -0.034 C 
ATOM      3  C   LIG d   1       3.778  -4.158  -7.937  0.00  0.00    -0.040 C 
ATOM      4  C   LIG d   1       4.650  -3.130  -7.770  0.00  0.00     0.030 C 
ATOM      5  N   LIG d   1       5.625  -3.195  -6.832  0.00  0.00    -0.310 N 
ATOM      6  C   LIG d   1       5.640  -4.218  -5.943  0.00  0.00     0.273 C 
ATOM      7  O   LIG d   1       6.433  -4.203  -5.015  0.00  0.00    -0.266 OA
ATOM      8  C   LIG d   1       6.722  -2.230  -6.754  0.00  0.00     0.034 C 
ATOM      9  C   LIG d   1       6.385  -0.916  -7.441  0.00  0.00     0.018 C 
ATOM     10  H   LIG d   1       7.306  -0.350  -7.574  0.00  0.00     0.037 H 
ATOM     11  C   LIG d   1       5.801  -1.202  -8.827  0.00  0.00    -0.031 C 
ATOM     12  C   LIG d   1       4.451  -1.900  -8.629  0.00  0.00     0.040 C 
ATOM     13  H   LIG d   1       4.006  -2.170  -9.586  0.00  0.00     0.042 H 
ATOM     14  C   LIG d   1       3.528  -0.941  -7.858  0.00  0.00    -0.024 C 
ATOM     15  C   LIG d   1       5.420  -0.079  -6.612  0.00  0.00    -0.027 C 
ATOM     16  H   LIG d   1       3.140  -6.097  -7.232  0.00  0.00     0.064 H 
ATOM     17  H   LIG d   1       3.044  -4.115  -8.727  0.00  0.00     0.064 H 
ATOM     18  H   LIG d   1       6.946  -2.032  -5.705  0.00  0.00     0.050 H 
ATOM     19  H   LIG d   1       7.606  -2.659  -7.226  0.00  0.00     0.050 H 
ATOM     20  H   LIG d   1       6.475  -1.852  -9.385  0.00  0.00     0.028 H 
ATOM     21  H   LIG d   1       5.657  -0.267  -9.368  0.00  0.00     0.028 H 
ATOM     22  H   LIG d   1       3.460   0.009  -8.388  0.00  0.00     0.082 H 
ATOM     23  H   LIG d   1       2.536  -1.382  -7.763  0.00  0.00     0.082 H 
ATOM     24  H   LIG d   1       5.306   0.900  -7.078  0.00  0.00     0.082 H 
ATOM     25  H   LIG d   1       5.826   0.047  -5.610  0.00  0.00     0.082 H 
ATOM     26  N   LIG d   1       4.109  -0.752  -6.510  0.00  0.00     0.236 N 
ATOM     27  H   LIG d   1       4.240  -1.671  -6.071  0.00  0.00     0.203 HD
ENDROOT
BRANCH  26  28
ATOM     28  C   LIG d   1       3.194   0.052  -5.673  0.00  0.00    -0.029 C 
ATOM     29  H   LIG d   1       3.492   1.099  -5.728  0.00  0.00     0.082 H 
ATOM     30  H   LIG d   1       2.179  -0.058  -6.056  0.00  0.00     0.082 H 
BRANCH  28  31
ATOM     31  C   LIG d   1       3.245  -0.417  -4.218  0.00  0.00    -0.001 C 
ATOM     32  C   LIG d   1       3.917  -1.790  -4.147  0.00  0.00    -0.045 C 
ATOM     33  C   LIG d   1       3.969  -2.258  -2.691  0.00  0.00    -0.053 C 
ATOM     34  H   LIG d   1       3.345  -2.505  -4.739  0.00  0.00     0.027 H 
ATOM     35  H   LIG d   1       4.930  -1.718  -4.543  0.00  0.00     0.027 H 
ATOM     36  C   LIG d   1       4.771  -1.254  -1.861  0.00  0.00    -0.053 C 
ATOM     37  H   LIG d   1       2.955  -2.328  -2.297  0.00  0.00     0.026 H 
ATOM     38  H   LIG d   1       4.447  -3.235  -2.642  0.00  0.00     0.026 H 
ATOM     39  C   LIG d   1       4.100   0.119  -1.932  0.00  0.00    -0.053 C 
ATOM     40  H   LIG d   1       4.809  -1.588  -0.824  0.00  0.00     0.026 H 
ATOM     41  H   LIG d   1       5.785  -1.184  -2.257  0.00  0.00     0.026 H 
ATOM     42  C   LIG d   1       4.048   0.588  -3.387  0.00  0.00    -0.045 C 
ATOM     43  H   LIG d   1       3.086   0.048  -1.536  0.00  0.00     0.026 H 
ATOM     44  H   LIG d   1       4.671   0.834  -1.340  0.00  0.00     0.026 H 
ATOM     45  H   LIG d   1       5.061   0.658  -3.782  0.00  0.00     0.027 H 
ATOM     46  H   LIG d   1       3.569   1.565  -3.437  0.00  0.00     0.027 H 
ATOM     47  H   LIG d   1       2.232  -0.486  -3.822  0.00  0.00     0.035 H 
ENDBRANCH  28  31
ENDBRANCH  26  28
BRANCH   1  48
ATOM     48  N   LIG d   1       4.815  -6.393  -5.209  0.00  0.00    -0.277 N 
ATOM     49  C   LIG d   1       5.545  -7.479  -5.535  0.00  0.00     0.248 C 
ATOM     50  O   LIG d   1       6.204  -7.484  -6.557  0.00  0.00    -0.270 OA
ATOM     51  H   LIG d   1       4.334  -6.367  -4.368  0.00  0.00     0.155 HD
BRANCH  49  52
ATOM     52  C   LIG d   1       5.543  -8.663  -4.651  0.00  0.00     0.037 A 
ATOM     53  C   LIG d   1       6.725  -9.077  -4.033  0.00  0.00    -0.050 A 
ATOM     54  C   LIG d   1       6.717 -10.183  -3.208  0.00  0.00    -0.061 A 
ATOM     55  H   LIG d   1       7.643  -8.534  -4.200  0.00  0.00     0.062 H 
ATOM     56  C   LIG d   1       5.541 -10.881  -2.994  0.00  0.00    -0.062 A 
ATOM     57  H   LIG d   1       7.630 -10.505  -2.729  0.00  0.00     0.062 H 
ATOM     58  C   LIG d   1       4.367 -10.476  -3.603  0.00  0.00    -0.061 A 
ATOM     59  H   LIG d   1       5.540 -11.747  -2.347  0.00  0.00     0.062 H 
ATOM     60  C   LIG d   1       4.360  -9.368  -4.425  0.00  0.00    -0.050 A 
ATOM     61  H   LIG d   1       3.453 -11.024  -3.431  0.00  0.00     0.062 H 
ATOM     62  H   LIG d   1       3.442  -9.050  -4.897  0.00  0.00     0.062 H 
ENDBRANCH  49  52
ENDBRANCH   1  48
TORSDOF 4
ENDMDL
MODEL 3
REMARK VINA RESULT:      -7.3      3.660      7.090
REMARK  4 active torsions:
REMARK  status: ('A' for Active; 'I' for Inactive)
REMARK    1  A    between atoms: C_4  and  C_7 
REMARK       I    between atoms: C_7  and  N_9 
REMARK    2  A    between atoms: N_9  and  C_10 
REMARK    3  A    between atoms: C_25  and  C_26 
REMARK    4  A    between atoms: C_25  and  N_61 
ROOT
ATOM      1  C   LIG d   1       4.822  -4.942  -7.857  0.00  0.00     0.099 C 
ATOM      2  C   LIG d   1       3.585  -4.945  -8.444  0.00  0.00    -0.034 C 
ATOM      3  C   LIG d   1       3.118  -3.768  -9.041  0.00  0.00    -0.040 C 
ATOM      4  C   LIG d   1       3.885  -2.647  -9.049  0.00  0.00     0.030 C 
ATOM      5  N   LIG d   1       5.142  -2.665  -8.545  0.00  0.00    -0.310 N 
ATOM      6  C   LIG d   1       5.589  -3.760  -7.884  0.00  0.00     0.273 C 
ATOM      7  O   LIG d   1       6.667  -3.725  -7.311  0.00  0.00    -0.266 OA
ATOM      8  C   LIG d   1       6.090  -1.564  -8.725  0.00  0.00     0.034 C 
ATOM      9  C   LIG d   1       5.394  -0.251  -9.042  0.00  0.00     0.018 C 
ATOM     10  H   LIG d   1       6.138   0.454  -9.412  0.00  0.00     0.037 H 
ATOM     11  C   LIG d   1       4.362  -0.475 -10.151  0.00  0.00    -0.031 C 
ATOM     12  C   LIG d   1       3.260  -1.378  -9.587  0.00  0.00     0.040 C 
ATOM     13  H   LIG d   1       2.517  -1.611 -10.349  0.00  0.00     0.042 H 
ATOM     14  C   LIG d   1       2.606  -0.646  -8.402  0.00  0.00    -0.024 C 
ATOM     15  C   LIG d   1       4.734   0.349  -7.808  0.00  0.00    -0.027 C 
ATOM     16  H   LIG d   1       2.982  -5.840  -8.450  0.00  0.00     0.064 H 
ATOM     17  H   LIG d   1       2.141  -3.752  -9.499  0.00  0.00     0.064 H 
ATOM     18  H   LIG d   1       6.670  -1.445  -7.810  0.00  0.00     0.050 H 
ATOM     19  H   LIG d   1       6.768  -1.811  -9.542  0.00  0.00     0.050 H 
ATOM     20  H   LIG d   1       4.837  -0.961 -11.004  0.00  0.00     0.028 H 
ATOM     21  H   LIG d   1       3.937   0.479 -10.459  0.00  0.00     0.028 H 
ATOM     22  H   LIG d   1       2.253   0.333  -8.725  0.00  0.00     0.082 H 
ATOM     23  H   LIG d   1       1.770  -1.233  -8.023  0.00  0.00     0.082 H 
ATOM     24  H   LIG d   1       4.360   1.344  -8.051  0.00  0.00     0.082 H 
ATOM     25  H   LIG d   1       5.473   0.430  -7.012  0.00  0.00     0.082 H 
ATOM     26  N   LIG d   1       3.630  -0.513  -7.341  0.00  0.00     0.236 N 
ATOM     27  H   LIG d   1       4.004  -1.443  -7.121  0.00  0.00     0.203 HD
ENDROOT
BRANCH  26  28
ATOM     28  C   LIG d   1       3.022   0.061  -6.122  0.00  0.00    -0.029 C 
ATOM     29  H   LIG d   1       3.074   1.148  -6.179  0.00  0.00     0.082 H 
ATOM     30  H   LIG d   1       1.979  -0.251  -6.068  0.00  0.00     0.082 H 
BRANCH  28  31
ATOM     31  C   LIG d   1       3.765  -0.421  -4.875  0.00  0.00    -0.001 C 
ATOM     32  C   LIG d   1       2.877  -0.225  -3.644  0.00  0.00    -0.045 C 
ATOM     33  C   LIG d   1       3.620  -0.707  -2.397  0.00  0.00    -0.053 C 
ATOM     34  H   LIG d   1       2.634   0.833  -3.537  0.00  0.00     0.027 H 
ATOM     35  H   LIG d   1       1.958  -0.798  -3.765  0.00  0.00     0.027 H 
ATOM     36  C   LIG d   1       3.960  -2.191  -2.548  0.00  0.00    -0.053 C 
ATOM     37  H   LIG d   1       4.538  -0.134  -2.277  0.00  0.00     0.026 H 
ATOM     38  H   LIG d   1       2.987  -0.567  -1.521  0.00  0.00     0.026 H 
ATOM     39  C   LIG d   1       4.848  -2.388  -3.778  0.00  0.00    -0.053 C 
ATOM     40  H   LIG d   1       4.489  -2.535  -1.659  0.00  0.00     0.026 H 
ATOM     41  H   LIG d   1       3.041  -2.764  -2.668  0.00  0.00     0.026 H 
ATOM     42  C   LIG d   1       4.106  -1.905  -5.026  0.00  0.00    -0.045 C 
ATOM     43  H   LIG d   1       5.768  -1.814  -3.658  0.00  0.00     0.026 H 
ATOM     44  H   LIG d   1       5.091  -3.444  -3.886  0.00  0.00     0.026 H 
ATOM     45  H   LIG d   1       3.187  -2.479  -5.146  0.00  0.00     0.027 H 
ATOM     46  H   LIG d   1       4.739  -2.045  -5.902  0.00  0.00     0.027 H 
ATOM     47  H   LIG d   1       4.685   0.152  -4.755  0.00  0.00     0.035 H 
ENDBRANCH  28  31
ENDBRANCH  26  28
BRANCH   1  48
ATOM     48  N   LIG d   1       5.315  -6.095  -7.233  0.00  0.00    -0.277 N 
ATOM     49  C   LIG d   1       4.924  -6.404  -5.981  0.00  0.00     0.248 C 
ATOM     50  O   LIG d   1       4.091  -5.719  -5.418  0.00  0.00    -0.270 OA
ATOM     51  H   LIG d   1       5.937  -6.672  -7.703  0.00  0.00     0.155 HD
BRANCH  49  52
ATOM     52  C   LIG d   1       5.508  -7.573  -5.291  0.00  0.00     0.037 A 
ATOM     53  C   LIG d   1       4.697  -8.649  -4.926  0.00  0.00    -0.050 A 
ATOM     54  C   LIG d   1       5.248  -9.737  -4.283  0.00  0.00    -0.061 A 
ATOM     55  H   LIG d   1       3.640  -8.630  -5.147  0.00  0.00     0.062 H 
ATOM     56  C   LIG d   1       6.603  -9.764  -3.999  0.00  0.00    -0.062 A 
ATOM     57  H   LIG d   1       4.622 -10.571  -4.000  0.00  0.00     0.062 H 
ATOM     58  C   LIG d   1       7.412  -8.701  -4.357  0.00  0.00    -0.061 A 
ATOM     59  H   LIG d   1       7.029 -10.618  -3.494  0.00  0.00     0.062 H 
ATOM     60  C   LIG d   1       6.874  -7.609  -5.007  0.00  0.00    -0.050 A 
ATOM     61  H   LIG d   1       8.468  -8.727  -4.133  0.00  0.00     0.062 H 
ATOM     62  H   LIG d   1       7.508  -6.782  -5.290  0.00  0.00     0.062 H 
ENDBRANCH  49  52
ENDBRANCH   1  48
TORSDOF 4
ENDMDL
MODEL 4
REMARK VINA RESULT:      -7.2      5.354      8.933
REMARK  4 active torsions:
REMARK  status: ('A' for Active; 'I' for Inactive)
REMARK    1  A    between atoms: C_4  and  C_7 
REMARK       I    between atoms: C_7  and  N_9 
REMARK    2  A    between atoms: N_9  and  C_10 
REMARK    3  A    between atoms: C_25  and  C_26 
REMARK    4  A    between atoms: C_25  and  N_61 
ROOT
ATOM      1  C   LIG d   1       8.943   2.556  -4.528  0.00  0.00     0.099 C 
ATOM      2  C   LIG d   1       8.823   2.865  -5.856  0.00  0.00    -0.034 C 
ATOM      3  C   LIG d   1       9.935   3.377  -6.534  0.00  0.00    -0.040 C 
ATOM      4  C   LIG d   1      11.117   3.552  -5.888  0.00  0.00     0.030 C 
ATOM      5  N   LIG d   1      11.263   3.168  -4.597  0.00  0.00    -0.310 N 
ATOM      6  C   LIG d   1      10.184   2.752  -3.890  0.00  0.00     0.273 C 
ATOM      7  O   LIG d   1      10.289   2.540  -2.692  0.00  0.00    -0.266 OA
ATOM      8  C   LIG d   1      12.560   3.123  -3.920  0.00  0.00     0.034 C 
ATOM      9  C   LIG d   1      13.592   4.014  -4.592  0.00  0.00     0.018 C 
ATOM     10  H   LIG d   1      14.578   3.747  -4.212  0.00  0.00     0.037 H 
ATOM     11  C   LIG d   1      13.581   3.757  -6.101  0.00  0.00    -0.031 C 
ATOM     12  C   LIG d   1      12.232   4.239  -6.646  0.00  0.00     0.040 C 
ATOM     13  H   LIG d   1      12.148   4.039  -7.713  0.00  0.00     0.042 H 
ATOM     14  C   LIG d   1      12.119   5.748  -6.369  0.00  0.00    -0.024 C 
ATOM     15  C   LIG d   1      13.344   5.486  -4.295  0.00  0.00    -0.027 C 
ATOM     16  H   LIG d   1       7.887   2.711  -6.373  0.00  0.00     0.064 H 
ATOM     17  H   LIG d   1       9.853   3.634  -7.579  0.00  0.00     0.064 H 
ATOM     18  H   LIG d   1      12.430   3.449  -2.887  0.00  0.00     0.050 H 
ATOM     19  H   LIG d   1      12.925   2.096  -3.921  0.00  0.00     0.050 H 
ATOM     20  H   LIG d   1      13.698   2.691  -6.295  0.00  0.00     0.028 H 
ATOM     21  H   LIG d   1      14.390   4.310  -6.576  0.00  0.00     0.028 H 
ATOM     22  H   LIG d   1      12.978   6.265  -6.797  0.00  0.00     0.082 H 
ATOM     23  H   LIG d   1      11.199   6.135  -6.809  0.00  0.00     0.082 H 
ATOM     24  H   LIG d   1      14.174   6.075  -4.687  0.00  0.00     0.082 H 
ATOM     25  H   LIG d   1      13.284   5.629  -3.217  0.00  0.00     0.082 H 
ATOM     26  N   LIG d   1      12.072   5.929  -4.901  0.00  0.00     0.236 N 
ATOM     27  H   LIG d   1      11.306   5.362  -4.520  0.00  0.00     0.203 HD
ENDROOT
BRANCH  26  28
ATOM     28  C   LIG d   1      11.825   7.349  -4.575  0.00  0.00    -0.029 C 
ATOM     29  H   LIG d   1      12.751   7.908  -4.705  0.00  0.00     0.082 H 
ATOM     30  H   LIG d   1      11.066   7.739  -5.253  0.00  0.00     0.082 H 
BRANCH  28  31
ATOM     31  C   LIG d   1      11.341   7.492  -3.131  0.00  0.00    -0.001 C 
ATOM     32  C   LIG d   1      10.592   8.816  -2.971  0.00  0.00    -0.045 C 
ATOM     33  C   LIG d   1      10.107   8.958  -1.527  0.00  0.00    -0.053 C 
ATOM     34  H   LIG d   1      11.260   9.643  -3.214  0.00  0.00     0.027 H 
ATOM     35  H   LIG d   1       9.735   8.832  -3.645  0.00  0.00     0.027 H 
ATOM     36  C   LIG d   1       9.170   7.798  -1.187  0.00  0.00    -0.053 C 
ATOM     37  H   LIG d   1      10.964   8.942  -0.854  0.00  0.00     0.026 H 
ATOM     38  H   LIG d   1       9.574   9.902  -1.414  0.00  0.00     0.026 H 
ATOM     39  C   LIG d   1       9.918   6.474  -1.346  0.00  0.00    -0.053 C 
ATOM     40  H   LIG d   1       8.824   7.900  -0.159  0.00  0.00     0.026 H 
ATOM     41  H   LIG d   1       8.313   7.815  -1.861  0.00  0.00     0.026 H 
ATOM     42  C   LIG d   1      10.403   6.331  -2.791  0.00  0.00    -0.045 C 
ATOM     43  H   LIG d   1      10.775   6.457  -0.672  0.00  0.00     0.026 H 
ATOM     44  H   LIG d   1       9.251   5.647  -1.104  0.00  0.00     0.026 H 
ATOM     45  H   LIG d   1       9.546   6.347  -3.464  0.00  0.00     0.027 H 
ATOM     46  H   LIG d   1      10.936   5.388  -2.903  0.00  0.00     0.027 H 
ATOM     47  H   LIG d   1      12.198   7.475  -2.456  0.00  0.00     0.035 H 
ENDBRANCH  28  31
ENDBRANCH  26  28
BRANCH   1  48
ATOM     48  N   LIG d   1       7.846   2.059  -3.812  0.00  0.00    -0.277 N 
ATOM     49  C   LIG d   1       7.509   0.759  -3.913  0.00  0.00     0.248 C 
ATOM     50  O   LIG d   1       8.197   0.002  -4.570  0.00  0.00    -0.270 OA
ATOM     51  H   LIG d   1       7.330   2.651  -3.243  0.00  0.00     0.155 HD
BRANCH  49  52
ATOM     52  C   LIG d   1       6.303   0.252  -3.226  0.00  0.00     0.037 A 
ATOM     53  C   LIG d   1       6.046  -1.119  -3.178  0.00  0.00    -0.050 A 
ATOM     54  C   LIG d   1       4.919  -1.585  -2.535  0.00  0.00    -0.061 A 
ATOM     55  H   LIG d   1       6.729  -1.814  -3.645  0.00  0.00     0.062 H 
ATOM     56  C   LIG d   1       4.043  -0.696  -1.937  0.00  0.00    -0.062 A 
ATOM     57  H   LIG d   1       4.719  -2.646  -2.497  0.00  0.00     0.062 H 
ATOM     58  C   LIG d   1       4.290   0.664  -1.980  0.00  0.00    -0.061 A 
ATOM     59  H   LIG d   1       3.161  -1.066  -1.435  0.00  0.00     0.062 H 
ATOM     60  C   LIG d   1       5.418   1.143  -2.616  0.00  0.00    -0.050 A 
ATOM     61  H   LIG d   1       3.603   1.352  -1.512  0.00  0.00     0.062 H 
ATOM     62  H   LIG d   1       5.613   2.204  -2.645  0.00  0.00     0.062 H 
ENDBRANCH  49  52
ENDBRANCH   1  48
TORSDOF 4
ENDMDL
MODEL 5
REMARK VINA RESULT:      -7.2      3.648      7.935
REMARK  4 active torsions:
REMARK  status: ('A' for Active; 'I' for Inactive)
REMARK    1  A    between atoms: C_4  and  C_7 
REMARK       I    between atoms: C_7  and  N_9 
REMARK    2  A    between atoms: N_9  and  C_10 
REMARK    3  A    between atoms: C_25  and  C_26 
REMARK    4  A    between atoms: C_25  and  N_61 
ROOT
ATOM      1  C   LIG d   1       9.645   1.276  -5.623  0.00  0.00     0.099 C 
ATOM      2  C   LIG d   1      10.489   0.300  -5.165  0.00  0.00    -0.034 C 
ATOM      3  C   LIG d   1      10.218  -1.035  -5.490  0.00  0.00    -0.040 C 
ATOM      4  C   LIG d   1       9.143  -1.354  -6.256  0.00  0.00     0.030 C 
ATOM      5  N   LIG d   1       8.356  -0.385  -6.782  0.00  0.00    -0.310 N 
ATOM      6  C   LIG d   1       8.540   0.907  -6.416  0.00  0.00     0.273 C 
ATOM      7  O   LIG d   1       7.744   1.759  -6.780  0.00  0.00    -0.266 OA
ATOM      8  C   LIG d   1       7.328  -0.651  -7.789  0.00  0.00     0.034 C 
ATOM      9  C   LIG d   1       6.884  -2.105  -7.788  0.00  0.00     0.018 C 
ATOM     10  H   LIG d   1       6.325  -2.295  -8.704  0.00  0.00     0.037 H 
ATOM     11  C   LIG d   1       8.115  -3.014  -7.788  0.00  0.00    -0.031 C 
ATOM     12  C   LIG d   1       8.835  -2.823  -6.448  0.00  0.00     0.040 C 
ATOM     13  H   LIG d   1       9.749  -3.414  -6.408  0.00  0.00     0.042 H 
ATOM     14  C   LIG d   1       7.871  -3.244  -5.326  0.00  0.00    -0.024 C 
ATOM     15  C   LIG d   1       5.983  -2.418  -6.601  0.00  0.00    -0.027 C 
ATOM     16  H   LIG d   1      11.351   0.556  -4.568  0.00  0.00     0.064 H 
ATOM     17  H   LIG d   1      10.869  -1.816  -5.127  0.00  0.00     0.064 H 
ATOM     18  H   LIG d   1       6.463  -0.017  -7.587  0.00  0.00     0.050 H 
ATOM     19  H   LIG d   1       7.724  -0.403  -8.774  0.00  0.00     0.050 H 
ATOM     20  H   LIG d   1       8.779  -2.737  -8.607  0.00  0.00     0.028 H 
ATOM     21  H   LIG d   1       7.807  -4.053  -7.897  0.00  0.00     0.028 H 
ATOM     22  H   LIG d   1       7.527  -4.263  -5.501  0.00  0.00     0.082 H 
ATOM     23  H   LIG d   1       8.379  -3.186  -4.363  0.00  0.00     0.082 H 
ATOM     24  H   LIG d   1       5.588  -3.428  -6.709  0.00  0.00     0.082 H 
ATOM     25  H   LIG d   1       5.155  -1.711  -6.584  0.00  0.00     0.082 H 
ATOM     26  N   LIG d   1       6.735  -2.295  -5.336  0.00  0.00     0.236 N 
ATOM     27  H   LIG d   1       7.099  -1.339  -5.256  0.00  0.00     0.203 HD
ENDROOT
BRANCH  26  28
ATOM     28  C   LIG d   1       5.841  -2.565  -4.190  0.00  0.00    -0.029 C 
ATOM     29  H   LIG d   1       5.086  -3.289  -4.494  0.00  0.00     0.082 H 
ATOM     30  H   LIG d   1       6.432  -2.977  -3.372  0.00  0.00     0.082 H 
BRANCH  28  31
ATOM     31  C   LIG d   1       5.158  -1.277  -3.727  0.00  0.00    -0.001 C 
ATOM     32  C   LIG d   1       4.279  -1.574  -2.510  0.00  0.00    -0.045 C 
ATOM     33  C   LIG d   1       3.596  -0.286  -2.047  0.00  0.00    -0.053 C 
ATOM     34  H   LIG d   1       3.522  -2.311  -2.780  0.00  0.00     0.027 H 
ATOM     35  H   LIG d   1       4.898  -1.968  -1.703  0.00  0.00     0.027 H 
ATOM     36  C   LIG d   1       4.659   0.747  -1.669  0.00  0.00    -0.053 C 
ATOM     37  H   LIG d   1       2.978   0.107  -2.854  0.00  0.00     0.026 H 
ATOM     38  H   LIG d   1       2.971  -0.498  -1.180  0.00  0.00     0.026 H 
ATOM     39  C   LIG d   1       5.538   1.045  -2.885  0.00  0.00    -0.053 C 
ATOM     40  H   LIG d   1       4.173   1.665  -1.338  0.00  0.00     0.026 H 
ATOM     41  H   LIG d   1       5.278   0.353  -0.862  0.00  0.00     0.026 H 
ATOM     42  C   LIG d   1       6.221  -0.244  -3.349  0.00  0.00    -0.045 C 
ATOM     43  H   LIG d   1       4.919   1.439  -3.692  0.00  0.00     0.026 H 
ATOM     44  H   LIG d   1       6.295   1.781  -2.616  0.00  0.00     0.026 H 
ATOM     45  H   LIG d   1       6.839  -0.637  -2.542  0.00  0.00     0.027 H 
ATOM     46  H   LIG d   1       6.846  -0.032  -4.216  0.00  0.00     0.027 H 
ATOM     47  H   LIG d   1       4.540  -0.883  -4.534  0.00  0.00     0.035 H 
ENDBRANCH  28  31
ENDBRANCH  26  28
BRANCH   1  48
ATOM     48  N   LIG d   1       9.874   2.620  -5.304  0.00  0.00    -0.277 N 
ATOM     49  C   LIG d   1       9.407   3.127  -4.145  0.00  0.00     0.248 C 
ATOM     50  O   LIG d   1       8.848   2.400  -3.346  0.00  0.00    -0.270 OA
ATOM     51  H   LIG d   1      10.368   3.187  -5.916  0.00  0.00     0.155 HD
BRANCH  49  52
ATOM     52  C   LIG d   1       9.574   4.564  -3.846  0.00  0.00     0.037 A 
ATOM     53  C   LIG d   1       9.311   5.520  -4.830  0.00  0.00    -0.050 A 
ATOM     54  C   LIG d   1       9.468   6.860  -4.544  0.00  0.00    -0.061 A 
ATOM     55  H   LIG d   1       8.985   5.211  -5.812  0.00  0.00     0.062 H 
ATOM     56  C   LIG d   1       9.886   7.258  -3.285  0.00  0.00    -0.062 A 
ATOM     57  H   LIG d   1       9.265   7.601  -5.303  0.00  0.00     0.062 H 
ATOM     58  C   LIG d   1      10.149   6.316  -2.307  0.00  0.00    -0.061 A 
ATOM     59  H   LIG d   1      10.008   8.309  -3.067  0.00  0.00     0.062 H 
ATOM     60  C   LIG d   1       9.989   4.972  -2.578  0.00  0.00    -0.050 A 
ATOM     61  H   LIG d   1      10.474   6.633  -1.327  0.00  0.00     0.062 H 
ATOM     62  H   LIG d   1      10.190   4.238  -1.812  0.00  0.00     0.062 H 
ENDBRANCH  49  52
ENDBRANCH   1  48
TORSDOF 4
ENDMDL
MODEL 6
REMARK VINA RESULT:      -7.2      3.338      7.485
REMARK  4 active torsions:
REMARK  status: ('A' for Active; 'I' for Inactive)
REMARK    1  A    between atoms: C_4  and  C_7 
REMARK       I    between atoms: C_7  and  N_9 
REMARK    2  A    between atoms: N_9  and  C_10 
REMARK    3  A    between atoms: C_25  and  C_26 
REMARK    4  A    between atoms: C_25  and  N_61 
ROOT
ATOM      1  C   LIG d   1       8.911   0.763  -5.675  0.00  0.00     0.099 C 
ATOM      2  C   LIG d   1       9.723  -0.272  -5.293  0.00  0.00    -0.034 C 
ATOM      3  C   LIG d   1       9.306  -1.585  -5.543  0.00  0.00    -0.040 C 
ATOM      4  C   LIG d   1       8.123  -1.827  -6.165  0.00  0.00     0.030 C 
ATOM      5  N   LIG d   1       7.358  -0.805  -6.620  0.00  0.00    -0.310 N 
ATOM      6  C   LIG d   1       7.690   0.474  -6.317  0.00  0.00     0.273 C 
ATOM      7  O   LIG d   1       6.929   1.383  -6.607  0.00  0.00    -0.266 OA
ATOM      8  C   LIG d   1       6.196  -1.002  -7.487  0.00  0.00     0.034 C 
ATOM      9  C   LIG d   1       5.638  -2.413  -7.390  0.00  0.00     0.018 C 
ATOM     10  H   LIG d   1       4.957  -2.573  -8.226  0.00  0.00     0.037 H 
ATOM     11  C   LIG d   1       6.782  -3.423  -7.511  0.00  0.00    -0.031 C 
ATOM     12  C   LIG d   1       7.674  -3.268  -6.275  0.00  0.00     0.040 C 
ATOM     13  H   LIG d   1       8.535  -3.933  -6.328  0.00  0.00     0.042 H 
ATOM     14  C   LIG d   1       6.824  -3.584  -5.033  0.00  0.00    -0.024 C 
ATOM     15  C   LIG d   1       4.868  -2.626  -6.094  0.00  0.00    -0.027 C 
ATOM     16  H   LIG d   1      10.669  -0.078  -4.812  0.00  0.00     0.064 H 
ATOM     17  H   LIG d   1       9.930  -2.411  -5.239  0.00  0.00     0.064 H 
ATOM     18  H   LIG d   1       5.418  -0.294  -7.202  0.00  0.00     0.050 H 
ATOM     19  H   LIG d   1       6.487  -0.807  -8.520  0.00  0.00     0.050 H 
ATOM     20  H   LIG d   1       7.361  -3.219  -8.413  0.00  0.00     0.028 H 
ATOM     21  H   LIG d   1       6.379  -4.434  -7.552  0.00  0.00     0.028 H 
ATOM     22  H   LIG d   1       6.379  -4.573  -5.135  0.00  0.00     0.082 H 
ATOM     23  H   LIG d   1       7.450  -3.551  -4.141  0.00  0.00     0.082 H 
ATOM     24  H   LIG d   1       4.381  -3.601  -6.124  0.00  0.00     0.082 H 
ATOM     25  H   LIG d   1       4.108  -1.851  -5.998  0.00  0.00     0.082 H 
ATOM     26  N   LIG d   1       5.777  -2.543  -4.933  0.00  0.00     0.236 N 
ATOM     27  H   LIG d   1       6.224  -1.619  -4.926  0.00  0.00     0.203 HD
ENDROOT
BRANCH  26  28
ATOM     28  C   LIG d   1       5.011  -2.714  -3.680  0.00  0.00    -0.029 C 
ATOM     29  H   LIG d   1       4.027  -3.116  -3.919  0.00  0.00     0.082 H 
ATOM     30  H   LIG d   1       5.543  -3.414  -3.036  0.00  0.00     0.082 H 
BRANCH  28  31
ATOM     31  C   LIG d   1       4.854  -1.374  -2.960  0.00  0.00    -0.001 C 
ATOM     32  C   LIG d   1       5.800  -0.345  -3.582  0.00  0.00    -0.045 C 
ATOM     33  C   LIG d   1       5.643   0.995  -2.862  0.00  0.00    -0.053 C 
ATOM     34  H   LIG d   1       6.830  -0.692  -3.484  0.00  0.00     0.027 H 
ATOM     35  H   LIG d   1       5.558  -0.222  -4.638  0.00  0.00     0.027 H 
ATOM     36  C   LIG d   1       4.199   1.481  -3.000  0.00  0.00    -0.053 C 
ATOM     37  H   LIG d   1       5.884   0.871  -1.806  0.00  0.00     0.026 H 
ATOM     38  H   LIG d   1       6.317   1.727  -3.305  0.00  0.00     0.026 H 
ATOM     39  C   LIG d   1       3.252   0.454  -2.378  0.00  0.00    -0.053 C 
ATOM     40  H   LIG d   1       4.086   2.437  -2.488  0.00  0.00     0.026 H 
ATOM     41  H   LIG d   1       3.957   1.606  -4.056  0.00  0.00     0.026 H 
ATOM     42  C   LIG d   1       3.410  -0.888  -3.098  0.00  0.00    -0.045 C 
ATOM     43  H   LIG d   1       3.494   0.329  -1.322  0.00  0.00     0.026 H 
ATOM     44  H   LIG d   1       2.223   0.800  -2.476  0.00  0.00     0.026 H 
ATOM     45  H   LIG d   1       3.168  -0.763  -4.153  0.00  0.00     0.027 H 
ATOM     46  H   LIG d   1       2.735  -1.620  -2.654  0.00  0.00     0.027 H 
ATOM     47  H   LIG d   1       5.095  -1.498  -1.904  0.00  0.00     0.035 H 
ENDBRANCH  28  31
ENDBRANCH  26  28
BRANCH   1  48
ATOM     48  N   LIG d   1       9.286   2.089  -5.425  0.00  0.00    -0.277 N 
ATOM     49  C   LIG d   1       9.117   2.617  -4.196  0.00  0.00     0.248 C 
ATOM     50  O   LIG d   1       8.705   1.923  -3.288  0.00  0.00    -0.270 OA
ATOM     51  H   LIG d   1       9.667   2.627  -6.136  0.00  0.00     0.155 HD
BRANCH  49  52
ATOM     52  C   LIG d   1       9.433   4.040  -3.954  0.00  0.00     0.037 A 
ATOM     53  C   LIG d   1       9.945   4.444  -2.719  0.00  0.00    -0.050 A 
ATOM     54  C   LIG d   1      10.238   5.774  -2.499  0.00  0.00    -0.061 A 
ATOM     55  H   LIG d   1      10.111   3.718  -1.937  0.00  0.00     0.062 H 
ATOM     56  C   LIG d   1      10.026   6.707  -3.500  0.00  0.00    -0.062 A 
ATOM     57  H   LIG d   1      10.633   6.088  -1.545  0.00  0.00     0.062 H 
ATOM     58  C   LIG d   1       9.519   6.314  -4.725  0.00  0.00    -0.061 A 
ATOM     59  H   LIG d   1      10.256   7.747  -3.322  0.00  0.00     0.062 H 
ATOM     60  C   LIG d   1       9.227   4.985  -4.960  0.00  0.00    -0.050 A 
ATOM     61  H   LIG d   1       9.355   7.046  -5.501  0.00  0.00     0.062 H 
ATOM     62  H   LIG d   1       8.836   4.679  -5.918  0.00  0.00     0.062 H 
ENDBRANCH  49  52
ENDBRANCH   1  48
TORSDOF 4
ENDMDL
MODEL 7
REMARK VINA RESULT:      -7.1      4.644      9.892
REMARK  4 active torsions:
REMARK  status: ('A' for Active; 'I' for Inactive)
REMARK    1  A    between atoms: C_4  and  C_7 
REMARK       I    between atoms: C_7  and  N_9 
REMARK    2  A    between atoms: N_9  and  C_10 
REMARK    3  A    between atoms: C_25  and  C_26 
REMARK    4  A    between atoms: C_25  and  N_61 
ROOT
ATOM      1  C   LIG d   1      10.401   3.055  -3.258  0.00  0.00     0.099 C 
ATOM      2  C   LIG d   1      11.388   2.106  -3.246  0.00  0.00    -0.034 C 
ATOM      3  C   LIG d   1      11.377   1.107  -4.227  0.00  0.00    -0.040 C 
ATOM      4  C   LIG d   1      10.411   1.089  -5.182  0.00  0.00     0.030 C 
ATOM      5  N   LIG d   1       9.484   2.075  -5.248  0.00  0.00    -0.310 N 
ATOM      6  C   LIG d   1       9.415   3.004  -4.264  0.00  0.00     0.273 C 
ATOM      7  O   LIG d   1       8.496   3.807  -4.251  0.00  0.00    -0.266 OA
ATOM      8  C   LIG d   1       8.565   2.232  -6.376  0.00  0.00     0.034 C 
ATOM      9  C   LIG d   1       8.391   0.942  -7.161  0.00  0.00     0.018 C 
ATOM     10  H   LIG d   1       7.915   1.179  -8.112  0.00  0.00     0.037 H 
ATOM     11  C   LIG d   1       9.766   0.337  -7.457  0.00  0.00    -0.031 C 
ATOM     12  C   LIG d   1      10.382  -0.096  -6.122  0.00  0.00     0.040 C 
ATOM     13  H   LIG d   1      11.385  -0.495  -6.266  0.00  0.00     0.042 H 
ATOM     14  C   LIG d   1       9.463  -1.160  -5.498  0.00  0.00    -0.024 C 
ATOM     15  C   LIG d   1       7.513  -0.055  -6.418  0.00  0.00    -0.027 C 
ATOM     16  H   LIG d   1      12.163   2.129  -2.495  0.00  0.00     0.064 H 
ATOM     17  H   LIG d   1      12.142   0.346  -4.225  0.00  0.00     0.064 H 
ATOM     18  H   LIG d   1       7.592   2.549  -5.998  0.00  0.00     0.050 H 
ATOM     19  H   LIG d   1       8.951   3.003  -7.043  0.00  0.00     0.050 H 
ATOM     20  H   LIG d   1      10.403   1.082  -7.934  0.00  0.00     0.028 H 
ATOM     21  H   LIG d   1       9.656  -0.528  -8.111  0.00  0.00     0.028 H 
ATOM     22  H   LIG d   1       9.317  -1.978  -6.202  0.00  0.00     0.082 H 
ATOM     23  H   LIG d   1       9.911  -1.540  -4.579  0.00  0.00     0.082 H 
ATOM     24  H   LIG d   1       7.312  -0.907  -7.068  0.00  0.00     0.082 H 
ATOM     25  H   LIG d   1       6.570   0.424  -6.157  0.00  0.00     0.082 H 
ATOM     26  N   LIG d   1       8.176  -0.504  -5.177  0.00  0.00     0.236 N 
ATOM     27  H   LIG d   1       8.357   0.313  -4.582  0.00  0.00     0.203 HD
ENDROOT
BRANCH  26  28
ATOM     28  C   LIG d   1       7.298  -1.443  -4.448  0.00  0.00    -0.029 C 
ATOM     29  H   LIG d   1       6.986  -2.235  -5.127  0.00  0.00     0.082 H 
ATOM     30  H   LIG d   1       7.857  -1.874  -3.617  0.00  0.00     0.082 H 
BRANCH  28  31
ATOM     31  C   LIG d   1       6.064  -0.716  -3.910  0.00  0.00    -0.001 C 
ATOM     32  C   LIG d   1       5.368  -1.593  -2.867  0.00  0.00    -0.045 C 
ATOM     33  C   LIG d   1       4.134  -0.866  -2.329  0.00  0.00    -0.053 C 
ATOM     34  H   LIG d   1       5.064  -2.534  -3.328  0.00  0.00     0.027 H 
ATOM     35  H   LIG d   1       6.057  -1.797  -2.047  0.00  0.00     0.027 H 
ATOM     36  C   LIG d   1       4.561   0.453  -1.683  0.00  0.00    -0.053 C 
ATOM     37  H   LIG d   1       3.447  -0.663  -3.150  0.00  0.00     0.026 H 
ATOM     38  H   LIG d   1       3.640  -1.491  -1.586  0.00  0.00     0.026 H 
ATOM     39  C   LIG d   1       5.257   1.331  -2.725  0.00  0.00    -0.053 C 
ATOM     40  H   LIG d   1       3.683   0.971  -1.299  0.00  0.00     0.026 H 
ATOM     41  H   LIG d   1       5.250   0.249  -0.862  0.00  0.00     0.026 H 
ATOM     42  C   LIG d   1       6.491   0.604  -3.264  0.00  0.00    -0.045 C 
ATOM     43  H   LIG d   1       4.568   1.534  -3.546  0.00  0.00     0.026 H 
ATOM     44  H   LIG d   1       5.561   2.271  -2.265  0.00  0.00     0.026 H 
ATOM     45  H   LIG d   1       7.179   0.400  -2.443  0.00  0.00     0.027 H 
ATOM     46  H   LIG d   1       6.986   1.229  -4.006  0.00  0.00     0.027 H 
ATOM     47  H   LIG d   1       5.375  -0.512  -4.731  0.00  0.00     0.035 H 
ENDBRANCH  28  31
ENDBRANCH  26  28
BRANCH   1  48
ATOM     48  N   LIG d   1      10.369   4.058  -2.281  0.00  0.00    -0.277 N 
ATOM     49  C   LIG d   1      11.068   5.197  -2.461  0.00  0.00     0.248 C 
ATOM     50  O   LIG d   1      11.670   5.383  -3.501  0.00  0.00    -0.270 OA
ATOM     51  H   LIG d   1       9.844   3.934  -1.475  0.00  0.00     0.155 HD
BRANCH  49  52
ATOM     52  C   LIG d   1      11.103   6.219  -1.395  0.00  0.00     0.037 A 
ATOM     53  C   LIG d   1      11.085   5.834  -0.053  0.00  0.00    -0.050 A 
ATOM     54  C   LIG d   1      11.118   6.793   0.938  0.00  0.00    -0.061 A 
ATOM     55  H   LIG d   1      11.045   4.787   0.210  0.00  0.00     0.062 H 
ATOM     56  C   LIG d   1      11.169   8.135   0.603  0.00  0.00    -0.062 A 
ATOM     57  H   LIG d   1      11.104   6.496   1.976  0.00  0.00     0.062 H 
ATOM     58  C   LIG d   1      11.186   8.524  -0.724  0.00  0.00    -0.061 A 
ATOM     59  H   LIG d   1      11.194   8.882   1.383  0.00  0.00     0.062 H 
ATOM     60  C   LIG d   1      11.160   7.574  -1.724  0.00  0.00    -0.050 A 
ATOM     61  H   LIG d   1      11.226   9.572  -0.978  0.00  0.00     0.062 H 
ATOM     62  H   LIG d   1      11.179   7.879  -2.760  0.00  0.00     0.062 H 
ENDBRANCH  49  52
ENDBRANCH   1  48
TORSDOF 4
ENDMDL
MODEL 8
REMARK VINA RESULT:      -7.0      3.072      7.909
REMARK  4 active torsions:
REMARK  status: ('A' for Active; 'I' for Inactive)
REMARK    1  A    between atoms: C_4  and  C_7 
REMARK       I    between atoms: C_7  and  N_9 
REMARK    2  A    between atoms: N_9  and  C_10 
REMARK    3  A    between atoms: C_25  and  C_26 
REMARK    4  A    between atoms: C_25  and  N_61 
ROOT
ATOM      1  C   LIG d   1       7.584   1.471  -4.400  0.00  0.00     0.099 C 
ATOM      2  C   LIG d   1       6.709   1.044  -3.437  0.00  0.00    -0.034 C 
ATOM      3  C   LIG d   1       6.230  -0.270  -3.495  0.00  0.00    -0.040 C 
ATOM      4  C   LIG d   1       6.635  -1.110  -4.482  0.00  0.00     0.030 C 
ATOM      5  N   LIG d   1       7.566  -0.718  -5.386  0.00  0.00    -0.310 N 
ATOM      6  C   LIG d   1       7.982   0.572  -5.410  0.00  0.00     0.273 C 
ATOM      7  O   LIG d   1       8.713   0.956  -6.309  0.00  0.00    -0.266 OA
ATOM      8  C   LIG d   1       8.203  -1.640  -6.326  0.00  0.00     0.034 C 
ATOM      9  C   LIG d   1       7.378  -2.897  -6.549  0.00  0.00     0.018 C 
ATOM     10  H   LIG d   1       8.006  -3.639  -7.041  0.00  0.00     0.037 H 
ATOM     11  C   LIG d   1       6.941  -3.467  -5.197  0.00  0.00    -0.031 C 
ATOM     12  C   LIG d   1       5.969  -2.466  -4.562  0.00  0.00     0.040 C 
ATOM     13  H   LIG d   1       5.658  -2.798  -3.572  0.00  0.00     0.042 H 
ATOM     14  C   LIG d   1       4.752  -2.330  -5.492  0.00  0.00    -0.024 C 
ATOM     15  C   LIG d   1       6.169  -2.627  -7.435  0.00  0.00    -0.027 C 
ATOM     16  H   LIG d   1       6.399   1.708  -2.645  0.00  0.00     0.064 H 
ATOM     17  H   LIG d   1       5.531  -0.618  -2.749  0.00  0.00     0.064 H 
ATOM     18  H   LIG d   1       8.339  -1.132  -7.282  0.00  0.00     0.050 H 
ATOM     19  H   LIG d   1       9.181  -1.924  -5.937  0.00  0.00     0.050 H 
ATOM     20  H   LIG d   1       7.811  -3.596  -4.553  0.00  0.00     0.028 H 
ATOM     21  H   LIG d   1       6.443  -4.424  -5.343  0.00  0.00     0.028 H 
ATOM     22  H   LIG d   1       4.317  -3.313  -5.674  0.00  0.00     0.082 H 
ATOM     23  H   LIG d   1       4.009  -1.678  -5.033  0.00  0.00     0.082 H 
ATOM     24  H   LIG d   1       5.681  -3.573  -7.671  0.00  0.00     0.082 H 
ATOM     25  H   LIG d   1       6.501  -2.156  -8.359  0.00  0.00     0.082 H 
ATOM     26  N   LIG d   1       5.223  -1.719  -6.756  0.00  0.00     0.236 N 
ATOM     27  H   LIG d   1       5.702  -0.838  -6.541  0.00  0.00     0.203 HD
ENDROOT
BRANCH  26  28
ATOM     28  C   LIG d   1       4.072  -1.436  -7.639  0.00  0.00    -0.029 C 
ATOM     29  H   LIG d   1       4.202  -1.981  -8.574  0.00  0.00     0.082 H 
ATOM     30  H   LIG d   1       3.159  -1.771  -7.147  0.00  0.00     0.082 H 
BRANCH  28  31
ATOM     31  C   LIG d   1       3.976   0.062  -7.931  0.00  0.00    -0.001 C 
ATOM     32  C   LIG d   1       5.130   0.480  -8.845  0.00  0.00    -0.045 C 
ATOM     33  C   LIG d   1       5.033   1.979  -9.137  0.00  0.00    -0.053 C 
ATOM     34  H   LIG d   1       6.079   0.267  -8.352  0.00  0.00     0.027 H 
ATOM     35  H   LIG d   1       5.073  -0.078  -9.780  0.00  0.00     0.027 H 
ATOM     36  C   LIG d   1       3.701   2.278  -9.829  0.00  0.00    -0.053 C 
ATOM     37  H   LIG d   1       5.089   2.535  -8.202  0.00  0.00     0.026 H 
ATOM     38  H   LIG d   1       5.855   2.276  -9.788  0.00  0.00     0.026 H 
ATOM     39  C   LIG d   1       2.547   1.860  -8.917  0.00  0.00    -0.053 C 
ATOM     40  H   LIG d   1       3.632   3.345 -10.038  0.00  0.00     0.026 H 
ATOM     41  H   LIG d   1       3.645   1.720 -10.765  0.00  0.00     0.026 H 
ATOM     42  C   LIG d   1       2.644   0.361  -8.623  0.00  0.00    -0.045 C 
ATOM     43  H   LIG d   1       2.603   2.418  -7.981  0.00  0.00     0.026 H 
ATOM     44  H   LIG d   1       1.598   2.073  -9.409  0.00  0.00     0.026 H 
ATOM     45  H   LIG d   1       2.587  -0.195  -9.559  0.00  0.00     0.027 H 
ATOM     46  H   LIG d   1       1.821   0.064  -7.973  0.00  0.00     0.027 H 
ATOM     47  H   LIG d   1       4.031   0.620  -6.996  0.00  0.00     0.035 H 
ENDBRANCH  28  31
ENDBRANCH  26  28
BRANCH   1  48
ATOM     48  N   LIG d   1       8.071   2.784  -4.386  0.00  0.00    -0.277 N 
ATOM     49  C   LIG d   1       9.186   3.082  -3.689  0.00  0.00     0.248 C 
ATOM     50  O   LIG d   1       9.808   2.199  -3.131  0.00  0.00    -0.270 OA
ATOM     51  H   LIG d   1       7.606   3.479  -4.877  0.00  0.00     0.155 HD
BRANCH  49  52
ATOM     52  C   LIG d   1       9.652   4.482  -3.604  0.00  0.00     0.037 A 
ATOM     53  C   LIG d   1      10.335   4.925  -2.469  0.00  0.00    -0.050 A 
ATOM     54  C   LIG d   1      10.767   6.233  -2.396  0.00  0.00    -0.061 A 
ATOM     55  H   LIG d   1      10.523   4.247  -1.651  0.00  0.00     0.062 H 
ATOM     56  C   LIG d   1      10.526   7.104  -3.444  0.00  0.00    -0.062 A 
ATOM     57  H   LIG d   1      11.295   6.578  -1.519  0.00  0.00     0.062 H 
ATOM     58  C   LIG d   1       9.851   6.672  -4.571  0.00  0.00    -0.061 A 
ATOM     59  H   LIG d   1      10.867   8.128  -3.382  0.00  0.00     0.062 H 
ATOM     60  C   LIG d   1       9.418   5.364  -4.659  0.00  0.00    -0.050 A 
ATOM     61  H   LIG d   1       9.666   7.356  -5.385  0.00  0.00     0.062 H 
ATOM     62  H   LIG d   1       8.894   5.026  -5.541  0.00  0.00     0.062 H 
ENDBRANCH  49  52
ENDBRANCH   1  48
TORSDOF 4
ENDMDL
MODEL 9
REMARK VINA RESULT:      -7.0      3.356      5.676
REMARK  4 active torsions:
REMARK  status: ('A' for Active; 'I' for Inactive)
REMARK    1  A    between atoms: C_4  and  C_7 
REMARK       I    between atoms: C_7  and  N_9 
REMARK    2  A    between atoms: N_9  and  C_10 
REMARK    3  A    between atoms: C_25  and  C_26 
REMARK    4  A    between atoms: C_25  and  N_61 
ROOT
ATOM      1  C   LIG d   1       1.813  -3.026  -9.926  0.00  0.00     0.099 C 
ATOM      2  C   LIG d   1       1.203  -1.884 -10.370  0.00  0.00    -0.034 C 
ATOM      3  C   LIG d   1       1.812  -0.649 -10.114  0.00  0.00    -0.040 C 
ATOM      4  C   LIG d   1       2.994  -0.588  -9.448  0.00  0.00     0.030 C 
ATOM      5  N   LIG d   1       3.642  -1.720  -9.083  0.00  0.00    -0.310 N 
ATOM      6  C   LIG d   1       3.038  -2.924  -9.237  0.00  0.00     0.273 C 
ATOM      7  O   LIG d   1       3.563  -3.928  -8.782  0.00  0.00    -0.266 OA
ATOM      8  C   LIG d   1       5.012  -1.725  -8.568  0.00  0.00     0.034 C 
ATOM      9  C   LIG d   1       5.420  -0.374  -8.003  0.00  0.00     0.018 C 
ATOM     10  H   LIG d   1       6.502  -0.364  -7.877  0.00  0.00     0.037 H 
ATOM     11  C   LIG d   1       5.050   0.728  -8.999  0.00  0.00    -0.031 C 
ATOM     12  C   LIG d   1       3.520   0.784  -9.086  0.00  0.00     0.040 C 
ATOM     13  H   LIG d   1       3.197   1.523  -9.818  0.00  0.00     0.042 H 
ATOM     14  C   LIG d   1       2.978   1.134  -7.690  0.00  0.00    -0.024 C 
ATOM     15  C   LIG d   1       4.775  -0.113  -6.648  0.00  0.00    -0.027 C 
ATOM     16  H   LIG d   1       0.271  -1.934 -10.912  0.00  0.00     0.064 H 
ATOM     17  H   LIG d   1       1.338   0.261 -10.449  0.00  0.00     0.064 H 
ATOM     18  H   LIG d   1       5.092  -2.475  -7.781  0.00  0.00     0.050 H 
ATOM     19  H   LIG d   1       5.694  -1.990  -9.377  0.00  0.00     0.050 H 
ATOM     20  H   LIG d   1       5.467   0.495  -9.979  0.00  0.00     0.028 H 
ATOM     21  H   LIG d   1       5.435   1.686  -8.651  0.00  0.00     0.028 H 
ATOM     22  H   LIG d   1       3.434   2.060  -7.340  0.00  0.00     0.082 H 
ATOM     23  H   LIG d   1       1.895   1.251  -7.735  0.00  0.00     0.082 H 
ATOM     24  H   LIG d   1       5.192   0.802  -6.225  0.00  0.00     0.082 H 
ATOM     25  H   LIG d   1       4.994  -0.946  -5.982  0.00  0.00     0.082 H 
ATOM     26  N   LIG d   1       3.310   0.009  -6.787  0.00  0.00     0.236 N 
ATOM     27  H   LIG d   1       2.940  -0.860  -7.188  0.00  0.00     0.203 HD
ENDROOT
BRANCH  26  28
ATOM     28  C   LIG d   1       2.694   0.226  -5.462  0.00  0.00    -0.029 C 
ATOM     29  H   LIG d   1       2.305   1.243  -5.414  0.00  0.00     0.082 H 
ATOM     30  H   LIG d   1       1.876  -0.483  -5.334  0.00  0.00     0.082 H 
BRANCH  28  31
ATOM     31  C   LIG d   1       3.725   0.021  -4.351  0.00  0.00    -0.001 C 
ATOM     32  C   LIG d   1       3.629   1.172  -3.346  0.00  0.00    -0.045 C 
ATOM     33  C   LIG d   1       4.660   0.967  -2.235  0.00  0.00    -0.053 C 
ATOM     34  H   LIG d   1       3.827   2.116  -3.856  0.00  0.00     0.027 H 
ATOM     35  H   LIG d   1       2.629   1.194  -2.915  0.00  0.00     0.027 H 
ATOM     36  C   LIG d   1       4.383  -0.357  -1.520  0.00  0.00    -0.053 C 
ATOM     37  H   LIG d   1       5.661   0.944  -2.667  0.00  0.00     0.026 H 
ATOM     38  H   LIG d   1       4.592   1.787  -1.520  0.00  0.00     0.026 H 
ATOM     39  C   LIG d   1       4.479  -1.508  -2.523  0.00  0.00    -0.053 C 
ATOM     40  H   LIG d   1       5.117  -0.503  -0.728  0.00  0.00     0.026 H 
ATOM     41  H   LIG d   1       3.382  -0.334  -1.088  0.00  0.00     0.026 H 
ATOM     42  C   LIG d   1       3.448  -1.304  -3.636  0.00  0.00    -0.045 C 
ATOM     43  H   LIG d   1       5.480  -1.531  -2.955  0.00  0.00     0.026 H 
ATOM     44  H   LIG d   1       4.282  -2.452  -2.015  0.00  0.00     0.026 H 
ATOM     45  H   LIG d   1       2.448  -1.281  -3.203  0.00  0.00     0.027 H 
ATOM     46  H   LIG d   1       3.517  -2.123  -4.350  0.00  0.00     0.027 H 
ATOM     47  H   LIG d   1       4.726  -0.003  -4.782  0.00  0.00     0.035 H 
ENDBRANCH  28  31
ENDBRANCH  26  28
BRANCH   1  48
ATOM     48  N   LIG d   1       1.224  -4.278 -10.147  0.00  0.00    -0.277 N 
ATOM     49  C   LIG d   1       1.422  -4.919 -11.316  0.00  0.00     0.248 C 
ATOM     50  O   LIG d   1       2.168  -4.443 -12.151  0.00  0.00    -0.270 OA
ATOM     51  H   LIG d   1       0.674  -4.683  -9.459  0.00  0.00     0.155 HD
BRANCH  49  52
ATOM     52  C   LIG d   1       0.734  -6.199 -11.583  0.00  0.00     0.037 A 
ATOM     53  C   LIG d   1       0.459  -6.586 -12.896  0.00  0.00    -0.050 A 
ATOM     54  C   LIG d   1      -0.184  -7.782 -13.138  0.00  0.00    -0.061 A 
ATOM     55  H   LIG d   1       0.748  -5.951 -13.720  0.00  0.00     0.062 H 
ATOM     56  C   LIG d   1      -0.556  -8.597 -12.083  0.00  0.00    -0.062 A 
ATOM     57  H   LIG d   1      -0.398  -8.083 -14.153  0.00  0.00     0.062 H 
ATOM     58  C   LIG d   1      -0.287  -8.219 -10.780  0.00  0.00    -0.061 A 
ATOM     59  H   LIG d   1      -1.060  -9.533 -12.278  0.00  0.00     0.062 H 
ATOM     60  C   LIG d   1       0.361  -7.028 -10.524  0.00  0.00    -0.050 A 
ATOM     61  H   LIG d   1      -0.579  -8.859  -9.961  0.00  0.00     0.062 H 
ATOM     62  H   LIG d   1       0.575  -6.736  -9.507  0.00  0.00     0.062 H 
ENDBRANCH  49  52
ENDBRANCH   1  48
TORSDOF 4
ENDMDL
MODEL 10
REMARK VINA RESULT:      -6.7      3.122      6.223
REMARK  4 active torsions:
REMARK  status: ('A' for Active; 'I' for Inactive)
REMARK    1  A    between atoms: C_4  and  C_7 
REMARK       I    between atoms: C_7  and  N_9 
REMARK    2  A    between atoms: N_9  and  C_10 
REMARK    3  A    between atoms: C_25  and  C_26 
REMARK    4  A    between atoms: C_25  and  N_61 
ROOT
ATOM      1  C   LIG d   1       7.947  -0.072  -5.271  0.00  0.00     0.099 C 
ATOM      2  C   LIG d   1       7.883   1.135  -4.628  0.00  0.00    -0.034 C 
ATOM      3  C   LIG d   1       6.918   1.319  -3.631  0.00  0.00    -0.040 C 
ATOM      4  C   LIG d   1       6.068   0.312  -3.299  0.00  0.00     0.030 C 
ATOM      5  N   LIG d   1       6.185  -0.910  -3.873  0.00  0.00    -0.310 N 
ATOM      6  C   LIG d   1       7.049  -1.093  -4.901  0.00  0.00     0.273 C 
ATOM      7  O   LIG d   1       7.053  -2.153  -5.507  0.00  0.00    -0.266 OA
ATOM      8  C   LIG d   1       5.454  -2.086  -3.400  0.00  0.00     0.034 C 
ATOM      9  C   LIG d   1       4.216  -1.713  -2.602  0.00  0.00     0.018 C 
ATOM     10  H   LIG d   1       3.867  -2.598  -2.071  0.00  0.00     0.037 H 
ATOM     11  C   LIG d   1       4.581  -0.651  -1.561  0.00  0.00    -0.031 C 
ATOM     12  C   LIG d   1       4.963   0.628  -2.315  0.00  0.00     0.040 C 
ATOM     13  H   LIG d   1       5.279   1.409  -1.624  0.00  0.00     0.042 H 
ATOM     14  C   LIG d   1       3.739   1.086  -3.124  0.00  0.00    -0.024 C 
ATOM     15  C   LIG d   1       3.092  -1.218  -3.503  0.00  0.00    -0.027 C 
ATOM     16  H   LIG d   1       8.568   1.929  -4.883  0.00  0.00     0.064 H 
ATOM     17  H   LIG d   1       6.848   2.268  -3.122  0.00  0.00     0.064 H 
ATOM     18  H   LIG d   1       5.152  -2.684  -4.261  0.00  0.00     0.050 H 
ATOM     19  H   LIG d   1       6.113  -2.684  -2.771  0.00  0.00     0.050 H 
ATOM     20  H   LIG d   1       5.427  -0.995  -0.964  0.00  0.00     0.028 H 
ATOM     21  H   LIG d   1       3.726  -0.457  -0.914  0.00  0.00     0.028 H 
ATOM     22  H   LIG d   1       2.883   1.204  -2.460  0.00  0.00     0.082 H 
ATOM     23  H   LIG d   1       3.957   2.034  -3.617  0.00  0.00     0.082 H 
ATOM     24  H   LIG d   1       2.189  -1.084  -2.907  0.00  0.00     0.082 H 
ATOM     25  H   LIG d   1       2.902  -1.960  -4.277  0.00  0.00     0.082 H 
ATOM     26  N   LIG d   1       3.471   0.054  -4.151  0.00  0.00     0.236 N 
ATOM     27  H   LIG d   1       4.323  -0.095  -4.704  0.00  0.00     0.203 HD
ENDROOT
BRANCH  26  28
ATOM     28  C   LIG d   1       2.388   0.504  -5.050  0.00  0.00    -0.029 C 
ATOM     29  H   LIG d   1       1.489  -0.072  -4.837  0.00  0.00     0.082 H 
ATOM     30  H   LIG d   1       2.195   1.561  -4.867  0.00  0.00     0.082 H 
BRANCH  28  31
ATOM     31  C   LIG d   1       2.788   0.304  -6.513  0.00  0.00    -0.001 C 
ATOM     32  C   LIG d   1       2.668   1.632  -7.262  0.00  0.00    -0.045 C 
ATOM     33  C   LIG d   1       3.068   1.432  -8.725  0.00  0.00    -0.053 C 
ATOM     34  H   LIG d   1       1.637   1.985  -7.212  0.00  0.00     0.027 H 
ATOM     35  H   LIG d   1       3.326   2.369  -6.802  0.00  0.00     0.027 H 
ATOM     36  C   LIG d   1       4.514   0.936  -8.795  0.00  0.00    -0.053 C 
ATOM     37  H   LIG d   1       2.409   0.695  -9.184  0.00  0.00     0.026 H 
ATOM     38  H   LIG d   1       2.982   2.378  -9.258  0.00  0.00     0.026 H 
ATOM     39  C   LIG d   1       4.635  -0.392  -8.046  0.00  0.00    -0.053 C 
ATOM     40  H   LIG d   1       4.800   0.794  -9.837  0.00  0.00     0.026 H 
ATOM     41  H   LIG d   1       5.173   1.674  -8.335  0.00  0.00     0.026 H 
ATOM     42  C   LIG d   1       4.235  -0.192  -6.583  0.00  0.00    -0.045 C 
ATOM     43  H   LIG d   1       3.976  -1.129  -8.505  0.00  0.00     0.026 H 
ATOM     44  H   LIG d   1       5.665  -0.745  -8.096  0.00  0.00     0.026 H 
ATOM     45  H   LIG d   1       4.894   0.545  -6.124  0.00  0.00     0.027 H 
ATOM     46  H   LIG d   1       4.321  -1.138  -6.050  0.00  0.00     0.027 H 
ATOM     47  H   LIG d   1       2.130  -0.434  -6.972  0.00  0.00     0.035 H 
ENDBRANCH  28  31
ENDBRANCH  26  28
BRANCH   1  48
ATOM     48  N   LIG d   1       8.887  -0.287  -6.287  0.00  0.00    -0.277 N 
ATOM     49  C   LIG d   1      10.133  -0.698  -5.977  0.00  0.00     0.248 C 
ATOM     50  O   LIG d   1      10.420  -0.949  -4.822  0.00  0.00    -0.270 OA
ATOM     51  H   LIG d   1       8.642  -0.140  -7.214  0.00  0.00     0.155 HD
BRANCH  49  52
ATOM     52  C   LIG d   1      11.150  -0.843  -7.039  0.00  0.00     0.037 A 
ATOM     53  C   LIG d   1      12.405  -1.377  -6.740  0.00  0.00    -0.050 A 
ATOM     54  C   LIG d   1      13.349  -1.509  -7.736  0.00  0.00    -0.061 A 
ATOM     55  H   LIG d   1      12.636  -1.685  -5.731  0.00  0.00     0.062 H 
ATOM     56  C   LIG d   1      13.055  -1.114  -9.030  0.00  0.00    -0.062 A 
ATOM     57  H   LIG d   1      14.320  -1.922  -7.507  0.00  0.00     0.062 H 
ATOM     58  C   LIG d   1      11.814  -0.584  -9.333  0.00  0.00    -0.061 A 
ATOM     59  H   LIG d   1      13.798  -1.220  -9.806  0.00  0.00     0.062 H 
ATOM     60  C   LIG d   1      10.858  -0.452  -8.346  0.00  0.00    -0.050 A 
ATOM     61  H   LIG d   1      11.590  -0.278 -10.344  0.00  0.00     0.062 H 
ATOM     62  H   LIG d   1       9.887  -0.042  -8.585  0.00  0.00     0.062 H 
ENDBRANCH  49  52
ENDBRANCH   1  48
TORSDOF 4
ENDMDL
