MODEL 1
REMARK VINA RESULT:      -7.1      0.000      0.000
REMARK  5 active torsions:
REMARK  status: ('A' for Active; 'I' for Inactive)
REMARK    1  A    between atoms: C_1  and  C_2 
REMARK    2  A    between atoms: N_24  and  C_27 
REMARK    3  A    between atoms: C_32  and  C_33 
REMARK    4  A    between atoms: C_33  and  O_35 
REMARK    5  A    between atoms: O_35  and  C_36 
ROOT
ATOM      1  C   LIG d   1       4.426   0.373  -2.694  0.00  0.00    -0.028 A 
ATOM      2  C   LIG d   1       3.099   0.408  -3.072  0.00  0.00    -0.039 A 
ATOM      3  C   LIG d   1       2.698  -0.160  -4.268  0.00  0.00     0.042 A 
ATOM      4  C   LIG d   1       3.634  -0.767  -5.090  0.00  0.00    -0.036 A 
ATOM      5  C   LIG d   1       4.959  -0.803  -4.716  0.00  0.00     0.005 A 
ATOM      6  C   LIG d   1       5.373  -0.230  -3.518  0.00  0.00     0.042 A 
ATOM      7  N   LIG d   1       6.753  -0.384  -3.360  0.00  0.00    -0.283 N 
ATOM      8  C   LIG d   1       7.313  -1.035  -4.398  0.00  0.00     0.243 A 
ATOM      9  O   LIG d   1       8.486  -1.311  -4.532  0.00  0.00    -0.273 OA
ATOM     10  C   LIG d   1       6.197  -1.366  -5.354  0.00  0.00     0.138 A 
ATOM     11  C   LIG d   1       6.456  -0.740  -6.729  0.00  0.00     0.080 A 
ATOM     12  H   LIG d   1       7.116   0.126  -6.676  0.00  0.00     0.043 H 
ATOM     13  C   LIG d   1       7.046  -1.894  -7.583  0.00  0.00     0.066 A 
ATOM     14  H   LIG d   1       8.022  -1.650  -8.002  0.00  0.00     0.042 H 
ATOM     15  C   LIG d   1       7.098  -3.109  -6.638  0.00  0.00     0.024 C 
ATOM     16  H   LIG d   1       8.098  -3.268  -6.234  0.00  0.00     0.047 H 
ATOM     17  N   LIG d   1       6.078  -2.817  -5.577  0.00  0.00    -0.281 N 
ATOM     18  C   LIG d   1       4.769  -3.124  -6.202  0.00  0.00     0.001 C 
ATOM     19  C   LIG d   1       5.021  -4.365  -7.081  0.00  0.00    -0.039 C 
ATOM     20  C   LIG d   1       6.571  -4.352  -7.378  0.00  0.00    -0.035 C 
ATOM     21  C   LIG d   1       5.995  -2.114  -8.647  0.00  0.00     0.232 A 
ATOM     22  O   LIG d   1       6.058  -2.937  -9.535  0.00  0.00    -0.274 OA
ATOM     23  N   LIG d   1       4.985  -1.258  -8.457  0.00  0.00    -0.209 N 
ATOM     24  C   LIG d   1       5.139  -0.425  -7.402  0.00  0.00     0.233 A 
ATOM     25  O   LIG d   1       4.357   0.430  -7.047  0.00  0.00    -0.274 OA
ATOM     26 CL   LIG d   1       1.027  -0.115  -4.738  0.00  0.00    -0.084 Cl
ATOM     27  H   LIG d   1       2.369   0.879  -2.430  0.00  0.00     0.064 H 
ATOM     28  H   LIG d   1       3.324  -1.211  -6.024  0.00  0.00     0.064 H 
ATOM     29  H   LIG d   1       7.250  -0.060  -2.593  0.00  0.00     0.155 HD
ATOM     30  H   LIG d   1       4.027  -3.348  -5.435  0.00  0.00     0.043 H 
ATOM     31  H   LIG d   1       4.438  -2.286  -6.815  0.00  0.00     0.043 H 
ATOM     32  H   LIG d   1       4.755  -5.273  -6.540  0.00  0.00     0.028 H 
ATOM     33  H   LIG d   1       4.449  -4.294  -8.007  0.00  0.00     0.028 H 
ATOM     34  H   LIG d   1       6.745  -4.255  -8.450  0.00  0.00     0.028 H 
ATOM     35  H   LIG d   1       7.055  -5.252  -6.997  0.00  0.00     0.028 H 
ENDROOT
BRANCH   1  36
ATOM     36  C   LIG d   1       4.851   0.996  -1.389  0.00  0.00    -0.038 C 
ATOM     37  H   LIG d   1       5.741   1.603  -1.550  0.00  0.00     0.028 H 
ATOM     38  H   LIG d   1       4.047   1.623  -1.007  0.00  0.00     0.028 H 
ATOM     39  H   LIG d   1       5.073   0.209  -0.668  0.00  0.00     0.028 H 
ENDBRANCH   1  36
BRANCH  23  40
ATOM     40  C   LIG d   1       3.861  -1.220  -9.284  0.00  0.00     0.058 A 
ATOM     41  C   LIG d   1       3.831  -0.363 -10.394  0.00  0.00     0.081 A 
ATOM     42  C   LIG d   1       2.701  -0.339 -11.217  0.00  0.00    -0.046 A 
ATOM     43  C   LIG d   1       1.624  -1.147 -10.929  0.00  0.00    -0.061 A 
ATOM     44  H   LIG d   1       2.673   0.316 -12.076  0.00  0.00     0.063 H 
ATOM     45  C   LIG d   1       1.655  -1.989  -9.830  0.00  0.00    -0.060 A 
ATOM     46  H   LIG d   1       0.750  -1.125 -11.564  0.00  0.00     0.062 H 
ATOM     47  C   LIG d   1       2.766  -2.028  -9.010  0.00  0.00    -0.039 A 
ATOM     48  H   LIG d   1       0.806  -2.619  -9.612  0.00  0.00     0.062 H 
ATOM     49  H   LIG d   1       2.782  -2.687  -8.154  0.00  0.00     0.064 H 
BRANCH  41  50
ATOM     50  C   LIG d   1       4.985   0.504 -10.693  0.00  0.00     0.341 C 
ATOM     51  O   LIG d   1       5.850   0.123 -11.457  0.00  0.00    -0.245 OA
BRANCH  50  52
ATOM     52  O   LIG d   1       5.082   1.719 -10.118  0.00  0.00    -0.464 OA
BRANCH  52  53
ATOM     53  C   LIG d   1       3.859   2.399  -9.828  0.00  0.00     0.082 C 
ATOM     54  H   LIG d   1       3.913   3.421 -10.204  0.00  0.00     0.066 H 
ATOM     55  H   LIG d   1       3.031   1.879 -10.308  0.00  0.00     0.066 H 
ATOM     56  H   LIG d   1       3.700   2.417  -8.750  0.00  0.00     0.066 H 
ENDBRANCH  52  53
ENDBRANCH  50  52
ENDBRANCH  41  50
ENDBRANCH  23  40
TORSDOF 5
ENDMDL
MODEL 2
REMARK VINA RESULT:      -7.0      2.471      6.250
REMARK  5 active torsions:
REMARK  status: ('A' for Active; 'I' for Inactive)
REMARK    1  A    between atoms: C_1  and  C_2 
REMARK    2  A    between atoms: N_24  and  C_27 
REMARK    3  A    between atoms: C_32  and  C_33 
REMARK    4  A    between atoms: C_33  and  O_35 
REMARK    5  A    between atoms: O_35  and  C_36 
ROOT
ATOM      1  C   LIG d   1       3.381  -2.367  -9.926  0.00  0.00    -0.028 A 
ATOM      2  C   LIG d   1       4.101  -1.254 -10.309  0.00  0.00    -0.039 A 
ATOM      3  C   LIG d   1       5.164  -0.812  -9.542  0.00  0.00     0.042 A 
ATOM      4  C   LIG d   1       5.506  -1.491  -8.384  0.00  0.00    -0.036 A 
ATOM      5  C   LIG d   1       4.790  -2.601  -7.998  0.00  0.00     0.005 A 
ATOM      6  C   LIG d   1       3.715  -3.050  -8.760  0.00  0.00     0.042 A 
ATOM      7  N   LIG d   1       3.143  -4.180  -8.169  0.00  0.00    -0.283 N 
ATOM      8  C   LIG d   1       3.771  -4.531  -7.030  0.00  0.00     0.243 A 
ATOM      9  O   LIG d   1       3.496  -5.467  -6.309  0.00  0.00    -0.273 OA
ATOM     10  C   LIG d   1       4.891  -3.544  -6.833  0.00  0.00     0.138 A 
ATOM     11  C   LIG d   1       4.736  -2.806  -5.498  0.00  0.00     0.080 A 
ATOM     12  H   LIG d   1       3.705  -2.794  -5.145  0.00  0.00     0.043 H 
ATOM     13  C   LIG d   1       5.697  -3.543  -4.526  0.00  0.00     0.066 A 
ATOM     14  H   LIG d   1       5.188  -3.922  -3.640  0.00  0.00     0.042 H 
ATOM     15  C   LIG d   1       6.335  -4.666  -5.365  0.00  0.00     0.024 C 
ATOM     16  H   LIG d   1       5.859  -5.630  -5.185  0.00  0.00     0.047 H 
ATOM     17  N   LIG d   1       6.206  -4.207  -6.787  0.00  0.00    -0.281 N 
ATOM     18  C   LIG d   1       7.282  -3.203  -6.971  0.00  0.00     0.001 C 
ATOM     19  C   LIG d   1       8.479  -3.741  -6.162  0.00  0.00    -0.039 C 
ATOM     20  C   LIG d   1       7.849  -4.710  -5.088  0.00  0.00    -0.035 C 
ATOM     21  C   LIG d   1       6.733  -2.493  -4.197  0.00  0.00     0.232 A 
ATOM     22  O   LIG d   1       7.681  -2.652  -3.458  0.00  0.00    -0.274 OA
ATOM     23  N   LIG d   1       6.441  -1.361  -4.846  0.00  0.00    -0.209 N 
ATOM     24  C   LIG d   1       5.327  -1.418  -5.610  0.00  0.00     0.233 A 
ATOM     25  O   LIG d   1       4.872  -0.515  -6.279  0.00  0.00    -0.274 OA
ATOM     26 CL   LIG d   1       6.068   0.588 -10.029  0.00  0.00    -0.084 Cl
ATOM     27  H   LIG d   1       3.835  -0.726 -11.213  0.00  0.00     0.064 H 
ATOM     28  H   LIG d   1       6.336  -1.148  -7.782  0.00  0.00     0.064 H 
ATOM     29  H   LIG d   1       2.382  -4.657  -8.536  0.00  0.00     0.155 HD
ATOM     30  H   LIG d   1       7.544  -3.120  -8.026  0.00  0.00     0.043 H 
ATOM     31  H   LIG d   1       6.965  -2.235  -6.582  0.00  0.00     0.043 H 
ATOM     32  H   LIG d   1       9.155  -4.297  -6.811  0.00  0.00     0.028 H 
ATOM     33  H   LIG d   1       9.008  -2.918  -5.679  0.00  0.00     0.028 H 
ATOM     34  H   LIG d   1       8.059  -4.341  -4.083  0.00  0.00     0.028 H 
ATOM     35  H   LIG d   1       8.224  -5.727  -5.202  0.00  0.00     0.028 H 
ENDROOT
BRANCH   1  36
ATOM     36  C   LIG d   1       2.224  -2.839 -10.769  0.00  0.00    -0.038 C 
ATOM     37  H   LIG d   1       2.523  -2.861 -11.816  0.00  0.00     0.028 H 
ATOM     38  H   LIG d   1       1.929  -3.839 -10.453  0.00  0.00     0.028 H 
ATOM     39  H   LIG d   1       1.383  -2.156 -10.645  0.00  0.00     0.028 H 
ENDBRANCH   1  36
BRANCH  23  40
ATOM     40  C   LIG d   1       7.220  -0.207  -4.741  0.00  0.00     0.058 A 
ATOM     41  C   LIG d   1       6.812   0.846  -3.910  0.00  0.00     0.081 A 
ATOM     42  C   LIG d   1       7.604   1.994  -3.810  0.00  0.00    -0.046 A 
ATOM     43  C   LIG d   1       8.772   2.087  -4.534  0.00  0.00    -0.061 A 
ATOM     44  H   LIG d   1       7.297   2.807  -3.169  0.00  0.00     0.063 H 
ATOM     45  C   LIG d   1       9.170   1.047  -5.357  0.00  0.00    -0.060 A 
ATOM     46  H   LIG d   1       9.381   2.976  -4.458  0.00  0.00     0.062 H 
ATOM     47  C   LIG d   1       8.401  -0.095  -5.462  0.00  0.00    -0.039 A 
ATOM     48  H   LIG d   1      10.088   1.129  -5.920  0.00  0.00     0.062 H 
ATOM     49  H   LIG d   1       8.718  -0.902  -6.107  0.00  0.00     0.064 H 
BRANCH  41  50
ATOM     50  C   LIG d   1       5.557   0.742  -3.144  0.00  0.00     0.341 C 
ATOM     51  O   LIG d   1       4.588   1.399  -3.471  0.00  0.00    -0.245 OA
BRANCH  50  52
ATOM     52  O   LIG d   1       5.483  -0.083  -2.080  0.00  0.00    -0.464 OA
BRANCH  52  53
ATOM     53  C   LIG d   1       4.311  -0.892  -1.967  0.00  0.00     0.082 C 
ATOM     54  H   LIG d   1       3.849  -0.727  -0.993  0.00  0.00     0.066 H 
ATOM     55  H   LIG d   1       3.606  -0.625  -2.754  0.00  0.00     0.066 H 
ATOM     56  H   LIG d   1       4.584  -1.943  -2.065  0.00  0.00     0.066 H 
ENDBRANCH  52  53
ENDBRANCH  50  52
ENDBRANCH  41  50
ENDBRANCH  23  40
TORSDOF 5
ENDMDL
MODEL 3
REMARK VINA RESULT:      -6.7      2.863      5.499
REMARK  5 active torsions:
REMARK  status: ('A' for Active; 'I' for Inactive)
REMARK    1  A    between atoms: C_1  and  C_2 
REMARK    2  A    between atoms: N_24  and  C_27 
REMARK    3  A    between atoms: C_32  and  C_33 
REMARK    4  A    between atoms: C_33  and  O_35 
REMARK    5  A    between atoms: O_35  and  C_36 
ROOT
ATOM      1  C   LIG d   1       7.101  -7.010  -5.415  0.00  0.00    -0.028 A 
ATOM      2  C   LIG d   1       6.103  -6.976  -6.368  0.00  0.00    -0.039 A 
ATOM      3  C   LIG d   1       5.649  -5.765  -6.860  0.00  0.00     0.042 A 
ATOM      4  C   LIG d   1       6.199  -4.583  -6.393  0.00  0.00    -0.036 A 
ATOM      5  C   LIG d   1       7.194  -4.613  -5.443  0.00  0.00     0.005 A 
ATOM      6  C   LIG d   1       7.654  -5.825  -4.937  0.00  0.00     0.042 A 
ATOM      7  N   LIG d   1       8.653  -5.604  -3.986  0.00  0.00    -0.283 N 
ATOM      8  C   LIG d   1       8.903  -4.292  -3.807  0.00  0.00     0.243 A 
ATOM      9  O   LIG d   1       9.716  -3.806  -3.050  0.00  0.00    -0.273 OA
ATOM     10  C   LIG d   1       7.986  -3.547  -4.740  0.00  0.00     0.138 A 
ATOM     11  C   LIG d   1       7.075  -2.592  -3.960  0.00  0.00     0.080 A 
ATOM     12  H   LIG d   1       6.940  -2.898  -2.923  0.00  0.00     0.043 H 
ATOM     13  C   LIG d   1       7.753  -1.202  -4.095  0.00  0.00     0.066 A 
ATOM     14  H   LIG d   1       7.977  -0.749  -3.129  0.00  0.00     0.042 H 
ATOM     15  C   LIG d   1       9.019  -1.451  -4.937  0.00  0.00     0.024 C 
ATOM     16  H   LIG d   1       9.913  -1.518  -4.318  0.00  0.00     0.047 H 
ATOM     17  N   LIG d   1       8.735  -2.713  -5.696  0.00  0.00    -0.281 N 
ATOM     18  C   LIG d   1       7.847  -2.305  -6.811  0.00  0.00     0.001 C 
ATOM     19  C   LIG d   1       8.367  -0.924  -7.257  0.00  0.00    -0.039 C 
ATOM     20  C   LIG d   1       9.141  -0.350  -6.008  0.00  0.00    -0.035 C 
ATOM     21  C   LIG d   1       6.751  -0.401  -4.894  0.00  0.00     0.232 A 
ATOM     22  O   LIG d   1       6.887   0.757  -5.228  0.00  0.00    -0.274 OA
ATOM     23  N   LIG d   1       5.692  -1.167  -5.176  0.00  0.00    -0.209 N 
ATOM     24  C   LIG d   1       5.761  -2.428  -4.692  0.00  0.00     0.233 A 
ATOM     25  O   LIG d   1       4.919  -3.290  -4.820  0.00  0.00    -0.274 OA
ATOM     26 CL   LIG d   1       4.395  -5.728  -8.060  0.00  0.00    -0.084 Cl
ATOM     27  H   LIG d   1       5.676  -7.898  -6.733  0.00  0.00     0.064 H 
ATOM     28  H   LIG d   1       5.846  -3.636  -6.776  0.00  0.00     0.064 H 
ATOM     29  H   LIG d   1       9.114  -6.312  -3.509  0.00  0.00     0.155 HD
ATOM     30  H   LIG d   1       7.918  -3.019  -7.632  0.00  0.00     0.043 H 
ATOM     31  H   LIG d   1       6.817  -2.229  -6.465  0.00  0.00     0.043 H 
ATOM     32  H   LIG d   1       9.050  -1.030  -8.100  0.00  0.00     0.028 H 
ATOM     33  H   LIG d   1       7.532  -0.276  -7.526  0.00  0.00     0.028 H 
ATOM     34  H   LIG d   1       8.665   0.567  -5.661  0.00  0.00     0.028 H 
ATOM     35  H   LIG d   1      10.190  -0.166  -6.241  0.00  0.00     0.028 H 
ENDROOT
BRANCH   1  36
ATOM     36  C   LIG d   1       7.587  -8.335  -4.885  0.00  0.00    -0.038 C 
ATOM     37  H   LIG d   1       8.026  -8.912  -5.698  0.00  0.00     0.028 H 
ATOM     38  H   LIG d   1       8.338  -8.164  -4.114  0.00  0.00     0.028 H 
ATOM     39  H   LIG d   1       6.748  -8.885  -4.459  0.00  0.00     0.028 H 
ENDBRANCH   1  36
BRANCH  23  40
ATOM     40  C   LIG d   1       4.596  -0.704  -5.906  0.00  0.00     0.058 A 
ATOM     41  C   LIG d   1       3.522  -0.085  -5.250  0.00  0.00     0.081 A 
ATOM     42  C   LIG d   1       2.433   0.379  -5.994  0.00  0.00    -0.046 A 
ATOM     43  C   LIG d   1       2.418   0.218  -7.362  0.00  0.00    -0.061 A 
ATOM     44  H   LIG d   1       1.605   0.859  -5.496  0.00  0.00     0.063 H 
ATOM     45  C   LIG d   1       3.479  -0.397  -8.006  0.00  0.00    -0.060 A 
ATOM     46  H   LIG d   1       1.574   0.574  -7.935  0.00  0.00     0.062 H 
ATOM     47  C   LIG d   1       4.563  -0.856  -7.286  0.00  0.00    -0.039 A 
ATOM     48  H   LIG d   1       3.458  -0.518  -9.079  0.00  0.00     0.062 H 
ATOM     49  H   LIG d   1       5.386  -1.335  -7.796  0.00  0.00     0.064 H 
BRANCH  41  50
ATOM     50  C   LIG d   1       3.543   0.077  -3.785  0.00  0.00     0.341 C 
ATOM     51  O   LIG d   1       3.065  -0.783  -3.071  0.00  0.00    -0.245 OA
BRANCH  50  52
ATOM     52  O   LIG d   1       4.091   1.180  -3.237  0.00  0.00    -0.464 OA
BRANCH  52  53
ATOM     53  C   LIG d   1       4.668   1.040  -1.937  0.00  0.00     0.082 C 
ATOM     54  H   LIG d   1       4.717   2.016  -1.455  0.00  0.00     0.066 H 
ATOM     55  H   LIG d   1       4.054   0.369  -1.337  0.00  0.00     0.066 H 
ATOM     56  H   LIG d   1       5.673   0.629  -2.028  0.00  0.00     0.066 H 
ENDBRANCH  52  53
ENDBRANCH  50  52
ENDBRANCH  41  50
ENDBRANCH  23  40
TORSDOF 5
ENDMDL
MODEL 4
REMARK VINA RESULT:      -6.5      3.126      6.030
REMARK  5 active torsions:
REMARK  status: ('A' for Active; 'I' for Inactive)
REMARK    1  A    between atoms: C_1  and  C_2 
REMARK    2  A    between atoms: N_24  and  C_27 
REMARK    3  A    between atoms: C_32  and  C_33 
REMARK    4  A    between atoms: C_33  and  O_35 
REMARK    5  A    between atoms: O_35  and  C_36 
ROOT
ATOM      1  C   LIG d   1       8.307  -6.172  -5.155  0.00  0.00    -0.028 A 
ATOM      2  C   LIG d   1       9.444  -5.533  -4.705  0.00  0.00    -0.039 A 
ATOM      3  C   LIG d   1       9.403  -4.193  -4.365  0.00  0.00     0.042 A 
ATOM      4  C   LIG d   1       8.214  -3.490  -4.479  0.00  0.00    -0.036 A 
ATOM      5  C   LIG d   1       7.079  -4.124  -4.928  0.00  0.00     0.005 A 
ATOM      6  C   LIG d   1       7.111  -5.471  -5.278  0.00  0.00     0.042 A 
ATOM      7  N   LIG d   1       5.849  -5.888  -5.709  0.00  0.00    -0.283 N 
ATOM      8  C   LIG d   1       4.945  -4.889  -5.677  0.00  0.00     0.243 A 
ATOM      9  O   LIG d   1       3.776  -4.959  -5.992  0.00  0.00    -0.273 OA
ATOM     10  C   LIG d   1       5.665  -3.671  -5.162  0.00  0.00     0.138 A 
ATOM     11  C   LIG d   1       5.603  -2.530  -6.184  0.00  0.00     0.080 A 
ATOM     12  H   LIG d   1       5.447  -2.889  -7.201  0.00  0.00     0.043 H 
ATOM     13  C   LIG d   1       4.451  -1.617  -5.685  0.00  0.00     0.066 A 
ATOM     14  H   LIG d   1       3.674  -1.471  -6.436  0.00  0.00     0.042 H 
ATOM     15  C   LIG d   1       3.918  -2.299  -4.411  0.00  0.00     0.024 C 
ATOM     16  H   LIG d   1       3.010  -2.870  -4.605  0.00  0.00     0.047 H 
ATOM     17  N   LIG d   1       5.053  -3.153  -3.927  0.00  0.00    -0.281 N 
ATOM     18  C   LIG d   1       5.986  -2.215  -3.258  0.00  0.00     0.001 C 
ATOM     19  C   LIG d   1       5.085  -1.188  -2.543  0.00  0.00    -0.039 C 
ATOM     20  C   LIG d   1       3.710  -1.238  -3.315  0.00  0.00    -0.035 C 
ATOM     21  C   LIG d   1       5.158  -0.330  -5.323  0.00  0.00     0.232 A 
ATOM     22  O   LIG d   1       4.620   0.665  -4.885  0.00  0.00    -0.274 OA
ATOM     23  N   LIG d   1       6.467  -0.460  -5.561  0.00  0.00    -0.209 N 
ATOM     24  C   LIG d   1       6.836  -1.663  -6.057  0.00  0.00     0.233 A 
ATOM     25  O   LIG d   1       7.962  -2.000  -6.350  0.00  0.00    -0.274 OA
ATOM     26 CL   LIG d   1      10.836  -3.393  -3.797  0.00  0.00    -0.084 Cl
ATOM     27  H   LIG d   1      10.370  -6.081  -4.615  0.00  0.00     0.064 H 
ATOM     28  H   LIG d   1       8.180  -2.443  -4.215  0.00  0.00     0.064 H 
ATOM     29  H   LIG d   1       5.646  -6.792  -5.997  0.00  0.00     0.155 HD
ATOM     30  H   LIG d   1       6.602  -2.747  -2.533  0.00  0.00     0.043 H 
ATOM     31  H   LIG d   1       6.616  -1.718  -3.996  0.00  0.00     0.043 H 
ATOM     32  H   LIG d   1       4.937  -1.474  -1.502  0.00  0.00     0.028 H 
ATOM     33  H   LIG d   1       5.527  -0.193  -2.603  0.00  0.00     0.028 H 
ATOM     34  H   LIG d   1       3.498  -0.268  -3.764  0.00  0.00     0.028 H 
ATOM     35  H   LIG d   1       2.895  -1.534  -2.654  0.00  0.00     0.028 H 
ENDROOT
BRANCH   1  36
ATOM     36  C   LIG d   1       8.363  -7.633  -5.523  0.00  0.00    -0.038 C 
ATOM     37  H   LIG d   1       7.447  -8.125  -5.198  0.00  0.00     0.028 H 
ATOM     38  H   LIG d   1       8.466  -7.732  -6.604  0.00  0.00     0.028 H 
ATOM     39  H   LIG d   1       9.219  -8.098  -5.033  0.00  0.00     0.028 H 
ENDBRANCH   1  36
BRANCH  23  40
ATOM     40  C   LIG d   1       7.383   0.566  -5.324  0.00  0.00     0.058 A 
ATOM     41  C   LIG d   1       7.810   1.389  -6.377  0.00  0.00     0.081 A 
ATOM     42  C   LIG d   1       8.724   2.415  -6.124  0.00  0.00    -0.046 A 
ATOM     43  C   LIG d   1       9.207   2.607  -4.849  0.00  0.00    -0.061 A 
ATOM     44  H   LIG d   1       9.053   3.055  -6.930  0.00  0.00     0.063 H 
ATOM     45  C   LIG d   1       8.787   1.790  -3.812  0.00  0.00    -0.060 A 
ATOM     46  H   LIG d   1       9.916   3.399  -4.656  0.00  0.00     0.062 H 
ATOM     47  C   LIG d   1       7.881   0.775  -4.045  0.00  0.00    -0.039 A 
ATOM     48  H   LIG d   1       9.171   1.948  -2.815  0.00  0.00     0.062 H 
ATOM     49  H   LIG d   1       7.559   0.141  -3.231  0.00  0.00     0.064 H 
BRANCH  41  50
ATOM     50  C   LIG d   1       7.293   1.174  -7.741  0.00  0.00     0.341 C 
ATOM     51  O   LIG d   1       7.944   0.533  -8.543  0.00  0.00    -0.245 OA
BRANCH  50  52
ATOM     52  O   LIG d   1       6.100   1.688  -8.098  0.00  0.00    -0.464 OA
BRANCH  52  53
ATOM     53  C   LIG d   1       5.206   0.824  -8.804  0.00  0.00     0.082 C 
ATOM     54  H   LIG d   1       4.359   0.578  -8.163  0.00  0.00     0.066 H 
ATOM     55  H   LIG d   1       4.849   1.326  -9.702  0.00  0.00     0.066 H 
ATOM     56  H   LIG d   1       5.729  -0.091  -9.082  0.00  0.00     0.066 H 
ENDBRANCH  52  53
ENDBRANCH  50  52
ENDBRANCH  41  50
ENDBRANCH  23  40
TORSDOF 5
ENDMDL
MODEL 5
REMARK VINA RESULT:      -6.4      2.827      4.640
REMARK  5 active torsions:
REMARK  status: ('A' for Active; 'I' for Inactive)
REMARK    1  A    between atoms: C_1  and  C_2 
REMARK    2  A    between atoms: N_24  and  C_27 
REMARK    3  A    between atoms: C_32  and  C_33 
REMARK    4  A    between atoms: C_33  and  O_35 
REMARK    5  A    between atoms: O_35  and  C_36 
ROOT
ATOM      1  C   LIG d   1       4.554  -2.340  -4.166  0.00  0.00    -0.028 A 
ATOM      2  C   LIG d   1       5.287  -3.368  -4.724  0.00  0.00    -0.039 A 
ATOM      3  C   LIG d   1       5.550  -3.381  -6.082  0.00  0.00     0.042 A 
ATOM      4  C   LIG d   1       5.075  -2.357  -6.885  0.00  0.00    -0.036 A 
ATOM      5  C   LIG d   1       4.345  -1.330  -6.332  0.00  0.00     0.005 A 
ATOM      6  C   LIG d   1       4.069  -1.311  -4.968  0.00  0.00     0.042 A 
ATOM      7  N   LIG d   1       3.312  -0.182  -4.644  0.00  0.00    -0.283 N 
ATOM      8  C   LIG d   1       3.047   0.579  -5.724  0.00  0.00     0.243 A 
ATOM      9  O   LIG d   1       2.414   1.614  -5.743  0.00  0.00    -0.273 OA
ATOM     10  C   LIG d   1       3.700  -0.097  -6.900  0.00  0.00     0.138 A 
ATOM     11  C   LIG d   1       2.661  -0.449  -7.970  0.00  0.00     0.080 A 
ATOM     12  H   LIG d   1       1.655  -0.546  -7.561  0.00  0.00     0.043 H 
ATOM     13  C   LIG d   1       2.776   0.690  -9.020  0.00  0.00     0.066 A 
ATOM     14  H   LIG d   1       1.829   1.204  -9.188  0.00  0.00     0.042 H 
ATOM     15  C   LIG d   1       3.869   1.629  -8.478  0.00  0.00     0.024 C 
ATOM     16  H   LIG d   1       3.446   2.504  -7.984  0.00  0.00     0.047 H 
ATOM     17  N   LIG d   1       4.689   0.776  -7.556  0.00  0.00    -0.281 N 
ATOM     18  C   LIG d   1       5.561  -0.030  -8.444  0.00  0.00     0.001 C 
ATOM     19  C   LIG d   1       5.949   0.917  -9.597  0.00  0.00    -0.039 C 
ATOM     20  C   LIG d   1       4.820   2.018  -9.625  0.00  0.00    -0.035 C 
ATOM     21  C   LIG d   1       3.276  -0.024 -10.256  0.00  0.00     0.232 A 
ATOM     22  O   LIG d   1       3.505   0.502 -11.324  0.00  0.00    -0.274 OA
ATOM     23  N   LIG d   1       3.427  -1.325  -9.987  0.00  0.00    -0.209 N 
ATOM     24  C   LIG d   1       3.102  -1.684  -8.724  0.00  0.00     0.233 A 
ATOM     25  O   LIG d   1       3.155  -2.804  -8.262  0.00  0.00    -0.274 OA
ATOM     26 CL   LIG d   1       6.472  -4.677  -6.779  0.00  0.00    -0.084 Cl
ATOM     27  H   LIG d   1       5.657  -4.166  -4.098  0.00  0.00     0.064 H 
ATOM     28  H   LIG d   1       5.279  -2.364  -7.946  0.00  0.00     0.064 H 
ATOM     29  H   LIG d   1       3.012   0.030  -3.746  0.00  0.00     0.155 HD
ATOM     30  H   LIG d   1       6.451  -0.356  -7.905  0.00  0.00     0.043 H 
ATOM     31  H   LIG d   1       5.015  -0.891  -8.828  0.00  0.00     0.043 H 
ATOM     32  H   LIG d   1       6.915   1.381  -9.396  0.00  0.00     0.028 H 
ATOM     33  H   LIG d   1       5.981   0.370 -10.540  0.00  0.00     0.028 H 
ATOM     34  H   LIG d   1       4.292   1.988 -10.579  0.00  0.00     0.028 H 
ATOM     35  H   LIG d   1       5.231   3.013  -9.453  0.00  0.00     0.028 H 
ENDROOT
BRANCH   1  36
ATOM     36  C   LIG d   1       4.273  -2.337  -2.686  0.00  0.00    -0.038 C 
ATOM     37  H   LIG d   1       4.339  -1.318  -2.306  0.00  0.00     0.028 H 
ATOM     38  H   LIG d   1       3.272  -2.728  -2.505  0.00  0.00     0.028 H 
ATOM     39  H   LIG d   1       5.006  -2.963  -2.176  0.00  0.00     0.028 H 
ENDBRANCH   1  36
BRANCH  23  40
ATOM     40  C   LIG d   1       3.877  -2.246 -10.935  0.00  0.00     0.058 A 
ATOM     41  C   LIG d   1       2.959  -2.928 -11.747  0.00  0.00     0.081 A 
ATOM     42  C   LIG d   1       3.424  -3.843 -12.696  0.00  0.00    -0.046 A 
ATOM     43  C   LIG d   1       4.776  -4.076 -12.821  0.00  0.00    -0.061 A 
ATOM     44  H   LIG d   1       2.723  -4.369 -13.327  0.00  0.00     0.063 H 
ATOM     45  C   LIG d   1       5.679  -3.404 -12.015  0.00  0.00    -0.060 A 
ATOM     46  H   LIG d   1       5.134  -4.786 -13.553  0.00  0.00     0.062 H 
ATOM     47  C   LIG d   1       5.236  -2.493 -11.076  0.00  0.00    -0.039 A 
ATOM     48  H   LIG d   1       6.737  -3.592 -12.120  0.00  0.00     0.062 H 
ATOM     49  H   LIG d   1       5.946  -1.973 -10.450  0.00  0.00     0.064 H 
BRANCH  41  50
ATOM     50  C   LIG d   1       1.514  -2.679 -11.603  0.00  0.00     0.341 C 
ATOM     51  O   LIG d   1       0.966  -1.852 -12.307  0.00  0.00    -0.245 OA
BRANCH  50  52
ATOM     52  O   LIG d   1       0.799  -3.366 -10.691  0.00  0.00    -0.464 OA
BRANCH  52  53
ATOM     53  C   LIG d   1       0.068  -4.501 -11.161  0.00  0.00     0.082 C 
ATOM     54  H   LIG d   1      -0.457  -4.240 -12.080  0.00  0.00     0.066 H 
ATOM     55  H   LIG d   1       0.757  -5.322 -11.356  0.00  0.00     0.066 H 
ATOM     56  H   LIG d   1      -0.655  -4.806 -10.405  0.00  0.00     0.066 H 
ENDBRANCH  52  53
ENDBRANCH  50  52
ENDBRANCH  41  50
ENDBRANCH  23  40
TORSDOF 5
ENDMDL
MODEL 6
REMARK VINA RESULT:      -6.3      2.584      6.432
REMARK  5 active torsions:
REMARK  status: ('A' for Active; 'I' for Inactive)
REMARK    1  A    between atoms: C_1  and  C_2 
REMARK    2  A    between atoms: N_24  and  C_27 
REMARK    3  A    between atoms: C_32  and  C_33 
REMARK    4  A    between atoms: C_33  and  O_35 
REMARK    5  A    between atoms: O_35  and  C_36 
ROOT
ATOM      1  C   LIG d   1       3.250  -3.181  -9.075  0.00  0.00    -0.028 A 
ATOM      2  C   LIG d   1       3.937  -4.368  -8.916  0.00  0.00    -0.039 A 
ATOM      3  C   LIG d   1       4.814  -4.530  -7.859  0.00  0.00     0.042 A 
ATOM      4  C   LIG d   1       5.004  -3.496  -6.957  0.00  0.00    -0.036 A 
ATOM      5  C   LIG d   1       4.321  -2.312  -7.112  0.00  0.00     0.005 A 
ATOM      6  C   LIG d   1       3.440  -2.136  -8.175  0.00  0.00     0.042 A 
ATOM      7  N   LIG d   1       2.875  -0.859  -8.128  0.00  0.00    -0.283 N 
ATOM      8  C   LIG d   1       3.328  -0.141  -7.082  0.00  0.00     0.243 A 
ATOM      9  O   LIG d   1       3.013   0.993  -6.790  0.00  0.00    -0.273 OA
ATOM     10  C   LIG d   1       4.293  -1.025  -6.337  0.00  0.00     0.138 A 
ATOM     11  C   LIG d   1       5.681  -0.379  -6.269  0.00  0.00     0.080 A 
ATOM     12  H   LIG d   1       5.847   0.339  -7.072  0.00  0.00     0.043 H 
ATOM     13  C   LIG d   1       5.746   0.269  -4.859  0.00  0.00     0.066 A 
ATOM     14  H   LIG d   1       5.958   1.338  -4.898  0.00  0.00     0.042 H 
ATOM     15  C   LIG d   1       4.383  -0.039  -4.211  0.00  0.00     0.024 C 
ATOM     16  H   LIG d   1       3.704   0.812  -4.267  0.00  0.00     0.047 H 
ATOM     17  N   LIG d   1       3.871  -1.244  -4.942  0.00  0.00    -0.281 N 
ATOM     18  C   LIG d   1       4.613  -2.392  -4.367  0.00  0.00     0.001 C 
ATOM     19  C   LIG d   1       4.750  -2.073  -2.865  0.00  0.00    -0.039 C 
ATOM     20  C   LIG d   1       4.604  -0.505  -2.760  0.00  0.00    -0.035 C 
ATOM     21  C   LIG d   1       6.836  -0.515  -4.164  0.00  0.00     0.232 A 
ATOM     22  O   LIG d   1       7.214  -0.331  -3.027  0.00  0.00    -0.274 OA
ATOM     23  N   LIG d   1       7.317  -1.442  -4.999  0.00  0.00    -0.209 N 
ATOM     24  C   LIG d   1       6.743  -1.455  -6.223  0.00  0.00     0.233 A 
ATOM     25  O   LIG d   1       7.023  -2.202  -7.136  0.00  0.00    -0.274 OA
ATOM     26 CL   LIG d   1       5.675  -6.025  -7.663  0.00  0.00    -0.084 Cl
ATOM     27  H   LIG d   1       3.788  -5.174  -9.619  0.00  0.00     0.064 H 
ATOM     28  H   LIG d   1       5.689  -3.620  -6.130  0.00  0.00     0.064 H 
ATOM     29  H   LIG d   1       2.231  -0.527  -8.773  0.00  0.00     0.155 HD
ATOM     30  H   LIG d   1       4.051  -3.315  -4.508  0.00  0.00     0.043 H 
ATOM     31  H   LIG d   1       5.598  -2.474  -4.828  0.00  0.00     0.043 H 
ATOM     32  H   LIG d   1       3.954  -2.558  -2.301  0.00  0.00     0.028 H 
ATOM     33  H   LIG d   1       5.725  -2.396  -2.498  0.00  0.00     0.028 H 
ATOM     34  H   LIG d   1       5.520  -0.070  -2.359  0.00  0.00     0.028 H 
ATOM     35  H   LIG d   1       3.751  -0.227  -2.141  0.00  0.00     0.028 H 
ENDROOT
BRANCH   1  36
ATOM     36  C   LIG d   1       2.297  -3.015 -10.230  0.00  0.00    -0.038 C 
ATOM     37  H   LIG d   1       2.803  -3.275 -11.159  0.00  0.00     0.028 H 
ATOM     38  H   LIG d   1       1.437  -3.669 -10.089  0.00  0.00     0.028 H 
ATOM     39  H   LIG d   1       1.961  -1.978 -10.277  0.00  0.00     0.028 H 
ENDBRANCH   1  36
BRANCH  23  40
ATOM     40  C   LIG d   1       8.338  -2.325  -4.640  0.00  0.00     0.058 A 
ATOM     41  C   LIG d   1       9.674  -2.017  -4.938  0.00  0.00     0.081 A 
ATOM     42  C   LIG d   1      10.686  -2.908  -4.569  0.00  0.00    -0.046 A 
ATOM     43  C   LIG d   1      10.366  -4.082  -3.925  0.00  0.00    -0.061 A 
ATOM     44  H   LIG d   1      11.717  -2.675  -4.791  0.00  0.00     0.063 H 
ATOM     45  C   LIG d   1       9.046  -4.385  -3.636  0.00  0.00    -0.060 A 
ATOM     46  H   LIG d   1      11.149  -4.771  -3.643  0.00  0.00     0.062 H 
ATOM     47  C   LIG d   1       8.035  -3.513  -3.990  0.00  0.00    -0.039 A 
ATOM     48  H   LIG d   1       8.805  -5.309  -3.131  0.00  0.00     0.062 H 
ATOM     49  H   LIG d   1       7.008  -3.757  -3.763  0.00  0.00     0.064 H 
BRANCH  41  50
ATOM     50  C   LIG d   1      10.008  -0.761  -5.633  0.00  0.00     0.341 C 
ATOM     51  O   LIG d   1      10.128  -0.748  -6.842  0.00  0.00    -0.245 OA
BRANCH  50  52
ATOM     52  O   LIG d   1      10.181   0.374  -4.927  0.00  0.00    -0.464 OA
BRANCH  52  53
ATOM     53  C   LIG d   1       9.594   1.564  -5.458  0.00  0.00     0.082 C 
ATOM     54  H   LIG d   1       8.699   1.306  -6.025  0.00  0.00     0.066 H 
ATOM     55  H   LIG d   1       9.325   2.233  -4.641  0.00  0.00     0.066 H 
ATOM     56  H   LIG d   1      10.308   2.060  -6.114  0.00  0.00     0.066 H 
ENDBRANCH  52  53
ENDBRANCH  50  52
ENDBRANCH  41  50
ENDBRANCH  23  40
TORSDOF 5
ENDMDL
MODEL 7
REMARK VINA RESULT:      -6.3      3.040      5.328
REMARK  5 active torsions:
REMARK  status: ('A' for Active; 'I' for Inactive)
REMARK    1  A    between atoms: C_1  and  C_2 
REMARK    2  A    between atoms: N_24  and  C_27 
REMARK    3  A    between atoms: C_32  and  C_33 
REMARK    4  A    between atoms: C_33  and  O_35 
REMARK    5  A    between atoms: O_35  and  C_36 
ROOT
ATOM      1  C   LIG d   1      10.904   1.502  -6.755  0.00  0.00    -0.028 A 
ATOM      2  C   LIG d   1      10.508   2.194  -5.629  0.00  0.00    -0.039 A 
ATOM      3  C   LIG d   1       9.461   1.727  -4.854  0.00  0.00     0.042 A 
ATOM      4  C   LIG d   1       8.808   0.558  -5.211  0.00  0.00    -0.036 A 
ATOM      5  C   LIG d   1       9.201  -0.134  -6.334  0.00  0.00     0.005 A 
ATOM      6  C   LIG d   1      10.248   0.331  -7.124  0.00  0.00     0.042 A 
ATOM      7  N   LIG d   1      10.457  -0.530  -8.205  0.00  0.00    -0.283 N 
ATOM      8  C   LIG d   1       9.598  -1.568  -8.202  0.00  0.00     0.243 A 
ATOM      9  O   LIG d   1       9.547  -2.468  -9.012  0.00  0.00    -0.273 OA
ATOM     10  C   LIG d   1       8.723  -1.400  -6.988  0.00  0.00     0.138 A 
ATOM     11  C   LIG d   1       7.247  -1.301  -7.392  0.00  0.00     0.080 A 
ATOM     12  H   LIG d   1       7.117  -0.956  -8.417  0.00  0.00     0.043 H 
ATOM     13  C   LIG d   1       6.679  -2.728  -7.160  0.00  0.00     0.066 A 
ATOM     14  H   LIG d   1       6.231  -3.153  -8.058  0.00  0.00     0.042 H 
ATOM     15  C   LIG d   1       7.870  -3.558  -6.646  0.00  0.00     0.024 C 
ATOM     16  H   LIG d   1       8.315  -4.164  -7.436  0.00  0.00     0.047 H 
ATOM     17  N   LIG d   1       8.824  -2.552  -6.075  0.00  0.00    -0.281 N 
ATOM     18  C   LIG d   1       8.263  -2.193  -4.750  0.00  0.00     0.001 C 
ATOM     19  C   LIG d   1       7.684  -3.506  -4.187  0.00  0.00    -0.039 C 
ATOM     20  C   LIG d   1       7.416  -4.414  -5.450  0.00  0.00    -0.035 C 
ATOM     21  C   LIG d   1       5.674  -2.527  -6.048  0.00  0.00     0.232 A 
ATOM     22  O   LIG d   1       4.992  -3.399  -5.555  0.00  0.00    -0.274 OA
ATOM     23  N   LIG d   1       5.655  -1.237  -5.695  0.00  0.00    -0.209 N 
ATOM     24  C   LIG d   1       6.501  -0.446  -6.393  0.00  0.00     0.233 A 
ATOM     25  O   LIG d   1       6.646   0.749  -6.247  0.00  0.00    -0.274 OA
ATOM     26 CL   LIG d   1       8.967   2.600  -3.437  0.00  0.00    -0.084 Cl
ATOM     27  H   LIG d   1      11.017   3.104  -5.349  0.00  0.00     0.064 H 
ATOM     28  H   LIG d   1       7.991   0.191  -4.609  0.00  0.00     0.064 H 
ATOM     29  H   LIG d   1      11.141  -0.396  -8.879  0.00  0.00     0.155 HD
ATOM     30  H   LIG d   1       9.049  -1.815  -4.096  0.00  0.00     0.043 H 
ATOM     31  H   LIG d   1       7.475  -1.449  -4.862  0.00  0.00     0.043 H 
ATOM     32  H   LIG d   1       8.409  -3.989  -3.531  0.00  0.00     0.028 H 
ATOM     33  H   LIG d   1       6.758  -3.310  -3.647  0.00  0.00     0.028 H 
ATOM     34  H   LIG d   1       6.352  -4.638  -5.529  0.00  0.00     0.028 H 
ATOM     35  H   LIG d   1       7.994  -5.337  -5.406  0.00  0.00     0.028 H 
ENDROOT
BRANCH   1  36
ATOM     36  C   LIG d   1      12.044   2.021  -7.592  0.00  0.00    -0.038 C 
ATOM     37  H   LIG d   1      11.662   2.720  -8.335  0.00  0.00     0.028 H 
ATOM     38  H   LIG d   1      12.763   2.531  -6.951  0.00  0.00     0.028 H 
ATOM     39  H   LIG d   1      12.534   1.187  -8.095  0.00  0.00     0.028 H 
ENDBRANCH   1  36
BRANCH  23  40
ATOM     40  C   LIG d   1       4.822  -0.742  -4.690  0.00  0.00     0.058 A 
ATOM     41  C   LIG d   1       3.628  -0.085  -5.022  0.00  0.00     0.081 A 
ATOM     42  C   LIG d   1       2.802   0.401  -4.005  0.00  0.00    -0.046 A 
ATOM     43  C   LIG d   1       3.168   0.242  -2.687  0.00  0.00    -0.061 A 
ATOM     44  H   LIG d   1       1.879   0.905  -4.254  0.00  0.00     0.063 H 
ATOM     45  C   LIG d   1       4.350  -0.403  -2.362  0.00  0.00    -0.060 A 
ATOM     46  H   LIG d   1       2.530   0.621  -1.902  0.00  0.00     0.062 H 
ATOM     47  C   LIG d   1       5.174  -0.894  -3.355  0.00  0.00    -0.039 A 
ATOM     48  H   LIG d   1       4.628  -0.524  -1.326  0.00  0.00     0.062 H 
ATOM     49  H   LIG d   1       6.095  -1.395  -3.094  0.00  0.00     0.064 H 
BRANCH  41  50
ATOM     50  C   LIG d   1       3.246   0.087  -6.435  0.00  0.00     0.341 C 
ATOM     51  O   LIG d   1       3.168   1.203  -6.912  0.00  0.00    -0.245 OA
BRANCH  50  52
ATOM     52  O   LIG d   1       2.982  -0.991  -7.198  0.00  0.00    -0.464 OA
BRANCH  52  53
ATOM     53  C   LIG d   1       3.383  -0.930  -8.569  0.00  0.00     0.082 C 
ATOM     54  H   LIG d   1       2.836  -0.131  -9.071  0.00  0.00     0.066 H 
ATOM     55  H   LIG d   1       4.452  -0.731  -8.627  0.00  0.00     0.066 H 
ATOM     56  H   LIG d   1       3.163  -1.880  -9.054  0.00  0.00     0.066 H 
ENDBRANCH  52  53
ENDBRANCH  50  52
ENDBRANCH  41  50
ENDBRANCH  23  40
TORSDOF 5
ENDMDL
MODEL 8
REMARK VINA RESULT:      -6.0      3.191      5.732
REMARK  5 active torsions:
REMARK  status: ('A' for Active; 'I' for Inactive)
REMARK    1  A    between atoms: C_1  and  C_2 
REMARK    2  A    between atoms: N_24  and  C_27 
REMARK    3  A    between atoms: C_32  and  C_33 
REMARK    4  A    between atoms: C_33  and  O_35 
REMARK    5  A    between atoms: O_35  and  C_36 
ROOT
ATOM      1  C   LIG d   1      11.160  -4.844  -4.689  0.00  0.00    -0.028 A 
ATOM      2  C   LIG d   1      10.762  -4.472  -3.421  0.00  0.00    -0.039 A 
ATOM      3  C   LIG d   1       9.430  -4.209  -3.156  0.00  0.00     0.042 A 
ATOM      4  C   LIG d   1       8.491  -4.320  -4.169  0.00  0.00    -0.036 A 
ATOM      5  C   LIG d   1       8.884  -4.691  -5.435  0.00  0.00     0.005 A 
ATOM      6  C   LIG d   1      10.222  -4.952  -5.713  0.00  0.00     0.042 A 
ATOM      7  N   LIG d   1      10.377  -5.301  -7.058  0.00  0.00    -0.283 N 
ATOM      8  C   LIG d   1       9.206  -5.288  -7.723  0.00  0.00     0.243 A 
ATOM      9  O   LIG d   1       9.036  -5.549  -8.896  0.00  0.00    -0.273 OA
ATOM     10  C   LIG d   1       8.146  -4.901  -6.726  0.00  0.00     0.138 A 
ATOM     11  C   LIG d   1       7.419  -3.628  -7.172  0.00  0.00     0.080 A 
ATOM     12  H   LIG d   1       8.021  -3.017  -7.845  0.00  0.00     0.043 H 
ATOM     13  C   LIG d   1       6.106  -4.133  -7.830  0.00  0.00     0.066 A 
ATOM     14  H   LIG d   1       5.991  -3.787  -8.857  0.00  0.00     0.042 H 
ATOM     15  C   LIG d   1       6.169  -5.668  -7.728  0.00  0.00     0.024 C 
ATOM     16  H   LIG d   1       6.488  -6.126  -8.665  0.00  0.00     0.047 H 
ATOM     17  N   LIG d   1       7.111  -5.942  -6.594  0.00  0.00    -0.281 N 
ATOM     18  C   LIG d   1       6.317  -5.707  -5.364  0.00  0.00     0.001 C 
ATOM     19  C   LIG d   1       4.905  -6.235  -5.687  0.00  0.00    -0.039 C 
ATOM     20  C   LIG d   1       4.803  -6.204  -7.261  0.00  0.00    -0.035 C 
ATOM     21  C   LIG d   1       5.029  -3.600  -6.913  0.00  0.00     0.232 A 
ATOM     22  O   LIG d   1       3.837  -3.766  -7.062  0.00  0.00    -0.274 OA
ATOM     23  N   LIG d   1       5.595  -2.916  -5.913  0.00  0.00    -0.209 N 
ATOM     24  C   LIG d   1       6.945  -2.859  -5.959  0.00  0.00     0.233 A 
ATOM     25  O   LIG d   1       7.664  -2.293  -5.164  0.00  0.00    -0.274 OA
ATOM     26 CL   LIG d   1       8.935  -3.742  -1.558  0.00  0.00    -0.084 Cl
ATOM     27  H   LIG d   1      11.494  -4.387  -2.631  0.00  0.00     0.064 H 
ATOM     28  H   LIG d   1       7.451  -4.115  -3.965  0.00  0.00     0.064 H 
ATOM     29  H   LIG d   1      11.228  -5.526  -7.465  0.00  0.00     0.155 HD
ATOM     30  H   LIG d   1       6.745  -6.258  -4.526  0.00  0.00     0.043 H 
ATOM     31  H   LIG d   1       6.280  -4.642  -5.136  0.00  0.00     0.043 H 
ATOM     32  H   LIG d   1       4.793  -7.259  -5.329  0.00  0.00     0.028 H 
ATOM     33  H   LIG d   1       4.149  -5.592  -5.237  0.00  0.00     0.028 H 
ATOM     34  H   LIG d   1       4.007  -5.526  -7.571  0.00  0.00     0.028 H 
ATOM     35  H   LIG d   1       4.630  -7.200  -7.668  0.00  0.00     0.028 H 
ENDROOT
BRANCH   1  36
ATOM     36  C   LIG d   1      12.613  -5.128  -4.967  0.00  0.00    -0.038 C 
ATOM     37  H   LIG d   1      13.039  -5.691  -4.137  0.00  0.00     0.028 H 
ATOM     38  H   LIG d   1      12.701  -5.709  -5.885  0.00  0.00     0.028 H 
ATOM     39  H   LIG d   1      13.151  -4.186  -5.080  0.00  0.00     0.028 H 
ENDBRANCH   1  36
BRANCH  23  40
ATOM     40  C   LIG d   1       4.852  -2.302  -4.902  0.00  0.00     0.058 A 
ATOM     41  C   LIG d   1       4.293  -1.033  -5.110  0.00  0.00     0.081 A 
ATOM     42  C   LIG d   1       3.547  -0.432  -4.091  0.00  0.00    -0.046 A 
ATOM     43  C   LIG d   1       3.375  -1.084  -2.890  0.00  0.00    -0.061 A 
ATOM     44  H   LIG d   1       3.111   0.543  -4.246  0.00  0.00     0.063 H 
ATOM     45  C   LIG d   1       3.933  -2.335  -2.687  0.00  0.00    -0.060 A 
ATOM     46  H   LIG d   1       2.802  -0.617  -2.103  0.00  0.00     0.062 H 
ATOM     47  C   LIG d   1       4.668  -2.944  -3.685  0.00  0.00    -0.039 A 
ATOM     48  H   LIG d   1       3.792  -2.839  -1.742  0.00  0.00     0.062 H 
ATOM     49  H   LIG d   1       5.100  -3.920  -3.519  0.00  0.00     0.064 H 
BRANCH  41  50
ATOM     50  C   LIG d   1       4.487  -0.339  -6.396  0.00  0.00     0.341 C 
ATOM     51  O   LIG d   1       5.507   0.290  -6.599  0.00  0.00    -0.245 OA
BRANCH  50  52
ATOM     52  O   LIG d   1       3.533  -0.401  -7.346  0.00  0.00    -0.464 OA
BRANCH  52  53
ATOM     53  C   LIG d   1       3.166   0.827  -7.978  0.00  0.00     0.082 C 
ATOM     54  H   LIG d   1       2.179   1.134  -7.630  0.00  0.00     0.066 H 
ATOM     55  H   LIG d   1       3.895   1.597  -7.728  0.00  0.00     0.066 H 
ATOM     56  H   LIG d   1       3.142   0.686  -9.058  0.00  0.00     0.066 H 
ENDBRANCH  52  53
ENDBRANCH  50  52
ENDBRANCH  41  50
ENDBRANCH  23  40
TORSDOF 5
ENDMDL
MODEL 9
REMARK VINA RESULT:      -6.0      2.525      4.688
REMARK  5 active torsions:
REMARK  status: ('A' for Active; 'I' for Inactive)
REMARK    1  A    between atoms: C_1  and  C_2 
REMARK    2  A    between atoms: N_24  and  C_27 
REMARK    3  A    between atoms: C_32  and  C_33 
REMARK    4  A    between atoms: C_33  and  O_35 
REMARK    5  A    between atoms: O_35  and  C_36 
ROOT
ATOM      1  C   LIG d   1       4.967  -0.836  -3.194  0.00  0.00    -0.028 A 
ATOM      2  C   LIG d   1       5.940  -1.811  -3.109  0.00  0.00    -0.039 A 
ATOM      3  C   LIG d   1       6.447  -2.393  -4.256  0.00  0.00     0.042 A 
ATOM      4  C   LIG d   1       5.975  -1.995  -5.497  0.00  0.00    -0.036 A 
ATOM      5  C   LIG d   1       5.005  -1.023  -5.585  0.00  0.00     0.005 A 
ATOM      6  C   LIG d   1       4.484  -0.435  -4.437  0.00  0.00     0.042 A 
ATOM      7  N   LIG d   1       3.514   0.512  -4.776  0.00  0.00    -0.283 N 
ATOM      8  C   LIG d   1       3.337   0.602  -6.109  0.00  0.00     0.243 A 
ATOM      9  O   LIG d   1       2.566   1.337  -6.689  0.00  0.00    -0.273 OA
ATOM     10  C   LIG d   1       4.292  -0.377  -6.739  0.00  0.00     0.138 A 
ATOM     11  C   LIG d   1       3.535  -1.409  -7.582  0.00  0.00     0.080 A 
ATOM     12  H   LIG d   1       2.499  -1.528  -7.265  0.00  0.00     0.043 H 
ATOM     13  C   LIG d   1       3.663  -0.895  -9.042  0.00  0.00     0.066 A 
ATOM     14  H   LIG d   1       2.695  -0.746  -9.521  0.00  0.00     0.042 H 
ATOM     15  C   LIG d   1       4.478   0.407  -8.941  0.00  0.00     0.024 C 
ATOM     16  H   LIG d   1       3.841   1.291  -8.980  0.00  0.00     0.047 H 
ATOM     17  N   LIG d   1       5.237   0.290  -7.653  0.00  0.00    -0.281 N 
ATOM     18  C   LIG d   1       6.371  -0.617  -7.951  0.00  0.00     0.001 C 
ATOM     19  C   LIG d   1       6.814  -0.254  -9.382  0.00  0.00    -0.039 C 
ATOM     20  C   LIG d   1       5.552   0.422 -10.046  0.00  0.00    -0.035 C 
ATOM     21  C   LIG d   1       4.486  -1.968  -9.718  0.00  0.00     0.232 A 
ATOM     22  O   LIG d   1       4.823  -1.962 -10.883  0.00  0.00    -0.274 OA
ATOM     23  N   LIG d   1       4.785  -2.924  -8.832  0.00  0.00    -0.209 N 
ATOM     24  C   LIG d   1       4.293  -2.717  -7.589  0.00  0.00     0.233 A 
ATOM     25  O   LIG d   1       4.434  -3.450  -6.634  0.00  0.00    -0.274 OA
ATOM     26 CL   LIG d   1       7.672  -3.619  -4.144  0.00  0.00    -0.084 Cl
ATOM     27  H   LIG d   1       6.309  -2.120  -2.142  0.00  0.00     0.064 H 
ATOM     28  H   LIG d   1       6.369  -2.449  -6.394  0.00  0.00     0.064 H 
ATOM     29  H   LIG d   1       3.025   1.043  -4.128  0.00  0.00     0.155 HD
ATOM     30  H   LIG d   1       7.187  -0.446  -7.248  0.00  0.00     0.043 H 
ATOM     31  H   LIG d   1       6.046  -1.656  -7.907  0.00  0.00     0.043 H 
ATOM     32  H   LIG d   1       7.642   0.454  -9.355  0.00  0.00     0.028 H 
ATOM     33  H   LIG d   1       7.102  -1.154  -9.927  0.00  0.00     0.028 H 
ATOM     34  H   LIG d   1       5.220  -0.165 -10.902  0.00  0.00     0.028 H 
ATOM     35  H   LIG d   1       5.765   1.447 -10.351  0.00  0.00     0.028 H 
ENDROOT
BRANCH   1  36
ATOM     36  C   LIG d   1       4.421  -0.208  -1.937  0.00  0.00    -0.038 C 
ATOM     37  H   LIG d   1       5.063  -0.464  -1.095  0.00  0.00     0.028 H 
ATOM     38  H   LIG d   1       4.391   0.875  -2.055  0.00  0.00     0.028 H 
ATOM     39  H   LIG d   1       3.414  -0.582  -1.753  0.00  0.00     0.028 H 
ENDBRANCH   1  36
BRANCH  23  40
ATOM     40  C   LIG d   1       5.539  -4.051  -9.162  0.00  0.00     0.058 A 
ATOM     41  C   LIG d   1       4.901  -5.235  -9.561  0.00  0.00     0.081 A 
ATOM     42  C   LIG d   1       5.669  -6.355  -9.893  0.00  0.00    -0.046 A 
ATOM     43  C   LIG d   1       7.042  -6.292  -9.819  0.00  0.00    -0.061 A 
ATOM     44  H   LIG d   1       5.184  -7.268 -10.205  0.00  0.00     0.063 H 
ATOM     45  C   LIG d   1       7.669  -5.123  -9.421  0.00  0.00    -0.060 A 
ATOM     46  H   LIG d   1       7.635  -7.160 -10.073  0.00  0.00     0.062 H 
ATOM     47  C   LIG d   1       6.925  -4.007  -9.094  0.00  0.00    -0.039 A 
ATOM     48  H   LIG d   1       8.747  -5.084  -9.366  0.00  0.00     0.062 H 
ATOM     49  H   LIG d   1       7.421  -3.099  -8.783  0.00  0.00     0.064 H 
BRANCH  41  50
ATOM     50  C   LIG d   1       3.430  -5.296  -9.632  0.00  0.00     0.341 C 
ATOM     51  O   LIG d   1       2.793  -5.719  -8.687  0.00  0.00    -0.245 OA
BRANCH  50  52
ATOM     52  O   LIG d   1       2.791  -4.884 -10.744  0.00  0.00    -0.464 OA
BRANCH  52  53
ATOM     53  C   LIG d   1       1.601  -4.114 -10.562  0.00  0.00     0.082 C 
ATOM     54  H   LIG d   1       1.730  -3.442  -9.713  0.00  0.00     0.066 H 
ATOM     55  H   LIG d   1       1.404  -3.531 -11.461  0.00  0.00     0.066 H 
ATOM     56  H   LIG d   1       0.762  -4.783 -10.371  0.00  0.00     0.066 H 
ENDBRANCH  52  53
ENDBRANCH  50  52
ENDBRANCH  41  50
ENDBRANCH  23  40
TORSDOF 5
ENDMDL
