MODEL 1
REMARK VINA RESULT:      -7.0      0.000      0.000
REMARK  7 active torsions:
REMARK  status: ('A' for Active; 'I' for Inactive)
REMARK    1  A    between atoms: C_1  and  C_2 
REMARK    2  A    between atoms: C_2  and  C_3 
REMARK    3  A    between atoms: C_3  and  C_4 
REMARK    4  A    between atoms: C_4  and  C_5 
REMARK    5  A    between atoms: C_15  and  C_16 
REMARK    6  A    between atoms: N_19  and  C_21 
REMARK    7  A    between atoms: C_25  and  C_27 
ROOT
ATOM      1  C   LIG d   1       5.342  -2.094  -3.636  0.00  0.00    -0.030 A 
ATOM      2  C   LIG d   1       5.041  -3.296  -4.195  0.00  0.00     0.027 A 
ATOM      3  C   LIG d   1       5.683  -3.695  -5.385  0.00  0.00     0.338 A 
ATOM      4  O   LIG d   1       5.404  -4.776  -5.875  0.00  0.00    -0.245 OA
ATOM      5  O   LIG d   1       6.593  -2.917  -5.991  0.00  0.00    -0.422 OA
ATOM      6  C   LIG d   1       6.938  -1.713  -5.488  0.00  0.00     0.146 A 
ATOM      7  C   LIG d   1       6.332  -1.248  -4.306  0.00  0.00     0.022 A 
ATOM      8  C   LIG d   1       6.682   0.002  -3.786  0.00  0.00    -0.043 A 
ATOM      9  C   LIG d   1       7.610   0.774  -4.428  0.00  0.00     0.013 A 
ATOM     10  C   LIG d   1       8.209   0.322  -5.601  0.00  0.00     0.134 A 
ATOM     11  C   LIG d   1       7.879  -0.920  -6.125  0.00  0.00     0.035 A 
ATOM     12  O   LIG d   1       9.135   1.080  -6.244  0.00  0.00    -0.473 OA
ATOM     13  C   LIG d   1       9.198   2.466  -5.897  0.00  0.00     0.157 C 
ATOM     14  N   LIG d   1       9.238   2.581  -4.429  0.00  0.00    -0.293 NA
ATOM     15  C   LIG d   1       7.969   2.120  -3.850  0.00  0.00     0.044 C 
ATOM     16  H   LIG d   1       4.313  -3.943  -3.728  0.00  0.00     0.069 H 
ATOM     17  H   LIG d   1       6.219   0.357  -2.878  0.00  0.00     0.063 H 
ATOM     18  H   LIG d   1       8.316   2.979  -6.279  0.00  0.00     0.091 H 
ATOM     19  H   LIG d   1      10.097   2.909  -6.324  0.00  0.00     0.091 H 
ATOM     20  H   LIG d   1       7.183   2.837  -4.081  0.00  0.00     0.051 H 
ATOM     21  H   LIG d   1       8.075   2.033  -2.769  0.00  0.00     0.051 H 
ENDROOT
BRANCH  14  22
ATOM     22  C   LIG d   1       9.521   3.892  -4.038  0.00  0.00     0.033 A 
ATOM     23  C   LIG d   1       9.936   4.158  -2.741  0.00  0.00    -0.038 A 
ATOM     24  C   LIG d   1      10.219   5.455  -2.360  0.00  0.00    -0.049 A 
ATOM     25  H   LIG d   1      10.043   3.351  -2.031  0.00  0.00     0.064 H 
ATOM     26  C   LIG d   1      10.078   6.490  -3.266  0.00  0.00    -0.059 A 
ATOM     27  C   LIG d   1       9.660   6.229  -4.558  0.00  0.00    -0.060 A 
ATOM     28  H   LIG d   1      10.296   7.504  -2.964  0.00  0.00     0.062 H 
ATOM     29  C   LIG d   1       9.380   4.934  -4.947  0.00  0.00    -0.041 A 
ATOM     30  H   LIG d   1       9.552   7.039  -5.263  0.00  0.00     0.062 H 
ATOM     31  H   LIG d   1       9.052   4.731  -5.956  0.00  0.00     0.064 H 
BRANCH  24  32
ATOM     32  C   LIG d   1      10.676   5.744  -0.953  0.00  0.00    -0.040 C 
ATOM     33  H   LIG d   1      11.712   5.424  -0.835  0.00  0.00     0.028 H 
ATOM     34  H   LIG d   1      10.603   6.814  -0.759  0.00  0.00     0.028 H 
ATOM     35  H   LIG d   1      10.046   5.203  -0.247  0.00  0.00     0.028 H 
ENDBRANCH  24  32
ENDBRANCH  14  22
BRANCH  11  36
ATOM     36  C   LIG d   1       8.533  -1.401  -7.396  0.00  0.00    -0.033 C 
ATOM     37  H   LIG d   1       7.942  -2.210  -7.824  0.00  0.00     0.028 H 
ATOM     38  H   LIG d   1       8.590  -0.577  -8.107  0.00  0.00     0.028 H 
ATOM     39  H   LIG d   1       9.537  -1.761  -7.175  0.00  0.00     0.028 H 
ENDBRANCH  11  36
BRANCH   1  40
ATOM     40  C   LIG d   1       4.670  -1.642  -2.365  0.00  0.00    -0.027 C 
ATOM     41  H   LIG d   1       5.167  -0.747  -1.990  0.00  0.00     0.031 H 
ATOM     42  H   LIG d   1       4.735  -2.434  -1.618  0.00  0.00     0.031 H 
BRANCH  40  43
ATOM     43  C   LIG d   1       3.200  -1.328  -2.649  0.00  0.00    -0.049 C 
ATOM     44  H   LIG d   1       2.602  -1.560  -1.767  0.00  0.00     0.027 H 
ATOM     45  H   LIG d   1       2.856  -1.930  -3.489  0.00  0.00     0.027 H 
BRANCH  43  46
ATOM     46  C   LIG d   1       3.052   0.156  -2.990  0.00  0.00    -0.056 C 
ATOM     47  H   LIG d   1       2.005   0.446  -2.900  0.00  0.00     0.026 H 
ATOM     48  H   LIG d   1       3.390   0.330  -4.012  0.00  0.00     0.026 H 
BRANCH  46  49
ATOM     49  C   LIG d   1       3.897   0.989  -2.024  0.00  0.00    -0.065 C 
ATOM     50  H   LIG d   1       3.510   0.874  -1.012  0.00  0.00     0.023 H 
ATOM     51  H   LIG d   1       4.932   0.647  -2.060  0.00  0.00     0.023 H 
ATOM     52  H   LIG d   1       3.851   2.038  -2.315  0.00  0.00     0.023 H 
ENDBRANCH  46  49
ENDBRANCH  43  46
ENDBRANCH  40  43
ENDBRANCH   1  40
TORSDOF 7
ENDMDL
MODEL 2
REMARK VINA RESULT:      -6.8      5.252     10.029
REMARK  7 active torsions:
REMARK  status: ('A' for Active; 'I' for Inactive)
REMARK    1  A    between atoms: C_1  and  C_2 
REMARK    2  A    between atoms: C_2  and  C_3 
REMARK    3  A    between atoms: C_3  and  C_4 
REMARK    4  A    between atoms: C_4  and  C_5 
REMARK    5  A    between atoms: C_15  and  C_16 
REMARK    6  A    between atoms: N_19  and  C_21 
REMARK    7  A    between atoms: C_25  and  C_27 
ROOT
ATOM      1  C   LIG d   1       5.348  -1.947  -5.067  0.00  0.00    -0.030 A 
ATOM      2  C   LIG d   1       5.103  -0.731  -5.622  0.00  0.00     0.027 A 
ATOM      3  C   LIG d   1       4.472  -0.649  -6.881  0.00  0.00     0.338 A 
ATOM      4  O   LIG d   1       4.258   0.448  -7.367  0.00  0.00    -0.245 OA
ATOM      5  O   LIG d   1       4.102  -1.747  -7.557  0.00  0.00    -0.422 OA
ATOM      6  C   LIG d   1       4.315  -2.985  -7.062  0.00  0.00     0.146 A 
ATOM      7  C   LIG d   1       4.946  -3.141  -5.814  0.00  0.00     0.022 A 
ATOM      8  C   LIG d   1       5.174  -4.422  -5.302  0.00  0.00    -0.043 A 
ATOM      9  C   LIG d   1       4.788  -5.522  -6.016  0.00  0.00     0.013 A 
ATOM     10  C   LIG d   1       4.169  -5.375  -7.254  0.00  0.00     0.134 A 
ATOM     11  C   LIG d   1       3.927  -4.110  -7.772  0.00  0.00     0.035 A 
ATOM     12  O   LIG d   1       3.779  -6.462  -7.969  0.00  0.00    -0.473 OA
ATOM     13  C   LIG d   1       4.340  -7.723  -7.596  0.00  0.00     0.157 C 
ATOM     14  N   LIG d   1       4.211  -7.882  -6.138  0.00  0.00    -0.293 NA
ATOM     15  C   LIG d   1       5.048  -6.894  -5.444  0.00  0.00     0.044 C 
ATOM     16  H   LIG d   1       5.390   0.170  -5.100  0.00  0.00     0.069 H 
ATOM     17  H   LIG d   1       5.655  -4.542  -4.343  0.00  0.00     0.063 H 
ATOM     18  H   LIG d   1       5.394  -7.751  -7.874  0.00  0.00     0.091 H 
ATOM     19  H   LIG d   1       3.804  -8.526  -8.101  0.00  0.00     0.091 H 
ATOM     20  H   LIG d   1       6.098  -7.151  -5.577  0.00  0.00     0.051 H 
ATOM     21  H   LIG d   1       4.805  -6.896  -4.382  0.00  0.00     0.051 H 
ENDROOT
BRANCH  14  22
ATOM     22  C   LIG d   1       4.540  -9.182  -5.745  0.00  0.00     0.033 A 
ATOM     23  C   LIG d   1       4.754  -9.472  -4.405  0.00  0.00    -0.038 A 
ATOM     24  C   LIG d   1       5.075 -10.760  -4.021  0.00  0.00    -0.049 A 
ATOM     25  H   LIG d   1       4.666  -8.693  -3.662  0.00  0.00     0.064 H 
ATOM     26  C   LIG d   1       5.193 -11.757  -4.972  0.00  0.00    -0.059 A 
ATOM     27  C   LIG d   1       4.985 -11.470  -6.308  0.00  0.00    -0.060 A 
ATOM     28  H   LIG d   1       5.448 -12.762  -4.669  0.00  0.00     0.062 H 
ATOM     29  C   LIG d   1       4.659 -10.187  -6.698  0.00  0.00    -0.041 A 
ATOM     30  H   LIG d   1       5.078 -12.251  -7.048  0.00  0.00     0.062 H 
ATOM     31  H   LIG d   1       4.498  -9.963  -7.743  0.00  0.00     0.064 H 
BRANCH  24  32
ATOM     32  C   LIG d   1       5.302 -11.077  -2.565  0.00  0.00    -0.040 C 
ATOM     33  H   LIG d   1       5.237 -12.155  -2.414  0.00  0.00     0.028 H 
ATOM     34  H   LIG d   1       6.291 -10.728  -2.267  0.00  0.00     0.028 H 
ATOM     35  H   LIG d   1       4.544 -10.578  -1.962  0.00  0.00     0.028 H 
ENDBRANCH  24  32
ENDBRANCH  14  22
BRANCH  11  36
ATOM     36  C   LIG d   1       3.257  -3.960  -9.114  0.00  0.00    -0.033 C 
ATOM     37  H   LIG d   1       2.181  -4.089  -8.998  0.00  0.00     0.028 H 
ATOM     38  H   LIG d   1       3.463  -2.967  -9.513  0.00  0.00     0.028 H 
ATOM     39  H   LIG d   1       3.642  -4.714  -9.799  0.00  0.00     0.028 H 
ENDBRANCH  11  36
BRANCH   1  40
ATOM     40  C   LIG d   1       6.021  -2.064  -3.724  0.00  0.00    -0.027 C 
ATOM     41  H   LIG d   1       7.037  -1.673  -3.792  0.00  0.00     0.031 H 
ATOM     42  H   LIG d   1       6.053  -3.112  -3.425  0.00  0.00     0.031 H 
BRANCH  40  43
ATOM     43  C   LIG d   1       5.234  -1.260  -2.688  0.00  0.00    -0.049 C 
ATOM     44  H   LIG d   1       5.047  -0.257  -3.071  0.00  0.00     0.027 H 
ATOM     45  H   LIG d   1       5.809  -1.195  -1.765  0.00  0.00     0.027 H 
BRANCH  43  46
ATOM     46  C   LIG d   1       3.900  -1.956  -2.409  0.00  0.00    -0.056 C 
ATOM     47  H   LIG d   1       3.832  -2.200  -1.349  0.00  0.00     0.026 H 
ATOM     48  H   LIG d   1       3.838  -2.872  -2.997  0.00  0.00     0.026 H 
BRANCH  46  49
ATOM     49  C   LIG d   1       2.748  -1.025  -2.794  0.00  0.00    -0.065 C 
ATOM     50  H   LIG d   1       2.548  -1.117  -3.861  0.00  0.00     0.023 H 
ATOM     51  H   LIG d   1       1.856  -1.299  -2.230  0.00  0.00     0.023 H 
ATOM     52  H   LIG d   1       3.022   0.005  -2.563  0.00  0.00     0.023 H 
ENDBRANCH  46  49
ENDBRANCH  43  46
ENDBRANCH  40  43
ENDBRANCH   1  40
TORSDOF 7
ENDMDL
MODEL 3
REMARK VINA RESULT:      -6.7      2.114      7.951
REMARK  7 active torsions:
REMARK  status: ('A' for Active; 'I' for Inactive)
REMARK    1  A    between atoms: C_1  and  C_2 
REMARK    2  A    between atoms: C_2  and  C_3 
REMARK    3  A    between atoms: C_3  and  C_4 
REMARK    4  A    between atoms: C_4  and  C_5 
REMARK    5  A    between atoms: C_15  and  C_16 
REMARK    6  A    between atoms: N_19  and  C_21 
REMARK    7  A    between atoms: C_25  and  C_27 
ROOT
ATOM      1  C   LIG d   1      10.877   5.024  -3.414  0.00  0.00    -0.030 A 
ATOM      2  C   LIG d   1      11.692   5.854  -4.116  0.00  0.00     0.027 A 
ATOM      3  C   LIG d   1      11.704   5.798  -5.525  0.00  0.00     0.338 A 
ATOM      4  O   LIG d   1      12.441   6.547  -6.143  0.00  0.00    -0.245 OA
ATOM      5  O   LIG d   1      10.926   4.940  -6.203  0.00  0.00    -0.422 OA
ATOM      6  C   LIG d   1      10.093   4.091  -5.567  0.00  0.00     0.146 A 
ATOM      7  C   LIG d   1      10.034   4.088  -4.161  0.00  0.00     0.022 A 
ATOM      8  C   LIG d   1       9.177   3.204  -3.499  0.00  0.00    -0.043 A 
ATOM      9  C   LIG d   1       8.398   2.340  -4.218  0.00  0.00     0.013 A 
ATOM     10  C   LIG d   1       8.455   2.334  -5.609  0.00  0.00     0.134 A 
ATOM     11  C   LIG d   1       9.294   3.211  -6.281  0.00  0.00     0.035 A 
ATOM     12  O   LIG d   1       7.682   1.481  -6.331  0.00  0.00    -0.473 OA
ATOM     13  C   LIG d   1       7.107   0.373  -5.634  0.00  0.00     0.157 C 
ATOM     14  N   LIG d   1       6.467   0.872  -4.405  0.00  0.00    -0.293 NA
ATOM     15  C   LIG d   1       7.483   1.394  -3.481  0.00  0.00     0.044 C 
ATOM     16  H   LIG d   1      12.329   6.554  -3.596  0.00  0.00     0.069 H 
ATOM     17  H   LIG d   1       9.129   3.204  -2.421  0.00  0.00     0.063 H 
ATOM     18  H   LIG d   1       7.888  -0.341  -5.375  0.00  0.00     0.091 H 
ATOM     19  H   LIG d   1       6.361  -0.108  -6.266  0.00  0.00     0.091 H 
ATOM     20  H   LIG d   1       8.064   0.566  -3.077  0.00  0.00     0.051 H 
ATOM     21  H   LIG d   1       6.992   1.925  -2.666  0.00  0.00     0.051 H 
ENDROOT
BRANCH  14  22
ATOM     22  C   LIG d   1       5.702  -0.126  -3.799  0.00  0.00     0.033 A 
ATOM     23  C   LIG d   1       5.561  -1.365  -4.410  0.00  0.00    -0.038 A 
ATOM     24  C   LIG d   1       4.808  -2.351  -3.805  0.00  0.00    -0.049 A 
ATOM     25  H   LIG d   1       6.044  -1.558  -5.357  0.00  0.00     0.064 H 
ATOM     26  C   LIG d   1       4.185  -2.103  -2.596  0.00  0.00    -0.059 A 
ATOM     27  C   LIG d   1       4.319  -0.869  -1.986  0.00  0.00    -0.060 A 
ATOM     28  H   LIG d   1       3.592  -2.875  -2.126  0.00  0.00     0.062 H 
ATOM     29  C   LIG d   1       5.075   0.120  -2.583  0.00  0.00    -0.041 A 
ATOM     30  H   LIG d   1       3.831  -0.679  -1.042  0.00  0.00     0.062 H 
ATOM     31  H   LIG d   1       5.178   1.084  -2.107  0.00  0.00     0.064 H 
BRANCH  24  32
ATOM     32  C   LIG d   1       4.659  -3.697  -4.465  0.00  0.00    -0.040 C 
ATOM     33  H   LIG d   1       4.802  -3.592  -5.541  0.00  0.00     0.028 H 
ATOM     34  H   LIG d   1       5.407  -4.383  -4.066  0.00  0.00     0.028 H 
ATOM     35  H   LIG d   1       3.663  -4.092  -4.268  0.00  0.00     0.028 H 
ENDBRANCH  24  32
ENDBRANCH  14  22
BRANCH  11  36
ATOM     36  C   LIG d   1       9.350   3.196  -7.788  0.00  0.00    -0.033 C 
ATOM     37  H   LIG d   1      10.352   2.913  -8.110  0.00  0.00     0.028 H 
ATOM     38  H   LIG d   1       8.628   2.475  -8.170  0.00  0.00     0.028 H 
ATOM     39  H   LIG d   1       9.111   4.188  -8.170  0.00  0.00     0.028 H 
ENDBRANCH  11  36
BRANCH   1  40
ATOM     40  C   LIG d   1      10.845   5.063  -1.908  0.00  0.00    -0.027 C 
ATOM     41  H   LIG d   1      11.862   5.148  -1.525  0.00  0.00     0.031 H 
ATOM     42  H   LIG d   1      10.390   4.146  -1.532  0.00  0.00     0.031 H 
BRANCH  40  43
ATOM     43  C   LIG d   1      10.022   6.267  -1.446  0.00  0.00    -0.049 C 
ATOM     44  H   LIG d   1       9.026   5.935  -1.152  0.00  0.00     0.027 H 
ATOM     45  H   LIG d   1       9.940   6.984  -2.261  0.00  0.00     0.027 H 
BRANCH  43  46
ATOM     46  C   LIG d   1      10.713   6.928  -0.252  0.00  0.00    -0.056 C 
ATOM     47  H   LIG d   1      10.026   7.630   0.222  0.00  0.00     0.026 H 
ATOM     48  H   LIG d   1      11.599   7.463  -0.594  0.00  0.00     0.026 H 
BRANCH  46  49
ATOM     49  C   LIG d   1      11.124   5.855   0.759  0.00  0.00    -0.065 C 
ATOM     50  H   LIG d   1      11.532   6.333   1.649  0.00  0.00     0.023 H 
ATOM     51  H   LIG d   1      10.252   5.260   1.032  0.00  0.00     0.023 H 
ATOM     52  H   LIG d   1      11.880   5.209   0.314  0.00  0.00     0.023 H 
ENDBRANCH  46  49
ENDBRANCH  43  46
ENDBRANCH  40  43
ENDBRANCH   1  40
TORSDOF 7
ENDMDL
MODEL 4
REMARK VINA RESULT:      -6.1      2.012      3.623
REMARK  7 active torsions:
REMARK  status: ('A' for Active; 'I' for Inactive)
REMARK    1  A    between atoms: C_1  and  C_2 
REMARK    2  A    between atoms: C_2  and  C_3 
REMARK    3  A    between atoms: C_3  and  C_4 
REMARK    4  A    between atoms: C_4  and  C_5 
REMARK    5  A    between atoms: C_15  and  C_16 
REMARK    6  A    between atoms: N_19  and  C_21 
REMARK    7  A    between atoms: C_25  and  C_27 
ROOT
ATOM      1  C   LIG d   1       6.933   0.456  -4.605  0.00  0.00    -0.030 A 
ATOM      2  C   LIG d   1       6.432  -0.191  -5.689  0.00  0.00     0.027 A 
ATOM      3  C   LIG d   1       6.862   0.172  -6.982  0.00  0.00     0.338 A 
ATOM      4  O   LIG d   1       6.405  -0.416  -7.947  0.00  0.00    -0.245 OA
ATOM      5  O   LIG d   1       7.763   1.148  -7.178  0.00  0.00    -0.422 OA
ATOM      6  C   LIG d   1       8.300   1.828  -6.145  0.00  0.00     0.146 A 
ATOM      7  C   LIG d   1       7.912   1.523  -4.827  0.00  0.00     0.022 A 
ATOM      8  C   LIG d   1       8.462   2.231  -3.754  0.00  0.00    -0.043 A 
ATOM      9  C   LIG d   1       9.374   3.223  -3.985  0.00  0.00     0.013 A 
ATOM     10  C   LIG d   1       9.759   3.533  -5.287  0.00  0.00     0.134 A 
ATOM     11  C   LIG d   1       9.230   2.834  -6.362  0.00  0.00     0.035 A 
ATOM     12  O   LIG d   1      10.669   4.514  -5.527  0.00  0.00    -0.473 OA
ATOM     13  C   LIG d   1      10.928   5.436  -4.465  0.00  0.00     0.157 C 
ATOM     14  N   LIG d   1      11.175   4.673  -3.230  0.00  0.00    -0.293 NA
ATOM     15  C   LIG d   1       9.952   3.974  -2.812  0.00  0.00     0.044 C 
ATOM     16  H   LIG d   1       5.706  -0.980  -5.561  0.00  0.00     0.069 H 
ATOM     17  H   LIG d   1       8.166   1.996  -2.743  0.00  0.00     0.063 H 
ATOM     18  H   LIG d   1      10.063   6.086  -4.326  0.00  0.00     0.091 H 
ATOM     19  H   LIG d   1      11.804   6.035  -4.707  0.00  0.00     0.091 H 
ATOM     20  H   LIG d   1       9.225   4.701  -2.452  0.00  0.00     0.051 H 
ATOM     21  H   LIG d   1      10.191   3.272  -2.014  0.00  0.00     0.051 H 
ENDROOT
BRANCH  14  22
ATOM     22  C   LIG d   1      11.648   5.507  -2.214  0.00  0.00     0.033 A 
ATOM     23  C   LIG d   1      10.867   6.558  -1.754  0.00  0.00    -0.038 A 
ATOM     24  C   LIG d   1      11.337   7.377  -0.746  0.00  0.00    -0.049 A 
ATOM     25  H   LIG d   1       9.890   6.733  -2.181  0.00  0.00     0.064 H 
ATOM     26  C   LIG d   1      12.589   7.157  -0.202  0.00  0.00    -0.059 A 
ATOM     27  C   LIG d   1      13.372   6.114  -0.661  0.00  0.00    -0.060 A 
ATOM     28  H   LIG d   1      12.956   7.802   0.583  0.00  0.00     0.062 H 
ATOM     29  C   LIG d   1      12.907   5.289  -1.665  0.00  0.00    -0.041 A 
ATOM     30  H   LIG d   1      14.349   5.945  -0.234  0.00  0.00     0.062 H 
ATOM     31  H   LIG d   1      13.519   4.474  -2.024  0.00  0.00     0.064 H 
BRANCH  24  32
ATOM     32  C   LIG d   1      10.487   8.514  -0.242  0.00  0.00    -0.040 C 
ATOM     33  H   LIG d   1      11.081   9.148   0.418  0.00  0.00     0.028 H 
ATOM     34  H   LIG d   1      10.130   9.104  -1.087  0.00  0.00     0.028 H 
ATOM     35  H   LIG d   1       9.634   8.116   0.308  0.00  0.00     0.028 H 
ENDBRANCH  24  32
ENDBRANCH  14  22
BRANCH  11  36
ATOM     36  C   LIG d   1       9.651   3.178  -7.768  0.00  0.00    -0.033 C 
ATOM     37  H   LIG d   1      10.131   4.155  -7.773  0.00  0.00     0.028 H 
ATOM     38  H   LIG d   1      10.353   2.426  -8.130  0.00  0.00     0.028 H 
ATOM     39  H   LIG d   1       8.775   3.198  -8.415  0.00  0.00     0.028 H 
ENDBRANCH  11  36
BRANCH   1  40
ATOM     40  C   LIG d   1       6.490   0.089  -3.212  0.00  0.00    -0.027 C 
ATOM     41  H   LIG d   1       7.302   0.280  -2.510  0.00  0.00     0.031 H 
ATOM     42  H   LIG d   1       6.224  -0.968  -3.182  0.00  0.00     0.031 H 
BRANCH  40  43
ATOM     43  C   LIG d   1       5.274   0.932  -2.825  0.00  0.00    -0.049 C 
ATOM     44  H   LIG d   1       4.616   1.038  -3.688  0.00  0.00     0.027 H 
ATOM     45  H   LIG d   1       5.604   1.917  -2.498  0.00  0.00     0.027 H 
BRANCH  43  46
ATOM     46  C   LIG d   1       4.517   0.244  -1.688  0.00  0.00    -0.056 C 
ATOM     47  H   LIG d   1       3.551   0.730  -1.548  0.00  0.00     0.026 H 
ATOM     48  H   LIG d   1       5.097   0.317  -0.768  0.00  0.00     0.026 H 
BRANCH  46  49
ATOM     49  C   LIG d   1       4.299  -1.230  -2.038  0.00  0.00    -0.065 C 
ATOM     50  H   LIG d   1       4.321  -1.826  -1.126  0.00  0.00     0.023 H 
ATOM     51  H   LIG d   1       3.333  -1.348  -2.528  0.00  0.00     0.023 H 
ATOM     52  H   LIG d   1       5.091  -1.564  -2.709  0.00  0.00     0.023 H 
ENDBRANCH  46  49
ENDBRANCH  43  46
ENDBRANCH  40  43
ENDBRANCH   1  40
TORSDOF 7
ENDMDL
MODEL 5
REMARK VINA RESULT:      -6.1      4.930      8.515
REMARK  7 active torsions:
REMARK  status: ('A' for Active; 'I' for Inactive)
REMARK    1  A    between atoms: C_1  and  C_2 
REMARK    2  A    between atoms: C_2  and  C_3 
REMARK    3  A    between atoms: C_3  and  C_4 
REMARK    4  A    between atoms: C_4  and  C_5 
REMARK    5  A    between atoms: C_15  and  C_16 
REMARK    6  A    between atoms: N_19  and  C_21 
REMARK    7  A    between atoms: C_25  and  C_27 
ROOT
ATOM      1  C   LIG d   1       6.190  -1.046  -4.663  0.00  0.00    -0.030 A 
ATOM      2  C   LIG d   1       7.190  -0.341  -4.073  0.00  0.00     0.027 A 
ATOM      3  C   LIG d   1       7.817   0.708  -4.775  0.00  0.00     0.338 A 
ATOM      4  O   LIG d   1       8.713   1.333  -4.233  0.00  0.00    -0.245 OA
ATOM      5  O   LIG d   1       7.453   1.039  -6.023  0.00  0.00    -0.422 OA
ATOM      6  C   LIG d   1       6.466   0.380  -6.667  0.00  0.00     0.146 A 
ATOM      7  C   LIG d   1       5.801  -0.684  -6.028  0.00  0.00     0.022 A 
ATOM      8  C   LIG d   1       4.784  -1.373  -6.695  0.00  0.00    -0.043 A 
ATOM      9  C   LIG d   1       4.437  -1.016  -7.968  0.00  0.00     0.013 A 
ATOM     10  C   LIG d   1       5.094   0.032  -8.608  0.00  0.00     0.134 A 
ATOM     11  C   LIG d   1       6.100   0.732  -7.956  0.00  0.00     0.035 A 
ATOM     12  O   LIG d   1       4.754   0.397  -9.872  0.00  0.00    -0.473 OA
ATOM     13  C   LIG d   1       3.984  -0.536 -10.634  0.00  0.00     0.157 C 
ATOM     14  N   LIG d   1       2.851  -0.993  -9.813  0.00  0.00    -0.293 NA
ATOM     15  C   LIG d   1       3.337  -1.775  -8.668  0.00  0.00     0.044 C 
ATOM     16  H   LIG d   1       7.504  -0.585  -3.068  0.00  0.00     0.069 H 
ATOM     17  H   LIG d   1       4.272  -2.186  -6.204  0.00  0.00     0.063 H 
ATOM     18  H   LIG d   1       4.607  -1.389 -10.904  0.00  0.00     0.091 H 
ATOM     19  H   LIG d   1       3.611  -0.052 -11.536  0.00  0.00     0.091 H 
ATOM     20  H   LIG d   1       3.723  -2.731  -9.019  0.00  0.00     0.051 H 
ATOM     21  H   LIG d   1       2.517  -1.948  -7.972  0.00  0.00     0.051 H 
ENDROOT
BRANCH  14  22
ATOM     22  C   LIG d   1       1.945  -1.733 -10.577  0.00  0.00     0.033 A 
ATOM     23  C   LIG d   1       1.616  -3.030 -10.206  0.00  0.00    -0.038 A 
ATOM     24  C   LIG d   1       0.717  -3.756 -10.962  0.00  0.00    -0.049 A 
ATOM     25  H   LIG d   1       2.059  -3.469  -9.324  0.00  0.00     0.064 H 
ATOM     26  C   LIG d   1       0.153  -3.197 -12.094  0.00  0.00    -0.059 A 
ATOM     27  C   LIG d   1       0.483  -1.907 -12.469  0.00  0.00    -0.060 A 
ATOM     28  H   LIG d   1      -0.546  -3.769 -12.686  0.00  0.00     0.062 H 
ATOM     29  C   LIG d   1       1.377  -1.174 -11.715  0.00  0.00    -0.041 A 
ATOM     30  H   LIG d   1       0.040  -1.474 -13.353  0.00  0.00     0.062 H 
ATOM     31  H   LIG d   1       1.635  -0.167 -12.010  0.00  0.00     0.064 H 
BRANCH  24  32
ATOM     32  C   LIG d   1       0.354  -5.161 -10.556  0.00  0.00    -0.040 C 
ATOM     33  H   LIG d   1       0.271  -5.786 -11.446  0.00  0.00     0.028 H 
ATOM     34  H   LIG d   1       1.129  -5.562  -9.902  0.00  0.00     0.028 H 
ATOM     35  H   LIG d   1      -0.598  -5.153 -10.027  0.00  0.00     0.028 H 
ENDBRANCH  24  32
ENDBRANCH  14  22
BRANCH  11  36
ATOM     36  C   LIG d   1       6.807   1.864  -8.657  0.00  0.00    -0.033 C 
ATOM     37  H   LIG d   1       7.079   2.627  -7.929  0.00  0.00     0.028 H 
ATOM     38  H   LIG d   1       7.707   1.485  -9.140  0.00  0.00     0.028 H 
ATOM     39  H   LIG d   1       6.146   2.296  -9.408  0.00  0.00     0.028 H 
ENDBRANCH  11  36
BRANCH   1  40
ATOM     40  C   LIG d   1       5.504  -2.174  -3.937  0.00  0.00    -0.027 C 
ATOM     41  H   LIG d   1       6.200  -3.003  -3.812  0.00  0.00     0.031 H 
ATOM     42  H   LIG d   1       4.642  -2.507  -4.516  0.00  0.00     0.031 H 
BRANCH  40  43
ATOM     43  C   LIG d   1       5.039  -1.687  -2.563  0.00  0.00    -0.049 C 
ATOM     44  H   LIG d   1       5.261  -0.625  -2.459  0.00  0.00     0.027 H 
ATOM     45  H   LIG d   1       5.560  -2.244  -1.785  0.00  0.00     0.027 H 
BRANCH  43  46
ATOM     46  C   LIG d   1       3.531  -1.908  -2.427  0.00  0.00    -0.056 C 
ATOM     47  H   LIG d   1       3.257  -1.900  -1.372  0.00  0.00     0.026 H 
ATOM     48  H   LIG d   1       3.264  -2.871  -2.864  0.00  0.00     0.026 H 
BRANCH  46  49
ATOM     49  C   LIG d   1       2.783  -0.791  -3.157  0.00  0.00    -0.065 C 
ATOM     50  H   LIG d   1       3.004   0.164  -2.682  0.00  0.00     0.023 H 
ATOM     51  H   LIG d   1       3.101  -0.762  -4.200  0.00  0.00     0.023 H 
ATOM     52  H   LIG d   1       1.711  -0.981  -3.109  0.00  0.00     0.023 H 
ENDBRANCH  46  49
ENDBRANCH  43  46
ENDBRANCH  40  43
ENDBRANCH   1  40
TORSDOF 7
ENDMDL
MODEL 6
REMARK VINA RESULT:      -6.0      5.528      7.939
REMARK  7 active torsions:
REMARK  status: ('A' for Active; 'I' for Inactive)
REMARK    1  A    between atoms: C_1  and  C_2 
REMARK    2  A    between atoms: C_2  and  C_3 
REMARK    3  A    between atoms: C_3  and  C_4 
REMARK    4  A    between atoms: C_4  and  C_5 
REMARK    5  A    between atoms: C_15  and  C_16 
REMARK    6  A    between atoms: N_19  and  C_21 
REMARK    7  A    between atoms: C_25  and  C_27 
ROOT
ATOM      1  C   LIG d   1       3.424  -3.256 -11.634  0.00  0.00    -0.030 A 
ATOM      2  C   LIG d   1       3.331  -2.890 -12.940  0.00  0.00     0.027 A 
ATOM      3  C   LIG d   1       3.379  -1.526 -13.290  0.00  0.00     0.338 A 
ATOM      4  O   LIG d   1       3.294  -1.211 -14.465  0.00  0.00    -0.245 OA
ATOM      5  O   LIG d   1       3.517  -0.564 -12.364  0.00  0.00    -0.422 OA
ATOM      6  C   LIG d   1       3.616  -0.859 -11.051  0.00  0.00     0.146 A 
ATOM      7  C   LIG d   1       3.568  -2.201 -10.629  0.00  0.00     0.022 A 
ATOM      8  C   LIG d   1       3.664  -2.510  -9.269  0.00  0.00    -0.043 A 
ATOM      9  C   LIG d   1       3.800  -1.508  -8.348  0.00  0.00     0.013 A 
ATOM     10  C   LIG d   1       3.843  -0.178  -8.759  0.00  0.00     0.134 A 
ATOM     11  C   LIG d   1       3.758   0.145 -10.106  0.00  0.00     0.035 A 
ATOM     12  O   LIG d   1       3.981   0.824  -7.851  0.00  0.00    -0.473 OA
ATOM     13  C   LIG d   1       3.716   0.506  -6.483  0.00  0.00     0.157 C 
ATOM     14  N   LIG d   1       4.445  -0.726  -6.137  0.00  0.00    -0.293 NA
ATOM     15  C   LIG d   1       3.899  -1.865  -6.886  0.00  0.00     0.044 C 
ATOM     16  H   LIG d   1       3.219  -3.643 -13.706  0.00  0.00     0.069 H 
ATOM     17  H   LIG d   1       3.631  -3.539  -8.945  0.00  0.00     0.063 H 
ATOM     18  H   LIG d   1       2.646   0.348  -6.345  0.00  0.00     0.091 H 
ATOM     19  H   LIG d   1       4.053   1.323  -5.846  0.00  0.00     0.091 H 
ATOM     20  H   LIG d   1       2.909  -2.110  -6.504  0.00  0.00     0.051 H 
ATOM     21  H   LIG d   1       4.556  -2.726  -6.767  0.00  0.00     0.051 H 
ENDROOT
BRANCH  14  22
ATOM     22  C   LIG d   1       4.401  -0.962  -4.761  0.00  0.00     0.033 A 
ATOM     23  C   LIG d   1       4.507   0.095  -3.868  0.00  0.00    -0.038 A 
ATOM     24  C   LIG d   1       4.458  -0.143  -2.508  0.00  0.00    -0.049 A 
ATOM     25  H   LIG d   1       4.623   1.104  -4.236  0.00  0.00     0.064 H 
ATOM     26  C   LIG d   1       4.316  -1.435  -2.036  0.00  0.00    -0.059 A 
ATOM     27  C   LIG d   1       4.215  -2.491  -2.923  0.00  0.00    -0.060 A 
ATOM     28  H   LIG d   1       4.282  -1.619  -0.972  0.00  0.00     0.062 H 
ATOM     29  C   LIG d   1       4.257  -2.260  -4.283  0.00  0.00    -0.041 A 
ATOM     30  H   LIG d   1       4.103  -3.498  -2.550  0.00  0.00     0.062 H 
ATOM     31  H   LIG d   1       4.179  -3.085  -4.975  0.00  0.00     0.064 H 
BRANCH  24  32
ATOM     32  C   LIG d   1       4.567   1.005  -1.539  0.00  0.00    -0.040 C 
ATOM     33  H   LIG d   1       5.609   1.135  -1.244  0.00  0.00     0.028 H 
ATOM     34  H   LIG d   1       4.209   1.919  -2.015  0.00  0.00     0.028 H 
ATOM     35  H   LIG d   1       3.963   0.796  -0.656  0.00  0.00     0.028 H 
ENDBRANCH  24  32
ENDBRANCH  14  22
BRANCH  11  36
ATOM     36  C   LIG d   1       3.804   1.587 -10.541  0.00  0.00    -0.033 C 
ATOM     37  H   LIG d   1       2.806   1.908 -10.839  0.00  0.00     0.028 H 
ATOM     38  H   LIG d   1       4.151   2.204  -9.712  0.00  0.00     0.028 H 
ATOM     39  H   LIG d   1       4.487   1.692 -11.383  0.00  0.00     0.028 H 
ENDBRANCH  11  36
BRANCH   1  40
ATOM     40  C   LIG d   1       3.373  -4.708 -11.232  0.00  0.00    -0.027 C 
ATOM     41  H   LIG d   1       3.535  -4.792 -10.157  0.00  0.00     0.031 H 
ATOM     42  H   LIG d   1       4.152  -5.258 -11.761  0.00  0.00     0.031 H 
BRANCH  40  43
ATOM     43  C   LIG d   1       2.005  -5.289 -11.590  0.00  0.00    -0.049 C 
ATOM     44  H   LIG d   1       2.063  -6.378 -11.599  0.00  0.00     0.027 H 
ATOM     45  H   LIG d   1       1.706  -4.934 -12.575  0.00  0.00     0.027 H 
BRANCH  43  46
ATOM     46  C   LIG d   1       0.973  -4.842 -10.552  0.00  0.00    -0.056 C 
ATOM     47  H   LIG d   1       1.234  -3.849 -10.186  0.00  0.00     0.026 H 
ATOM     48  H   LIG d   1       0.967  -5.546  -9.719  0.00  0.00     0.026 H 
BRANCH  46  49
ATOM     49  C   LIG d   1      -0.415  -4.801 -11.196  0.00  0.00    -0.065 C 
ATOM     50  H   LIG d   1      -0.766  -3.770 -11.233  0.00  0.00     0.023 H 
ATOM     51  H   LIG d   1      -0.358  -5.204 -12.207  0.00  0.00     0.023 H 
ATOM     52  H   LIG d   1      -1.106  -5.400 -10.604  0.00  0.00     0.023 H 
ENDBRANCH  46  49
ENDBRANCH  43  46
ENDBRANCH  40  43
ENDBRANCH   1  40
TORSDOF 7
ENDMDL
MODEL 7
REMARK VINA RESULT:      -5.9      5.374      8.406
REMARK  7 active torsions:
REMARK  status: ('A' for Active; 'I' for Inactive)
REMARK    1  A    between atoms: C_1  and  C_2 
REMARK    2  A    between atoms: C_2  and  C_3 
REMARK    3  A    between atoms: C_3  and  C_4 
REMARK    4  A    between atoms: C_4  and  C_5 
REMARK    5  A    between atoms: C_15  and  C_16 
REMARK    6  A    between atoms: N_19  and  C_21 
REMARK    7  A    between atoms: C_25  and  C_27 
ROOT
ATOM      1  C   LIG d   1       5.676  -2.271  -4.273  0.00  0.00    -0.030 A 
ATOM      2  C   LIG d   1       5.539  -1.975  -2.954  0.00  0.00     0.027 A 
ATOM      3  C   LIG d   1       4.619  -0.987  -2.548  0.00  0.00     0.338 A 
ATOM      4  O   LIG d   1       4.507  -0.732  -1.362  0.00  0.00    -0.245 OA
ATOM      5  O   LIG d   1       3.864  -0.320  -3.435  0.00  0.00    -0.422 OA
ATOM      6  C   LIG d   1       3.949  -0.566  -4.759  0.00  0.00     0.146 A 
ATOM      7  C   LIG d   1       4.852  -1.536  -5.235  0.00  0.00     0.022 A 
ATOM      8  C   LIG d   1       4.947  -1.787  -6.607  0.00  0.00    -0.043 A 
ATOM      9  C   LIG d   1       4.167  -1.090  -7.486  0.00  0.00     0.013 A 
ATOM     10  C   LIG d   1       3.276  -0.126  -7.023  0.00  0.00     0.134 A 
ATOM     11  C   LIG d   1       3.162   0.130  -5.663  0.00  0.00     0.035 A 
ATOM     12  O   LIG d   1       2.494   0.571  -7.889  0.00  0.00    -0.473 OA
ATOM     13  C   LIG d   1       2.869   0.548  -9.268  0.00  0.00     0.157 C 
ATOM     14  N   LIG d   1       3.114  -0.849  -9.666  0.00  0.00    -0.293 NA
ATOM     15  C   LIG d   1       4.290  -1.377  -8.962  0.00  0.00     0.044 C 
ATOM     16  H   LIG d   1       6.134  -2.496  -2.218  0.00  0.00     0.069 H 
ATOM     17  H   LIG d   1       5.637  -2.533  -6.972  0.00  0.00     0.063 H 
ATOM     18  H   LIG d   1       3.778   1.132  -9.410  0.00  0.00     0.091 H 
ATOM     19  H   LIG d   1       2.064   0.965  -9.872  0.00  0.00     0.091 H 
ATOM     20  H   LIG d   1       5.189  -0.902  -9.352  0.00  0.00     0.051 H 
ATOM     21  H   LIG d   1       4.352  -2.454  -9.117  0.00  0.00     0.051 H 
ENDROOT
BRANCH  14  22
ATOM     22  C   LIG d   1       3.267  -0.955 -11.050  0.00  0.00     0.033 A 
ATOM     23  C   LIG d   1       2.346  -1.672 -11.801  0.00  0.00    -0.038 A 
ATOM     24  C   LIG d   1       2.500  -1.771 -13.170  0.00  0.00    -0.049 A 
ATOM     25  H   LIG d   1       1.507  -2.150 -11.315  0.00  0.00     0.064 H 
ATOM     26  C   LIG d   1       3.576  -1.165 -13.792  0.00  0.00    -0.059 A 
ATOM     27  C   LIG d   1       4.498  -0.453 -13.046  0.00  0.00    -0.060 A 
ATOM     28  H   LIG d   1       3.696  -1.247 -14.862  0.00  0.00     0.062 H 
ATOM     29  C   LIG d   1       4.348  -0.347 -11.678  0.00  0.00    -0.041 A 
ATOM     30  H   LIG d   1       5.337   0.019 -13.535  0.00  0.00     0.062 H 
ATOM     31  H   LIG d   1       5.069   0.208 -11.096  0.00  0.00     0.064 H 
BRANCH  24  32
ATOM     32  C   LIG d   1       1.497  -2.544 -13.986  0.00  0.00    -0.040 C 
ATOM     33  H   LIG d   1       1.586  -3.607 -13.759  0.00  0.00     0.028 H 
ATOM     34  H   LIG d   1       0.490  -2.205 -13.742  0.00  0.00     0.028 H 
ATOM     35  H   LIG d   1       1.687  -2.382 -15.047  0.00  0.00     0.028 H 
ENDBRANCH  24  32
ENDBRANCH  14  22
BRANCH  11  36
ATOM     36  C   LIG d   1       2.196   1.177  -5.170  0.00  0.00    -0.033 C 
ATOM     37  H   LIG d   1       1.441   0.706  -4.542  0.00  0.00     0.028 H 
ATOM     38  H   LIG d   1       2.736   1.924  -4.590  0.00  0.00     0.028 H 
ATOM     39  H   LIG d   1       1.714   1.656  -6.022  0.00  0.00     0.028 H 
ENDBRANCH  11  36
BRANCH   1  40
ATOM     40  C   LIG d   1       6.652  -3.322  -4.734  0.00  0.00    -0.027 C 
ATOM     41  H   LIG d   1       6.691  -3.329  -5.823  0.00  0.00     0.031 H 
ATOM     42  H   LIG d   1       6.329  -4.300  -4.375  0.00  0.00     0.031 H 
BRANCH  40  43
ATOM     43  C   LIG d   1       8.041  -3.007  -4.176  0.00  0.00    -0.049 C 
ATOM     44  H   LIG d   1       7.942  -2.436  -3.253  0.00  0.00     0.027 H 
ATOM     45  H   LIG d   1       8.601  -2.423  -4.905  0.00  0.00     0.027 H 
BRANCH  43  46
ATOM     46  C   LIG d   1       8.784  -4.313  -3.890  0.00  0.00    -0.056 C 
ATOM     47  H   LIG d   1       9.507  -4.502  -4.684  0.00  0.00     0.026 H 
ATOM     48  H   LIG d   1       8.070  -5.136  -3.846  0.00  0.00     0.026 H 
BRANCH  46  49
ATOM     49  C   LIG d   1       9.515  -4.202  -2.550  0.00  0.00    -0.065 C 
ATOM     50  H   LIG d   1      10.003  -5.150  -2.323  0.00  0.00     0.023 H 
ATOM     51  H   LIG d   1      10.264  -3.412  -2.610  0.00  0.00     0.023 H 
ATOM     52  H   LIG d   1       8.798  -3.965  -1.764  0.00  0.00     0.023 H 
ENDBRANCH  46  49
ENDBRANCH  43  46
ENDBRANCH  40  43
ENDBRANCH   1  40
TORSDOF 7
ENDMDL
MODEL 8
REMARK VINA RESULT:      -5.8      7.488     11.166
REMARK  7 active torsions:
REMARK  status: ('A' for Active; 'I' for Inactive)
REMARK    1  A    between atoms: C_1  and  C_2 
REMARK    2  A    between atoms: C_2  and  C_3 
REMARK    3  A    between atoms: C_3  and  C_4 
REMARK    4  A    between atoms: C_4  and  C_5 
REMARK    5  A    between atoms: C_15  and  C_16 
REMARK    6  A    between atoms: N_19  and  C_21 
REMARK    7  A    between atoms: C_25  and  C_27 
ROOT
ATOM      1  C   LIG d   1      11.504   9.525   0.127  0.00  0.00    -0.030 A 
ATOM      2  C   LIG d   1      11.506  10.497   1.076  0.00  0.00     0.027 A 
ATOM      3  C   LIG d   1      10.947  11.759   0.788  0.00  0.00     0.338 A 
ATOM      4  O   LIG d   1      10.956  12.623   1.648  0.00  0.00    -0.245 OA
ATOM      5  O   LIG d   1      10.405  12.034  -0.409  0.00  0.00    -0.422 OA
ATOM      6  C   LIG d   1      10.369  11.112  -1.395  0.00  0.00     0.146 A 
ATOM      7  C   LIG d   1      10.915   9.833  -1.178  0.00  0.00     0.022 A 
ATOM      8  C   LIG d   1      10.886   8.879  -2.200  0.00  0.00    -0.043 A 
ATOM      9  C   LIG d   1      10.330   9.189  -3.409  0.00  0.00     0.013 A 
ATOM     10  C   LIG d   1       9.792  10.454  -3.632  0.00  0.00     0.134 A 
ATOM     11  C   LIG d   1       9.805  11.410  -2.625  0.00  0.00     0.035 A 
ATOM     12  O   LIG d   1       9.234  10.771  -4.830  0.00  0.00    -0.473 OA
ATOM     13  C   LIG d   1       9.540   9.919  -5.936  0.00  0.00     0.157 C 
ATOM     14  N   LIG d   1       9.333   8.521  -5.525  0.00  0.00    -0.293 NA
ATOM     15  C   LIG d   1      10.312   8.144  -4.497  0.00  0.00     0.044 C 
ATOM     16  H   LIG d   1      11.936  10.304   2.048  0.00  0.00     0.069 H 
ATOM     17  H   LIG d   1      11.302   7.897  -2.033  0.00  0.00     0.063 H 
ATOM     18  H   LIG d   1      10.580  10.062  -6.231  0.00  0.00     0.091 H 
ATOM     19  H   LIG d   1       8.884  10.156  -6.773  0.00  0.00     0.091 H 
ATOM     20  H   LIG d   1      11.301   8.071  -4.947  0.00  0.00     0.051 H 
ATOM     21  H   LIG d   1      10.036   7.181  -4.069  0.00  0.00     0.051 H 
ENDROOT
BRANCH  14  22
ATOM     22  C   LIG d   1       9.403   7.661  -6.624  0.00  0.00     0.033 A 
ATOM     23  C   LIG d   1       9.769   6.333  -6.447  0.00  0.00    -0.038 A 
ATOM     24  C   LIG d   1       9.833   5.485  -7.536  0.00  0.00    -0.049 A 
ATOM     25  H   LIG d   1      10.000   5.962  -5.459  0.00  0.00     0.064 H 
ATOM     26  C   LIG d   1       9.542   5.960  -8.802  0.00  0.00    -0.059 A 
ATOM     27  C   LIG d   1       9.182   7.283  -8.981  0.00  0.00    -0.060 A 
ATOM     28  H   LIG d   1       9.597   5.296  -9.652  0.00  0.00     0.062 H 
ATOM     29  C   LIG d   1       9.112   8.134  -7.897  0.00  0.00    -0.041 A 
ATOM     30  H   LIG d   1       8.956   7.650  -9.971  0.00  0.00     0.062 H 
ATOM     31  H   LIG d   1       8.831   9.168  -8.039  0.00  0.00     0.064 H 
BRANCH  24  32
ATOM     32  C   LIG d   1      10.224   4.043  -7.344  0.00  0.00    -0.040 C 
ATOM     33  H   LIG d   1      11.286   3.984  -7.100  0.00  0.00     0.028 H 
ATOM     34  H   LIG d   1       9.641   3.612  -6.530  0.00  0.00     0.028 H 
ATOM     35  H   LIG d   1      10.031   3.488  -8.262  0.00  0.00     0.028 H 
ENDBRANCH  24  32
ENDBRANCH  14  22
BRANCH  11  36
ATOM     36  C   LIG d   1       9.222  12.777  -2.876  0.00  0.00    -0.033 C 
ATOM     37  H   LIG d   1      10.023  13.474  -3.121  0.00  0.00     0.028 H 
ATOM     38  H   LIG d   1       8.519  12.725  -3.707  0.00  0.00     0.028 H 
ATOM     39  H   LIG d   1       8.703  13.120  -1.981  0.00  0.00     0.028 H 
ENDBRANCH  11  36
BRANCH   1  40
ATOM     40  C   LIG d   1      12.096   8.168   0.408  0.00  0.00    -0.027 C 
ATOM     41  H   LIG d   1      13.067   8.288   0.889  0.00  0.00     0.031 H 
ATOM     42  H   LIG d   1      12.220   7.625  -0.530  0.00  0.00     0.031 H 
BRANCH  40  43
ATOM     43  C   LIG d   1      11.162   7.385   1.331  0.00  0.00    -0.049 C 
ATOM     44  H   LIG d   1      10.163   7.821   1.293  0.00  0.00     0.027 H 
ATOM     45  H   LIG d   1      11.538   7.431   2.352  0.00  0.00     0.027 H 
BRANCH  43  46
ATOM     46  C   LIG d   1      11.099   5.926   0.875  0.00  0.00    -0.056 C 
ATOM     47  H   LIG d   1      10.095   5.701   0.516  0.00  0.00     0.026 H 
ATOM     48  H   LIG d   1      11.339   5.272   1.714  0.00  0.00     0.026 H 
BRANCH  46  49
ATOM     49  C   LIG d   1      12.108   5.699  -0.253  0.00  0.00    -0.065 C 
ATOM     50  H   LIG d   1      11.930   6.422  -1.049  0.00  0.00     0.023 H 
ATOM     51  H   LIG d   1      13.119   5.824   0.134  0.00  0.00     0.023 H 
ATOM     52  H   LIG d   1      11.991   4.689  -0.646  0.00  0.00     0.023 H 
ENDBRANCH  46  49
ENDBRANCH  43  46
ENDBRANCH  40  43
ENDBRANCH   1  40
TORSDOF 7
ENDMDL
MODEL 9
REMARK VINA RESULT:      -5.8      4.736      7.916
REMARK  7 active torsions:
REMARK  status: ('A' for Active; 'I' for Inactive)
REMARK    1  A    between atoms: C_1  and  C_2 
REMARK    2  A    between atoms: C_2  and  C_3 
REMARK    3  A    between atoms: C_3  and  C_4 
REMARK    4  A    between atoms: C_4  and  C_5 
REMARK    5  A    between atoms: C_15  and  C_16 
REMARK    6  A    between atoms: N_19  and  C_21 
REMARK    7  A    between atoms: C_25  and  C_27 
ROOT
ATOM      1  C   LIG d   1       6.536  -1.838  -3.822  0.00  0.00    -0.030 A 
ATOM      2  C   LIG d   1       7.542  -2.372  -3.081  0.00  0.00     0.027 A 
ATOM      3  C   LIG d   1       8.327  -3.415  -3.615  0.00  0.00     0.338 A 
ATOM      4  O   LIG d   1       9.226  -3.886  -2.940  0.00  0.00    -0.245 OA
ATOM      5  O   LIG d   1       8.110  -3.902  -4.846  0.00  0.00    -0.422 OA
ATOM      6  C   LIG d   1       7.129  -3.415  -5.634  0.00  0.00     0.146 A 
ATOM      7  C   LIG d   1       6.302  -2.378  -5.163  0.00  0.00     0.022 A 
ATOM      8  C   LIG d   1       5.280  -1.876  -5.974  0.00  0.00    -0.043 A 
ATOM      9  C   LIG d   1       5.081  -2.395  -7.223  0.00  0.00     0.013 A 
ATOM     10  C   LIG d   1       5.892  -3.425  -7.693  0.00  0.00     0.134 A 
ATOM     11  C   LIG d   1       6.917  -3.928  -6.904  0.00  0.00     0.035 A 
ATOM     12  O   LIG d   1       5.704  -3.944  -8.935  0.00  0.00    -0.473 OA
ATOM     13  C   LIG d   1       4.457  -3.667  -9.575  0.00  0.00     0.157 C 
ATOM     14  N   LIG d   1       4.190  -2.222  -9.480  0.00  0.00    -0.293 NA
ATOM     15  C   LIG d   1       3.971  -1.838  -8.079  0.00  0.00     0.044 C 
ATOM     16  H   LIG d   1       7.739  -2.000  -2.087  0.00  0.00     0.069 H 
ATOM     17  H   LIG d   1       4.648  -1.078  -5.614  0.00  0.00     0.063 H 
ATOM     18  H   LIG d   1       3.659  -4.219  -9.078  0.00  0.00     0.091 H 
ATOM     19  H   LIG d   1       4.511  -3.961 -10.623  0.00  0.00     0.091 H 
ATOM     20  H   LIG d   1       3.015  -2.237  -7.739  0.00  0.00     0.051 H 
ATOM     21  H   LIG d   1       3.960  -0.752  -7.998  0.00  0.00     0.051 H 
ENDROOT
BRANCH  14  22
ATOM     22  C   LIG d   1       3.100  -1.861 -10.276  0.00  0.00     0.033 A 
ATOM     23  C   LIG d   1       3.070  -2.213 -11.618  0.00  0.00    -0.038 A 
ATOM     24  C   LIG d   1       1.988  -1.858 -12.400  0.00  0.00    -0.049 A 
ATOM     25  H   LIG d   1       3.890  -2.768 -12.050  0.00  0.00     0.064 H 
ATOM     26  C   LIG d   1       0.940  -1.144 -11.849  0.00  0.00    -0.059 A 
ATOM     27  C   LIG d   1       0.969  -0.788 -10.514  0.00  0.00    -0.060 A 
ATOM     28  H   LIG d   1       0.097  -0.864 -12.464  0.00  0.00     0.062 H 
ATOM     29  C   LIG d   1       2.045  -1.143  -9.725  0.00  0.00    -0.041 A 
ATOM     30  H   LIG d   1       0.149  -0.230 -10.087  0.00  0.00     0.062 H 
ATOM     31  H   LIG d   1       2.067  -0.863  -8.682  0.00  0.00     0.064 H 
BRANCH  24  32
ATOM     32  C   LIG d   1       1.952  -2.245 -13.856  0.00  0.00    -0.040 C 
ATOM     33  H   LIG d   1       2.821  -2.862 -14.089  0.00  0.00     0.028 H 
ATOM     34  H   LIG d   1       1.042  -2.809 -14.060  0.00  0.00     0.028 H 
ATOM     35  H   LIG d   1       1.969  -1.347 -14.472  0.00  0.00     0.028 H 
ENDBRANCH  24  32
ENDBRANCH  14  22
BRANCH  11  36
ATOM     36  C   LIG d   1       7.789  -5.044  -7.421  0.00  0.00    -0.033 C 
ATOM     37  H   LIG d   1       8.557  -5.275  -6.684  0.00  0.00     0.028 H 
ATOM     38  H   LIG d   1       7.177  -5.928  -7.598  0.00  0.00     0.028 H 
ATOM     39  H   LIG d   1       8.260  -4.735  -8.354  0.00  0.00     0.028 H 
ENDBRANCH  11  36
BRANCH   1  40
ATOM     40  C   LIG d   1       5.681  -0.723  -3.276  0.00  0.00    -0.027 C 
ATOM     41  H   LIG d   1       5.005  -0.369  -4.054  0.00  0.00     0.031 H 
ATOM     42  H   LIG d   1       6.321   0.097  -2.949  0.00  0.00     0.031 H 
BRANCH  40  43
ATOM     43  C   LIG d   1       4.867  -1.240  -2.089  0.00  0.00    -0.049 C 
ATOM     44  H   LIG d   1       4.619  -0.409  -1.428  0.00  0.00     0.027 H 
ATOM     45  H   LIG d   1       5.451  -1.978  -1.541  0.00  0.00     0.027 H 
BRANCH  43  46
ATOM     46  C   LIG d   1       3.577  -1.887  -2.599  0.00  0.00    -0.056 C 
ATOM     47  H   LIG d   1       3.070  -2.386  -1.773  0.00  0.00     0.026 H 
ATOM     48  H   LIG d   1       3.818  -2.619  -3.371  0.00  0.00     0.026 H 
BRANCH  46  49
ATOM     49  C   LIG d   1       2.662  -0.810  -3.184  0.00  0.00    -0.065 C 
ATOM     50  H   LIG d   1       2.302  -1.131  -4.161  0.00  0.00     0.023 H 
ATOM     51  H   LIG d   1       1.814  -0.652  -2.517  0.00  0.00     0.023 H 
ATOM     52  H   LIG d   1       3.219   0.121  -3.290  0.00  0.00     0.023 H 
ENDBRANCH  46  49
ENDBRANCH  43  46
ENDBRANCH  40  43
ENDBRANCH   1  40
TORSDOF 7
ENDMDL
MODEL 10
REMARK VINA RESULT:      -5.7      5.462      8.255
REMARK  7 active torsions:
REMARK  status: ('A' for Active; 'I' for Inactive)
REMARK    1  A    between atoms: C_1  and  C_2 
REMARK    2  A    between atoms: C_2  and  C_3 
REMARK    3  A    between atoms: C_3  and  C_4 
REMARK    4  A    between atoms: C_4  and  C_5 
REMARK    5  A    between atoms: C_15  and  C_16 
REMARK    6  A    between atoms: N_19  and  C_21 
REMARK    7  A    between atoms: C_25  and  C_27 
ROOT
ATOM      1  C   LIG d   1       9.386   7.324  -8.247  0.00  0.00    -0.030 A 
ATOM      2  C   LIG d   1       9.190   6.693  -9.435  0.00  0.00     0.027 A 
ATOM      3  C   LIG d   1       9.218   5.285  -9.494  0.00  0.00     0.338 A 
ATOM      4  O   LIG d   1       9.041   4.732 -10.566  0.00  0.00    -0.245 OA
ATOM      5  O   LIG d   1       9.436   4.537  -8.401  0.00  0.00    -0.422 OA
ATOM      6  C   LIG d   1       9.638   5.100  -7.191  0.00  0.00     0.146 A 
ATOM      7  C   LIG d   1       9.629   6.501  -7.060  0.00  0.00     0.022 A 
ATOM      8  C   LIG d   1       9.844   7.087  -5.809  0.00  0.00    -0.043 A 
ATOM      9  C   LIG d   1      10.066   6.299  -4.714  0.00  0.00     0.013 A 
ATOM     10  C   LIG d   1      10.082   4.913  -4.838  0.00  0.00     0.134 A 
ATOM     11  C   LIG d   1       9.861   4.315  -6.071  0.00  0.00     0.035 A 
ATOM     12  O   LIG d   1      10.299   4.122  -3.755  0.00  0.00    -0.473 OA
ATOM     13  C   LIG d   1      10.862   4.742  -2.596  0.00  0.00     0.157 C 
ATOM     14  N   LIG d   1      10.101   5.969  -2.304  0.00  0.00    -0.293 NA
ATOM     15  C   LIG d   1      10.298   6.955  -3.375  0.00  0.00     0.044 C 
ATOM     16  H   LIG d   1       9.012   7.270 -10.331  0.00  0.00     0.069 H 
ATOM     17  H   LIG d   1       9.834   8.162  -5.707  0.00  0.00     0.063 H 
ATOM     18  H   LIG d   1      11.904   4.996  -2.787  0.00  0.00     0.091 H 
ATOM     19  H   LIG d   1      10.797   4.061  -1.749  0.00  0.00     0.091 H 
ATOM     20  H   LIG d   1      11.316   7.340  -3.330  0.00  0.00     0.051 H 
ATOM     21  H   LIG d   1       9.594   7.776  -3.247  0.00  0.00     0.051 H 
ENDROOT
BRANCH  14  22
ATOM     22  C   LIG d   1      10.462   6.498  -1.063  0.00  0.00     0.033 A 
ATOM     23  C   LIG d   1      10.464   7.872  -0.864  0.00  0.00    -0.038 A 
ATOM     24  C   LIG d   1      10.818   8.390   0.366  0.00  0.00    -0.049 A 
ATOM     25  H   LIG d   1      10.185   8.535  -1.670  0.00  0.00     0.064 H 
ATOM     26  C   LIG d   1      11.180   7.542   1.397  0.00  0.00    -0.059 A 
ATOM     27  C   LIG d   1      11.184   6.174   1.201  0.00  0.00    -0.060 A 
ATOM     28  H   LIG d   1      11.460   7.951   2.357  0.00  0.00     0.062 H 
ATOM     29  C   LIG d   1      10.827   5.649  -0.025  0.00  0.00    -0.041 A 
ATOM     30  H   LIG d   1      11.467   5.515   2.008  0.00  0.00     0.062 H 
ATOM     31  H   LIG d   1      10.831   4.579  -0.177  0.00  0.00     0.064 H 
BRANCH  24  32
ATOM     32  C   LIG d   1      10.814   9.881   0.584  0.00  0.00    -0.040 C 
ATOM     33  H   LIG d   1      10.949  10.389  -0.371  0.00  0.00     0.028 H 
ATOM     34  H   LIG d   1       9.862  10.182   1.023  0.00  0.00     0.028 H 
ATOM     35  H   LIG d   1      11.626  10.153   1.258  0.00  0.00     0.028 H 
ENDBRANCH  24  32
ENDBRANCH  14  22
BRANCH  11  36
ATOM     36  C   LIG d   1       9.881   2.813  -6.195  0.00  0.00    -0.033 C 
ATOM     37  H   LIG d   1       9.471   2.368  -5.289  0.00  0.00     0.028 H 
ATOM     38  H   LIG d   1       9.278   2.513  -7.052  0.00  0.00     0.028 H 
ATOM     39  H   LIG d   1      10.907   2.473  -6.336  0.00  0.00     0.028 H 
ENDBRANCH  11  36
BRANCH   1  40
ATOM     40  C   LIG d   1       9.362   8.828  -8.156  0.00  0.00    -0.027 C 
ATOM     41  H   LIG d   1       9.087   9.126  -7.144  0.00  0.00     0.031 H 
ATOM     42  H   LIG d   1       8.630   9.222  -8.862  0.00  0.00     0.031 H 
BRANCH  40  43
ATOM     43  C   LIG d   1      10.747   9.382  -8.493  0.00  0.00    -0.049 C 
ATOM     44  H   LIG d   1      10.695   9.951  -9.421  0.00  0.00     0.027 H 
ATOM     45  H   LIG d   1      11.449   8.557  -8.613  0.00  0.00     0.027 H 
BRANCH  43  46
ATOM     46  C   LIG d   1      11.221  10.295  -7.361  0.00  0.00    -0.056 C 
ATOM     47  H   LIG d   1      11.716  11.170  -7.783  0.00  0.00     0.026 H 
ATOM     48  H   LIG d   1      11.921   9.753  -6.725  0.00  0.00     0.026 H 
BRANCH  46  49
ATOM     49  C   LIG d   1      10.017  10.742  -6.528  0.00  0.00    -0.065 C 
ATOM     50  H   LIG d   1      10.349  11.004  -5.524  0.00  0.00     0.023 H 
ATOM     51  H   LIG d   1       9.553  11.609  -6.997  0.00  0.00     0.023 H 
ATOM     52  H   LIG d   1       9.294   9.929  -6.471  0.00  0.00     0.023 H 
ENDBRANCH  46  49
ENDBRANCH  43  46
ENDBRANCH  40  43
ENDBRANCH   1  40
TORSDOF 7
ENDMDL
