MODEL 1
REMARK VINA RESULT:      -6.5      0.000      0.000
REMARK  14 active torsions:
REMARK  status: ('A' for Active; 'I' for Inactive)
REMARK    1  A    between atoms: C_3  and  O_50 
REMARK    2  A    between atoms: C_6  and  C_7 
REMARK    3  A    between atoms: C_15  and  O_48 
REMARK    4  A    between atoms: C_16  and  C_19 
REMARK    5  A    between atoms: C_17  and  O_18 
REMARK    6  A    between atoms: C_21  and  O_34 
REMARK    7  A    between atoms: C_23  and  O_33 
REMARK    8  A    between atoms: C_25  and  O_32 
REMARK    9  A    between atoms: C_27  and  C_30 
REMARK   10  A    between atoms: C_30  and  O_31 
REMARK   11  A    between atoms: O_34  and  C_35 
REMARK   12  A    between atoms: C_37  and  O_47 
REMARK   13  A    between atoms: C_39  and  O_46 
REMARK   14  A    between atoms: C_41  and  O_45 
ROOT
ATOM      1  C   LIG d   1       5.450  -3.201  -5.786  0.00  0.00     0.120 C 
ATOM      2  H   LIG d   1       4.664  -3.490  -5.088  0.00  0.00     0.068 H 
ATOM      3  C   LIG d   1       4.845  -2.972  -7.173  0.00  0.00     0.120 C 
ATOM      4  H   LIG d   1       5.623  -2.643  -7.860  0.00  0.00     0.065 H 
ATOM      5  C   LIG d   1       4.234  -4.282  -7.677  0.00  0.00     0.112 C 
ATOM      6  H   LIG d   1       3.850  -4.141  -8.687  0.00  0.00     0.065 H 
ATOM      7  C   LIG d   1       5.316  -5.367  -7.688  0.00  0.00     0.112 C 
ATOM      8  H   LIG d   1       6.105  -5.087  -8.387  0.00  0.00     0.065 H 
ATOM      9  C   LIG d   1       5.904  -5.503  -6.282  0.00  0.00     0.111 C 
ATOM     10  H   LIG d   1       6.705  -6.243  -6.293  0.00  0.00     0.065 H 
ATOM     11  O   LIG d   1       6.427  -4.242  -5.861  0.00  0.00    -0.361 OA
ENDROOT
BRANCH   1  12
ATOM     12  C   LIG d   1       6.105  -1.931  -5.307  0.00  0.00     0.067 A 
ATOM     13  C   LIG d   1       5.535  -1.206  -4.267  0.00  0.00     0.130 A 
ATOM     14  C   LIG d   1       6.124  -0.032  -3.815  0.00  0.00     0.023 A 
ATOM     15  C   LIG d   1       7.290   0.431  -4.398  0.00  0.00     0.139 A 
ATOM     16  H   LIG d   1       5.670   0.520  -3.006  0.00  0.00     0.069 H 
ATOM     17  C   LIG d   1       7.873  -0.303  -5.448  0.00  0.00     0.101 A 
ATOM     18  O   LIG d   1       7.853   1.582  -3.961  0.00  0.00    -0.483 OA
ATOM     19  C   LIG d   1       9.116   0.186  -6.054  0.00  0.00     0.174 C 
ATOM     20  C   LIG d   1       7.272  -1.486  -5.903  0.00  0.00     0.140 A 
ATOM     21  C   LIG d   1       9.534   1.602  -5.701  0.00  0.00     0.052 C 
ATOM     22  O   LIG d   1       9.777  -0.506  -6.802  0.00  0.00    -0.292 OA
ATOM     23  C   LIG d   1       9.242   1.801  -4.206  0.00  0.00     0.132 C 
ATOM     24  H   LIG d   1       8.958   2.317  -6.289  0.00  0.00     0.038 H 
ATOM     25  H   LIG d   1      10.598   1.734  -5.892  0.00  0.00     0.038 H 
ATOM     26  H   LIG d   1       9.830   1.092  -3.623  0.00  0.00     0.079 H 
BRANCH  13  27
ATOM     27  O   LIG d   1       4.392  -1.651  -3.686  0.00  0.00    -0.506 OA
ATOM     28  H   LIG d   1       4.148  -1.172  -2.882  0.00  0.00     0.292 HD
ENDBRANCH  13  27
BRANCH  23  29
ATOM     29  C   LIG d   1       9.608   3.207  -3.805  0.00  0.00    -0.007 A 
ATOM     30  C   LIG d   1      10.384   3.424  -2.681  0.00  0.00    -0.052 A 
ATOM     31  C   LIG d   1      10.721   4.711  -2.312  0.00  0.00    -0.020 A 
ATOM     32  H   LIG d   1      10.730   2.586  -2.094  0.00  0.00     0.062 H 
ATOM     33  C   LIG d   1      10.281   5.787  -3.069  0.00  0.00     0.117 A 
ATOM     34  H   LIG d   1      11.327   4.881  -1.434  0.00  0.00     0.065 H 
ATOM     35  C   LIG d   1       9.503   5.567  -4.197  0.00  0.00    -0.020 A 
ATOM     36  C   LIG d   1       9.168   4.276  -4.562  0.00  0.00    -0.052 A 
ATOM     37  H   LIG d   1       9.159   6.402  -4.788  0.00  0.00     0.065 H 
ATOM     38  H   LIG d   1       8.563   4.105  -5.439  0.00  0.00     0.062 H 
BRANCH  33  39
ATOM     39  O   LIG d   1      10.611   7.055  -2.709  0.00  0.00    -0.507 OA
ATOM     40  H   LIG d   1      10.026   7.440  -2.043  0.00  0.00     0.292 HD
ENDBRANCH  33  39
ENDBRANCH  23  29
BRANCH  20  41
ATOM     41  O   LIG d   1       7.830  -2.190  -6.920  0.00  0.00    -0.505 OA
ATOM     42  H   LIG d   1       7.608  -1.852  -7.798  0.00  0.00     0.292 HD
ENDBRANCH  20  41
ENDBRANCH   1  12
BRANCH   3  43
ATOM     43  O   LIG d   1       3.828  -1.971  -7.089  0.00  0.00    -0.340 OA
BRANCH  43  44
ATOM     44  C   LIG d   1       3.680  -1.192  -8.279  0.00  0.00     0.188 C 
ATOM     45  H   LIG d   1       3.728  -1.846  -9.149  0.00  0.00     0.094 H 
ATOM     46  O   LIG d   1       2.418  -0.522  -8.255  0.00  0.00    -0.346 OA
ATOM     47  C   LIG d   1       2.156   0.269  -9.416  0.00  0.00     0.079 C 
ATOM     48  C   LIG d   1       3.222   1.363  -9.538  0.00  0.00     0.107 C 
ATOM     49  H   LIG d   1       1.172   0.728  -9.328  0.00  0.00     0.059 H 
ATOM     50  H   LIG d   1       2.184  -0.366 -10.302  0.00  0.00     0.059 H 
ATOM     51  C   LIG d   1       4.606   0.712  -9.600  0.00  0.00     0.114 C 
ATOM     52  H   LIG d   1       3.049   1.939 -10.447  0.00  0.00     0.064 H 
ATOM     53  C   LIG d   1       4.806  -0.158  -8.355  0.00  0.00     0.134 C 
ATOM     54  H   LIG d   1       4.677   0.090 -10.494  0.00  0.00     0.065 H 
ATOM     55  H   LIG d   1       5.767  -0.669  -8.417  0.00  0.00     0.067 H 
BRANCH  48  56
ATOM     56  O   LIG d   1       3.151   2.228  -8.403  0.00  0.00    -0.387 OA
ATOM     57  H   LIG d   1       3.786   2.959  -8.425  0.00  0.00     0.210 HD
ENDBRANCH  48  56
BRANCH  51  58
ATOM     58  O   LIG d   1       5.612   1.725  -9.641  0.00  0.00    -0.386 OA
ATOM     59  H   LIG d   1       6.427   1.453 -10.087  0.00  0.00     0.210 HD
ENDBRANCH  51  58
BRANCH  53  60
ATOM     60  O   LIG d   1       4.778   0.665  -7.187  0.00  0.00    -0.384 OA
ATOM     61  H   LIG d   1       5.473   0.463  -6.546  0.00  0.00     0.210 HD
ENDBRANCH  53  60
ENDBRANCH  43  44
ENDBRANCH   3  43
BRANCH   9  62
ATOM     62  C   LIG d   1       4.810  -5.952  -5.312  0.00  0.00     0.073 C 
ATOM     63  H   LIG d   1       5.128  -5.752  -4.288  0.00  0.00     0.058 H 
ATOM     64  H   LIG d   1       3.892  -5.401  -5.521  0.00  0.00     0.058 H 
BRANCH  62  65
ATOM     65  O   LIG d   1       4.572  -7.351  -5.473  0.00  0.00    -0.392 OA
ATOM     66  H   LIG d   1       5.016  -7.740  -6.239  0.00  0.00     0.209 HD
ENDBRANCH  62  65
ENDBRANCH   9  62
BRANCH   5  67
ATOM     67  O   LIG d   1       3.168  -4.679  -6.812  0.00  0.00    -0.387 OA
ATOM     68  H   LIG d   1       3.050  -5.636  -6.745  0.00  0.00     0.210 HD
ENDBRANCH   5  67
BRANCH   7  69
ATOM     69  O   LIG d   1       4.742  -6.612  -8.090  0.00  0.00    -0.387 OA
ATOM     70  H   LIG d   1       5.167  -7.010  -8.862  0.00  0.00     0.210 HD
ENDBRANCH   7  69
TORSDOF 14
ENDMDL
MODEL 2
REMARK VINA RESULT:      -6.3      2.803      8.799
REMARK  14 active torsions:
REMARK  status: ('A' for Active; 'I' for Inactive)
REMARK    1  A    between atoms: C_3  and  O_50 
REMARK    2  A    between atoms: C_6  and  C_7 
REMARK    3  A    between atoms: C_15  and  O_48 
REMARK    4  A    between atoms: C_16  and  C_19 
REMARK    5  A    between atoms: C_17  and  O_18 
REMARK    6  A    between atoms: C_21  and  O_34 
REMARK    7  A    between atoms: C_23  and  O_33 
REMARK    8  A    between atoms: C_25  and  O_32 
REMARK    9  A    between atoms: C_27  and  C_30 
REMARK   10  A    between atoms: C_30  and  O_31 
REMARK   11  A    between atoms: O_34  and  C_35 
REMARK   12  A    between atoms: C_37  and  O_47 
REMARK   13  A    between atoms: C_39  and  O_46 
REMARK   14  A    between atoms: C_41  and  O_45 
ROOT
ATOM      1  C   LIG d   1       8.261   0.632  -6.876  0.00  0.00     0.120 C 
ATOM      2  H   LIG d   1       8.309   1.693  -7.121  0.00  0.00     0.068 H 
ATOM      3  C   LIG d   1       8.105   0.463  -5.362  0.00  0.00     0.120 C 
ATOM      4  H   LIG d   1       8.015  -0.596  -5.122  0.00  0.00     0.065 H 
ATOM      5  C   LIG d   1       9.336   1.046  -4.662  0.00  0.00     0.112 C 
ATOM      6  H   LIG d   1       9.257   0.879  -3.588  0.00  0.00     0.065 H 
ATOM      7  C   LIG d   1      10.592   0.351  -5.198  0.00  0.00     0.112 C 
ATOM      8  H   LIG d   1      10.552  -0.711  -4.953  0.00  0.00     0.065 H 
ATOM      9  C   LIG d   1      10.652   0.523  -6.717  0.00  0.00     0.111 C 
ATOM     10  H   LIG d   1      11.520  -0.006  -7.109  0.00  0.00     0.065 H 
ATOM     11  O   LIG d   1       9.464  -0.011  -7.304  0.00  0.00    -0.361 OA
ENDROOT
BRANCH   1  12
ATOM     12  C   LIG d   1       7.081   0.009  -7.575  0.00  0.00     0.067 A 
ATOM     13  C   LIG d   1       6.877  -1.364  -7.504  0.00  0.00     0.130 A 
ATOM     14  C   LIG d   1       5.796  -1.955  -8.146  0.00  0.00     0.023 A 
ATOM     15  C   LIG d   1       4.905  -1.179  -8.866  0.00  0.00     0.139 A 
ATOM     16  H   LIG d   1       5.650  -3.023  -8.081  0.00  0.00     0.069 H 
ATOM     17  C   LIG d   1       5.104   0.213  -8.936  0.00  0.00     0.101 A 
ATOM     18  O   LIG d   1       3.860  -1.762  -9.499  0.00  0.00    -0.483 OA
ATOM     19  C   LIG d   1       4.150   1.032  -9.691  0.00  0.00     0.174 C 
ATOM     20  C   LIG d   1       6.201   0.804  -8.290  0.00  0.00     0.140 A 
ATOM     21  C   LIG d   1       3.173   0.289 -10.583  0.00  0.00     0.052 C 
ATOM     22  O   LIG d   1       4.143   2.243  -9.606  0.00  0.00    -0.292 OA
ATOM     23  C   LIG d   1       2.720  -0.963  -9.817  0.00  0.00     0.132 C 
ATOM     24  H   LIG d   1       3.666  -0.003 -11.511  0.00  0.00     0.038 H 
ATOM     25  H   LIG d   1       2.313   0.922 -10.802  0.00  0.00     0.038 H 
ATOM     26  H   LIG d   1       2.217  -0.664  -8.897  0.00  0.00     0.079 H 
BRANCH  13  27
ATOM     27  O   LIG d   1       7.743  -2.135  -6.799  0.00  0.00    -0.506 OA
ATOM     28  H   LIG d   1       7.321  -2.677  -6.119  0.00  0.00     0.292 HD
ENDBRANCH  13  27
BRANCH  23  29
ATOM     29  C   LIG d   1       1.769  -1.760 -10.672  0.00  0.00    -0.007 A 
ATOM     30  C   LIG d   1       1.219  -1.192 -11.807  0.00  0.00    -0.052 A 
ATOM     31  C   LIG d   1       0.348  -1.921 -12.592  0.00  0.00    -0.020 A 
ATOM     32  H   LIG d   1       1.475  -0.180 -12.081  0.00  0.00     0.062 H 
ATOM     33  C   LIG d   1       0.025  -3.224 -12.242  0.00  0.00     0.117 A 
ATOM     34  H   LIG d   1      -0.082  -1.478 -13.478  0.00  0.00     0.065 H 
ATOM     35  C   LIG d   1       0.578  -3.792 -11.103  0.00  0.00    -0.020 A 
ATOM     36  C   LIG d   1       1.450  -3.059 -10.321  0.00  0.00    -0.052 A 
ATOM     37  H   LIG d   1       0.328  -4.806 -10.828  0.00  0.00     0.065 H 
ATOM     38  H   LIG d   1       1.880  -3.500  -9.435  0.00  0.00     0.062 H 
BRANCH  33  39
ATOM     39  O   LIG d   1      -0.833  -3.945 -13.013  0.00  0.00    -0.507 OA
ATOM     40  H   LIG d   1      -1.270  -3.428 -13.703  0.00  0.00     0.292 HD
ENDBRANCH  33  39
ENDBRANCH  23  29
BRANCH  20  41
ATOM     41  O   LIG d   1       6.398   2.144  -8.363  0.00  0.00    -0.505 OA
ATOM     42  H   LIG d   1       5.884   2.652  -7.720  0.00  0.00     0.292 HD
ENDBRANCH  20  41
ENDBRANCH   1  12
BRANCH   3  43
ATOM     43  O   LIG d   1       6.933   1.154  -4.924  0.00  0.00    -0.340 OA
BRANCH  43  44
ATOM     44  C   LIG d   1       6.239   0.502  -3.858  0.00  0.00     0.188 C 
ATOM     45  H   LIG d   1       6.959   0.023  -3.196  0.00  0.00     0.094 H 
ATOM     46  O   LIG d   1       5.483   1.466  -3.122  0.00  0.00    -0.346 OA
ATOM     47  C   LIG d   1       4.767   0.921  -2.012  0.00  0.00     0.079 C 
ATOM     48  C   LIG d   1       3.762  -0.119  -2.515  0.00  0.00     0.107 C 
ATOM     49  H   LIG d   1       4.235   1.720  -1.496  0.00  0.00     0.059 H 
ATOM     50  H   LIG d   1       5.467   0.446  -1.325  0.00  0.00     0.059 H 
ATOM     51  C   LIG d   1       4.510  -1.207  -3.292  0.00  0.00     0.114 C 
ATOM     52  H   LIG d   1       3.246  -0.567  -1.666  0.00  0.00     0.064 H 
ATOM     53  C   LIG d   1       5.294  -0.555  -4.435  0.00  0.00     0.134 C 
ATOM     54  H   LIG d   1       5.201  -1.722  -2.623  0.00  0.00     0.065 H 
ATOM     55  H   LIG d   1       5.873  -1.315  -4.960  0.00  0.00     0.067 H 
BRANCH  48  56
ATOM     56  O   LIG d   1       2.809   0.511  -3.374  0.00  0.00    -0.387 OA
ATOM     57  H   LIG d   1       2.087  -0.069  -3.654  0.00  0.00     0.210 HD
ENDBRANCH  48  56
BRANCH  51  58
ATOM     58  O   LIG d   1       3.574  -2.144  -3.827  0.00  0.00    -0.386 OA
ATOM     59  H   LIG d   1       3.013  -2.564  -3.161  0.00  0.00     0.210 HD
ENDBRANCH  51  58
BRANCH  53  60
ATOM     60  O   LIG d   1       4.384   0.065  -5.346  0.00  0.00    -0.384 OA
ATOM     61  H   LIG d   1       3.822   0.741  -4.943  0.00  0.00     0.210 HD
ENDBRANCH  53  60
ENDBRANCH  43  44
ENDBRANCH   3  43
BRANCH   9  62
ATOM     62  C   LIG d   1      10.764   2.011  -7.058  0.00  0.00     0.073 C 
ATOM     63  H   LIG d   1      10.523   2.161  -8.111  0.00  0.00     0.058 H 
ATOM     64  H   LIG d   1      10.067   2.578  -6.441  0.00  0.00     0.058 H 
BRANCH  62  65
ATOM     65  O   LIG d   1      12.097   2.459  -6.806  0.00  0.00    -0.392 OA
ATOM     66  H   LIG d   1      12.153   3.203  -6.191  0.00  0.00     0.209 HD
ENDBRANCH  62  65
ENDBRANCH   9  62
BRANCH   5  67
ATOM     67  O   LIG d   1       9.416   2.448  -4.923  0.00  0.00    -0.387 OA
ATOM     68  H   LIG d   1       9.301   3.002  -4.139  0.00  0.00     0.210 HD
ENDBRANCH   5  67
BRANCH   7  69
ATOM     69  O   LIG d   1      11.752   0.935  -4.603  0.00  0.00    -0.387 OA
ATOM     70  H   LIG d   1      12.056   0.481  -3.805  0.00  0.00     0.210 HD
ENDBRANCH   7  69
TORSDOF 14
ENDMDL
MODEL 3
REMARK VINA RESULT:      -6.2      2.979      8.972
REMARK  14 active torsions:
REMARK  status: ('A' for Active; 'I' for Inactive)
REMARK    1  A    between atoms: C_3  and  O_50 
REMARK    2  A    between atoms: C_6  and  C_7 
REMARK    3  A    between atoms: C_15  and  O_48 
REMARK    4  A    between atoms: C_16  and  C_19 
REMARK    5  A    between atoms: C_17  and  O_18 
REMARK    6  A    between atoms: C_21  and  O_34 
REMARK    7  A    between atoms: C_23  and  O_33 
REMARK    8  A    between atoms: C_25  and  O_32 
REMARK    9  A    between atoms: C_27  and  C_30 
REMARK   10  A    between atoms: C_30  and  O_31 
REMARK   11  A    between atoms: O_34  and  C_35 
REMARK   12  A    between atoms: C_37  and  O_47 
REMARK   13  A    between atoms: C_39  and  O_46 
REMARK   14  A    between atoms: C_41  and  O_45 
ROOT
ATOM      1  C   LIG d   1       8.230  -0.923  -6.197  0.00  0.00     0.120 C 
ATOM      2  H   LIG d   1       7.965  -0.562  -7.191  0.00  0.00     0.068 H 
ATOM      3  C   LIG d   1       7.602  -0.014  -5.138  0.00  0.00     0.120 C 
ATOM      4  H   LIG d   1       7.832  -0.400  -4.145  0.00  0.00     0.065 H 
ATOM      5  C   LIG d   1       8.172   1.399  -5.285  0.00  0.00     0.112 C 
ATOM      6  H   LIG d   1       7.772   2.038  -4.499  0.00  0.00     0.065 H 
ATOM      7  C   LIG d   1       9.699   1.337  -5.165  0.00  0.00     0.112 C 
ATOM      8  H   LIG d   1       9.972   0.979  -4.172  0.00  0.00     0.065 H 
ATOM      9  C   LIG d   1      10.246   0.376  -6.223  0.00  0.00     0.111 C 
ATOM     10  H   LIG d   1      11.328   0.294  -6.115  0.00  0.00     0.065 H 
ATOM     11  O   LIG d   1       9.652  -0.912  -6.049  0.00  0.00    -0.361 OA
ENDROOT
BRANCH   1  12
ATOM     12  C   LIG d   1       7.718  -2.329  -6.022  0.00  0.00     0.067 A 
ATOM     13  C   LIG d   1       8.228  -3.133  -5.010  0.00  0.00     0.130 A 
ATOM     14  C   LIG d   1       7.768  -4.433  -4.836  0.00  0.00     0.023 A 
ATOM     15  C   LIG d   1       6.792  -4.943  -5.674  0.00  0.00     0.139 A 
ATOM     16  H   LIG d   1       8.174  -5.046  -4.046  0.00  0.00     0.069 H 
ATOM     17  C   LIG d   1       6.268  -4.130  -6.696  0.00  0.00     0.101 A 
ATOM     18  O   LIG d   1       6.357  -6.214  -5.507  0.00  0.00    -0.483 OA
ATOM     19  C   LIG d   1       5.225  -4.672  -7.573  0.00  0.00     0.174 C 
ATOM     20  C   LIG d   1       6.739  -2.820  -6.870  0.00  0.00     0.140 A 
ATOM     21  C   LIG d   1       4.985  -6.169  -7.499  0.00  0.00     0.052 C 
ATOM     22  O   LIG d   1       4.586  -3.960  -8.321  0.00  0.00    -0.292 OA
ATOM     23  C   LIG d   1       5.073  -6.571  -6.019  0.00  0.00     0.132 C 
ATOM     24  H   LIG d   1       5.749  -6.697  -8.072  0.00  0.00     0.038 H 
ATOM     25  H   LIG d   1       3.996  -6.407  -7.890  0.00  0.00     0.038 H 
ATOM     26  H   LIG d   1       4.299  -6.050  -5.455  0.00  0.00     0.079 H 
BRANCH  13  27
ATOM     27  O   LIG d   1       9.185  -2.643  -4.182  0.00  0.00    -0.506 OA
ATOM     28  H   LIG d   1       9.363  -3.202  -3.413  0.00  0.00     0.292 HD
ENDBRANCH  13  27
BRANCH  23  29
ATOM     29  C   LIG d   1       4.874  -8.059  -5.888  0.00  0.00    -0.007 A 
ATOM     30  C   LIG d   1       4.809  -8.639  -4.635  0.00  0.00    -0.052 A 
ATOM     31  C   LIG d   1       4.626 -10.003  -4.514  0.00  0.00    -0.020 A 
ATOM     32  H   LIG d   1       4.896  -8.025  -3.751  0.00  0.00     0.062 H 
ATOM     33  C   LIG d   1       4.508 -10.790  -5.649  0.00  0.00     0.117 A 
ATOM     34  H   LIG d   1       4.575 -10.456  -3.534  0.00  0.00     0.065 H 
ATOM     35  C   LIG d   1       4.574 -10.205  -6.906  0.00  0.00    -0.020 A 
ATOM     36  C   LIG d   1       4.757  -8.840  -7.023  0.00  0.00    -0.052 A 
ATOM     37  H   LIG d   1       4.483 -10.816  -7.792  0.00  0.00     0.065 H 
ATOM     38  H   LIG d   1       4.808  -8.385  -8.000  0.00  0.00     0.062 H 
BRANCH  33  39
ATOM     39  O   LIG d   1       4.328 -12.132  -5.533  0.00  0.00    -0.507 OA
ATOM     40  H   LIG d   1       3.962 -12.408  -4.682  0.00  0.00     0.292 HD
ENDBRANCH  33  39
ENDBRANCH  23  29
BRANCH  20  41
ATOM     41  O   LIG d   1       6.240  -2.039  -7.860  0.00  0.00    -0.505 OA
ATOM     42  H   LIG d   1       5.384  -1.641  -7.653  0.00  0.00     0.292 HD
ENDBRANCH  20  41
ENDBRANCH   1  12
BRANCH   3  43
ATOM     43  O   LIG d   1       6.185   0.020  -5.320  0.00  0.00    -0.340 OA
BRANCH  43  44
ATOM     44  C   LIG d   1       5.441  -0.017  -4.099  0.00  0.00     0.188 C 
ATOM     45  H   LIG d   1       6.086   0.280  -3.273  0.00  0.00     0.094 H 
ATOM     46  O   LIG d   1       4.335   0.884  -4.188  0.00  0.00    -0.346 OA
ATOM     47  C   LIG d   1       3.536   0.944  -3.006  0.00  0.00     0.079 C 
ATOM     48  C   LIG d   1       2.942  -0.439  -2.721  0.00  0.00     0.107 C 
ATOM     49  H   LIG d   1       2.730   1.663  -3.148  0.00  0.00     0.059 H 
ATOM     50  H   LIG d   1       4.155   1.253  -2.163  0.00  0.00     0.059 H 
ATOM     51  C   LIG d   1       4.079  -1.456  -2.582  0.00  0.00     0.114 C 
ATOM     52  H   LIG d   1       2.368  -0.405  -1.795  0.00  0.00     0.064 H 
ATOM     53  C   LIG d   1       4.924  -1.437  -3.859  0.00  0.00     0.134 C 
ATOM     54  H   LIG d   1       4.703  -1.191  -1.728  0.00  0.00     0.065 H 
ATOM     55  H   LIG d   1       5.768  -2.118  -3.747  0.00  0.00     0.067 H 
BRANCH  48  56
ATOM     56  O   LIG d   1       2.086  -0.824  -3.799  0.00  0.00    -0.387 OA
ATOM     57  H   LIG d   1       1.492  -1.558  -3.588  0.00  0.00     0.210 HD
ENDBRANCH  48  56
BRANCH  51  58
ATOM     58  O   LIG d   1       3.534  -2.762  -2.388  0.00  0.00    -0.386 OA
ATOM     59  H   LIG d   1       3.257  -2.942  -1.479  0.00  0.00     0.210 HD
ENDBRANCH  51  58
BRANCH  53  60
ATOM     60  O   LIG d   1       4.124  -1.848  -4.969  0.00  0.00    -0.384 OA
ATOM     61  H   LIG d   1       3.310  -1.337  -5.078  0.00  0.00     0.210 HD
ENDBRANCH  53  60
ENDBRANCH  43  44
ENDBRANCH   3  43
BRANCH   9  62
ATOM     62  C   LIG d   1       9.912   0.908  -7.618  0.00  0.00     0.073 C 
ATOM     63  H   LIG d   1      10.039   0.110  -8.351  0.00  0.00     0.058 H 
ATOM     64  H   LIG d   1       8.879   1.256  -7.636  0.00  0.00     0.058 H 
BRANCH  62  65
ATOM     65  O   LIG d   1      10.786   1.992  -7.938  0.00  0.00    -0.392 OA
ATOM     66  H   LIG d   1      10.803   2.221  -8.877  0.00  0.00     0.209 HD
ENDBRANCH  62  65
ENDBRANCH   9  62
BRANCH   5  67
ATOM     67  O   LIG d   1       7.813   1.930  -6.562  0.00  0.00    -0.387 OA
ATOM     68  H   LIG d   1       6.963   1.612  -6.895  0.00  0.00     0.210 HD
ENDBRANCH   5  67
BRANCH   7  69
ATOM     69  O   LIG d   1      10.248   2.640  -5.372  0.00  0.00    -0.387 OA
ATOM     70  H   LIG d   1      10.599   2.782  -6.261  0.00  0.00     0.210 HD
ENDBRANCH   7  69
TORSDOF 14
ENDMDL
MODEL 4
REMARK VINA RESULT:      -6.1      0.994      2.099
REMARK  14 active torsions:
REMARK  status: ('A' for Active; 'I' for Inactive)
REMARK    1  A    between atoms: C_3  and  O_50 
REMARK    2  A    between atoms: C_6  and  C_7 
REMARK    3  A    between atoms: C_15  and  O_48 
REMARK    4  A    between atoms: C_16  and  C_19 
REMARK    5  A    between atoms: C_17  and  O_18 
REMARK    6  A    between atoms: C_21  and  O_34 
REMARK    7  A    between atoms: C_23  and  O_33 
REMARK    8  A    between atoms: C_25  and  O_32 
REMARK    9  A    between atoms: C_27  and  C_30 
REMARK   10  A    between atoms: C_30  and  O_31 
REMARK   11  A    between atoms: O_34  and  C_35 
REMARK   12  A    between atoms: C_37  and  O_47 
REMARK   13  A    between atoms: C_39  and  O_46 
REMARK   14  A    between atoms: C_41  and  O_45 
ROOT
ATOM      1  C   LIG d   1       5.705  -3.682  -6.084  0.00  0.00     0.120 C 
ATOM      2  H   LIG d   1       4.999  -3.837  -5.268  0.00  0.00     0.068 H 
ATOM      3  C   LIG d   1       4.939  -3.480  -7.393  0.00  0.00     0.120 C 
ATOM      4  H   LIG d   1       5.643  -3.284  -8.201  0.00  0.00     0.065 H 
ATOM      5  C   LIG d   1       4.138  -4.747  -7.708  0.00  0.00     0.112 C 
ATOM      6  H   LIG d   1       3.634  -4.631  -8.667  0.00  0.00     0.065 H 
ATOM      7  C   LIG d   1       5.096  -5.941  -7.773  0.00  0.00     0.112 C 
ATOM      8  H   LIG d   1       5.803  -5.795  -8.590  0.00  0.00     0.065 H 
ATOM      9  C   LIG d   1       5.857  -6.047  -6.450  0.00  0.00     0.111 C 
ATOM     10  H   LIG d   1       6.571  -6.868  -6.507  0.00  0.00     0.065 H 
ATOM     11  O   LIG d   1       6.555  -4.825  -6.203  0.00  0.00    -0.361 OA
ENDROOT
BRANCH   1  12
ATOM     12  C   LIG d   1       6.542  -2.461  -5.798  0.00  0.00     0.067 A 
ATOM     13  C   LIG d   1       7.815  -2.349  -6.342  0.00  0.00     0.130 A 
ATOM     14  C   LIG d   1       8.601  -1.233  -6.087  0.00  0.00     0.023 A 
ATOM     15  C   LIG d   1       8.121  -0.214  -5.283  0.00  0.00     0.139 A 
ATOM     16  H   LIG d   1       9.588  -1.159  -6.517  0.00  0.00     0.069 H 
ATOM     17  C   LIG d   1       6.829  -0.321  -4.734  0.00  0.00     0.101 A 
ATOM     18  O   LIG d   1       8.895   0.867  -5.027  0.00  0.00    -0.483 OA
ATOM     19  C   LIG d   1       6.321   0.768  -3.892  0.00  0.00     0.174 C 
ATOM     20  C   LIG d   1       6.042  -1.453  -4.992  0.00  0.00     0.140 A 
ATOM     21  C   LIG d   1       7.332   1.804  -3.437  0.00  0.00     0.052 C 
ATOM     22  O   LIG d   1       5.150   0.836  -3.575  0.00  0.00    -0.292 OA
ATOM     23  C   LIG d   1       8.264   2.082  -4.626  0.00  0.00     0.132 C 
ATOM     24  H   LIG d   1       7.909   1.416  -2.597  0.00  0.00     0.038 H 
ATOM     25  H   LIG d   1       6.819   2.720  -3.145  0.00  0.00     0.038 H 
ATOM     26  H   LIG d   1       7.682   2.482  -5.458  0.00  0.00     0.079 H 
BRANCH  13  27
ATOM     27  O   LIG d   1       8.297  -3.342  -7.134  0.00  0.00    -0.506 OA
ATOM     28  H   LIG d   1       8.937  -3.918  -6.695  0.00  0.00     0.292 HD
ENDBRANCH  13  27
BRANCH  23  29
ATOM     29  C   LIG d   1       9.313   3.085  -4.220  0.00  0.00    -0.007 A 
ATOM     30  C   LIG d   1       9.543   4.200  -5.005  0.00  0.00    -0.052 A 
ATOM     31  C   LIG d   1      10.504   5.120  -4.633  0.00  0.00    -0.020 A 
ATOM     32  H   LIG d   1       8.968   4.353  -5.905  0.00  0.00     0.062 H 
ATOM     33  C   LIG d   1      11.238   4.925  -3.473  0.00  0.00     0.117 A 
ATOM     34  H   LIG d   1      10.684   5.991  -5.246  0.00  0.00     0.065 H 
ATOM     35  C   LIG d   1      11.005   3.805  -2.687  0.00  0.00    -0.020 A 
ATOM     36  C   LIG d   1      10.043   2.887  -3.063  0.00  0.00    -0.052 A 
ATOM     37  H   LIG d   1      11.576   3.650  -1.783  0.00  0.00     0.065 H 
ATOM     38  H   LIG d   1       9.862   2.016  -2.451  0.00  0.00     0.062 H 
BRANCH  33  39
ATOM     39  O   LIG d   1      12.185   5.828  -3.105  0.00  0.00    -0.507 OA
ATOM     40  H   LIG d   1      12.281   5.930  -2.148  0.00  0.00     0.292 HD
ENDBRANCH  33  39
ENDBRANCH  23  29
BRANCH  20  41
ATOM     41  O   LIG d   1       4.800  -1.560  -4.457  0.00  0.00    -0.505 OA
ATOM     42  H   LIG d   1       4.212  -2.152  -4.945  0.00  0.00     0.292 HD
ENDBRANCH  20  41
ENDBRANCH   1  12
BRANCH   3  43
ATOM     43  O   LIG d   1       4.047  -2.371  -7.258  0.00  0.00    -0.340 OA
BRANCH  43  44
ATOM     44  C   LIG d   1       4.068  -1.469  -8.367  0.00  0.00     0.188 C 
ATOM     45  H   LIG d   1       4.662  -1.899  -9.172  0.00  0.00     0.094 H 
ATOM     46  O   LIG d   1       2.733  -1.246  -8.825  0.00  0.00    -0.346 OA
ATOM     47  C   LIG d   1       2.643  -0.374  -9.953  0.00  0.00     0.079 C 
ATOM     48  C   LIG d   1       3.204   1.002  -9.580  0.00  0.00     0.107 C 
ATOM     49  H   LIG d   1       1.600  -0.272 -10.250  0.00  0.00     0.059 H 
ATOM     50  H   LIG d   1       3.219  -0.788 -10.781  0.00  0.00     0.059 H 
ATOM     51  C   LIG d   1       4.652   0.842  -9.106  0.00  0.00     0.114 C 
ATOM     52  H   LIG d   1       3.176   1.654 -10.453  0.00  0.00     0.064 H 
ATOM     53  C   LIG d   1       4.687  -0.139  -7.930  0.00  0.00     0.134 C 
ATOM     54  H   LIG d   1       5.262   0.455  -9.922  0.00  0.00     0.065 H 
ATOM     55  H   LIG d   1       5.720  -0.300  -7.621  0.00  0.00     0.067 H 
BRANCH  48  56
ATOM     56  O   LIG d   1       2.418   1.571  -8.531  0.00  0.00    -0.387 OA
ATOM     57  H   LIG d   1       2.183   2.499  -8.676  0.00  0.00     0.210 HD
ENDBRANCH  48  56
BRANCH  51  58
ATOM     58  O   LIG d   1       5.162   2.109  -8.687  0.00  0.00    -0.386 OA
ATOM     59  H   LIG d   1       4.589   2.578  -8.064  0.00  0.00     0.210 HD
ENDBRANCH  51  58
BRANCH  53  60
ATOM     60  O   LIG d   1       3.941   0.399  -6.836  0.00  0.00    -0.384 OA
ATOM     61  H   LIG d   1       4.231   0.084  -5.969  0.00  0.00     0.210 HD
ENDBRANCH  53  60
ENDBRANCH  43  44
ENDBRANCH   3  43
BRANCH   9  62
ATOM     62  C   LIG d   1       4.868  -6.309  -5.312  0.00  0.00     0.073 C 
ATOM     63  H   LIG d   1       5.347  -6.093  -4.357  0.00  0.00     0.058 H 
ATOM     64  H   LIG d   1       3.996  -5.666  -5.434  0.00  0.00     0.058 H 
BRANCH  62  65
ATOM     65  O   LIG d   1       4.459  -7.678  -5.340  0.00  0.00    -0.392 OA
ATOM     66  H   LIG d   1       3.945  -7.951  -4.568  0.00  0.00     0.209 HD
ENDBRANCH  62  65
ENDBRANCH   9  62
BRANCH   5  67
ATOM     67  O   LIG d   1       3.168  -4.967  -6.681  0.00  0.00    -0.387 OA
ATOM     68  H   LIG d   1       2.278  -4.666  -6.910  0.00  0.00     0.210 HD
ENDBRANCH   5  67
BRANCH   7  69
ATOM     69  O   LIG d   1       4.351  -7.140  -7.996  0.00  0.00    -0.387 OA
ATOM     70  H   LIG d   1       3.393  -7.012  -7.997  0.00  0.00     0.210 HD
ENDBRANCH   7  69
TORSDOF 14
ENDMDL
MODEL 5
REMARK VINA RESULT:      -6.0      3.852      8.389
REMARK  14 active torsions:
REMARK  status: ('A' for Active; 'I' for Inactive)
REMARK    1  A    between atoms: C_3  and  O_50 
REMARK    2  A    between atoms: C_6  and  C_7 
REMARK    3  A    between atoms: C_15  and  O_48 
REMARK    4  A    between atoms: C_16  and  C_19 
REMARK    5  A    between atoms: C_17  and  O_18 
REMARK    6  A    between atoms: C_21  and  O_34 
REMARK    7  A    between atoms: C_23  and  O_33 
REMARK    8  A    between atoms: C_25  and  O_32 
REMARK    9  A    between atoms: C_27  and  C_30 
REMARK   10  A    between atoms: C_30  and  O_31 
REMARK   11  A    between atoms: O_34  and  C_35 
REMARK   12  A    between atoms: C_37  and  O_47 
REMARK   13  A    between atoms: C_39  and  O_46 
REMARK   14  A    between atoms: C_41  and  O_45 
ROOT
ATOM      1  C   LIG d   1       7.395  -3.279  -6.006  0.00  0.00     0.120 C 
ATOM      2  H   LIG d   1       8.118  -2.571  -6.411  0.00  0.00     0.068 H 
ATOM      3  C   LIG d   1       6.976  -2.836  -4.602  0.00  0.00     0.120 C 
ATOM      4  H   LIG d   1       6.222  -3.519  -4.214  0.00  0.00     0.065 H 
ATOM      5  C   LIG d   1       8.202  -2.849  -3.684  0.00  0.00     0.112 C 
ATOM      6  H   LIG d   1       7.901  -2.589  -2.670  0.00  0.00     0.065 H 
ATOM      7  C   LIG d   1       8.816  -4.253  -3.691  0.00  0.00     0.112 C 
ATOM      8  H   LIG d   1       8.100  -4.966  -3.284  0.00  0.00     0.065 H 
ATOM      9  C   LIG d   1       9.163  -4.641  -5.130  0.00  0.00     0.111 C 
ATOM     10  H   LIG d   1       9.561  -5.656  -5.147  0.00  0.00     0.065 H 
ATOM     11  O   LIG d   1       7.986  -4.578  -5.937  0.00  0.00    -0.361 OA
ENDROOT
BRANCH   1  12
ATOM     12  C   LIG d   1       6.183  -3.324  -6.901  0.00  0.00     0.067 A 
ATOM     13  C   LIG d   1       5.332  -4.422  -6.863  0.00  0.00     0.130 A 
ATOM     14  C   LIG d   1       4.212  -4.481  -7.682  0.00  0.00     0.023 A 
ATOM     15  C   LIG d   1       3.930  -3.442  -8.551  0.00  0.00     0.139 A 
ATOM     16  H   LIG d   1       3.560  -5.341  -7.642  0.00  0.00     0.069 H 
ATOM     17  C   LIG d   1       4.786  -2.325  -8.588  0.00  0.00     0.101 A 
ATOM     18  O   LIG d   1       2.844  -3.510  -9.356  0.00  0.00    -0.483 OA
ATOM     19  C   LIG d   1       4.475  -1.220  -9.502  0.00  0.00     0.174 C 
ATOM     20  C   LIG d   1       5.918  -2.272  -7.761  0.00  0.00     0.140 A 
ATOM     21  C   LIG d   1       3.410  -1.484 -10.551  0.00  0.00     0.052 C 
ATOM     22  O   LIG d   1       5.042  -0.149  -9.424  0.00  0.00    -0.292 OA
ATOM     23  C   LIG d   1       2.297  -2.297  -9.872  0.00  0.00     0.132 C 
ATOM     24  H   LIG d   1       3.835  -2.055 -11.376  0.00  0.00     0.038 H 
ATOM     25  H   LIG d   1       3.008  -0.541 -10.919  0.00  0.00     0.038 H 
ATOM     26  H   LIG d   1       1.868  -1.715  -9.056  0.00  0.00     0.079 H 
BRANCH  13  27
ATOM     27  O   LIG d   1       5.598  -5.448  -6.014  0.00  0.00    -0.506 OA
ATOM     28  H   LIG d   1       5.254  -5.316  -5.120  0.00  0.00     0.292 HD
ENDBRANCH  13  27
BRANCH  23  29
ATOM     29  C   LIG d   1       1.223  -2.618 -10.879  0.00  0.00    -0.007 A 
ATOM     30  C   LIG d   1       0.954  -1.733 -11.907  0.00  0.00    -0.052 A 
ATOM     31  C   LIG d   1      -0.030  -2.025 -12.831  0.00  0.00    -0.020 A 
ATOM     32  H   LIG d   1       1.517  -0.815 -11.990  0.00  0.00     0.062 H 
ATOM     33  C   LIG d   1      -0.749  -3.207 -12.727  0.00  0.00     0.117 A 
ATOM     34  H   LIG d   1      -0.240  -1.334 -13.634  0.00  0.00     0.065 H 
ATOM     35  C   LIG d   1      -0.478  -4.093 -11.695  0.00  0.00    -0.020 A 
ATOM     36  C   LIG d   1       0.508  -3.796 -10.772  0.00  0.00    -0.052 A 
ATOM     37  H   LIG d   1      -1.037  -5.014 -11.611  0.00  0.00     0.065 H 
ATOM     38  H   LIG d   1       0.719  -4.486  -9.969  0.00  0.00     0.062 H 
BRANCH  33  39
ATOM     39  O   LIG d   1      -1.719  -3.497 -13.635  0.00  0.00    -0.507 OA
ATOM     40  H   LIG d   1      -2.594  -3.164 -13.396  0.00  0.00     0.292 HD
ENDBRANCH  33  39
ENDBRANCH  23  29
BRANCH  20  41
ATOM     41  O   LIG d   1       6.747  -1.200  -7.803  0.00  0.00    -0.505 OA
ATOM     42  H   LIG d   1       7.112  -1.020  -8.680  0.00  0.00     0.292 HD
ENDBRANCH  20  41
ENDBRANCH   1  12
BRANCH   3  43
ATOM     43  O   LIG d   1       6.437  -1.513  -4.660  0.00  0.00    -0.340 OA
BRANCH  43  44
ATOM     44  C   LIG d   1       5.329  -1.298  -3.783  0.00  0.00     0.188 C 
ATOM     45  H   LIG d   1       5.147  -2.201  -3.200  0.00  0.00     0.094 H 
ATOM     46  O   LIG d   1       5.623  -0.213  -2.901  0.00  0.00    -0.346 OA
ATOM     47  C   LIG d   1       4.587   0.071  -1.959  0.00  0.00     0.079 C 
ATOM     48  C   LIG d   1       3.311   0.462  -2.710  0.00  0.00     0.107 C 
ATOM     49  H   LIG d   1       4.896   0.893  -1.315  0.00  0.00     0.059 H 
ATOM     50  H   LIG d   1       4.394  -0.814  -1.353  0.00  0.00     0.059 H 
ATOM     51  C   LIG d   1       2.915  -0.674  -3.657  0.00  0.00     0.114 C 
ATOM     52  H   LIG d   1       2.507   0.636  -1.994  0.00  0.00     0.064 H 
ATOM     53  C   LIG d   1       4.083  -0.963  -4.606  0.00  0.00     0.134 C 
ATOM     54  H   LIG d   1       2.687  -1.570  -3.078  0.00  0.00     0.065 H 
ATOM     55  H   LIG d   1       3.831  -1.807  -5.248  0.00  0.00     0.067 H 
BRANCH  48  56
ATOM     56  O   LIG d   1       3.545   1.653  -3.464  0.00  0.00    -0.387 OA
ATOM     57  H   LIG d   1       4.437   1.715  -3.834  0.00  0.00     0.210 HD
ENDBRANCH  48  56
BRANCH  51  58
ATOM     58  O   LIG d   1       1.767  -0.290  -4.415  0.00  0.00    -0.386 OA
ATOM     59  H   LIG d   1       1.606  -0.844  -5.193  0.00  0.00     0.210 HD
ENDBRANCH  51  58
BRANCH  53  60
ATOM     60  O   LIG d   1       4.340   0.189  -5.412  0.00  0.00    -0.384 OA
ATOM     61  H   LIG d   1       5.008   0.785  -5.046  0.00  0.00     0.210 HD
ENDBRANCH  53  60
ENDBRANCH  43  44
ENDBRANCH   3  43
BRANCH   9  62
ATOM     62  C   LIG d   1      10.212  -3.674  -5.682  0.00  0.00     0.073 C 
ATOM     63  H   LIG d   1      10.252  -3.762  -6.768  0.00  0.00     0.058 H 
ATOM     64  H   LIG d   1       9.943  -2.653  -5.410  0.00  0.00     0.058 H 
BRANCH  62  65
ATOM     65  O   LIG d   1      11.491  -3.992  -5.132  0.00  0.00    -0.392 OA
ATOM     66  H   LIG d   1      12.073  -3.227  -5.019  0.00  0.00     0.209 HD
ENDBRANCH  62  65
ENDBRANCH   9  62
BRANCH   5  67
ATOM     67  O   LIG d   1       9.163  -1.903  -4.156  0.00  0.00    -0.387 OA
ATOM     68  H   LIG d   1       9.984  -2.302  -4.476  0.00  0.00     0.210 HD
ENDBRANCH   5  67
BRANCH   7  69
ATOM     69  O   LIG d   1      10.002  -4.260  -2.894  0.00  0.00    -0.387 OA
ATOM     70  H   LIG d   1       9.865  -3.966  -1.984  0.00  0.00     0.210 HD
ENDBRANCH   7  69
TORSDOF 14
ENDMDL
MODEL 6
REMARK VINA RESULT:      -6.0      4.497      7.474
REMARK  14 active torsions:
REMARK  status: ('A' for Active; 'I' for Inactive)
REMARK    1  A    between atoms: C_3  and  O_50 
REMARK    2  A    between atoms: C_6  and  C_7 
REMARK    3  A    between atoms: C_15  and  O_48 
REMARK    4  A    between atoms: C_16  and  C_19 
REMARK    5  A    between atoms: C_17  and  O_18 
REMARK    6  A    between atoms: C_21  and  O_34 
REMARK    7  A    between atoms: C_23  and  O_33 
REMARK    8  A    between atoms: C_25  and  O_32 
REMARK    9  A    between atoms: C_27  and  C_30 
REMARK   10  A    between atoms: C_30  and  O_31 
REMARK   11  A    between atoms: O_34  and  C_35 
REMARK   12  A    between atoms: C_37  and  O_47 
REMARK   13  A    between atoms: C_39  and  O_46 
REMARK   14  A    between atoms: C_41  and  O_45 
ROOT
ATOM      1  C   LIG d   1       2.945  -2.454 -12.294  0.00  0.00     0.120 C 
ATOM      2  H   LIG d   1       3.834  -3.015 -12.583  0.00  0.00     0.068 H 
ATOM      3  C   LIG d   1       1.709  -3.346 -12.432  0.00  0.00     0.120 C 
ATOM      4  H   LIG d   1       0.826  -2.799 -12.103  0.00  0.00     0.065 H 
ATOM      5  C   LIG d   1       1.544  -3.754 -13.898  0.00  0.00     0.112 C 
ATOM      6  H   LIG d   1       0.635  -4.344 -14.013  0.00  0.00     0.065 H 
ATOM      7  C   LIG d   1       1.448  -2.491 -14.761  0.00  0.00     0.112 C 
ATOM      8  H   LIG d   1       0.559  -1.926 -14.480  0.00  0.00     0.065 H 
ATOM      9  C   LIG d   1       2.693  -1.632 -14.533  0.00  0.00     0.111 C 
ATOM     10  H   LIG d   1       2.610  -0.711 -15.111  0.00  0.00     0.065 H 
ATOM     11  O   LIG d   1       2.804  -1.313 -13.145  0.00  0.00    -0.361 OA
ENDROOT
BRANCH   1  12
ATOM     12  C   LIG d   1       3.081  -2.000 -10.863  0.00  0.00     0.067 A 
ATOM     13  C   LIG d   1       2.064  -1.263 -10.269  0.00  0.00     0.130 A 
ATOM     14  C   LIG d   1       2.174  -0.835  -8.952  0.00  0.00     0.023 A 
ATOM     15  C   LIG d   1       3.304  -1.140  -8.214  0.00  0.00     0.139 A 
ATOM     16  H   LIG d   1       1.375  -0.263  -8.503  0.00  0.00     0.069 H 
ATOM     17  C   LIG d   1       4.334  -1.892  -8.810  0.00  0.00     0.101 A 
ATOM     18  O   LIG d   1       3.411  -0.710  -6.935  0.00  0.00    -0.483 OA
ATOM     19  C   LIG d   1       5.524  -2.222  -8.019  0.00  0.00     0.174 C 
ATOM     20  C   LIG d   1       4.219  -2.317 -10.142  0.00  0.00     0.140 A 
ATOM     21  C   LIG d   1       5.690  -1.487  -6.701  0.00  0.00     0.052 C 
ATOM     22  O   LIG d   1       6.335  -3.041  -8.399  0.00  0.00    -0.292 OA
ATOM     23  C   LIG d   1       4.299  -1.396  -6.054  0.00  0.00     0.132 C 
ATOM     24  H   LIG d   1       6.080  -0.485  -6.881  0.00  0.00     0.038 H 
ATOM     25  H   LIG d   1       6.367  -2.039  -6.050  0.00  0.00     0.038 H 
ATOM     26  H   LIG d   1       3.921  -2.401  -5.865  0.00  0.00     0.079 H 
BRANCH  13  27
ATOM     27  O   LIG d   1       0.950  -0.959 -10.983  0.00  0.00    -0.506 OA
ATOM     28  H   LIG d   1       0.852  -0.017 -11.175  0.00  0.00     0.292 HD
ENDBRANCH  13  27
BRANCH  23  29
ATOM     29  C   LIG d   1       4.399  -0.644  -4.752  0.00  0.00    -0.007 A 
ATOM     30  C   LIG d   1       5.638  -0.282  -4.257  0.00  0.00    -0.052 A 
ATOM     31  C   LIG d   1       5.731   0.408  -3.063  0.00  0.00    -0.020 A 
ATOM     32  H   LIG d   1       6.533  -0.534  -4.805  0.00  0.00     0.062 H 
ATOM     33  C   LIG d   1       4.580   0.736  -2.362  0.00  0.00     0.117 A 
ATOM     34  H   LIG d   1       6.699   0.691  -2.677  0.00  0.00     0.065 H 
ATOM     35  C   LIG d   1       3.337   0.371  -2.860  0.00  0.00    -0.020 A 
ATOM     36  C   LIG d   1       3.250  -0.319  -4.055  0.00  0.00    -0.052 A 
ATOM     37  H   LIG d   1       2.440   0.625  -2.316  0.00  0.00     0.065 H 
ATOM     38  H   LIG d   1       2.283  -0.603  -4.443  0.00  0.00     0.062 H 
BRANCH  33  39
ATOM     39  O   LIG d   1       4.668   1.415  -1.187  0.00  0.00    -0.507 OA
ATOM     40  H   LIG d   1       5.572   1.528  -0.864  0.00  0.00     0.292 HD
ENDBRANCH  33  39
ENDBRANCH  23  29
BRANCH  20  41
ATOM     41  O   LIG d   1       5.215  -3.034 -10.719  0.00  0.00    -0.505 OA
ATOM     42  H   LIG d   1       5.786  -2.515 -11.302  0.00  0.00     0.292 HD
ENDBRANCH  20  41
ENDBRANCH   1  12
BRANCH   3  43
ATOM     43  O   LIG d   1       1.873  -4.515 -11.626  0.00  0.00    -0.340 OA
BRANCH  43  44
ATOM     44  C   LIG d   1       0.703  -5.333 -11.542  0.00  0.00     0.188 C 
ATOM     45  H   LIG d   1       0.506  -5.784 -12.514  0.00  0.00     0.094 H 
ATOM     46  O   LIG d   1       0.909  -6.361 -10.572  0.00  0.00    -0.346 OA
ATOM     47  C   LIG d   1      -0.196  -7.255 -10.427  0.00  0.00     0.079 C 
ATOM     48  C   LIG d   1      -1.429  -6.471  -9.967  0.00  0.00     0.107 C 
ATOM     49  H   LIG d   1       0.047  -8.016  -9.686  0.00  0.00     0.059 H 
ATOM     50  H   LIG d   1      -0.406  -7.732 -11.384  0.00  0.00     0.059 H 
ATOM     51  C   LIG d   1      -1.729  -5.365 -10.983  0.00  0.00     0.114 C 
ATOM     52  H   LIG d   1      -2.283  -7.145  -9.899  0.00  0.00     0.064 H 
ATOM     53  C   LIG d   1      -0.493  -4.472 -11.129  0.00  0.00     0.134 C 
ATOM     54  H   LIG d   1      -1.972  -5.812 -11.948  0.00  0.00     0.065 H 
ATOM     55  H   LIG d   1      -0.678  -3.714 -11.890  0.00  0.00     0.067 H 
BRANCH  48  56
ATOM     56  O   LIG d   1      -1.176  -5.889  -8.687  0.00  0.00    -0.387 OA
ATOM     57  H   LIG d   1      -0.239  -5.724  -8.508  0.00  0.00     0.210 HD
ENDBRANCH  48  56
BRANCH  51  58
ATOM     58  O   LIG d   1      -2.834  -4.582 -10.527  0.00  0.00    -0.386 OA
ATOM     59  H   LIG d   1      -3.683  -5.043 -10.561  0.00  0.00     0.210 HD
ENDBRANCH  51  58
BRANCH  53  60
ATOM     60  O   LIG d   1      -0.213  -3.835  -9.880  0.00  0.00    -0.384 OA
ATOM     61  H   LIG d   1      -0.747  -4.161  -9.143  0.00  0.00     0.210 HD
ENDBRANCH  53  60
ENDBRANCH  43  44
ENDBRANCH   3  43
BRANCH   9  62
ATOM     62  C   LIG d   1       3.936  -2.404 -14.980  0.00  0.00     0.073 C 
ATOM     63  H   LIG d   1       4.795  -2.081 -14.392  0.00  0.00     0.058 H 
ATOM     64  H   LIG d   1       3.773  -3.471 -14.830  0.00  0.00     0.058 H 
BRANCH  62  65
ATOM     65  O   LIG d   1       4.184  -2.150 -16.364  0.00  0.00    -0.392 OA
ATOM     66  H   LIG d   1       5.094  -2.322 -16.639  0.00  0.00     0.209 HD
ENDBRANCH  62  65
ENDBRANCH   9  62
BRANCH   5  67
ATOM     67  O   LIG d   1       2.672  -4.530 -14.309  0.00  0.00    -0.387 OA
ATOM     68  H   LIG d   1       2.678  -5.431 -13.960  0.00  0.00     0.210 HD
ENDBRANCH   5  67
BRANCH   7  69
ATOM     69  O   LIG d   1       1.365  -2.859 -16.139  0.00  0.00    -0.387 OA
ATOM     70  H   LIG d   1       1.908  -2.314 -16.724  0.00  0.00     0.210 HD
ENDBRANCH   7  69
TORSDOF 14
ENDMDL
MODEL 7
REMARK VINA RESULT:      -6.0      3.400      5.393
REMARK  14 active torsions:
REMARK  status: ('A' for Active; 'I' for Inactive)
REMARK    1  A    between atoms: C_3  and  O_50 
REMARK    2  A    between atoms: C_6  and  C_7 
REMARK    3  A    between atoms: C_15  and  O_48 
REMARK    4  A    between atoms: C_16  and  C_19 
REMARK    5  A    between atoms: C_17  and  O_18 
REMARK    6  A    between atoms: C_21  and  O_34 
REMARK    7  A    between atoms: C_23  and  O_33 
REMARK    8  A    between atoms: C_25  and  O_32 
REMARK    9  A    between atoms: C_27  and  C_30 
REMARK   10  A    between atoms: C_30  and  O_31 
REMARK   11  A    between atoms: O_34  and  C_35 
REMARK   12  A    between atoms: C_37  and  O_47 
REMARK   13  A    between atoms: C_39  and  O_46 
REMARK   14  A    between atoms: C_41  and  O_45 
ROOT
ATOM      1  C   LIG d   1       9.356  -1.491  -5.044  0.00  0.00     0.120 C 
ATOM      2  H   LIG d   1      10.007  -1.394  -4.175  0.00  0.00     0.068 H 
ATOM      3  C   LIG d   1       7.940  -1.849  -4.584  0.00  0.00     0.120 C 
ATOM      4  H   LIG d   1       7.280  -1.904  -5.449  0.00  0.00     0.065 H 
ATOM      5  C   LIG d   1       7.970  -3.204  -3.873  0.00  0.00     0.112 C 
ATOM      6  H   LIG d   1       6.957  -3.492  -3.593  0.00  0.00     0.065 H 
ATOM      7  C   LIG d   1       8.555  -4.254  -4.823  0.00  0.00     0.112 C 
ATOM      8  H   LIG d   1       7.907  -4.359  -5.693  0.00  0.00     0.065 H 
ATOM      9  C   LIG d   1       9.946  -3.804  -5.274  0.00  0.00     0.111 C 
ATOM     10  H   LIG d   1      10.350  -4.525  -5.984  0.00  0.00     0.065 H 
ATOM     11  O   LIG d   1       9.852  -2.523  -5.899  0.00  0.00    -0.361 OA
ENDROOT
BRANCH   1  12
ATOM     12  C   LIG d   1       9.325  -0.185  -5.796  0.00  0.00     0.067 A 
ATOM     13  C   LIG d   1       8.555  -0.064  -6.946  0.00  0.00     0.130 A 
ATOM     14  C   LIG d   1       8.517   1.131  -7.653  0.00  0.00     0.023 A 
ATOM     15  C   LIG d   1       9.251   2.221  -7.216  0.00  0.00     0.139 A 
ATOM     16  H   LIG d   1       7.914   1.210  -8.545  0.00  0.00     0.069 H 
ATOM     17  C   LIG d   1      10.028   2.104  -6.048  0.00  0.00     0.101 A 
ATOM     18  O   LIG d   1       9.220   3.379  -7.916  0.00  0.00    -0.483 OA
ATOM     19  C   LIG d   1      10.793   3.266  -5.584  0.00  0.00     0.174 C 
ATOM     20  C   LIG d   1      10.065   0.893  -5.341  0.00  0.00     0.140 A 
ATOM     21  C   LIG d   1      10.921   4.427  -6.552  0.00  0.00     0.052 C 
ATOM     22  O   LIG d   1      11.299   3.297  -4.480  0.00  0.00    -0.292 OA
ATOM     23  C   LIG d   1       9.560   4.593  -7.246  0.00  0.00     0.132 C 
ATOM     24  H   LIG d   1      11.691   4.210  -7.294  0.00  0.00     0.038 H 
ATOM     25  H   LIG d   1      11.175   5.338  -6.010  0.00  0.00     0.038 H 
ATOM     26  H   LIG d   1       8.799   4.823  -6.500  0.00  0.00     0.079 H 
BRANCH  13  27
ATOM     27  O   LIG d   1       7.830  -1.126  -7.383  0.00  0.00    -0.506 OA
ATOM     28  H   LIG d   1       6.911  -0.913  -7.594  0.00  0.00     0.292 HD
ENDBRANCH  13  27
BRANCH  23  29
ATOM     29  C   LIG d   1       9.639   5.716  -8.247  0.00  0.00    -0.007 A 
ATOM     30  C   LIG d   1       9.411   5.464  -9.587  0.00  0.00    -0.052 A 
ATOM     31  C   LIG d   1       9.482   6.493 -10.506  0.00  0.00    -0.020 A 
ATOM     32  H   LIG d   1       9.173   4.463  -9.915  0.00  0.00     0.062 H 
ATOM     33  C   LIG d   1       9.783   7.779 -10.084  0.00  0.00     0.117 A 
ATOM     34  H   LIG d   1       9.305   6.295 -11.553  0.00  0.00     0.065 H 
ATOM     35  C   LIG d   1      10.011   8.030  -8.738  0.00  0.00    -0.020 A 
ATOM     36  C   LIG d   1       9.938   6.997  -7.822  0.00  0.00    -0.052 A 
ATOM     37  H   LIG d   1      10.245   9.031  -8.407  0.00  0.00     0.065 H 
ATOM     38  H   LIG d   1      10.116   7.192  -6.775  0.00  0.00     0.062 H 
BRANCH  33  39
ATOM     39  O   LIG d   1       9.853   8.794 -10.985  0.00  0.00    -0.507 OA
ATOM     40  H   LIG d   1      10.694   8.841 -11.460  0.00  0.00     0.292 HD
ENDBRANCH  33  39
ENDBRANCH  23  29
BRANCH  20  41
ATOM     41  O   LIG d   1      10.820   0.778  -4.220  0.00  0.00    -0.505 OA
ATOM     42  H   LIG d   1      11.618   1.323  -4.227  0.00  0.00     0.292 HD
ENDBRANCH  20  41
ENDBRANCH   1  12
BRANCH   3  43
ATOM     43  O   LIG d   1       7.463  -0.846  -3.684  0.00  0.00    -0.340 OA
BRANCH  43  44
ATOM     44  C   LIG d   1       6.247  -0.221  -4.101  0.00  0.00     0.188 C 
ATOM     45  H   LIG d   1       6.468   0.762  -4.514  0.00  0.00     0.094 H 
ATOM     46  O   LIG d   1       5.615  -1.027  -5.097  0.00  0.00    -0.346 OA
ATOM     47  C   LIG d   1       4.397  -0.478  -5.604  0.00  0.00     0.079 C 
ATOM     48  C   LIG d   1       3.387  -0.339  -4.461  0.00  0.00     0.107 C 
ATOM     49  H   LIG d   1       3.991  -1.139  -6.369  0.00  0.00     0.059 H 
ATOM     50  H   LIG d   1       4.593   0.503  -6.038  0.00  0.00     0.059 H 
ATOM     51  C   LIG d   1       3.988   0.544  -3.363  0.00  0.00     0.114 C 
ATOM     52  H   LIG d   1       2.473   0.121  -4.838  0.00  0.00     0.064 H 
ATOM     53  C   LIG d   1       5.312  -0.071  -2.898  0.00  0.00     0.134 C 
ATOM     54  H   LIG d   1       4.170   1.544  -3.758  0.00  0.00     0.065 H 
ATOM     55  H   LIG d   1       5.775   0.579  -2.155  0.00  0.00     0.067 H 
BRANCH  48  56
ATOM     56  O   LIG d   1       3.088  -1.630  -3.927  0.00  0.00    -0.387 OA
ATOM     57  H   LIG d   1       3.701  -1.921  -3.237  0.00  0.00     0.210 HD
ENDBRANCH  48  56
BRANCH  51  58
ATOM     58  O   LIG d   1       3.084   0.622  -2.260  0.00  0.00    -0.386 OA
ATOM     59  H   LIG d   1       3.319   1.294  -1.605  0.00  0.00     0.210 HD
ENDBRANCH  51  58
BRANCH  53  60
ATOM     60  O   LIG d   1       5.066  -1.355  -2.321  0.00  0.00    -0.384 OA
ATOM     61  H   LIG d   1       5.280  -2.096  -2.904  0.00  0.00     0.210 HD
ENDBRANCH  53  60
ENDBRANCH  43  44
ENDBRANCH   3  43
BRANCH   9  62
ATOM     62  C   LIG d   1      10.872  -3.711  -4.059  0.00  0.00     0.073 C 
ATOM     63  H   LIG d   1      11.757  -3.131  -4.320  0.00  0.00     0.058 H 
ATOM     64  H   LIG d   1      10.346  -3.222  -3.239  0.00  0.00     0.058 H 
BRANCH  62  65
ATOM     65  O   LIG d   1      11.265  -5.025  -3.657  0.00  0.00    -0.392 OA
ATOM     66  H   LIG d   1      11.726  -5.055  -2.808  0.00  0.00     0.209 HD
ENDBRANCH  62  65
ENDBRANCH   9  62
BRANCH   5  67
ATOM     67  O   LIG d   1       8.783  -3.113  -2.702  0.00  0.00    -0.387 OA
ATOM     68  H   LIG d   1       9.650  -3.530  -2.791  0.00  0.00     0.210 HD
ENDBRANCH   5  67
BRANCH   7  69
ATOM     69  O   LIG d   1       8.654  -5.509  -4.147  0.00  0.00    -0.387 OA
ATOM     70  H   LIG d   1       7.910  -6.104  -4.312  0.00  0.00     0.210 HD
ENDBRANCH   7  69
TORSDOF 14
ENDMDL
MODEL 8
REMARK VINA RESULT:      -6.0      2.972      8.427
REMARK  14 active torsions:
REMARK  status: ('A' for Active; 'I' for Inactive)
REMARK    1  A    between atoms: C_3  and  O_50 
REMARK    2  A    between atoms: C_6  and  C_7 
REMARK    3  A    between atoms: C_15  and  O_48 
REMARK    4  A    between atoms: C_16  and  C_19 
REMARK    5  A    between atoms: C_17  and  O_18 
REMARK    6  A    between atoms: C_21  and  O_34 
REMARK    7  A    between atoms: C_23  and  O_33 
REMARK    8  A    between atoms: C_25  and  O_32 
REMARK    9  A    between atoms: C_27  and  C_30 
REMARK   10  A    between atoms: C_30  and  O_31 
REMARK   11  A    between atoms: O_34  and  C_35 
REMARK   12  A    between atoms: C_37  and  O_47 
REMARK   13  A    between atoms: C_39  and  O_46 
REMARK   14  A    between atoms: C_41  and  O_45 
ROOT
ATOM      1  C   LIG d   1       4.680  -1.017  -4.942  0.00  0.00     0.120 C 
ATOM      2  H   LIG d   1       5.059  -1.926  -4.474  0.00  0.00     0.068 H 
ATOM      3  C   LIG d   1       5.749   0.077  -4.876  0.00  0.00     0.120 C 
ATOM      4  H   LIG d   1       5.386   0.972  -5.380  0.00  0.00     0.065 H 
ATOM      5  C   LIG d   1       6.049   0.399  -3.409  0.00  0.00     0.112 C 
ATOM      6  H   LIG d   1       6.768   1.216  -3.355  0.00  0.00     0.065 H 
ATOM      7  C   LIG d   1       4.749   0.815  -2.713  0.00  0.00     0.112 C 
ATOM      8  H   LIG d   1       4.365   1.726  -3.173  0.00  0.00     0.065 H 
ATOM      9  C   LIG d   1       3.718  -0.306  -2.863  0.00  0.00     0.111 C 
ATOM     10  H   LIG d   1       2.777   0.002  -2.407  0.00  0.00     0.065 H 
ATOM     11  O   LIG d   1       3.509  -0.578  -4.250  0.00  0.00    -0.361 OA
ENDROOT
BRANCH   1  12
ATOM     12  C   LIG d   1       4.338  -1.299  -6.382  0.00  0.00     0.067 A 
ATOM     13  C   LIG d   1       4.614  -2.545  -6.930  0.00  0.00     0.130 A 
ATOM     14  C   LIG d   1       4.307  -2.821  -8.257  0.00  0.00     0.023 A 
ATOM     15  C   LIG d   1       3.720  -1.852  -9.051  0.00  0.00     0.139 A 
ATOM     16  H   LIG d   1       4.527  -3.794  -8.669  0.00  0.00     0.069 H 
ATOM     17  C   LIG d   1       3.433  -0.590  -8.497  0.00  0.00     0.101 A 
ATOM     18  O   LIG d   1       3.434  -2.123 -10.346  0.00  0.00    -0.483 OA
ATOM     19  C   LIG d   1       2.799   0.429  -9.341  0.00  0.00     0.174 C 
ATOM     20  C   LIG d   1       3.749  -0.316  -7.158  0.00  0.00     0.140 A 
ATOM     21  C   LIG d   1       2.757   0.149 -10.832  0.00  0.00     0.052 C 
ATOM     22  O   LIG d   1       2.332   1.447  -8.870  0.00  0.00    -0.292 OA
ATOM     23  C   LIG d   1       2.435  -1.344 -11.004  0.00  0.00     0.132 C 
ATOM     24  H   LIG d   1       3.725   0.372 -11.279  0.00  0.00     0.038 H 
ATOM     25  H   LIG d   1       1.981   0.752 -11.302  0.00  0.00     0.038 H 
ATOM     26  H   LIG d   1       1.459  -1.558 -10.565  0.00  0.00     0.079 H 
BRANCH  13  27
ATOM     27  O   LIG d   1       5.189  -3.504  -6.160  0.00  0.00    -0.506 OA
ATOM     28  H   LIG d   1       6.060  -3.263  -5.818  0.00  0.00     0.292 HD
ENDBRANCH  13  27
BRANCH  23  29
ATOM     29  C   LIG d   1       2.412  -1.688 -12.470  0.00  0.00    -0.007 A 
ATOM     30  C   LIG d   1       1.343  -2.388 -12.999  0.00  0.00    -0.052 A 
ATOM     31  C   LIG d   1       1.321  -2.704 -14.343  0.00  0.00    -0.020 A 
ATOM     32  H   LIG d   1       0.524  -2.684 -12.361  0.00  0.00     0.062 H 
ATOM     33  C   LIG d   1       2.372  -2.319 -15.163  0.00  0.00     0.117 A 
ATOM     34  H   LIG d   1       0.486  -3.252 -14.756  0.00  0.00     0.065 H 
ATOM     35  C   LIG d   1       3.443  -1.616 -14.630  0.00  0.00    -0.020 A 
ATOM     36  C   LIG d   1       3.461  -1.302 -13.285  0.00  0.00    -0.052 A 
ATOM     37  H   LIG d   1       4.262  -1.316 -15.267  0.00  0.00     0.065 H 
ATOM     38  H   LIG d   1       4.294  -0.756 -12.870  0.00  0.00     0.062 H 
BRANCH  33  39
ATOM     39  O   LIG d   1       2.353  -2.629 -16.487  0.00  0.00    -0.507 OA
ATOM     40  H   LIG d   1       2.116  -1.888 -17.061  0.00  0.00     0.292 HD
ENDBRANCH  33  39
ENDBRANCH  23  29
BRANCH  20  41
ATOM     41  O   LIG d   1       3.480   0.903  -6.628  0.00  0.00    -0.505 OA
ATOM     42  H   LIG d   1       3.572   1.634  -7.255  0.00  0.00     0.292 HD
ENDBRANCH  20  41
ENDBRANCH   1  12
BRANCH   3  43
ATOM     43  O   LIG d   1       6.941  -0.382  -5.518  0.00  0.00    -0.340 OA
BRANCH  43  44
ATOM     44  C   LIG d   1       7.717   0.659  -6.115  0.00  0.00     0.188 C 
ATOM     45  H   LIG d   1       7.664   1.553  -5.495  0.00  0.00     0.094 H 
ATOM     46  O   LIG d   1       9.077   0.236  -6.226  0.00  0.00    -0.346 OA
ATOM     47  C   LIG d   1       9.949   1.217  -6.790  0.00  0.00     0.079 C 
ATOM     48  C   LIG d   1       9.487   1.552  -8.212  0.00  0.00     0.107 C 
ATOM     49  H   LIG d   1      10.965   0.825  -6.821  0.00  0.00     0.059 H 
ATOM     50  H   LIG d   1       9.925   2.119  -6.179  0.00  0.00     0.059 H 
ATOM     51  C   LIG d   1       8.038   2.045  -8.166  0.00  0.00     0.114 C 
ATOM     52  H   LIG d   1      10.125   2.332  -8.627  0.00  0.00     0.064 H 
ATOM     53  C   LIG d   1       7.165   0.972  -7.509  0.00  0.00     0.134 C 
ATOM     54  H   LIG d   1       7.984   2.966  -7.584  0.00  0.00     0.065 H 
ATOM     55  H   LIG d   1       6.142   1.336  -7.423  0.00  0.00     0.067 H 
BRANCH  48  56
ATOM     56  O   LIG d   1       9.569   0.382  -9.029  0.00  0.00    -0.387 OA
ATOM     57  H   LIG d   1      10.426  -0.066  -8.990  0.00  0.00     0.210 HD
ENDBRANCH  48  56
BRANCH  51  58
ATOM     58  O   LIG d   1       7.573   2.291  -9.495  0.00  0.00    -0.386 OA
ATOM     59  H   LIG d   1       8.199   2.782 -10.046  0.00  0.00     0.210 HD
ENDBRANCH  51  58
BRANCH  53  60
ATOM     60  O   LIG d   1       7.183  -0.214  -8.306  0.00  0.00    -0.384 OA
ATOM     61  H   LIG d   1       6.879  -1.006  -7.842  0.00  0.00     0.210 HD
ENDBRANCH  53  60
ENDBRANCH  43  44
ENDBRANCH   3  43
BRANCH   9  62
ATOM     62  C   LIG d   1       4.232  -1.569  -2.168  0.00  0.00     0.073 C 
ATOM     63  H   LIG d   1       5.271  -1.742  -2.451  0.00  0.00     0.058 H 
ATOM     64  H   LIG d   1       4.167  -1.440  -1.087  0.00  0.00     0.058 H 
BRANCH  62  65
ATOM     65  O   LIG d   1       3.438  -2.688  -2.563  0.00  0.00    -0.392 OA
ATOM     66  H   LIG d   1       2.728  -2.907  -1.944  0.00  0.00     0.209 HD
ENDBRANCH  62  65
ENDBRANCH   9  62
BRANCH   5  67
ATOM     67  O   LIG d   1       6.588  -0.757  -2.765  0.00  0.00    -0.387 OA
ATOM     68  H   LIG d   1       6.652  -0.678  -1.803  0.00  0.00     0.210 HD
ENDBRANCH   5  67
BRANCH   7  69
ATOM     69  O   LIG d   1       5.003   1.050  -1.326  0.00  0.00    -0.387 OA
ATOM     70  H   LIG d   1       4.995   1.984  -1.078  0.00  0.00     0.210 HD
ENDBRANCH   7  69
TORSDOF 14
ENDMDL
MODEL 9
REMARK VINA RESULT:      -5.9      8.625     11.202
REMARK  14 active torsions:
REMARK  status: ('A' for Active; 'I' for Inactive)
REMARK    1  A    between atoms: C_3  and  O_50 
REMARK    2  A    between atoms: C_6  and  C_7 
REMARK    3  A    between atoms: C_15  and  O_48 
REMARK    4  A    between atoms: C_16  and  C_19 
REMARK    5  A    between atoms: C_17  and  O_18 
REMARK    6  A    between atoms: C_21  and  O_34 
REMARK    7  A    between atoms: C_23  and  O_33 
REMARK    8  A    between atoms: C_25  and  O_32 
REMARK    9  A    between atoms: C_27  and  C_30 
REMARK   10  A    between atoms: C_30  and  O_31 
REMARK   11  A    between atoms: O_34  and  C_35 
REMARK   12  A    between atoms: C_37  and  O_47 
REMARK   13  A    between atoms: C_39  and  O_46 
REMARK   14  A    between atoms: C_41  and  O_45 
ROOT
ATOM      1  C   LIG d   1       9.913   7.317  -9.995  0.00  0.00     0.120 C 
ATOM      2  H   LIG d   1       8.915   7.636 -10.294  0.00  0.00     0.068 H 
ATOM      3  C   LIG d   1      10.945   8.332 -10.494  0.00  0.00     0.120 C 
ATOM      4  H   LIG d   1      11.939   8.036 -10.159  0.00  0.00     0.065 H 
ATOM      5  C   LIG d   1      10.911   8.373 -12.024  0.00  0.00     0.112 C 
ATOM      6  H   LIG d   1      11.681   9.052 -12.388  0.00  0.00     0.065 H 
ATOM      7  C   LIG d   1      11.171   6.965 -12.568  0.00  0.00     0.112 C 
ATOM      8  H   LIG d   1      12.170   6.641 -12.276  0.00  0.00     0.065 H 
ATOM      9  C   LIG d   1      10.131   6.003 -11.989  0.00  0.00     0.111 C 
ATOM     10  H   LIG d   1      10.337   4.992 -12.339  0.00  0.00     0.065 H 
ATOM     11  O   LIG d   1      10.195   6.036 -10.562  0.00  0.00    -0.361 OA
ENDROOT
BRANCH   1  12
ATOM     12  C   LIG d   1       9.982   7.228  -8.492  0.00  0.00     0.067 A 
ATOM     13  C   LIG d   1       9.210   8.079  -7.710  0.00  0.00     0.130 A 
ATOM     14  C   LIG d   1       9.263   8.012  -6.324  0.00  0.00     0.023 A 
ATOM     15  C   LIG d   1      10.090   7.092  -5.703  0.00  0.00     0.139 A 
ATOM     16  H   LIG d   1       8.658   8.680  -5.729  0.00  0.00     0.069 H 
ATOM     17  C   LIG d   1      10.868   6.224  -6.491  0.00  0.00     0.101 A 
ATOM     18  O   LIG d   1      10.146   7.039  -4.351  0.00  0.00    -0.483 OA
ATOM     19  C   LIG d   1      11.733   5.242  -5.827  0.00  0.00     0.174 C 
ATOM     20  C   LIG d   1      10.814   6.299  -7.891  0.00  0.00     0.140 A 
ATOM     21  C   LIG d   1      11.945   5.422  -4.336  0.00  0.00     0.052 C 
ATOM     22  O   LIG d   1      12.253   4.333  -6.441  0.00  0.00    -0.292 OA
ATOM     23  C   LIG d   1      10.594   5.834  -3.731  0.00  0.00     0.132 C 
ATOM     24  H   LIG d   1      12.685   6.203  -4.157  0.00  0.00     0.038 H 
ATOM     25  H   LIG d   1      12.279   4.485  -3.892  0.00  0.00     0.038 H 
ATOM     26  H   LIG d   1       9.863   5.043  -3.902  0.00  0.00     0.079 H 
BRANCH  13  27
ATOM     27  O   LIG d   1       8.395   8.985  -8.308  0.00  0.00    -0.506 OA
ATOM     28  H   LIG d   1       8.102   8.726  -9.192  0.00  0.00     0.292 HD
ENDBRANCH  13  27
BRANCH  23  29
ATOM     29  C   LIG d   1      10.753   6.059  -2.250  0.00  0.00    -0.007 A 
ATOM     30  C   LIG d   1      10.169   7.161  -1.652  0.00  0.00    -0.052 A 
ATOM     31  C   LIG d   1      10.314   7.368  -0.294  0.00  0.00    -0.020 A 
ATOM     32  H   LIG d   1       9.597   7.857  -2.246  0.00  0.00     0.062 H 
ATOM     33  C   LIG d   1      11.045   6.470   0.470  0.00  0.00     0.117 A 
ATOM     34  H   LIG d   1       9.858   8.229   0.173  0.00  0.00     0.065 H 
ATOM     35  C   LIG d   1      11.629   5.365  -0.132  0.00  0.00    -0.020 A 
ATOM     36  C   LIG d   1      11.482   5.162  -1.491  0.00  0.00    -0.052 A 
ATOM     37  H   LIG d   1      12.199   4.664   0.460  0.00  0.00     0.065 H 
ATOM     38  H   LIG d   1      11.937   4.302  -1.960  0.00  0.00     0.062 H 
BRANCH  33  39
ATOM     39  O   LIG d   1      11.189   6.671   1.807  0.00  0.00    -0.507 OA
ATOM     40  H   LIG d   1      10.360   6.630   2.302  0.00  0.00     0.292 HD
ENDBRANCH  33  39
ENDBRANCH  23  29
BRANCH  20  41
ATOM     41  O   LIG d   1      11.570   5.469  -8.651  0.00  0.00    -0.505 OA
ATOM     42  H   LIG d   1      11.144   4.625  -8.853  0.00  0.00     0.292 HD
ENDBRANCH  20  41
ENDBRANCH   1  12
BRANCH   3  43
ATOM     43  O   LIG d   1      10.632   9.626  -9.973  0.00  0.00    -0.340 OA
BRANCH  43  44
ATOM     44  C   LIG d   1      11.769  10.355  -9.505  0.00  0.00     0.188 C 
ATOM     45  H   LIG d   1      12.662   9.738  -9.604  0.00  0.00     0.094 H 
ATOM     46  O   LIG d   1      11.924  11.545 -10.280  0.00  0.00    -0.346 OA
ATOM     47  C   LIG d   1      13.052  12.339  -9.910  0.00  0.00     0.079 C 
ATOM     48  C   LIG d   1      12.902  12.792  -8.455  0.00  0.00     0.107 C 
ATOM     49  H   LIG d   1      13.110  13.213 -10.558  0.00  0.00     0.059 H 
ATOM     50  H   LIG d   1      13.963  11.748 -10.014  0.00  0.00     0.059 H 
ATOM     51  C   LIG d   1      12.761  11.559  -7.557  0.00  0.00     0.114 C 
ATOM     52  H   LIG d   1      13.783  13.360  -8.158  0.00  0.00     0.064 H 
ATOM     53  C   LIG d   1      11.567  10.727  -8.034  0.00  0.00     0.134 C 
ATOM     54  H   LIG d   1      13.670  10.959  -7.616  0.00  0.00     0.065 H 
ATOM     55  H   LIG d   1      11.492   9.819  -7.435  0.00  0.00     0.067 H 
BRANCH  48  56
ATOM     56  O   LIG d   1      11.738  13.611  -8.326  0.00  0.00    -0.387 OA
ATOM     57  H   LIG d   1      11.128  13.323  -7.632  0.00  0.00     0.210 HD
ENDBRANCH  48  56
BRANCH  51  58
ATOM     58  O   LIG d   1      12.547  11.971  -6.205  0.00  0.00    -0.386 OA
ATOM     59  H   LIG d   1      11.823  11.507  -5.763  0.00  0.00     0.210 HD
ENDBRANCH  51  58
BRANCH  53  60
ATOM     60  O   LIG d   1      10.367  11.490  -7.895  0.00  0.00    -0.384 OA
ATOM     61  H   LIG d   1      10.143  12.017  -8.674  0.00  0.00     0.210 HD
ENDBRANCH  53  60
ENDBRANCH  43  44
ENDBRANCH   3  43
BRANCH   9  62
ATOM     62  C   LIG d   1       8.733   6.425 -12.447  0.00  0.00     0.073 C 
ATOM     63  H   LIG d   1       8.006   6.167 -11.677  0.00  0.00     0.058 H 
ATOM     64  H   LIG d   1       8.717   7.503 -12.615  0.00  0.00     0.058 H 
BRANCH  62  65
ATOM     65  O   LIG d   1       8.404   5.748 -13.661  0.00  0.00    -0.392 OA
ATOM     66  H   LIG d   1       8.925   6.032 -14.424  0.00  0.00     0.209 HD
ENDBRANCH  62  65
ENDBRANCH   9  62
BRANCH   5  67
ATOM     67  O   LIG d   1       9.628   8.827 -12.462  0.00  0.00    -0.387 OA
ATOM     68  H   LIG d   1       9.216   8.259 -13.128  0.00  0.00     0.210 HD
ENDBRANCH   5  67
BRANCH   7  69
ATOM     69  O   LIG d   1      11.071   6.977 -13.994  0.00  0.00    -0.387 OA
ATOM     70  H   LIG d   1      10.274   6.549 -14.336  0.00  0.00     0.210 HD
ENDBRANCH   7  69
TORSDOF 14
ENDMDL
