MODEL 1
REMARK VINA RESULT:      -7.6      0.000      0.000
REMARK  7 active torsions:
REMARK  status: ('A' for Active; 'I' for Inactive)
REMARK    1  A    between atoms: C_1  and  C_2 
REMARK    2  A    between atoms: C_2  and  C_3 
REMARK    3  A    between atoms: C_2  and  C_4 
REMARK    4  A    between atoms: C_7  and  C_10 
REMARK    5  A    between atoms: N_29  and  C_32 
REMARK    6  A    between atoms: C_32  and  C_33 
REMARK    7  A    between atoms: C_33  and  C_34 
ROOT
ATOM      1  C   LIG d   1      11.457   3.592  -4.352  0.00  0.00     0.092 C 
ATOM      2  H   LIG d   1      11.539   4.030  -5.346  0.00  0.00     0.062 H 
ATOM      3  C   LIG d   1      12.778   2.975  -3.951  0.00  0.00     0.046 A 
ATOM      4  C   LIG d   1      12.990   1.643  -3.889  0.00  0.00    -0.015 A 
ATOM      5  C   LIG d   1      14.365   1.452  -3.474  0.00  0.00     0.003 A 
ATOM      6  C   LIG d   1      15.136   0.308  -3.244  0.00  0.00    -0.052 A 
ATOM      7  C   LIG d   1      16.436   0.505  -2.851  0.00  0.00    -0.061 A 
ATOM      8  C   LIG d   1      16.972   1.772  -2.684  0.00  0.00    -0.060 A 
ATOM      9  C   LIG d   1      16.232   2.921  -2.904  0.00  0.00    -0.038 A 
ATOM     10  C   LIG d   1      14.908   2.752  -3.305  0.00  0.00     0.047 A 
ATOM     11  N   LIG d   1      13.920   3.646  -3.603  0.00  0.00    -0.356 N 
ATOM     12  H   LIG d   1      14.013   4.611  -3.573  0.00  0.00     0.166 HD
ATOM     13  C   LIG d   1      11.954   0.593  -4.199  0.00  0.00     0.002 C 
ATOM     14  C   LIG d   1      10.812   1.243  -4.993  0.00  0.00     0.107 A 
ATOM     15  H   LIG d   1      11.157   1.441  -6.008  0.00  0.00     0.060 H 
ATOM     16  N   LIG d   1      10.449   2.511  -4.360  0.00  0.00    -0.276 N 
ATOM     17  C   LIG d   1       9.276   2.751  -3.802  0.00  0.00     0.234 A 
ATOM     18  O   LIG d   1       9.113   3.820  -3.253  0.00  0.00    -0.274 OA
ATOM     19  C   LIG d   1       8.138   1.784  -3.794  0.00  0.00     0.091 A 
ATOM     20  N   LIG d   1       8.458   0.560  -4.511  0.00  0.00    -0.291 N 
ATOM     21  C   LIG d   1       9.647   0.308  -5.053  0.00  0.00     0.237 A 
ATOM     22  O   LIG d   1       9.795  -0.747  -5.632  0.00  0.00    -0.274 OA
ATOM     23  H   LIG d   1      14.728  -0.683  -3.371  0.00  0.00     0.062 H 
ATOM     24  H   LIG d   1      17.063  -0.355  -2.665  0.00  0.00     0.062 H 
ATOM     25  H   LIG d   1      18.000   1.867  -2.372  0.00  0.00     0.062 H 
ATOM     26  H   LIG d   1      16.661   3.903  -2.771  0.00  0.00     0.064 H 
ATOM     27  H   LIG d   1      12.406  -0.201  -4.793  0.00  0.00     0.034 H 
ATOM     28  H   LIG d   1      11.563   0.179  -3.269  0.00  0.00     0.034 H 
ATOM     29  H   LIG d   1       7.271   2.252  -4.261  0.00  0.00     0.056 H 
ATOM     30  H   LIG d   1       7.891   1.535  -2.762  0.00  0.00     0.056 H 
ENDROOT
BRANCH   1  31
ATOM     31  C   LIG d   1      11.063   4.652  -3.356  0.00  0.00    -0.021 A 
ATOM     32  C   LIG d   1      11.219   4.420  -2.002  0.00  0.00    -0.056 A 
ATOM     33  C   LIG d   1      10.858   5.392  -1.088  0.00  0.00    -0.058 A 
ATOM     34  H   LIG d   1      11.622   3.478  -1.658  0.00  0.00     0.062 H 
ATOM     35  C   LIG d   1      10.343   6.597  -1.529  0.00  0.00    -0.045 A 
ATOM     36  H   LIG d   1      10.979   5.211  -0.030  0.00  0.00     0.062 H 
ATOM     37  C   LIG d   1      10.188   6.829  -2.882  0.00  0.00    -0.058 A 
ATOM     38  C   LIG d   1      10.553   5.859  -3.796  0.00  0.00    -0.056 A 
ATOM     39  H   LIG d   1       9.785   7.770  -3.226  0.00  0.00     0.062 H 
ATOM     40  H   LIG d   1      10.436   6.041  -4.854  0.00  0.00     0.062 H 
BRANCH  35  41
ATOM     41  C   LIG d   1       9.949   7.657  -0.532  0.00  0.00    -0.021 C 
ATOM     42  H   LIG d   1       9.045   7.346  -0.008  0.00  0.00     0.034 H 
BRANCH  41  43
ATOM     43  C   LIG d   1      11.082   7.852   0.478  0.00  0.00    -0.059 C 
ATOM     44  H   LIG d   1      10.669   7.871   1.487  0.00  0.00     0.024 H 
ATOM     45  H   LIG d   1      11.792   7.030   0.392  0.00  0.00     0.024 H 
ATOM     46  H   LIG d   1      11.590   8.794   0.276  0.00  0.00     0.024 H 
ENDBRANCH  41  43
BRANCH  41  47
ATOM     47  C   LIG d   1       9.686   8.973  -1.265  0.00  0.00    -0.059 C 
ATOM     48  H   LIG d   1       9.211   9.679  -0.583  0.00  0.00     0.024 H 
ATOM     49  H   LIG d   1      10.631   9.388  -1.617  0.00  0.00     0.024 H 
ATOM     50  H   LIG d   1       9.029   8.792  -2.115  0.00  0.00     0.024 H 
ENDBRANCH  41  47
ENDBRANCH  35  41
ENDBRANCH   1  31
BRANCH  20  51
ATOM     51  C   LIG d   1       7.409  -0.455  -4.645  0.00  0.00     0.019 C 
ATOM     52  H   LIG d   1       6.529  -0.009  -5.108  0.00  0.00     0.047 H 
ATOM     53  H   LIG d   1       7.772  -1.272  -5.267  0.00  0.00     0.047 H 
BRANCH  51  54
ATOM     54  C   LIG d   1       7.040  -0.992  -3.260  0.00  0.00    -0.012 C 
ATOM     55  H   LIG d   1       7.262  -2.058  -3.213  0.00  0.00     0.033 H 
ATOM     56  H   LIG d   1       7.618  -0.466  -2.501  0.00  0.00     0.033 H 
BRANCH  54  57
ATOM     57  C   LIG d   1       5.569  -0.774  -3.013  0.00  0.00    -0.046 A 
ATOM     58  C   LIG d   1       4.681  -1.824  -3.156  0.00  0.00    -0.059 A 
ATOM     59  C   LIG d   1       3.332  -1.625  -2.928  0.00  0.00    -0.061 A 
ATOM     60  H   LIG d   1       5.042  -2.802  -3.444  0.00  0.00     0.062 H 
ATOM     61  C   LIG d   1       2.871  -0.375  -2.560  0.00  0.00    -0.062 A 
ATOM     62  H   LIG d   1       2.639  -2.446  -3.038  0.00  0.00     0.062 H 
ATOM     63  C   LIG d   1       3.759   0.675  -2.417  0.00  0.00    -0.061 A 
ATOM     64  H   LIG d   1       1.818  -0.219  -2.382  0.00  0.00     0.062 H 
ATOM     65  C   LIG d   1       5.108   0.474  -2.639  0.00  0.00    -0.059 A 
ATOM     66  H   LIG d   1       3.399   1.652  -2.129  0.00  0.00     0.062 H 
ATOM     67  H   LIG d   1       5.803   1.293  -2.524  0.00  0.00     0.062 H 
ENDBRANCH  54  57
ENDBRANCH  51  54
ENDBRANCH  20  51
TORSDOF 7
ENDMDL
MODEL 2
REMARK VINA RESULT:      -7.5      6.623      9.919
REMARK  7 active torsions:
REMARK  status: ('A' for Active; 'I' for Inactive)
REMARK    1  A    between atoms: C_1  and  C_2 
REMARK    2  A    between atoms: C_2  and  C_3 
REMARK    3  A    between atoms: C_2  and  C_4 
REMARK    4  A    between atoms: C_7  and  C_10 
REMARK    5  A    between atoms: N_29  and  C_32 
REMARK    6  A    between atoms: C_32  and  C_33 
REMARK    7  A    between atoms: C_33  and  C_34 
ROOT
ATOM      1  C   LIG d   1       5.375  -3.453  -5.704  0.00  0.00     0.092 C 
ATOM      2  H   LIG d   1       4.728  -4.306  -5.501  0.00  0.00     0.062 H 
ATOM      3  C   LIG d   1       4.989  -2.292  -4.816  0.00  0.00     0.046 A 
ATOM      4  C   LIG d   1       4.361  -1.185  -5.269  0.00  0.00    -0.015 A 
ATOM      5  C   LIG d   1       4.163  -0.314  -4.128  0.00  0.00     0.003 A 
ATOM      6  C   LIG d   1       3.576   0.947  -3.988  0.00  0.00    -0.052 A 
ATOM      7  C   LIG d   1       3.563   1.489  -2.727  0.00  0.00    -0.061 A 
ATOM      8  C   LIG d   1       4.104   0.829  -1.636  0.00  0.00    -0.060 A 
ATOM      9  C   LIG d   1       4.692  -0.419  -1.745  0.00  0.00    -0.038 A 
ATOM     10  C   LIG d   1       4.719  -0.995  -3.014  0.00  0.00     0.047 A 
ATOM     11  N   LIG d   1       5.207  -2.186  -3.469  0.00  0.00    -0.356 N 
ATOM     12  H   LIG d   1       5.643  -2.857  -2.919  0.00  0.00     0.166 HD
ATOM     13  C   LIG d   1       3.966  -0.949  -6.704  0.00  0.00     0.002 C 
ATOM     14  C   LIG d   1       3.983  -2.290  -7.451  0.00  0.00     0.107 A 
ATOM     15  H   LIG d   1       3.123  -2.880  -7.136  0.00  0.00     0.060 H 
ATOM     16  N   LIG d   1       5.206  -3.015  -7.105  0.00  0.00    -0.276 N 
ATOM     17  C   LIG d   1       6.163  -3.307  -7.967  0.00  0.00     0.234 A 
ATOM     18  O   LIG d   1       7.159  -3.858  -7.550  0.00  0.00    -0.274 OA
ATOM     19  C   LIG d   1       6.102  -2.991  -9.426  0.00  0.00     0.091 A 
ATOM     20  N   LIG d   1       4.844  -2.361  -9.795  0.00  0.00    -0.291 N 
ATOM     21  C   LIG d   1       3.889  -2.046  -8.923  0.00  0.00     0.237 A 
ATOM     22  O   LIG d   1       2.879  -1.528  -9.349  0.00  0.00    -0.274 OA
ATOM     23  H   LIG d   1       3.152   1.469  -4.833  0.00  0.00     0.062 H 
ATOM     24  H   LIG d   1       3.116   2.462  -2.581  0.00  0.00     0.062 H 
ATOM     25  H   LIG d   1       4.066   1.305  -0.668  0.00  0.00     0.062 H 
ATOM     26  H   LIG d   1       5.110  -0.923  -0.887  0.00  0.00     0.064 H 
ATOM     27  H   LIG d   1       2.962  -0.524  -6.741  0.00  0.00     0.034 H 
ATOM     28  H   LIG d   1       4.672  -0.262  -7.169  0.00  0.00     0.034 H 
ATOM     29  H   LIG d   1       6.215  -3.914  -9.994  0.00  0.00     0.056 H 
ATOM     30  H   LIG d   1       6.921  -2.319  -9.678  0.00  0.00     0.056 H 
ENDROOT
BRANCH   1  31
ATOM     31  C   LIG d   1       6.813  -3.832  -5.456  0.00  0.00    -0.021 A 
ATOM     32  C   LIG d   1       7.167  -5.164  -5.344  0.00  0.00    -0.056 A 
ATOM     33  C   LIG d   1       8.485  -5.511  -5.116  0.00  0.00    -0.058 A 
ATOM     34  H   LIG d   1       6.414  -5.933  -5.434  0.00  0.00     0.062 H 
ATOM     35  C   LIG d   1       9.449  -4.527  -5.001  0.00  0.00    -0.045 A 
ATOM     36  H   LIG d   1       8.762  -6.552  -5.028  0.00  0.00     0.062 H 
ATOM     37  C   LIG d   1       9.095  -3.196  -5.113  0.00  0.00    -0.058 A 
ATOM     38  C   LIG d   1       7.778  -2.848  -5.346  0.00  0.00    -0.056 A 
ATOM     39  H   LIG d   1       9.848  -2.427  -5.023  0.00  0.00     0.062 H 
ATOM     40  H   LIG d   1       7.501  -1.809  -5.438  0.00  0.00     0.062 H 
BRANCH  35  41
ATOM     41  C   LIG d   1      10.887  -4.906  -4.752  0.00  0.00    -0.021 C 
ATOM     42  H   LIG d   1      11.504  -4.557  -5.580  0.00  0.00     0.034 H 
BRANCH  41  43
ATOM     43  C   LIG d   1      11.366  -4.259  -3.451  0.00  0.00    -0.059 C 
ATOM     44  H   LIG d   1      11.260  -3.176  -3.524  0.00  0.00     0.024 H 
ATOM     45  H   LIG d   1      10.767  -4.627  -2.619  0.00  0.00     0.024 H 
ATOM     46  H   LIG d   1      12.413  -4.510  -3.285  0.00  0.00     0.024 H 
ENDBRANCH  41  43
BRANCH  41  47
ATOM     47  C   LIG d   1      11.001  -6.427  -4.637  0.00  0.00    -0.059 C 
ATOM     48  H   LIG d   1      11.632  -6.680  -3.785  0.00  0.00     0.024 H 
ATOM     49  H   LIG d   1      10.009  -6.856  -4.495  0.00  0.00     0.024 H 
ATOM     50  H   LIG d   1      11.443  -6.828  -5.549  0.00  0.00     0.024 H 
ENDBRANCH  41  47
ENDBRANCH  35  41
ENDBRANCH   1  31
BRANCH  20  51
ATOM     51  C   LIG d   1       4.615  -2.057 -11.210  0.00  0.00     0.019 C 
ATOM     52  H   LIG d   1       4.857  -2.931 -11.814  0.00  0.00     0.047 H 
ATOM     53  H   LIG d   1       3.568  -1.792 -11.359  0.00  0.00     0.047 H 
BRANCH  51  54
ATOM     54  C   LIG d   1       5.503  -0.884 -11.630  0.00  0.00    -0.012 C 
ATOM     55  H   LIG d   1       6.550  -1.146 -11.473  0.00  0.00     0.033 H 
ATOM     56  H   LIG d   1       5.338  -0.664 -12.685  0.00  0.00     0.033 H 
BRANCH  54  57
ATOM     57  C   LIG d   1       5.159   0.328 -10.803  0.00  0.00    -0.046 A 
ATOM     58  C   LIG d   1       3.978   1.008 -11.033  0.00  0.00    -0.059 A 
ATOM     59  C   LIG d   1       3.662   2.119 -10.273  0.00  0.00    -0.061 A 
ATOM     60  H   LIG d   1       3.302   0.671 -11.805  0.00  0.00     0.062 H 
ATOM     61  C   LIG d   1       4.528   2.550  -9.285  0.00  0.00    -0.062 A 
ATOM     62  H   LIG d   1       2.738   2.651 -10.452  0.00  0.00     0.062 H 
ATOM     63  C   LIG d   1       5.708   1.870  -9.056  0.00  0.00    -0.061 A 
ATOM     64  H   LIG d   1       4.280   3.418  -8.693  0.00  0.00     0.062 H 
ATOM     65  C   LIG d   1       6.022   0.755  -9.811  0.00  0.00    -0.059 A 
ATOM     66  H   LIG d   1       6.384   2.206  -8.284  0.00  0.00     0.062 H 
ATOM     67  H   LIG d   1       6.942   0.221  -9.630  0.00  0.00     0.062 H 
ENDBRANCH  54  57
ENDBRANCH  51  54
ENDBRANCH  20  51
TORSDOF 7
ENDMDL
MODEL 3
REMARK VINA RESULT:      -7.5      7.403     10.432
REMARK  7 active torsions:
REMARK  status: ('A' for Active; 'I' for Inactive)
REMARK    1  A    between atoms: C_1  and  C_2 
REMARK    2  A    between atoms: C_2  and  C_3 
REMARK    3  A    between atoms: C_2  and  C_4 
REMARK    4  A    between atoms: C_7  and  C_10 
REMARK    5  A    between atoms: N_29  and  C_32 
REMARK    6  A    between atoms: C_32  and  C_33 
REMARK    7  A    between atoms: C_33  and  C_34 
ROOT
ATOM      1  C   LIG d   1       6.173  -1.972  -7.071  0.00  0.00     0.092 C 
ATOM      2  H   LIG d   1       7.168  -1.586  -7.296  0.00  0.00     0.062 H 
ATOM      3  C   LIG d   1       5.687  -1.403  -5.757  0.00  0.00     0.046 A 
ATOM      4  C   LIG d   1       5.592  -2.127  -4.621  0.00  0.00    -0.015 A 
ATOM      5  C   LIG d   1       5.094  -1.237  -3.592  0.00  0.00     0.003 A 
ATOM      6  C   LIG d   1       4.803  -1.423  -2.237  0.00  0.00    -0.052 A 
ATOM      7  C   LIG d   1       4.337  -0.332  -1.547  0.00  0.00    -0.061 A 
ATOM      8  C   LIG d   1       4.158   0.901  -2.153  0.00  0.00    -0.060 A 
ATOM      9  C   LIG d   1       4.439   1.114  -3.492  0.00  0.00    -0.038 A 
ATOM     10  C   LIG d   1       4.914   0.024  -4.218  0.00  0.00     0.047 A 
ATOM     11  N   LIG d   1       5.283  -0.116  -5.525  0.00  0.00    -0.356 N 
ATOM     12  H   LIG d   1       5.262   0.592  -6.189  0.00  0.00     0.166 HD
ATOM     13  C   LIG d   1       5.947  -3.587  -4.502  0.00  0.00     0.002 C 
ATOM     14  C   LIG d   1       6.816  -3.987  -5.703  0.00  0.00     0.107 A 
ATOM     15  H   LIG d   1       7.811  -3.562  -5.573  0.00  0.00     0.060 H 
ATOM     16  N   LIG d   1       6.224  -3.442  -6.925  0.00  0.00    -0.276 N 
ATOM     17  C   LIG d   1       5.739  -4.181  -7.906  0.00  0.00     0.234 A 
ATOM     18  O   LIG d   1       5.217  -3.615  -8.843  0.00  0.00    -0.274 OA
ATOM     19  C   LIG d   1       5.783  -5.674  -7.931  0.00  0.00     0.091 A 
ATOM     20  N   LIG d   1       6.462  -6.219  -6.767  0.00  0.00    -0.291 N 
ATOM     21  C   LIG d   1       6.930  -5.476  -5.766  0.00  0.00     0.237 A 
ATOM     22  O   LIG d   1       7.483  -6.043  -4.848  0.00  0.00    -0.274 OA
ATOM     23  H   LIG d   1       4.939  -2.381  -1.756  0.00  0.00     0.062 H 
ATOM     24  H   LIG d   1       4.102  -0.438  -0.498  0.00  0.00     0.062 H 
ATOM     25  H   LIG d   1       3.788   1.724  -1.561  0.00  0.00     0.062 H 
ATOM     26  H   LIG d   1       4.295   2.080  -3.952  0.00  0.00     0.064 H 
ATOM     27  H   LIG d   1       6.502  -3.753  -3.578  0.00  0.00     0.034 H 
ATOM     28  H   LIG d   1       5.035  -4.185  -4.495  0.00  0.00     0.034 H 
ATOM     29  H   LIG d   1       6.308  -5.998  -8.830  0.00  0.00     0.056 H 
ATOM     30  H   LIG d   1       4.764  -6.058  -7.959  0.00  0.00     0.056 H 
ENDROOT
BRANCH   1  31
ATOM     31  C   LIG d   1       5.218  -1.600  -8.176  0.00  0.00    -0.021 A 
ATOM     32  C   LIG d   1       3.855  -1.721  -7.980  0.00  0.00    -0.056 A 
ATOM     33  C   LIG d   1       2.978  -1.380  -8.993  0.00  0.00    -0.058 A 
ATOM     34  H   LIG d   1       3.474  -2.082  -7.036  0.00  0.00     0.062 H 
ATOM     35  C   LIG d   1       3.465  -0.917 -10.201  0.00  0.00    -0.045 A 
ATOM     36  H   LIG d   1       1.913  -1.474  -8.840  0.00  0.00     0.062 H 
ATOM     37  C   LIG d   1       4.828  -0.796 -10.396  0.00  0.00    -0.058 A 
ATOM     38  C   LIG d   1       5.705  -1.132  -9.382  0.00  0.00    -0.056 A 
ATOM     39  H   LIG d   1       5.208  -0.434 -11.340  0.00  0.00     0.062 H 
ATOM     40  H   LIG d   1       6.769  -1.034  -9.532  0.00  0.00     0.062 H 
BRANCH  35  41
ATOM     41  C   LIG d   1       2.510  -0.545 -11.305  0.00  0.00    -0.021 C 
ATOM     42  H   LIG d   1       2.526   0.534 -11.454  0.00  0.00     0.034 H 
BRANCH  41  43
ATOM     43  C   LIG d   1       2.932  -1.244 -12.600  0.00  0.00    -0.059 C 
ATOM     44  H   LIG d   1       2.086  -1.801 -13.004  0.00  0.00     0.024 H 
ATOM     45  H   LIG d   1       3.256  -0.499 -13.326  0.00  0.00     0.024 H 
ATOM     46  H   LIG d   1       3.752  -1.930 -12.392  0.00  0.00     0.024 H 
ENDBRANCH  41  43
BRANCH  41  47
ATOM     47  C   LIG d   1       1.095  -0.986 -10.926  0.00  0.00    -0.059 C 
ATOM     48  H   LIG d   1       0.896  -1.970 -11.350  0.00  0.00     0.024 H 
ATOM     49  H   LIG d   1       1.008  -1.033  -9.840  0.00  0.00     0.024 H 
ATOM     50  H   LIG d   1       0.373  -0.269 -11.318  0.00  0.00     0.024 H 
ENDBRANCH  41  47
ENDBRANCH  35  41
ENDBRANCH   1  31
BRANCH  20  51
ATOM     51  C   LIG d   1       6.642  -7.671  -6.691  0.00  0.00     0.019 C 
ATOM     52  H   LIG d   1       6.981  -8.047  -7.656  0.00  0.00     0.047 H 
ATOM     53  H   LIG d   1       7.385  -7.906  -5.928  0.00  0.00     0.047 H 
BRANCH  51  54
ATOM     54  C   LIG d   1       5.310  -8.332  -6.325  0.00  0.00    -0.012 C 
ATOM     55  H   LIG d   1       4.535  -7.569  -6.254  0.00  0.00     0.033 H 
ATOM     56  H   LIG d   1       5.041  -9.054  -7.096  0.00  0.00     0.033 H 
BRANCH  54  57
ATOM     57  C   LIG d   1       5.447  -9.036  -5.000  0.00  0.00    -0.046 A 
ATOM     58  C   LIG d   1       4.326  -9.538  -4.366  0.00  0.00    -0.059 A 
ATOM     59  C   LIG d   1       4.451 -10.185  -3.151  0.00  0.00    -0.061 A 
ATOM     60  H   LIG d   1       3.352  -9.426  -4.821  0.00  0.00     0.062 H 
ATOM     61  C   LIG d   1       5.697 -10.328  -2.569  0.00  0.00    -0.062 A 
ATOM     62  H   LIG d   1       3.575 -10.578  -2.655  0.00  0.00     0.062 H 
ATOM     63  C   LIG d   1       6.817  -9.826  -3.203  0.00  0.00    -0.061 A 
ATOM     64  H   LIG d   1       5.794 -10.834  -1.620  0.00  0.00     0.062 H 
ATOM     65  C   LIG d   1       6.693  -9.185  -4.421  0.00  0.00    -0.059 A 
ATOM     66  H   LIG d   1       7.791  -9.939  -2.749  0.00  0.00     0.062 H 
ATOM     67  H   LIG d   1       7.569  -8.796  -4.919  0.00  0.00     0.062 H 
ENDBRANCH  54  57
ENDBRANCH  51  54
ENDBRANCH  20  51
TORSDOF 7
ENDMDL
MODEL 4
REMARK VINA RESULT:      -7.4      4.420      9.973
REMARK  7 active torsions:
REMARK  status: ('A' for Active; 'I' for Inactive)
REMARK    1  A    between atoms: C_1  and  C_2 
REMARK    2  A    between atoms: C_2  and  C_3 
REMARK    3  A    between atoms: C_2  and  C_4 
REMARK    4  A    between atoms: C_7  and  C_10 
REMARK    5  A    between atoms: N_29  and  C_32 
REMARK    6  A    between atoms: C_32  and  C_33 
REMARK    7  A    between atoms: C_33  and  C_34 
ROOT
ATOM      1  C   LIG d   1       6.677  -1.103  -7.590  0.00  0.00     0.092 C 
ATOM      2  H   LIG d   1       7.353  -1.935  -7.787  0.00  0.00     0.062 H 
ATOM      3  C   LIG d   1       5.504  -1.158  -8.543  0.00  0.00     0.046 A 
ATOM      4  C   LIG d   1       5.336  -0.294  -9.568  0.00  0.00    -0.015 A 
ATOM      5  C   LIG d   1       4.110  -0.671 -10.242  0.00  0.00     0.003 A 
ATOM      6  C   LIG d   1       3.440  -0.150 -11.353  0.00  0.00    -0.052 A 
ATOM      7  C   LIG d   1       2.274  -0.773 -11.723  0.00  0.00    -0.061 A 
ATOM      8  C   LIG d   1       1.772  -1.866 -11.035  0.00  0.00    -0.060 A 
ATOM      9  C   LIG d   1       2.413  -2.402  -9.932  0.00  0.00    -0.038 A 
ATOM     10  C   LIG d   1       3.601  -1.790  -9.533  0.00  0.00     0.047 A 
ATOM     11  N   LIG d   1       4.470  -2.055  -8.514  0.00  0.00    -0.356 N 
ATOM     12  H   LIG d   1       4.371  -2.772  -7.868  0.00  0.00     0.166 HD
ATOM     13  C   LIG d   1       6.276   0.834  -9.903  0.00  0.00     0.002 C 
ATOM     14  C   LIG d   1       7.621   0.583  -9.205  0.00  0.00     0.107 A 
ATOM     15  H   LIG d   1       8.140  -0.224  -9.721  0.00  0.00     0.060 H 
ATOM     16  N   LIG d   1       7.375   0.180  -7.821  0.00  0.00    -0.276 N 
ATOM     17  C   LIG d   1       7.742   0.885  -6.767  0.00  0.00     0.234 A 
ATOM     18  O   LIG d   1       7.428   0.477  -5.669  0.00  0.00    -0.274 OA
ATOM     19  C   LIG d   1       8.514   2.162  -6.841  0.00  0.00     0.091 A 
ATOM     20  N   LIG d   1       8.851   2.517  -8.210  0.00  0.00    -0.291 N 
ATOM     21  C   LIG d   1       8.460   1.818  -9.274  0.00  0.00     0.237 A 
ATOM     22  O   LIG d   1       8.808   2.209 -10.368  0.00  0.00    -0.274 OA
ATOM     23  H   LIG d   1       3.823   0.701 -11.896  0.00  0.00     0.062 H 
ATOM     24  H   LIG d   1       1.730  -0.398 -12.578  0.00  0.00     0.062 H 
ATOM     25  H   LIG d   1       0.850  -2.314 -11.370  0.00  0.00     0.062 H 
ATOM     26  H   LIG d   1       2.012  -3.254  -9.404  0.00  0.00     0.064 H 
ATOM     27  H   LIG d   1       6.427   0.876 -10.981  0.00  0.00     0.034 H 
ATOM     28  H   LIG d   1       5.855   1.777  -9.554  0.00  0.00     0.034 H 
ATOM     29  H   LIG d   1       9.434   2.054  -6.267  0.00  0.00     0.056 H 
ATOM     30  H   LIG d   1       7.918   2.962  -6.404  0.00  0.00     0.056 H 
ENDROOT
BRANCH   1  31
ATOM     31  C   LIG d   1       6.185  -1.170  -6.167  0.00  0.00    -0.021 A 
ATOM     32  C   LIG d   1       5.088  -0.422  -5.780  0.00  0.00    -0.056 A 
ATOM     33  C   LIG d   1       4.637  -0.482  -4.475  0.00  0.00    -0.058 A 
ATOM     34  H   LIG d   1       4.584   0.210  -6.496  0.00  0.00     0.062 H 
ATOM     35  C   LIG d   1       5.281  -1.292  -3.558  0.00  0.00    -0.045 A 
ATOM     36  H   LIG d   1       3.781   0.102  -4.171  0.00  0.00     0.062 H 
ATOM     37  C   LIG d   1       6.377  -2.039  -3.945  0.00  0.00    -0.058 A 
ATOM     38  C   LIG d   1       6.826  -1.982  -5.251  0.00  0.00    -0.056 A 
ATOM     39  H   LIG d   1       6.881  -2.671  -3.229  0.00  0.00     0.062 H 
ATOM     40  H   LIG d   1       7.679  -2.569  -5.556  0.00  0.00     0.062 H 
BRANCH  35  41
ATOM     41  C   LIG d   1       4.789  -1.358  -2.134  0.00  0.00    -0.021 C 
ATOM     42  H   LIG d   1       5.567  -1.781  -1.500  0.00  0.00     0.034 H 
BRANCH  41  43
ATOM     43  C   LIG d   1       4.446   0.053  -1.649  0.00  0.00    -0.059 C 
ATOM     44  H   LIG d   1       3.675   0.480  -2.290  0.00  0.00     0.024 H 
ATOM     45  H   LIG d   1       4.080   0.006  -0.624  0.00  0.00     0.024 H 
ATOM     46  H   LIG d   1       5.338   0.677  -1.689  0.00  0.00     0.024 H 
ENDBRANCH  41  43
BRANCH  41  47
ATOM     47  C   LIG d   1       3.541  -2.238  -2.067  0.00  0.00    -0.059 C 
ATOM     48  H   LIG d   1       2.756  -1.714  -1.520  0.00  0.00     0.024 H 
ATOM     49  H   LIG d   1       3.195  -2.458  -3.077  0.00  0.00     0.024 H 
ATOM     50  H   LIG d   1       3.780  -3.169  -1.553  0.00  0.00     0.024 H 
ENDBRANCH  41  47
ENDBRANCH  35  41
ENDBRANCH   1  31
BRANCH  20  51
ATOM     51  C   LIG d   1       9.669   3.712  -8.431  0.00  0.00     0.019 C 
ATOM     52  H   LIG d   1      10.405   3.511  -9.209  0.00  0.00     0.047 H 
ATOM     53  H   LIG d   1       9.028   4.538  -8.741  0.00  0.00     0.047 H 
BRANCH  51  54
ATOM     54  C   LIG d   1      10.388   4.085  -7.132  0.00  0.00    -0.012 C 
ATOM     55  H   LIG d   1      10.126   3.368  -6.354  0.00  0.00     0.033 H 
ATOM     56  H   LIG d   1      11.466   4.067  -7.296  0.00  0.00     0.033 H 
BRANCH  54  57
ATOM     57  C   LIG d   1       9.967   5.467  -6.704  0.00  0.00    -0.046 A 
ATOM     58  C   LIG d   1       9.922   6.493  -7.629  0.00  0.00    -0.059 A 
ATOM     59  C   LIG d   1       9.536   7.761  -7.237  0.00  0.00    -0.061 A 
ATOM     60  H   LIG d   1      10.189   6.304  -8.660  0.00  0.00     0.062 H 
ATOM     61  C   LIG d   1       9.195   8.003  -5.919  0.00  0.00    -0.062 A 
ATOM     62  H   LIG d   1       9.500   8.563  -7.960  0.00  0.00     0.062 H 
ATOM     63  C   LIG d   1       9.240   6.977  -4.995  0.00  0.00    -0.061 A 
ATOM     64  H   LIG d   1       8.893   8.993  -5.613  0.00  0.00     0.062 H 
ATOM     65  C   LIG d   1       9.621   5.708  -5.388  0.00  0.00    -0.059 A 
ATOM     66  H   LIG d   1       8.974   7.166  -3.965  0.00  0.00     0.062 H 
ATOM     67  H   LIG d   1       9.653   4.905  -4.667  0.00  0.00     0.062 H 
ENDBRANCH  54  57
ENDBRANCH  51  54
ENDBRANCH  20  51
TORSDOF 7
ENDMDL
MODEL 5
REMARK VINA RESULT:      -7.4      4.400      7.254
REMARK  7 active torsions:
REMARK  status: ('A' for Active; 'I' for Inactive)
REMARK    1  A    between atoms: C_1  and  C_2 
REMARK    2  A    between atoms: C_2  and  C_3 
REMARK    3  A    between atoms: C_2  and  C_4 
REMARK    4  A    between atoms: C_7  and  C_10 
REMARK    5  A    between atoms: N_29  and  C_32 
REMARK    6  A    between atoms: C_32  and  C_33 
REMARK    7  A    between atoms: C_33  and  C_34 
ROOT
ATOM      1  C   LIG d   1      11.027   5.840  -6.967  0.00  0.00     0.092 C 
ATOM      2  H   LIG d   1      12.099   5.689  -6.839  0.00  0.00     0.062 H 
ATOM      3  C   LIG d   1      10.648   7.235  -6.524  0.00  0.00     0.046 A 
ATOM      4  C   LIG d   1       9.961   7.495  -5.391  0.00  0.00    -0.015 A 
ATOM      5  C   LIG d   1       9.796   8.933  -5.317  0.00  0.00     0.003 A 
ATOM      6  C   LIG d   1       9.179   9.770  -4.382  0.00  0.00    -0.052 A 
ATOM      7  C   LIG d   1       9.215  11.118  -4.637  0.00  0.00    -0.061 A 
ATOM      8  C   LIG d   1       9.829  11.638  -5.765  0.00  0.00    -0.060 A 
ATOM      9  C   LIG d   1      10.446  10.834  -6.707  0.00  0.00    -0.038 A 
ATOM     10  C   LIG d   1      10.427   9.460  -6.474  0.00  0.00     0.047 A 
ATOM     11  N   LIG d   1      10.930   8.404  -7.178  0.00  0.00    -0.356 N 
ATOM     12  H   LIG d   1      11.414   8.472  -8.016  0.00  0.00     0.166 HD
ATOM     13  C   LIG d   1       9.476   6.449  -4.421  0.00  0.00     0.002 C 
ATOM     14  C   LIG d   1      10.239   5.141  -4.679  0.00  0.00     0.107 A 
ATOM     15  H   LIG d   1      11.259   5.250  -4.311  0.00  0.00     0.060 H 
ATOM     16  N   LIG d   1      10.279   4.887  -6.119  0.00  0.00    -0.276 N 
ATOM     17  C   LIG d   1       9.696   3.858  -6.707  0.00  0.00     0.234 A 
ATOM     18  O   LIG d   1       9.747   3.787  -7.917  0.00  0.00    -0.274 OA
ATOM     19  C   LIG d   1       8.966   2.779  -5.976  0.00  0.00     0.091 A 
ATOM     20  N   LIG d   1       9.009   2.971  -4.535  0.00  0.00    -0.291 N 
ATOM     21  C   LIG d   1       9.576   4.021  -3.944  0.00  0.00     0.237 A 
ATOM     22  O   LIG d   1       9.555   4.070  -2.733  0.00  0.00    -0.274 OA
ATOM     23  H   LIG d   1       8.699   9.374  -3.500  0.00  0.00     0.062 H 
ATOM     24  H   LIG d   1       8.749  11.795  -3.936  0.00  0.00     0.062 H 
ATOM     25  H   LIG d   1       9.825  12.707  -5.915  0.00  0.00     0.062 H 
ATOM     26  H   LIG d   1      10.921  11.251  -7.582  0.00  0.00     0.064 H 
ATOM     27  H   LIG d   1       9.662   6.783  -3.400  0.00  0.00     0.034 H 
ATOM     28  H   LIG d   1       8.409   6.283  -4.565  0.00  0.00     0.034 H 
ATOM     29  H   LIG d   1       9.419   1.818  -6.218  0.00  0.00     0.056 H 
ATOM     30  H   LIG d   1       7.926   2.772  -6.301  0.00  0.00     0.056 H 
ENDROOT
BRANCH   1  31
ATOM     31  C   LIG d   1      10.653   5.641  -8.413  0.00  0.00    -0.021 A 
ATOM     32  C   LIG d   1       9.419   6.065  -8.872  0.00  0.00    -0.056 A 
ATOM     33  C   LIG d   1       9.075   5.883 -10.198  0.00  0.00    -0.058 A 
ATOM     34  H   LIG d   1       8.723   6.537  -8.194  0.00  0.00     0.062 H 
ATOM     35  C   LIG d   1       9.966   5.279 -11.066  0.00  0.00    -0.045 A 
ATOM     36  H   LIG d   1       8.111   6.213 -10.557  0.00  0.00     0.062 H 
ATOM     37  C   LIG d   1      11.199   4.856 -10.608  0.00  0.00    -0.058 A 
ATOM     38  C   LIG d   1      11.545   5.042  -9.283  0.00  0.00    -0.056 A 
ATOM     39  H   LIG d   1      11.894   4.384 -11.286  0.00  0.00     0.062 H 
ATOM     40  H   LIG d   1      12.510   4.716  -8.925  0.00  0.00     0.062 H 
BRANCH  35  41
ATOM     41  C   LIG d   1       9.590   5.081 -12.512  0.00  0.00    -0.021 C 
ATOM     42  H   LIG d   1       8.928   4.220 -12.602  0.00  0.00     0.034 H 
BRANCH  41  43
ATOM     43  C   LIG d   1       8.874   6.331 -13.028  0.00  0.00    -0.059 C 
ATOM     44  H   LIG d   1       8.177   6.050 -13.818  0.00  0.00     0.024 H 
ATOM     45  H   LIG d   1       8.327   6.800 -12.211  0.00  0.00     0.024 H 
ATOM     46  H   LIG d   1       9.608   7.032 -13.425  0.00  0.00     0.024 H 
ENDBRANCH  41  43
BRANCH  41  47
ATOM     47  C   LIG d   1      10.854   4.839 -13.339  0.00  0.00    -0.059 C 
ATOM     48  H   LIG d   1      10.861   3.810 -13.700  0.00  0.00     0.024 H 
ATOM     49  H   LIG d   1      10.869   5.522 -14.189  0.00  0.00     0.024 H 
ATOM     50  H   LIG d   1      11.733   5.012 -12.718  0.00  0.00     0.024 H 
ENDBRANCH  41  47
ENDBRANCH  35  41
ENDBRANCH   1  31
BRANCH  20  51
ATOM     51  C   LIG d   1       8.392   1.950  -3.685  0.00  0.00     0.019 C 
ATOM     52  H   LIG d   1       9.158   1.263  -3.327  0.00  0.00     0.047 H 
ATOM     53  H   LIG d   1       7.908   2.430  -2.834  0.00  0.00     0.047 H 
BRANCH  51  54
ATOM     54  C   LIG d   1       7.350   1.175  -4.494  0.00  0.00    -0.012 C 
ATOM     55  H   LIG d   1       6.852   1.852  -5.189  0.00  0.00     0.033 H 
ATOM     56  H   LIG d   1       7.842   0.378  -5.052  0.00  0.00     0.033 H 
BRANCH  54  57
ATOM     57  C   LIG d   1       6.331   0.577  -3.559  0.00  0.00    -0.046 A 
ATOM     58  C   LIG d   1       6.184  -0.795  -3.481  0.00  0.00    -0.059 A 
ATOM     59  C   LIG d   1       5.250  -1.343  -2.622  0.00  0.00    -0.061 A 
ATOM     60  H   LIG d   1       6.800  -1.440  -4.092  0.00  0.00     0.062 H 
ATOM     61  C   LIG d   1       4.461  -0.518  -1.842  0.00  0.00    -0.062 A 
ATOM     62  H   LIG d   1       5.136  -2.416  -2.561  0.00  0.00     0.062 H 
ATOM     63  C   LIG d   1       4.608   0.854  -1.919  0.00  0.00    -0.061 A 
ATOM     64  H   LIG d   1       3.732  -0.947  -1.171  0.00  0.00     0.062 H 
ATOM     65  C   LIG d   1       5.546   1.401  -2.773  0.00  0.00    -0.059 A 
ATOM     66  H   LIG d   1       3.993   1.498  -1.308  0.00  0.00     0.062 H 
ATOM     67  H   LIG d   1       5.664   2.473  -2.831  0.00  0.00     0.062 H 
ENDBRANCH  54  57
ENDBRANCH  51  54
ENDBRANCH  20  51
TORSDOF 7
ENDMDL
MODEL 6
REMARK VINA RESULT:      -7.3      4.280      6.288
REMARK  7 active torsions:
REMARK  status: ('A' for Active; 'I' for Inactive)
REMARK    1  A    between atoms: C_1  and  C_2 
REMARK    2  A    between atoms: C_2  and  C_3 
REMARK    3  A    between atoms: C_2  and  C_4 
REMARK    4  A    between atoms: C_7  and  C_10 
REMARK    5  A    between atoms: N_29  and  C_32 
REMARK    6  A    between atoms: C_32  and  C_33 
REMARK    7  A    between atoms: C_33  and  C_34 
ROOT
ATOM      1  C   LIG d   1      10.108   3.358  -7.709  0.00  0.00     0.092 C 
ATOM      2  H   LIG d   1      11.047   2.823  -7.854  0.00  0.00     0.062 H 
ATOM      3  C   LIG d   1      10.218   4.274  -6.510  0.00  0.00     0.046 A 
ATOM      4  C   LIG d   1       9.595   4.040  -5.335  0.00  0.00    -0.015 A 
ATOM      5  C   LIG d   1       9.945   5.130  -4.446  0.00  0.00     0.003 A 
ATOM      6  C   LIG d   1       9.604   5.420  -3.122  0.00  0.00    -0.052 A 
ATOM      7  C   LIG d   1      10.131   6.567  -2.583  0.00  0.00    -0.061 A 
ATOM      8  C   LIG d   1      10.961   7.407  -3.306  0.00  0.00    -0.060 A 
ATOM      9  C   LIG d   1      11.314   7.145  -4.618  0.00  0.00    -0.038 A 
ATOM     10  C   LIG d   1      10.795   5.986  -5.192  0.00  0.00     0.047 A 
ATOM     11  N   LIG d   1      10.937   5.436  -6.434  0.00  0.00    -0.356 N 
ATOM     12  H   LIG d   1      11.469   5.812  -7.153  0.00  0.00     0.166 HD
ATOM     13  C   LIG d   1       8.710   2.853  -5.054  0.00  0.00     0.002 C 
ATOM     14  C   LIG d   1       8.976   1.773  -6.112  0.00  0.00     0.107 A 
ATOM     15  H   LIG d   1       9.942   1.312  -5.909  0.00  0.00     0.060 H 
ATOM     16  N   LIG d   1       9.018   2.398  -7.434  0.00  0.00    -0.276 N 
ATOM     17  C   LIG d   1       8.149   2.154  -8.398  0.00  0.00     0.234 A 
ATOM     18  O   LIG d   1       8.250   2.780  -9.431  0.00  0.00    -0.274 OA
ATOM     19  C   LIG d   1       7.038   1.160  -8.292  0.00  0.00     0.091 A 
ATOM     20  N   LIG d   1       7.052   0.461  -7.017  0.00  0.00    -0.291 N 
ATOM     21  C   LIG d   1       7.913   0.724  -6.037  0.00  0.00     0.237 A 
ATOM     22  O   LIG d   1       7.831   0.071  -5.019  0.00  0.00    -0.274 OA
ATOM     23  H   LIG d   1       8.957   4.771  -2.550  0.00  0.00     0.062 H 
ATOM     24  H   LIG d   1       9.889   6.823  -1.561  0.00  0.00     0.062 H 
ATOM     25  H   LIG d   1      11.344   8.297  -2.831  0.00  0.00     0.062 H 
ATOM     26  H   LIG d   1      11.962   7.808  -5.172  0.00  0.00     0.064 H 
ATOM     27  H   LIG d   1       8.934   2.457  -4.064  0.00  0.00     0.034 H 
ATOM     28  H   LIG d   1       7.664   3.159  -5.099  0.00  0.00     0.034 H 
ATOM     29  H   LIG d   1       7.137   0.431  -9.096  0.00  0.00     0.056 H 
ATOM     30  H   LIG d   1       6.087   1.680  -8.401  0.00  0.00     0.056 H 
ENDROOT
BRANCH   1  31
ATOM     31  C   LIG d   1       9.784   4.164  -8.941  0.00  0.00    -0.021 A 
ATOM     32  C   LIG d   1       8.871   5.200  -8.868  0.00  0.00    -0.056 A 
ATOM     33  C   LIG d   1       8.572   5.938  -9.997  0.00  0.00    -0.058 A 
ATOM     34  H   LIG d   1       8.390   5.431  -7.929  0.00  0.00     0.062 H 
ATOM     35  C   LIG d   1       9.188   5.642 -11.199  0.00  0.00    -0.045 A 
ATOM     36  H   LIG d   1       7.859   6.747  -9.941  0.00  0.00     0.062 H 
ATOM     37  C   LIG d   1      10.101   4.607 -11.271  0.00  0.00    -0.058 A 
ATOM     38  C   LIG d   1      10.403   3.871 -10.141  0.00  0.00    -0.056 A 
ATOM     39  H   LIG d   1      10.582   4.375 -12.210  0.00  0.00     0.062 H 
ATOM     40  H   LIG d   1      11.119   3.065 -10.196  0.00  0.00     0.062 H 
BRANCH  35  41
ATOM     41  C   LIG d   1       8.863   6.448 -12.431  0.00  0.00    -0.021 C 
ATOM     42  H   LIG d   1       7.811   6.732 -12.412  0.00  0.00     0.034 H 
BRANCH  41  43
ATOM     43  C   LIG d   1       9.731   7.708 -12.459  0.00  0.00    -0.059 C 
ATOM     44  H   LIG d   1      10.608   7.558 -11.828  0.00  0.00     0.024 H 
ATOM     45  H   LIG d   1      10.049   7.907 -13.482  0.00  0.00     0.024 H 
ATOM     46  H   LIG d   1       9.155   8.554 -12.086  0.00  0.00     0.024 H 
ENDBRANCH  41  43
BRANCH  41  47
ATOM     47  C   LIG d   1       9.141   5.608 -13.678  0.00  0.00    -0.059 C 
ATOM     48  H   LIG d   1       8.309   5.706 -14.375  0.00  0.00     0.024 H 
ATOM     49  H   LIG d   1      10.057   5.958 -14.154  0.00  0.00     0.024 H 
ATOM     50  H   LIG d   1       9.255   4.562 -13.394  0.00  0.00     0.024 H 
ENDBRANCH  41  47
ENDBRANCH  35  41
ENDBRANCH   1  31
BRANCH  20  51
ATOM     51  C   LIG d   1       6.059  -0.594  -6.799  0.00  0.00     0.019 C 
ATOM     52  H   LIG d   1       5.921  -1.160  -7.721  0.00  0.00     0.047 H 
ATOM     53  H   LIG d   1       6.408  -1.263  -6.012  0.00  0.00     0.047 H 
BRANCH  51  54
ATOM     54  C   LIG d   1       4.728   0.035  -6.382  0.00  0.00    -0.012 C 
ATOM     55  H   LIG d   1       4.859   1.110  -6.253  0.00  0.00     0.033 H 
ATOM     56  H   LIG d   1       3.982  -0.150  -7.155  0.00  0.00     0.033 H 
BRANCH  54  57
ATOM     57  C   LIG d   1       4.270  -0.575  -5.083  0.00  0.00    -0.046 A 
ATOM     58  C   LIG d   1       4.854  -1.739  -4.622  0.00  0.00    -0.059 A 
ATOM     59  C   LIG d   1       4.434  -2.299  -3.430  0.00  0.00    -0.061 A 
ATOM     60  H   LIG d   1       5.641  -2.212  -5.193  0.00  0.00     0.062 H 
ATOM     61  C   LIG d   1       3.429  -1.694  -2.699  0.00  0.00    -0.062 A 
ATOM     62  H   LIG d   1       4.892  -3.208  -3.069  0.00  0.00     0.062 H 
ATOM     63  C   LIG d   1       2.844  -0.530  -3.160  0.00  0.00    -0.061 A 
ATOM     64  H   LIG d   1       3.101  -2.131  -1.768  0.00  0.00     0.062 H 
ATOM     65  C   LIG d   1       3.268   0.033  -4.349  0.00  0.00    -0.059 A 
ATOM     66  H   LIG d   1       2.058  -0.057  -2.589  0.00  0.00     0.062 H 
ATOM     67  H   LIG d   1       2.814   0.944  -4.708  0.00  0.00     0.062 H 
ENDBRANCH  54  57
ENDBRANCH  51  54
ENDBRANCH  20  51
TORSDOF 7
ENDMDL
MODEL 7
REMARK VINA RESULT:      -7.2      3.312      9.354
REMARK  7 active torsions:
REMARK  status: ('A' for Active; 'I' for Inactive)
REMARK    1  A    between atoms: C_1  and  C_2 
REMARK    2  A    between atoms: C_2  and  C_3 
REMARK    3  A    between atoms: C_2  and  C_4 
REMARK    4  A    between atoms: C_7  and  C_10 
REMARK    5  A    between atoms: N_29  and  C_32 
REMARK    6  A    between atoms: C_32  and  C_33 
REMARK    7  A    between atoms: C_33  and  C_34 
ROOT
ATOM      1  C   LIG d   1       8.285  -2.659  -5.023  0.00  0.00     0.092 C 
ATOM      2  H   LIG d   1       7.842  -3.057  -5.936  0.00  0.00     0.062 H 
ATOM      3  C   LIG d   1       7.258  -1.851  -4.262  0.00  0.00     0.046 A 
ATOM      4  C   LIG d   1       7.288  -0.504  -4.174  0.00  0.00    -0.015 A 
ATOM      5  C   LIG d   1       6.147  -0.107  -3.372  0.00  0.00     0.003 A 
ATOM      6  C   LIG d   1       5.671   1.138  -2.952  0.00  0.00    -0.052 A 
ATOM      7  C   LIG d   1       4.533   1.140  -2.185  0.00  0.00    -0.061 A 
ATOM      8  C   LIG d   1       3.879  -0.029  -1.833  0.00  0.00    -0.060 A 
ATOM      9  C   LIG d   1       4.328  -1.276  -2.234  0.00  0.00    -0.038 A 
ATOM     10  C   LIG d   1       5.482  -1.309  -3.016  0.00  0.00     0.047 A 
ATOM     11  N   LIG d   1       6.182  -2.341  -3.572  0.00  0.00    -0.356 N 
ATOM     12  H   LIG d   1       5.950  -3.280  -3.491  0.00  0.00     0.166 HD
ATOM     13  C   LIG d   1       8.336   0.375  -4.806  0.00  0.00     0.002 C 
ATOM     14  C   LIG d   1       9.071  -0.428  -5.888  0.00  0.00     0.107 A 
ATOM     15  H   LIG d   1       8.412  -0.547  -6.747  0.00  0.00     0.060 H 
ATOM     16  N   LIG d   1       9.402  -1.752  -5.359  0.00  0.00    -0.276 N 
ATOM     17  C   LIG d   1      10.635  -2.187  -5.170  0.00  0.00     0.234 A 
ATOM     18  O   LIG d   1      10.783  -3.281  -4.667  0.00  0.00    -0.274 OA
ATOM     19  C   LIG d   1      11.861  -1.412  -5.527  0.00  0.00     0.091 A 
ATOM     20  N   LIG d   1      11.539  -0.137  -6.147  0.00  0.00    -0.291 N 
ATOM     21  C   LIG d   1      10.297   0.312  -6.316  0.00  0.00     0.237 A 
ATOM     22  O   LIG d   1      10.152   1.390  -6.852  0.00  0.00    -0.274 OA
ATOM     23  H   LIG d   1       6.173   2.056  -3.221  0.00  0.00     0.062 H 
ATOM     24  H   LIG d   1       4.135   2.085  -1.842  0.00  0.00     0.062 H 
ATOM     25  H   LIG d   1       2.989   0.033  -1.226  0.00  0.00     0.062 H 
ATOM     26  H   LIG d   1       3.810  -2.180  -1.954  0.00  0.00     0.064 H 
ATOM     27  H   LIG d   1       7.858   1.245  -5.258  0.00  0.00     0.034 H 
ATOM     28  H   LIG d   1       9.046   0.701  -4.046  0.00  0.00     0.034 H 
ATOM     29  H   LIG d   1      12.463  -2.001  -6.219  0.00  0.00     0.056 H 
ATOM     30  H   LIG d   1      12.440  -1.230  -4.622  0.00  0.00     0.056 H 
ENDROOT
BRANCH   1  31
ATOM     31  C   LIG d   1       8.786  -3.791  -4.163  0.00  0.00    -0.021 A 
ATOM     32  C   LIG d   1       9.162  -3.550  -2.854  0.00  0.00    -0.056 A 
ATOM     33  C   LIG d   1       9.622  -4.588  -2.065  0.00  0.00    -0.058 A 
ATOM     34  H   LIG d   1       9.099  -2.551  -2.449  0.00  0.00     0.062 H 
ATOM     35  C   LIG d   1       9.703  -5.867  -2.584  0.00  0.00    -0.045 A 
ATOM     36  H   LIG d   1       9.917  -4.400  -1.043  0.00  0.00     0.062 H 
ATOM     37  C   LIG d   1       9.326  -6.107  -3.891  0.00  0.00    -0.058 A 
ATOM     38  C   LIG d   1       8.862  -5.071  -4.679  0.00  0.00    -0.056 A 
ATOM     39  H   LIG d   1       9.390  -7.106  -4.297  0.00  0.00     0.062 H 
ATOM     40  H   LIG d   1       8.564  -5.259  -5.699  0.00  0.00     0.062 H 
BRANCH  35  41
ATOM     41  C   LIG d   1      10.204  -6.998  -1.723  0.00  0.00    -0.021 C 
ATOM     42  H   LIG d   1      10.201  -6.689  -0.678  0.00  0.00     0.034 H 
BRANCH  41  43
ATOM     43  C   LIG d   1       9.291  -8.214  -1.898  0.00  0.00    -0.059 C 
ATOM     44  H   LIG d   1       9.118  -8.387  -2.961  0.00  0.00     0.024 H 
ATOM     45  H   LIG d   1       9.766  -9.091  -1.461  0.00  0.00     0.024 H 
ATOM     46  H   LIG d   1       8.340  -8.028  -1.401  0.00  0.00     0.024 H 
ENDBRANCH  41  43
BRANCH  41  47
ATOM     47  C   LIG d   1      11.629  -7.365  -2.142  0.00  0.00    -0.059 C 
ATOM     48  H   LIG d   1      12.180  -6.457  -2.388  0.00  0.00     0.024 H 
ATOM     49  H   LIG d   1      12.127  -7.882  -1.321  0.00  0.00     0.024 H 
ATOM     50  H   LIG d   1      11.595  -8.017  -3.015  0.00  0.00     0.024 H 
ENDBRANCH  41  47
ENDBRANCH  35  41
ENDBRANCH   1  31
BRANCH  20  51
ATOM     51  C   LIG d   1      12.646   0.701  -6.614  0.00  0.00     0.019 C 
ATOM     52  H   LIG d   1      13.323   0.104  -7.225  0.00  0.00     0.047 H 
ATOM     53  H   LIG d   1      12.252   1.525  -7.208  0.00  0.00     0.047 H 
BRANCH  51  54
ATOM     54  C   LIG d   1      13.406   1.260  -5.408  0.00  0.00    -0.012 C 
ATOM     55  H   LIG d   1      13.616   0.453  -4.706  0.00  0.00     0.033 H 
ATOM     56  H   LIG d   1      14.343   1.704  -5.744  0.00  0.00     0.033 H 
BRANCH  54  57
ATOM     57  C   LIG d   1      12.567   2.311  -4.729  0.00  0.00    -0.046 A 
ATOM     58  C   LIG d   1      12.462   3.574  -5.280  0.00  0.00    -0.059 A 
ATOM     59  C   LIG d   1      11.691   4.538  -4.658  0.00  0.00    -0.061 A 
ATOM     60  H   LIG d   1      12.981   3.808  -6.199  0.00  0.00     0.062 H 
ATOM     61  C   LIG d   1      11.026   4.239  -3.483  0.00  0.00    -0.062 A 
ATOM     62  H   LIG d   1      11.608   5.525  -5.089  0.00  0.00     0.062 H 
ATOM     63  C   LIG d   1      11.131   2.976  -2.932  0.00  0.00    -0.061 A 
ATOM     64  H   LIG d   1      10.425   4.993  -2.997  0.00  0.00     0.062 H 
ATOM     65  C   LIG d   1      11.897   2.011  -3.558  0.00  0.00    -0.059 A 
ATOM     66  H   LIG d   1      10.611   2.742  -2.015  0.00  0.00     0.062 H 
ATOM     67  H   LIG d   1      11.977   1.023  -3.129  0.00  0.00     0.062 H 
ENDBRANCH  54  57
ENDBRANCH  51  54
ENDBRANCH  20  51
TORSDOF 7
ENDMDL
MODEL 8
REMARK VINA RESULT:      -7.2      2.672      3.358
REMARK  7 active torsions:
REMARK  status: ('A' for Active; 'I' for Inactive)
REMARK    1  A    between atoms: C_1  and  C_2 
REMARK    2  A    between atoms: C_2  and  C_3 
REMARK    3  A    between atoms: C_2  and  C_4 
REMARK    4  A    between atoms: C_7  and  C_10 
REMARK    5  A    between atoms: N_29  and  C_32 
REMARK    6  A    between atoms: C_32  and  C_33 
REMARK    7  A    between atoms: C_33  and  C_34 
ROOT
ATOM      1  C   LIG d   1       9.860   4.909  -5.153  0.00  0.00     0.092 C 
ATOM      2  H   LIG d   1       9.112   5.616  -5.510  0.00  0.00     0.062 H 
ATOM      3  C   LIG d   1      11.020   4.854  -6.122  0.00  0.00     0.046 A 
ATOM      4  C   LIG d   1      11.259   3.806  -6.939  0.00  0.00    -0.015 A 
ATOM      5  C   LIG d   1      12.445   4.130  -7.707  0.00  0.00     0.003 A 
ATOM      6  C   LIG d   1      13.153   3.438  -8.694  0.00  0.00    -0.052 A 
ATOM      7  C   LIG d   1      14.257   4.063  -9.218  0.00  0.00    -0.061 A 
ATOM      8  C   LIG d   1      14.663   5.318  -8.796  0.00  0.00    -0.060 A 
ATOM      9  C   LIG d   1      13.981   6.025  -7.821  0.00  0.00    -0.038 A 
ATOM     10  C   LIG d   1      12.855   5.416  -7.271  0.00  0.00     0.047 A 
ATOM     11  N   LIG d   1      11.970   5.822  -6.314  0.00  0.00    -0.356 N 
ATOM     12  H   LIG d   1      12.008   6.668  -5.841  0.00  0.00     0.166 HD
ATOM     13  C   LIG d   1      10.422   2.554  -6.998  0.00  0.00     0.002 C 
ATOM     14  C   LIG d   1       9.063   2.835  -6.340  0.00  0.00     0.107 A 
ATOM     15  H   LIG d   1       8.472   3.463  -7.007  0.00  0.00     0.060 H 
ATOM     16  N   LIG d   1       9.278   3.552  -5.083  0.00  0.00    -0.276 N 
ATOM     17  C   LIG d   1       8.980   3.065  -3.892  0.00  0.00     0.234 A 
ATOM     18  O   LIG d   1       9.261   3.728  -2.917  0.00  0.00    -0.274 OA
ATOM     19  C   LIG d   1       8.324   1.741  -3.668  0.00  0.00     0.091 A 
ATOM     20  N   LIG d   1       8.015   1.068  -4.920  0.00  0.00    -0.291 N 
ATOM     21  C   LIG d   1       8.337   1.548  -6.119  0.00  0.00     0.237 A 
ATOM     22  O   LIG d   1       8.021   0.899  -7.093  0.00  0.00    -0.274 OA
ATOM     23  H   LIG d   1      12.845   2.459  -9.030  0.00  0.00     0.062 H 
ATOM     24  H   LIG d   1      14.829   3.558  -9.984  0.00  0.00     0.062 H 
ATOM     25  H   LIG d   1      15.540   5.760  -9.243  0.00  0.00     0.062 H 
ATOM     26  H   LIG d   1      14.308   7.004  -7.501  0.00  0.00     0.064 H 
ATOM     27  H   LIG d   1      10.271   2.265  -8.038  0.00  0.00     0.034 H 
ATOM     28  H   LIG d   1      10.927   1.751  -6.463  0.00  0.00     0.034 H 
ATOM     29  H   LIG d   1       7.400   1.893  -3.110  0.00  0.00     0.056 H 
ATOM     30  H   LIG d   1       8.992   1.110  -3.083  0.00  0.00     0.056 H 
ENDROOT
BRANCH   1  31
ATOM     31  C   LIG d   1      10.351   5.327  -3.791  0.00  0.00    -0.021 A 
ATOM     32  C   LIG d   1       9.641   6.261  -3.058  0.00  0.00    -0.056 A 
ATOM     33  C   LIG d   1      10.091   6.645  -1.809  0.00  0.00    -0.058 A 
ATOM     34  H   LIG d   1       8.736   6.691  -3.462  0.00  0.00     0.062 H 
ATOM     35  C   LIG d   1      11.248   6.094  -1.291  0.00  0.00    -0.045 A 
ATOM     36  H   LIG d   1       9.537   7.375  -1.236  0.00  0.00     0.062 H 
ATOM     37  C   LIG d   1      11.956   5.161  -2.024  0.00  0.00    -0.058 A 
ATOM     38  C   LIG d   1      11.505   4.773  -3.271  0.00  0.00    -0.056 A 
ATOM     39  H   LIG d   1      12.861   4.731  -1.620  0.00  0.00     0.062 H 
ATOM     40  H   LIG d   1      12.056   4.041  -3.842  0.00  0.00     0.062 H 
BRANCH  35  41
ATOM     41  C   LIG d   1      11.738   6.513   0.071  0.00  0.00    -0.021 C 
ATOM     42  H   LIG d   1      12.823   6.424   0.111  0.00  0.00     0.034 H 
BRANCH  41  43
ATOM     43  C   LIG d   1      11.336   7.967   0.331  0.00  0.00    -0.059 C 
ATOM     44  H   LIG d   1      10.734   8.020   1.238  0.00  0.00     0.024 H 
ATOM     45  H   LIG d   1      12.232   8.575   0.454  0.00  0.00     0.024 H 
ATOM     46  H   LIG d   1      10.756   8.340  -0.512  0.00  0.00     0.024 H 
ENDBRANCH  41  43
BRANCH  41  47
ATOM     47  C   LIG d   1      11.112   5.613   1.138  0.00  0.00    -0.059 C 
ATOM     48  H   LIG d   1      11.876   4.951   1.547  0.00  0.00     0.024 H 
ATOM     49  H   LIG d   1      10.699   6.229   1.936  0.00  0.00     0.024 H 
ATOM     50  H   LIG d   1      10.318   5.017   0.689  0.00  0.00     0.024 H 
ENDBRANCH  41  47
ENDBRANCH  35  41
ENDBRANCH   1  31
BRANCH  20  51
ATOM     51  C   LIG d   1       7.305  -0.213  -4.856  0.00  0.00     0.019 C 
ATOM     52  H   LIG d   1       6.352  -0.127  -5.376  0.00  0.00     0.047 H 
ATOM     53  H   LIG d   1       7.910  -0.986  -5.330  0.00  0.00     0.047 H 
BRANCH  51  54
ATOM     54  C   LIG d   1       7.057  -0.585  -3.392  0.00  0.00    -0.012 C 
ATOM     55  H   LIG d   1       7.467  -1.576  -3.195  0.00  0.00     0.033 H 
ATOM     56  H   LIG d   1       7.542   0.145  -2.745  0.00  0.00     0.033 H 
BRANCH  54  57
ATOM     57  C   LIG d   1       5.574  -0.592  -3.121  0.00  0.00    -0.046 A 
ATOM     58  C   LIG d   1       4.871   0.597  -3.095  0.00  0.00    -0.059 A 
ATOM     59  C   LIG d   1       3.511   0.591  -2.847  0.00  0.00    -0.061 A 
ATOM     60  H   LIG d   1       5.384   1.532  -3.269  0.00  0.00     0.062 H 
ATOM     61  C   LIG d   1       2.855  -0.605  -2.624  0.00  0.00    -0.062 A 
ATOM     62  H   LIG d   1       2.961   1.521  -2.827  0.00  0.00     0.062 H 
ATOM     63  C   LIG d   1       3.558  -1.794  -2.650  0.00  0.00    -0.061 A 
ATOM     64  H   LIG d   1       1.793  -0.610  -2.430  0.00  0.00     0.062 H 
ATOM     65  C   LIG d   1       4.917  -1.789  -2.904  0.00  0.00    -0.059 A 
ATOM     66  H   LIG d   1       3.045  -2.729  -2.476  0.00  0.00     0.062 H 
ATOM     67  H   LIG d   1       5.466  -2.718  -2.928  0.00  0.00     0.062 H 
ENDBRANCH  54  57
ENDBRANCH  51  54
ENDBRANCH  20  51
TORSDOF 7
ENDMDL
MODEL 9
REMARK VINA RESULT:      -7.2      4.910      8.374
REMARK  7 active torsions:
REMARK  status: ('A' for Active; 'I' for Inactive)
REMARK    1  A    between atoms: C_1  and  C_2 
REMARK    2  A    between atoms: C_2  and  C_3 
REMARK    3  A    between atoms: C_2  and  C_4 
REMARK    4  A    between atoms: C_7  and  C_10 
REMARK    5  A    between atoms: N_29  and  C_32 
REMARK    6  A    between atoms: C_32  and  C_33 
REMARK    7  A    between atoms: C_33  and  C_34 
ROOT
ATOM      1  C   LIG d   1       7.874  -0.495  -8.679  0.00  0.00     0.092 C 
ATOM      2  H   LIG d   1       8.697  -1.132  -9.003  0.00  0.00     0.062 H 
ATOM      3  C   LIG d   1       8.389   0.893  -8.373  0.00  0.00     0.046 A 
ATOM      4  C   LIG d   1       8.499   1.387  -7.121  0.00  0.00    -0.015 A 
ATOM      5  C   LIG d   1       9.026   2.732  -7.242  0.00  0.00     0.003 A 
ATOM      6  C   LIG d   1       9.346   3.713  -6.298  0.00  0.00    -0.052 A 
ATOM      7  C   LIG d   1       9.836   4.901  -6.780  0.00  0.00    -0.061 A 
ATOM      8  C   LIG d   1      10.008   5.131  -8.135  0.00  0.00    -0.060 A 
ATOM      9  C   LIG d   1       9.700   4.178  -9.091  0.00  0.00    -0.038 A 
ATOM     10  C   LIG d   1       9.201   2.961  -8.631  0.00  0.00     0.047 A 
ATOM     11  N   LIG d   1       8.806   1.828  -9.282  0.00  0.00    -0.356 N 
ATOM     12  H   LIG d   1       8.819   1.704 -10.244  0.00  0.00     0.166 HD
ATOM     13  C   LIG d   1       8.125   0.640  -5.867  0.00  0.00     0.002 C 
ATOM     14  C   LIG d   1       8.030  -0.858  -6.192  0.00  0.00     0.107 A 
ATOM     15  H   LIG d   1       9.036  -1.253  -6.328  0.00  0.00     0.060 H 
ATOM     16  N   LIG d   1       7.281  -1.031  -7.436  0.00  0.00    -0.276 N 
ATOM     17  C   LIG d   1       6.112  -1.642  -7.519  0.00  0.00     0.234 A 
ATOM     18  O   LIG d   1       5.557  -1.670  -8.597  0.00  0.00    -0.274 OA
ATOM     19  C   LIG d   1       5.424  -2.293  -6.364  0.00  0.00     0.091 A 
ATOM     20  N   LIG d   1       6.211  -2.213  -5.144  0.00  0.00    -0.291 N 
ATOM     21  C   LIG d   1       7.377  -1.577  -5.055  0.00  0.00     0.237 A 
ATOM     22  O   LIG d   1       7.947  -1.582  -3.985  0.00  0.00    -0.274 OA
ATOM     23  H   LIG d   1       9.215   3.543  -5.239  0.00  0.00     0.062 H 
ATOM     24  H   LIG d   1      10.095   5.682  -6.080  0.00  0.00     0.062 H 
ATOM     25  H   LIG d   1      10.396   6.085  -8.457  0.00  0.00     0.062 H 
ATOM     26  H   LIG d   1       9.839   4.370 -10.144  0.00  0.00     0.064 H 
ATOM     27  H   LIG d   1       8.888   0.800  -5.105  0.00  0.00     0.034 H 
ATOM     28  H   LIG d   1       7.162   0.996  -5.502  0.00  0.00     0.034 H 
ATOM     29  H   LIG d   1       5.246  -3.341  -6.602  0.00  0.00     0.056 H 
ATOM     30  H   LIG d   1       4.466  -1.801  -6.200  0.00  0.00     0.056 H 
ENDROOT
BRANCH   1  31
ATOM     31  C   LIG d   1       6.825  -0.426  -9.759  0.00  0.00    -0.021 A 
ATOM     32  C   LIG d   1       6.837  -1.345 -10.793  0.00  0.00    -0.056 A 
ATOM     33  C   LIG d   1       5.876  -1.282 -11.784  0.00  0.00    -0.058 A 
ATOM     34  H   LIG d   1       7.597  -2.111 -10.827  0.00  0.00     0.062 H 
ATOM     35  C   LIG d   1       4.901  -0.301 -11.741  0.00  0.00    -0.045 A 
ATOM     36  H   LIG d   1       5.884  -1.999 -12.592  0.00  0.00     0.062 H 
ATOM     37  C   LIG d   1       4.890   0.616 -10.707  0.00  0.00    -0.058 A 
ATOM     38  C   LIG d   1       5.849   0.551  -9.714  0.00  0.00    -0.056 A 
ATOM     39  H   LIG d   1       4.130   1.382 -10.674  0.00  0.00     0.062 H 
ATOM     40  H   LIG d   1       5.838   1.265  -8.904  0.00  0.00     0.062 H 
BRANCH  35  41
ATOM     41  C   LIG d   1       3.853  -0.233 -12.821  0.00  0.00    -0.021 C 
ATOM     42  H   LIG d   1       3.477   0.787 -12.900  0.00  0.00     0.034 H 
BRANCH  41  43
ATOM     43  C   LIG d   1       4.471  -0.652 -14.157  0.00  0.00    -0.059 C 
ATOM     44  H   LIG d   1       4.671   0.235 -14.759  0.00  0.00     0.024 H 
ATOM     45  H   LIG d   1       5.405  -1.184 -13.975  0.00  0.00     0.024 H 
ATOM     46  H   LIG d   1       3.779  -1.303 -14.689  0.00  0.00     0.024 H 
ENDBRANCH  41  43
BRANCH  41  47
ATOM     47  C   LIG d   1       2.700  -1.176 -12.475  0.00  0.00    -0.059 C 
ATOM     48  H   LIG d   1       1.840  -0.943 -13.102  0.00  0.00     0.024 H 
ATOM     49  H   LIG d   1       3.009  -2.207 -12.650  0.00  0.00     0.024 H 
ATOM     50  H   LIG d   1       2.430  -1.050 -11.426  0.00  0.00     0.024 H 
ENDBRANCH  41  47
ENDBRANCH  35  41
ENDBRANCH   1  31
BRANCH  20  51
ATOM     51  C   LIG d   1       5.690  -2.871  -3.943  0.00  0.00     0.019 C 
ATOM     52  H   LIG d   1       5.815  -3.950  -4.036  0.00  0.00     0.047 H 
ATOM     53  H   LIG d   1       6.237  -2.517  -3.069  0.00  0.00     0.047 H 
BRANCH  51  54
ATOM     54  C   LIG d   1       4.204  -2.541  -3.784  0.00  0.00    -0.012 C 
ATOM     55  H   LIG d   1       3.709  -2.621  -4.752  0.00  0.00     0.033 H 
ATOM     56  H   LIG d   1       3.750  -3.241  -3.084  0.00  0.00     0.033 H 
BRANCH  54  57
ATOM     57  C   LIG d   1       4.056  -1.136  -3.259  0.00  0.00    -0.046 A 
ATOM     58  C   LIG d   1       3.308  -0.211  -3.962  0.00  0.00    -0.059 A 
ATOM     59  C   LIG d   1       3.171   1.077  -3.480  0.00  0.00    -0.061 A 
ATOM     60  H   LIG d   1       2.828  -0.495  -4.888  0.00  0.00     0.062 H 
ATOM     61  C   LIG d   1       3.784   1.441  -2.296  0.00  0.00    -0.062 A 
ATOM     62  H   LIG d   1       2.585   1.801  -4.029  0.00  0.00     0.062 H 
ATOM     63  C   LIG d   1       4.532   0.516  -1.593  0.00  0.00    -0.061 A 
ATOM     64  H   LIG d   1       3.677   2.447  -1.920  0.00  0.00     0.062 H 
ATOM     65  C   LIG d   1       4.664  -0.774  -2.072  0.00  0.00    -0.059 A 
ATOM     66  H   LIG d   1       5.011   0.799  -0.667  0.00  0.00     0.062 H 
ATOM     67  H   LIG d   1       5.246  -1.498  -1.521  0.00  0.00     0.062 H 
ENDBRANCH  54  57
ENDBRANCH  51  54
ENDBRANCH  20  51
TORSDOF 7
ENDMDL
