MODEL 1
REMARK VINA RESULT:      -5.9      0.000      0.000
REMARK  5 active torsions:
REMARK  status: ('A' for Active; 'I' for Inactive)
REMARK    1  A    between atoms: C_1  and  O_2 
REMARK    2  A    between atoms: O_2  and  C_3 
REMARK    3  A    between atoms: C_3  and  C_4 
REMARK       I    between atoms: C_4  and  N_6 
REMARK    4  A    between atoms: N_6  and  C_7 
REMARK    5  A    between atoms: CG_18  and  OD_25 
ROOT
ATOM      1  C   UNK d   1       3.776  -1.745  -8.172  0.00  0.00     0.052 C 
ATOM      2  H   UNK d   1       2.715  -1.624  -7.954  0.00  0.00     0.052 H 
ATOM      3  C   UNK d   1       4.100  -3.214  -8.577  0.00  0.00    -0.016 C 
ATOM      4  C   UNK d   1       4.201  -3.925  -7.209  0.00  0.00     0.017 C 
ATOM      5  N   UNK d   1       4.503  -2.898  -6.207  0.00  0.00    -0.286 N 
ATOM      6  C   UNK d   1       4.629  -1.594  -6.890  0.00  0.00     0.121 C 
ATOM      7  H   UNK d   1       5.669  -1.379  -7.134  0.00  0.00     0.061 H 
ATOM      8  C   UNK d   1       4.039  -0.527  -6.003  0.00  0.00     0.239 C 
ATOM      9  O   UNK d   1       3.599   0.500  -6.475  0.00  0.00    -0.274 OA
ATOM     10  H   UNK d   1       5.048  -3.267  -9.112  0.00  0.00     0.030 H 
ATOM     11  H   UNK d   1       3.293  -3.639  -9.175  0.00  0.00     0.030 H 
ATOM     12  H   UNK d   1       5.001  -4.666  -7.234  0.00  0.00     0.046 H 
ATOM     13  H   UNK d   1       3.254  -4.410  -6.970  0.00  0.00     0.046 H 
ATOM     14  N   HYP d   2       4.013  -0.743  -4.670  0.00  0.00    -0.286 N 
ATOM     15  CD  HYP d   2       3.282   0.041  -3.669  0.00  0.00     0.042 C 
ATOM     16  CG  HYP d   2       3.514  -0.643  -2.302  0.00  0.00     0.073 C 
ATOM     17  HG  HYP d   2       2.607  -0.621  -1.697  0.00  0.00     0.061 H 
ATOM     18  CB  HYP d   2       3.873  -2.100  -2.706  0.00  0.00     0.002 C 
ATOM     19  CA  HYP d   2       4.701  -1.858  -3.990  0.00  0.00     0.105 C 
ATOM     20  HA  HYP d   2       5.729  -1.594  -3.747  0.00  0.00     0.060 H 
ATOM     21  C   HYP d   2       4.639  -3.077  -4.876  0.00  0.00     0.237 C 
ATOM     22  O   HYP d   2       4.709  -4.192  -4.404  0.00  0.00    -0.274 OA
ATOM     23  HD1 HYP d   2       3.666   1.061  -3.644  0.00  0.00     0.049 H 
ATOM     24  HD2 HYP d   2       2.219   0.047  -3.905  0.00  0.00     0.049 H 
ATOM     25  HB1 HYP d   2       2.975  -2.681  -2.922  0.00  0.00     0.031 H 
ATOM     26  HB2 HYP d   2       4.475  -2.583  -1.936  0.00  0.00     0.031 H 
ENDROOT
BRANCH   1  27
ATOM     27  N   UNK d   1       4.211  -0.804  -9.207  0.00  0.00    -0.308 N 
ATOM     28  C   UNK d   1       3.302  -0.045  -9.851  0.00  0.00     0.239 C 
ATOM     29  O   UNK d   1       2.125  -0.143  -9.574  0.00  0.00    -0.273 OA
ATOM     30  H   UNK d   1       5.152  -0.726  -9.429  0.00  0.00     0.149 HD
BRANCH  28  31
ATOM     31  C   UNK d   1       3.748   0.924 -10.915  0.00  0.00     0.123 C 
ATOM     32  H   UNK d   1       4.229   0.377 -11.727  0.00  0.00     0.066 H 
ATOM     33  H   UNK d   1       2.882   1.462 -11.303  0.00  0.00     0.066 H 
BRANCH  31  34
ATOM     34  O   UNK d   1       4.675   1.856 -10.354  0.00  0.00    -0.374 OA
BRANCH  34  35
ATOM     35  C   UNK d   1       4.117   2.688  -9.336  0.00  0.00     0.037 C 
ATOM     36  H   UNK d   1       4.762   3.554  -9.181  0.00  0.00     0.052 H 
ATOM     37  H   UNK d   1       3.127   3.024  -9.643  0.00  0.00     0.052 H 
ATOM     38  H   UNK d   1       4.039   2.124  -8.407  0.00  0.00     0.052 H 
ENDBRANCH  34  35
ENDBRANCH  31  34
ENDBRANCH  28  31
ENDBRANCH   1  27
BRANCH  16  39
ATOM     39  OD  HYP d   2       4.601  -0.028  -1.606  0.00  0.00    -0.390 OA
ATOM     40  HD  HYP d   2       4.333   0.687  -1.013  0.00  0.00     0.210 HD
ENDBRANCH  16  39
TORSDOF 5
ENDMDL
MODEL 2
REMARK VINA RESULT:      -5.3      3.509      5.769
REMARK  5 active torsions:
REMARK  status: ('A' for Active; 'I' for Inactive)
REMARK    1  A    between atoms: C_1  and  O_2 
REMARK    2  A    between atoms: O_2  and  C_3 
REMARK    3  A    between atoms: C_3  and  C_4 
REMARK       I    between atoms: C_4  and  N_6 
REMARK    4  A    between atoms: N_6  and  C_7 
REMARK    5  A    between atoms: CG_18  and  OD_25 
ROOT
ATOM      1  C   UNK d   1       6.062  -3.793  -5.590  0.00  0.00     0.052 C 
ATOM      2  H   UNK d   1       6.577  -4.038  -4.661  0.00  0.00     0.052 H 
ATOM      3  C   UNK d   1       7.076  -3.409  -6.708  0.00  0.00    -0.016 C 
ATOM      4  C   UNK d   1       7.393  -1.932  -6.381  0.00  0.00     0.017 C 
ATOM      5  N   UNK d   1       6.270  -1.410  -5.597  0.00  0.00    -0.286 N 
ATOM      6  C   UNK d   1       5.259  -2.477  -5.451  0.00  0.00     0.121 C 
ATOM      7  H   UNK d   1       4.496  -2.401  -6.226  0.00  0.00     0.061 H 
ATOM      8  C   UNK d   1       4.656  -2.386  -4.073  0.00  0.00     0.239 C 
ATOM      9  O   UNK d   1       4.176  -3.363  -3.538  0.00  0.00    -0.274 OA
ATOM     10  H   UNK d   1       6.618  -3.499  -7.692  0.00  0.00     0.030 H 
ATOM     11  H   UNK d   1       7.976  -4.021  -6.642  0.00  0.00     0.030 H 
ATOM     12  H   UNK d   1       7.498  -1.362  -7.305  0.00  0.00     0.046 H 
ATOM     13  H   UNK d   1       8.314  -1.869  -5.800  0.00  0.00     0.046 H 
ATOM     14  N   HYP d   2       4.665  -1.189  -3.448  0.00  0.00    -0.286 N 
ATOM     15  CD  HYP d   2       4.355  -0.934  -2.036  0.00  0.00     0.042 C 
ATOM     16  CG  HYP d   2       4.572   0.577  -1.792  0.00  0.00     0.073 C 
ATOM     17  HG  HYP d   2       5.020   0.753  -0.814  0.00  0.00     0.061 H 
ATOM     18  CB  HYP d   2       5.556   0.969  -2.929  0.00  0.00     0.002 C 
ATOM     19  CA  HYP d   2       5.038   0.087  -4.089  0.00  0.00     0.105 C 
ATOM     20  HA  HYP d   2       4.178   0.547  -4.575  0.00  0.00     0.060 H 
ATOM     21  C   HYP d   2       6.152  -0.173  -5.071  0.00  0.00     0.237 C 
ATOM     22  O   HYP d   2       6.925   0.710  -5.382  0.00  0.00    -0.274 OA
ATOM     23  HD1 HYP d   2       3.317  -1.199  -1.830  0.00  0.00     0.049 H 
ATOM     24  HD2 HYP d   2       5.022  -1.513  -1.399  0.00  0.00     0.049 H 
ATOM     25  HB1 HYP d   2       6.582   0.709  -2.667  0.00  0.00     0.031 H 
ATOM     26  HB2 HYP d   2       5.471   2.028  -3.173  0.00  0.00     0.031 H 
ENDROOT
BRANCH   1  27
ATOM     27  N   UNK d   1       5.196  -4.895  -6.018  0.00  0.00    -0.308 N 
ATOM     28  C   UNK d   1       5.601  -6.170  -5.856  0.00  0.00     0.239 C 
ATOM     29  O   UNK d   1       6.682  -6.405  -5.357  0.00  0.00    -0.273 OA
ATOM     30  H   UNK d   1       4.332  -4.708  -6.417  0.00  0.00     0.149 HD
BRANCH  28  31
ATOM     31  C   UNK d   1       4.712  -7.304  -6.295  0.00  0.00     0.123 C 
ATOM     32  H   UNK d   1       3.813  -6.902  -6.764  0.00  0.00     0.066 H 
ATOM     33  H   UNK d   1       5.247  -7.929  -7.012  0.00  0.00     0.066 H 
BRANCH  31  34
ATOM     34  O   UNK d   1       4.346  -8.091  -5.160  0.00  0.00    -0.374 OA
BRANCH  34  35
ATOM     35  C   UNK d   1       4.726  -9.465  -5.257  0.00  0.00     0.037 C 
ATOM     36  H   UNK d   1       3.951 -10.019  -5.787  0.00  0.00     0.052 H 
ATOM     37  H   UNK d   1       5.666  -9.544  -5.803  0.00  0.00     0.052 H 
ATOM     38  H   UNK d   1       4.850  -9.880  -4.257  0.00  0.00     0.052 H 
ENDBRANCH  34  35
ENDBRANCH  31  34
ENDBRANCH  28  31
ENDBRANCH   1  27
BRANCH  16  39
ATOM     39  OD  HYP d   2       3.341   1.293  -1.919  0.00  0.00    -0.390 OA
ATOM     40  HD  HYP d   2       2.590   0.741  -2.176  0.00  0.00     0.210 HD
ENDBRANCH  16  39
TORSDOF 5
ENDMDL
MODEL 3
REMARK VINA RESULT:      -5.1      2.880      4.194
REMARK  5 active torsions:
REMARK  status: ('A' for Active; 'I' for Inactive)
REMARK    1  A    between atoms: C_1  and  O_2 
REMARK    2  A    between atoms: O_2  and  C_3 
REMARK    3  A    between atoms: C_3  and  C_4 
REMARK       I    between atoms: C_4  and  N_6 
REMARK    4  A    between atoms: N_6  and  C_7 
REMARK    5  A    between atoms: CG_18  and  OD_25 
ROOT
ATOM      1  C   UNK d   1       3.301   0.126  -6.191  0.00  0.00     0.052 C 
ATOM      2  H   UNK d   1       3.526   1.089  -6.650  0.00  0.00     0.052 H 
ATOM      3  C   UNK d   1       2.276   0.286  -5.029  0.00  0.00    -0.016 C 
ATOM      4  C   UNK d   1       3.168   0.747  -3.855  0.00  0.00     0.017 C 
ATOM      5  N   UNK d   1       4.536   0.311  -4.151  0.00  0.00    -0.286 N 
ATOM      6  C   UNK d   1       4.530  -0.427  -5.430  0.00  0.00     0.121 C 
ATOM      7  H   UNK d   1       4.435  -1.500  -5.262  0.00  0.00     0.061 H 
ATOM      8  C   UNK d   1       5.792  -0.097  -6.184  0.00  0.00     0.239 C 
ATOM      9  O   UNK d   1       5.834  -0.176  -7.393  0.00  0.00    -0.274 OA
ATOM     10  H   UNK d   1       1.798  -0.667  -4.802  0.00  0.00     0.030 H 
ATOM     11  H   UNK d   1       1.531   1.045  -5.270  0.00  0.00     0.030 H 
ATOM     12  H   UNK d   1       2.825   0.290  -2.926  0.00  0.00     0.046 H 
ATOM     13  H   UNK d   1       3.135   1.834  -3.767  0.00  0.00     0.046 H 
ATOM     14  N   HYP d   2       6.877   0.290  -5.478  0.00  0.00    -0.286 N 
ATOM     15  CD  HYP d   2       8.109   0.878  -6.016  0.00  0.00     0.042 C 
ATOM     16  CG  HYP d   2       9.016   1.211  -4.808  0.00  0.00     0.073 C 
ATOM     17  HG  HYP d   2       9.542   2.152  -4.965  0.00  0.00     0.061 H 
ATOM     18  CB  HYP d   2       7.997   1.335  -3.641  0.00  0.00     0.002 C 
ATOM     19  CA  HYP d   2       6.987   0.222  -4.008  0.00  0.00     0.105 C 
ATOM     20  HA  HYP d   2       7.348  -0.754  -3.687  0.00  0.00     0.060 H 
ATOM     21  C   HYP d   2       5.640   0.537  -3.408  0.00  0.00     0.237 C 
ATOM     22  O   HYP d   2       5.550   0.984  -2.283  0.00  0.00    -0.274 OA
ATOM     23  HD1 HYP d   2       8.609   0.161  -6.669  0.00  0.00     0.049 H 
ATOM     24  HD2 HYP d   2       7.877   1.788  -6.568  0.00  0.00     0.049 H 
ATOM     25  HB1 HYP d   2       7.519   2.315  -3.640  0.00  0.00     0.031 H 
ATOM     26  HB2 HYP d   2       8.474   1.132  -2.682  0.00  0.00     0.031 H 
ENDROOT
BRANCH   1  27
ATOM     27  N   UNK d   1       2.824  -0.834  -7.189  0.00  0.00    -0.308 N 
ATOM     28  C   UNK d   1       2.518  -0.416  -8.433  0.00  0.00     0.239 C 
ATOM     29  O   UNK d   1       2.638   0.755  -8.725  0.00  0.00    -0.273 OA
ATOM     30  H   UNK d   1       2.727  -1.770  -6.955  0.00  0.00     0.149 HD
BRANCH  28  31
ATOM     31  C   UNK d   1       2.027  -1.402  -9.460  0.00  0.00     0.123 C 
ATOM     32  H   UNK d   1       1.056  -1.793  -9.154  0.00  0.00     0.066 H 
ATOM     33  H   UNK d   1       1.930  -0.904 -10.425  0.00  0.00     0.066 H 
BRANCH  31  34
ATOM     34  O   UNK d   1       2.960  -2.479  -9.573  0.00  0.00    -0.374 OA
BRANCH  34  35
ATOM     35  C   UNK d   1       4.145  -2.147 -10.299  0.00  0.00     0.037 C 
ATOM     36  H   UNK d   1       3.908  -2.063 -11.360  0.00  0.00     0.052 H 
ATOM     37  H   UNK d   1       4.539  -1.198  -9.939  0.00  0.00     0.052 H 
ATOM     38  H   UNK d   1       4.890  -2.929 -10.156  0.00  0.00     0.052 H 
ENDBRANCH  34  35
ENDBRANCH  31  34
ENDBRANCH  28  31
ENDBRANCH   1  27
BRANCH  16  39
ATOM     39  OD  HYP d   2       9.942   0.150  -4.562  0.00  0.00    -0.390 OA
ATOM     40  HD  HYP d   2       9.532  -0.659  -4.226  0.00  0.00     0.210 HD
ENDBRANCH  16  39
TORSDOF 5
ENDMDL
MODEL 4
REMARK VINA RESULT:      -5.0     11.853     13.552
REMARK  5 active torsions:
REMARK  status: ('A' for Active; 'I' for Inactive)
REMARK    1  A    between atoms: C_1  and  O_2 
REMARK    2  A    between atoms: O_2  and  C_3 
REMARK    3  A    between atoms: C_3  and  C_4 
REMARK       I    between atoms: C_4  and  N_6 
REMARK    4  A    between atoms: N_6  and  C_7 
REMARK    5  A    between atoms: CG_18  and  OD_25 
ROOT
ATOM      1  C   UNK d   1      10.303  10.403  -1.035  0.00  0.00     0.052 C 
ATOM      2  H   UNK d   1      11.223  10.435  -1.618  0.00  0.00     0.052 H 
ATOM      3  C   UNK d   1      10.535  10.947   0.406  0.00  0.00    -0.016 C 
ATOM      4  C   UNK d   1      11.149   9.729   1.131  0.00  0.00     0.017 C 
ATOM      5  N   UNK d   1      10.744   8.531   0.387  0.00  0.00    -0.286 N 
ATOM      6  C   UNK d   1       9.881   8.944  -0.739  0.00  0.00     0.121 C 
ATOM      7  H   UNK d   1       8.828   8.889  -0.465  0.00  0.00     0.061 H 
ATOM      8  C   UNK d   1      10.188   8.069  -1.927  0.00  0.00     0.239 C 
ATOM      9  O   UNK d   1       9.990   8.462  -3.057  0.00  0.00    -0.274 OA
ATOM     10  H   UNK d   1       9.590  11.236   0.866  0.00  0.00     0.030 H 
ATOM     11  H   UNK d   1      11.233  11.785   0.397  0.00  0.00     0.030 H 
ATOM     12  H   UNK d   1      10.773   9.676   2.153  0.00  0.00     0.046 H 
ATOM     13  H   UNK d   1      12.236   9.810   1.139  0.00  0.00     0.046 H 
ATOM     14  N   HYP d   2      10.690   6.836  -1.702  0.00  0.00    -0.286 N 
ATOM     15  CD  HYP d   2      11.273   5.931  -2.699  0.00  0.00     0.042 C 
ATOM     16  CG  HYP d   2      11.763   4.677  -1.939  0.00  0.00     0.073 C 
ATOM     17  HG  HYP d   2      12.706   4.316  -2.351  0.00  0.00     0.061 H 
ATOM     18  CB  HYP d   2      11.960   5.210  -0.493  0.00  0.00     0.002 C 
ATOM     19  CA  HYP d   2      10.775   6.196  -0.374  0.00  0.00     0.105 C 
ATOM     20  HA  HYP d   2       9.852   5.670  -0.134  0.00  0.00     0.060 H 
ATOM     21  C   HYP d   2      11.090   7.254   0.652  0.00  0.00     0.237 C 
ATOM     22  O   HYP d   2      11.644   6.965   1.693  0.00  0.00    -0.274 OA
ATOM     23  HD1 HYP d   2      10.516   5.649  -3.432  0.00  0.00     0.049 H 
ATOM     24  HD2 HYP d   2      12.112   6.416  -3.196  0.00  0.00     0.049 H 
ATOM     25  HB1 HYP d   2      12.914   5.729  -0.392  0.00  0.00     0.031 H 
ATOM     26  HB2 HYP d   2      11.875   4.404   0.237  0.00  0.00     0.031 H 
ENDROOT
BRANCH   1  27
ATOM     27  N   UNK d   1       9.227  11.135  -1.709  0.00  0.00    -0.308 N 
ATOM     28  C   UNK d   1       9.518  11.973  -2.724  0.00  0.00     0.239 C 
ATOM     29  O   UNK d   1      10.668  12.121  -3.079  0.00  0.00    -0.273 OA
ATOM     30  H   UNK d   1       8.307  11.017  -1.426  0.00  0.00     0.149 HD
BRANCH  28  31
ATOM     31  C   UNK d   1       8.413  12.726  -3.419  0.00  0.00     0.123 C 
ATOM     32  H   UNK d   1       8.242  12.293  -4.405  0.00  0.00     0.066 H 
ATOM     33  H   UNK d   1       7.499  12.657  -2.828  0.00  0.00     0.066 H 
BRANCH  31  34
ATOM     34  O   UNK d   1       8.786  14.098  -3.560  0.00  0.00    -0.374 OA
BRANCH  34  35
ATOM     35  C   UNK d   1       8.445  14.911  -2.436  0.00  0.00     0.037 C 
ATOM     36  H   UNK d   1       8.915  15.890  -2.540  0.00  0.00     0.052 H 
ATOM     37  H   UNK d   1       7.364  15.032  -2.389  0.00  0.00     0.052 H 
ATOM     38  H   UNK d   1       8.798  14.435  -1.522  0.00  0.00     0.052 H 
ENDBRANCH  34  35
ENDBRANCH  31  34
ENDBRANCH  28  31
ENDBRANCH   1  27
BRANCH  16  39
ATOM     39  OD  HYP d   2      10.773   3.646  -1.969  0.00  0.00    -0.390 OA
ATOM     40  HD  HYP d   2      10.099   3.769  -2.651  0.00  0.00     0.210 HD
ENDBRANCH  16  39
TORSDOF 5
ENDMDL
MODEL 5
REMARK VINA RESULT:      -4.9      2.138      3.700
REMARK  5 active torsions:
REMARK  status: ('A' for Active; 'I' for Inactive)
REMARK    1  A    between atoms: C_1  and  O_2 
REMARK    2  A    between atoms: O_2  and  C_3 
REMARK    3  A    between atoms: C_3  and  C_4 
REMARK       I    between atoms: C_4  and  N_6 
REMARK    4  A    between atoms: N_6  and  C_7 
REMARK    5  A    between atoms: CG_18  and  OD_25 
ROOT
ATOM      1  C   UNK d   1       3.351   0.048  -6.008  0.00  0.00     0.052 C 
ATOM      2  H   UNK d   1       4.118   0.816  -6.104  0.00  0.00     0.052 H 
ATOM      3  C   UNK d   1       2.357   0.390  -4.858  0.00  0.00    -0.016 C 
ATOM      4  C   UNK d   1       3.123  -0.082  -3.602  0.00  0.00     0.017 C 
ATOM      5  N   UNK d   1       4.101  -1.083  -4.039  0.00  0.00    -0.286 N 
ATOM      6  C   UNK d   1       3.955  -1.281  -5.496  0.00  0.00     0.121 C 
ATOM      7  H   UNK d   1       3.294  -2.120  -5.712  0.00  0.00     0.061 H 
ATOM      8  C   UNK d   1       5.323  -1.488  -6.093  0.00  0.00     0.239 C 
ATOM      9  O   UNK d   1       5.543  -1.216  -7.255  0.00  0.00    -0.274 OA
ATOM     10  H   UNK d   1       1.426  -0.164  -4.975  0.00  0.00     0.030 H 
ATOM     11  H   UNK d   1       2.167   1.463  -4.815  0.00  0.00     0.030 H 
ATOM     12  H   UNK d   1       2.428  -0.528  -2.889  0.00  0.00     0.046 H 
ATOM     13  H   UNK d   1       3.637   0.762  -3.140  0.00  0.00     0.046 H 
ATOM     14  N   HYP d   2       6.299  -1.985  -5.303  0.00  0.00    -0.286 N 
ATOM     15  CD  HYP d   2       7.733  -2.037  -5.608  0.00  0.00     0.042 C 
ATOM     16  CG  HYP d   2       8.438  -2.628  -4.366  0.00  0.00     0.073 C 
ATOM     17  HG  HYP d   2       9.392  -2.130  -4.186  0.00  0.00     0.061 H 
ATOM     18  CB  HYP d   2       7.431  -2.319  -3.223  0.00  0.00     0.002 C 
ATOM     19  CA  HYP d   2       6.082  -2.532  -3.949  0.00  0.00     0.105 C 
ATOM     20  HA  HYP d   2       5.824  -3.589  -3.991  0.00  0.00     0.060 H 
ATOM     21  C   HYP d   2       5.003  -1.727  -3.270  0.00  0.00     0.237 C 
ATOM     22  O   HYP d   2       4.948  -1.660  -2.060  0.00  0.00    -0.274 OA
ATOM     23  HD1 HYP d   2       7.906  -2.679  -6.473  0.00  0.00     0.049 H 
ATOM     24  HD2 HYP d   2       8.108  -1.034  -5.806  0.00  0.00     0.049 H 
ATOM     25  HB1 HYP d   2       7.533  -1.290  -2.877  0.00  0.00     0.031 H 
ATOM     26  HB2 HYP d   2       7.548  -3.022  -2.398  0.00  0.00     0.031 H 
ENDROOT
BRANCH   1  27
ATOM     27  N   UNK d   1       2.644  -0.150  -7.276  0.00  0.00    -0.308 N 
ATOM     28  C   UNK d   1       2.922   0.640  -8.332  0.00  0.00     0.239 C 
ATOM     29  O   UNK d   1       3.758   1.514  -8.232  0.00  0.00    -0.273 OA
ATOM     30  H   UNK d   1       1.976  -0.848  -7.356  0.00  0.00     0.149 HD
BRANCH  28  31
ATOM     31  C   UNK d   1       2.196   0.438  -9.637  0.00  0.00     0.123 C 
ATOM     32  H   UNK d   1       1.121   0.438  -9.458  0.00  0.00     0.066 H 
ATOM     33  H   UNK d   1       2.451   1.246 -10.323  0.00  0.00     0.066 H 
BRANCH  31  34
ATOM     34  O   UNK d   1       2.584  -0.813 -10.210  0.00  0.00    -0.374 OA
BRANCH  34  35
ATOM     35  C   UNK d   1       1.522  -1.764 -10.301  0.00  0.00     0.037 C 
ATOM     36  H   UNK d   1       1.284  -2.139  -9.305  0.00  0.00     0.052 H 
ATOM     37  H   UNK d   1       0.641  -1.286 -10.727  0.00  0.00     0.052 H 
ATOM     38  H   UNK d   1       1.829  -2.593 -10.937  0.00  0.00     0.052 H 
ENDBRANCH  34  35
ENDBRANCH  31  34
ENDBRANCH  28  31
ENDBRANCH   1  27
BRANCH  16  39
ATOM     39  OD  HYP d   2       8.625  -4.037  -4.510  0.00  0.00    -0.390 OA
ATOM     40  HD  HYP d   2       7.804  -4.547  -4.476  0.00  0.00     0.210 HD
ENDBRANCH  16  39
TORSDOF 5
ENDMDL
MODEL 6
REMARK VINA RESULT:      -4.8      1.598      5.894
REMARK  5 active torsions:
REMARK  status: ('A' for Active; 'I' for Inactive)
REMARK    1  A    between atoms: C_1  and  O_2 
REMARK    2  A    between atoms: O_2  and  C_3 
REMARK    3  A    between atoms: C_3  and  C_4 
REMARK       I    between atoms: C_4  and  N_6 
REMARK    4  A    between atoms: N_6  and  C_7 
REMARK    5  A    between atoms: CG_18  and  OD_25 
ROOT
ATOM      1  C   UNK d   1       4.812  -2.620  -5.557  0.00  0.00     0.052 C 
ATOM      2  H   UNK d   1       5.830  -2.231  -5.581  0.00  0.00     0.052 H 
ATOM      3  C   UNK d   1       4.791  -4.149  -5.852  0.00  0.00    -0.016 C 
ATOM      4  C   UNK d   1       4.874  -4.195  -7.394  0.00  0.00     0.017 C 
ATOM      5  N   UNK d   1       4.392  -2.904  -7.894  0.00  0.00    -0.286 N 
ATOM      6  C   UNK d   1       3.980  -2.076  -6.743  0.00  0.00     0.121 C 
ATOM      7  H   UNK d   1       2.912  -2.177  -6.550  0.00  0.00     0.061 H 
ATOM      8  C   UNK d   1       4.357  -0.643  -7.020  0.00  0.00     0.239 C 
ATOM      9  O   UNK d   1       4.562   0.134  -6.112  0.00  0.00    -0.274 OA
ATOM     10  H   UNK d   1       3.861  -4.597  -5.501  0.00  0.00     0.030 H 
ATOM     11  H   UNK d   1       5.653  -4.643  -5.403  0.00  0.00     0.030 H 
ATOM     12  H   UNK d   1       4.246  -5.000  -7.776  0.00  0.00     0.046 H 
ATOM     13  H   UNK d   1       5.907  -4.351  -7.706  0.00  0.00     0.046 H 
ATOM     14  N   HYP d   2       4.461  -0.246  -8.307  0.00  0.00    -0.286 N 
ATOM     15  CD  HYP d   2       5.038   1.013  -8.792  0.00  0.00     0.042 C 
ATOM     16  CG  HYP d   2       4.989   0.967 -10.337  0.00  0.00     0.073 C 
ATOM     17  HG  HYP d   2       5.886   1.411 -10.768  0.00  0.00     0.061 H 
ATOM     18  CB  HYP d   2       4.931  -0.558 -10.631  0.00  0.00     0.002 C 
ATOM     19  CA  HYP d   2       4.038  -1.052  -9.469  0.00  0.00     0.105 C 
ATOM     20  HA  HYP d   2       2.984  -0.894  -9.692  0.00  0.00     0.060 H 
ATOM     21  C   HYP d   2       4.330  -2.503  -9.181  0.00  0.00     0.237 C 
ATOM     22  O   HYP d   2       4.505  -3.293 -10.086  0.00  0.00    -0.274 OA
ATOM     23  HD1 HYP d   2       4.452   1.856  -8.426  0.00  0.00     0.049 H 
ATOM     24  HD2 HYP d   2       6.071   1.102  -8.456  0.00  0.00     0.049 H 
ATOM     25  HB1 HYP d   2       5.923  -1.006 -10.581  0.00  0.00     0.031 H 
ATOM     26  HB2 HYP d   2       4.462  -0.753 -11.596  0.00  0.00     0.031 H 
ENDROOT
BRANCH   1  27
ATOM     27  N   UNK d   1       4.164  -2.319  -4.278  0.00  0.00    -0.308 N 
ATOM     28  C   UNK d   1       4.895  -1.846  -3.249  0.00  0.00     0.239 C 
ATOM     29  O   UNK d   1       6.088  -1.670  -3.382  0.00  0.00    -0.273 OA
ATOM     30  H   UNK d   1       3.211  -2.460  -4.171  0.00  0.00     0.149 HD
BRANCH  28  31
ATOM     31  C   UNK d   1       4.230  -1.536  -1.932  0.00  0.00     0.123 C 
ATOM     32  H   UNK d   1       3.152  -1.665  -2.030  0.00  0.00     0.066 H 
ATOM     33  H   UNK d   1       4.610  -2.213  -1.166  0.00  0.00     0.066 H 
BRANCH  31  34
ATOM     34  O   UNK d   1       4.517  -0.187  -1.559  0.00  0.00    -0.374 OA
BRANCH  34  35
ATOM     35  C   UNK d   1       3.755   0.788  -2.274  0.00  0.00     0.037 C 
ATOM     36  H   UNK d   1       3.359   0.342  -3.187  0.00  0.00     0.052 H 
ATOM     37  H   UNK d   1       2.929   1.132  -1.652  0.00  0.00     0.052 H 
ATOM     38  H   UNK d   1       4.393   1.633  -2.530  0.00  0.00     0.052 H 
ENDBRANCH  34  35
ENDBRANCH  31  34
ENDBRANCH  28  31
ENDBRANCH   1  27
BRANCH  16  39
ATOM     39  OD  HYP d   2       3.816   1.622 -10.826  0.00  0.00    -0.390 OA
ATOM     40  HD  HYP d   2       3.392   1.168 -11.566  0.00  0.00     0.210 HD
ENDBRANCH  16  39
TORSDOF 5
ENDMDL
MODEL 7
REMARK VINA RESULT:      -4.7     11.099     12.491
REMARK  5 active torsions:
REMARK  status: ('A' for Active; 'I' for Inactive)
REMARK    1  A    between atoms: C_1  and  O_2 
REMARK    2  A    between atoms: O_2  and  C_3 
REMARK    3  A    between atoms: C_3  and  C_4 
REMARK       I    between atoms: C_4  and  N_6 
REMARK    4  A    between atoms: N_6  and  C_7 
REMARK    5  A    between atoms: CG_18  and  OD_25 
ROOT
ATOM      1  C   UNK d   1      10.242   9.741  -3.972  0.00  0.00     0.052 C 
ATOM      2  H   UNK d   1      11.275   9.438  -4.141  0.00  0.00     0.052 H 
ATOM      3  C   UNK d   1      10.153  11.259  -3.634  0.00  0.00    -0.016 C 
ATOM      4  C   UNK d   1      10.508  11.290  -2.131  0.00  0.00     0.017 C 
ATOM      5  N   UNK d   1      10.226   9.956  -1.590  0.00  0.00    -0.286 N 
ATOM      6  C   UNK d   1       9.682   9.113  -2.674  0.00  0.00     0.121 C 
ATOM      7  H   UNK d   1       8.592   9.127  -2.671  0.00  0.00     0.061 H 
ATOM      8  C   UNK d   1      10.215   7.713  -2.509  0.00  0.00     0.239 C 
ATOM      9  O   UNK d   1      10.315   6.969  -3.461  0.00  0.00    -0.274 OA
ATOM     10  H   UNK d   1       9.143  11.633  -3.801  0.00  0.00     0.030 H 
ATOM     11  H   UNK d   1      10.878  11.830  -4.215  0.00  0.00     0.030 H 
ATOM     12  H   UNK d   1       9.896  12.034  -1.620  0.00  0.00     0.046 H 
ATOM     13  H   UNK d   1      11.564  11.527  -2.003  0.00  0.00     0.046 H 
ATOM     14  N   HYP d   2      10.580   7.307  -1.273  0.00  0.00    -0.286 N 
ATOM     15  CD  HYP d   2      11.333   6.094  -0.935  0.00  0.00     0.042 C 
ATOM     16  CG  HYP d   2      11.557   6.114   0.594  0.00  0.00     0.073 C 
ATOM     17  HG  HYP d   2      12.550   5.740   0.847  0.00  0.00     0.061 H 
ATOM     18  CB  HYP d   2      11.433   7.625   0.938  0.00  0.00     0.002 C 
ATOM     19  CA  HYP d   2      10.309   8.059  -0.032  0.00  0.00     0.105 C 
ATOM     20  HA  HYP d   2       9.328   7.811   0.370  0.00  0.00     0.060 H 
ATOM     21  C   HYP d   2      10.428   9.533  -0.325  0.00  0.00     0.237 C 
ATOM     22  O   HYP d   2      10.700  10.322   0.557  0.00  0.00    -0.274 OA
ATOM     23  HD1 HYP d   2      10.759   5.210  -1.215  0.00  0.00     0.049 H 
ATOM     24  HD2 HYP d   2      12.292   6.096  -1.451  0.00  0.00     0.049 H 
ATOM     25  HB1 HYP d   2      12.361   8.154   0.726  0.00  0.00     0.031 H 
ATOM     26  HB2 HYP d   2      11.131   7.766   1.976  0.00  0.00     0.031 H 
ENDROOT
BRANCH   1  27
ATOM     27  N   UNK d   1       9.401   9.406  -5.124  0.00  0.00    -0.308 N 
ATOM     28  C   UNK d   1       9.972   9.042  -6.290  0.00  0.00     0.239 C 
ATOM     29  O   UNK d   1      11.180   8.994  -6.385  0.00  0.00    -0.273 OA
ATOM     30  H   UNK d   1       8.435   9.445  -5.049  0.00  0.00     0.149 HD
BRANCH  28  31
ATOM     31  C   UNK d   1       9.109   8.697  -7.476  0.00  0.00     0.123 C 
ATOM     32  H   UNK d   1       9.006   7.614  -7.548  0.00  0.00     0.066 H 
ATOM     33  H   UNK d   1       8.123   9.148  -7.351  0.00  0.00     0.066 H 
BRANCH  31  34
ATOM     34  O   UNK d   1       9.714   9.199  -8.669  0.00  0.00    -0.374 OA
BRANCH  34  35
ATOM     35  C   UNK d   1       9.990   8.195  -9.647  0.00  0.00     0.037 C 
ATOM     36  H   UNK d   1      11.066   8.027  -9.700  0.00  0.00     0.052 H 
ATOM     37  H   UNK d   1       9.492   7.268  -9.367  0.00  0.00     0.052 H 
ATOM     38  H   UNK d   1       9.627   8.524 -10.620  0.00  0.00     0.052 H 
ENDBRANCH  34  35
ENDBRANCH  31  34
ENDBRANCH  28  31
ENDBRANCH   1  27
BRANCH  16  39
ATOM     39  OD  HYP d   2      10.548   5.356   1.265  0.00  0.00    -0.390 OA
ATOM     40  HD  HYP d   2      10.627   4.401   1.142  0.00  0.00     0.210 HD
ENDBRANCH  16  39
TORSDOF 5
ENDMDL
MODEL 8
REMARK VINA RESULT:      -4.6     11.792     14.493
REMARK  5 active torsions:
REMARK  status: ('A' for Active; 'I' for Inactive)
REMARK    1  A    between atoms: C_1  and  O_2 
REMARK    2  A    between atoms: O_2  and  C_3 
REMARK    3  A    between atoms: C_3  and  C_4 
REMARK       I    between atoms: C_4  and  N_6 
REMARK    4  A    between atoms: N_6  and  C_7 
REMARK    5  A    between atoms: CG_18  and  OD_25 
ROOT
ATOM      1  C   UNK d   1      10.475  -9.795   0.145  0.00  0.00     0.052 C 
ATOM      2  H   UNK d   1      11.110 -10.632  -0.144  0.00  0.00     0.052 H 
ATOM      3  C   UNK d   1      10.813  -8.523  -0.688  0.00  0.00    -0.016 C 
ATOM      4  C   UNK d   1      12.052  -7.961   0.045  0.00  0.00     0.017 C 
ATOM      5  N   UNK d   1      12.022  -8.484   1.414  0.00  0.00    -0.286 N 
ATOM      6  C   UNK d   1      10.809  -9.312   1.577  0.00  0.00     0.121 C 
ATOM      7  H   UNK d   1       9.989  -8.727   1.993  0.00  0.00     0.061 H 
ATOM      8  C   UNK d   1      11.144 -10.492   2.452  0.00  0.00     0.239 C 
ATOM      9  O   UNK d   1      10.515 -11.526   2.371  0.00  0.00    -0.274 OA
ATOM     10  H   UNK d   1       9.989  -7.811  -0.657  0.00  0.00     0.030 H 
ATOM     11  H   UNK d   1      11.059  -8.786  -1.717  0.00  0.00     0.030 H 
ATOM     12  H   UNK d   1      12.010  -6.872   0.063  0.00  0.00     0.046 H 
ATOM     13  H   UNK d   1      12.962  -8.289  -0.458  0.00  0.00     0.046 H 
ATOM     14  N   HYP d   2      12.164 -10.370   3.329  0.00  0.00    -0.286 N 
ATOM     15  CD  HYP d   2      12.800 -11.451   4.091  0.00  0.00     0.042 C 
ATOM     16  CG  HYP d   2      13.956 -10.815   4.897  0.00  0.00     0.073 C 
ATOM     17  HG  HYP d   2      14.822 -11.477   4.923  0.00  0.00     0.061 H 
ATOM     18  CB  HYP d   2      14.270  -9.527   4.087  0.00  0.00     0.002 C 
ATOM     19  CA  HYP d   2      12.851  -9.101   3.643  0.00  0.00     0.105 C 
ATOM     20  HA  HYP d   2      12.337  -8.564   4.439  0.00  0.00     0.060 H 
ATOM     21  C   HYP d   2      12.935  -8.274   2.385  0.00  0.00     0.237 C 
ATOM     22  O   HYP d   2      13.805  -7.439   2.248  0.00  0.00    -0.274 OA
ATOM     23  HD1 HYP d   2      12.077 -11.902   4.770  0.00  0.00     0.049 H 
ATOM     24  HD2 HYP d   2      13.194 -12.204   3.409  0.00  0.00     0.049 H 
ATOM     25  HB1 HYP d   2      14.901  -9.748   3.226  0.00  0.00     0.031 H 
ATOM     26  HB2 HYP d   2      14.727  -8.767   4.722  0.00  0.00     0.031 H 
ENDROOT
BRANCH   1  27
ATOM     27  N   UNK d   1       9.058 -10.145   0.024  0.00  0.00    -0.308 N 
ATOM     28  C   UNK d   1       8.700 -11.329  -0.509  0.00  0.00     0.239 C 
ATOM     29  O   UNK d   1       9.551 -12.105  -0.890  0.00  0.00    -0.273 OA
ATOM     30  H   UNK d   1       8.377  -9.525   0.328  0.00  0.00     0.149 HD
BRANCH  28  31
ATOM     31  C   UNK d   1       7.242 -11.690  -0.634  0.00  0.00     0.123 C 
ATOM     32  H   UNK d   1       7.100 -12.335  -1.502  0.00  0.00     0.066 H 
ATOM     33  H   UNK d   1       6.920 -12.215   0.266  0.00  0.00     0.066 H 
BRANCH  31  34
ATOM     34  O   UNK d   1       6.468 -10.500  -0.793  0.00  0.00    -0.374 OA
BRANCH  34  35
ATOM     35  C   UNK d   1       5.774 -10.420  -2.039  0.00  0.00     0.037 C 
ATOM     36  H   UNK d   1       6.476 -10.155  -2.830  0.00  0.00     0.052 H 
ATOM     37  H   UNK d   1       5.321 -11.385  -2.266  0.00  0.00     0.052 H 
ATOM     38  H   UNK d   1       4.996  -9.660  -1.975  0.00  0.00     0.052 H 
ENDBRANCH  34  35
ENDBRANCH  31  34
ENDBRANCH  28  31
ENDBRANCH   1  27
BRANCH  16  39
ATOM     39  OD  HYP d   2      13.530 -10.490   6.222  0.00  0.00    -0.390 OA
ATOM     40  HD  HYP d   2      13.979 -10.994   6.915  0.00  0.00     0.210 HD
ENDBRANCH  16  39
TORSDOF 5
ENDMDL
MODEL 9
REMARK VINA RESULT:      -4.6     10.834     12.274
REMARK  5 active torsions:
REMARK  status: ('A' for Active; 'I' for Inactive)
REMARK    1  A    between atoms: C_1  and  O_2 
REMARK    2  A    between atoms: O_2  and  C_3 
REMARK    3  A    between atoms: C_3  and  C_4 
REMARK       I    between atoms: C_4  and  N_6 
REMARK    4  A    between atoms: N_6  and  C_7 
REMARK    5  A    between atoms: CG_18  and  OD_25 
ROOT
ATOM      1  C   UNK d   1       9.643   9.399  -4.852  0.00  0.00     0.052 C 
ATOM      2  H   UNK d   1       8.756   9.522  -4.230  0.00  0.00     0.052 H 
ATOM      3  C   UNK d   1       9.342   8.495  -6.084  0.00  0.00    -0.016 C 
ATOM      4  C   UNK d   1       9.444   7.072  -5.489  0.00  0.00     0.017 C 
ATOM      5  N   UNK d   1      10.275   7.163  -4.285  0.00  0.00    -0.286 N 
ATOM      6  C   UNK d   1      10.722   8.562  -4.124  0.00  0.00     0.121 C 
ATOM      7  H   UNK d   1      11.704   8.714  -4.572  0.00  0.00     0.061 H 
ATOM      8  C   UNK d   1      10.729   8.900  -2.655  0.00  0.00     0.239 C 
ATOM      9  O   UNK d   1      10.600  10.046  -2.279  0.00  0.00    -0.274 OA
ATOM     10  H   UNK d   1      10.089   8.644  -6.863  0.00  0.00     0.030 H 
ATOM     11  H   UNK d   1       8.339   8.683  -6.468  0.00  0.00     0.030 H 
ATOM     12  H   UNK d   1       9.909   6.401  -6.211  0.00  0.00     0.046 H 
ATOM     13  H   UNK d   1       8.451   6.706  -5.229  0.00  0.00     0.046 H 
ATOM     14  N   HYP d   2      10.883   7.894  -1.767  0.00  0.00    -0.286 N 
ATOM     15  CD  HYP d   2      10.683   7.967  -0.315  0.00  0.00     0.042 C 
ATOM     16  CG  HYP d   2      10.914   6.544   0.245  0.00  0.00     0.073 C 
ATOM     17  HG  HYP d   2      10.207   6.321   1.044  0.00  0.00     0.061 H 
ATOM     18  CB  HYP d   2      10.649   5.643  -0.993  0.00  0.00     0.002 C 
ATOM     19  CA  HYP d   2      11.248   6.509  -2.126  0.00  0.00     0.105 C 
ATOM     20  HA  HYP d   2      12.329   6.390  -2.178  0.00  0.00     0.060 H 
ATOM     21  C   HYP d   2      10.591   6.161  -3.438  0.00  0.00     0.237 C 
ATOM     22  O   HYP d   2      10.350   5.007  -3.725  0.00  0.00    -0.274 OA
ATOM     23  HD1 HYP d   2      11.400   8.660   0.124  0.00  0.00     0.049 H 
ATOM     24  HD2 HYP d   2       9.666   8.291  -0.096  0.00  0.00     0.049 H 
ATOM     25  HB1 HYP d   2       9.581   5.485  -1.143  0.00  0.00     0.031 H 
ATOM     26  HB2 HYP d   2      11.176   4.693  -0.905  0.00  0.00     0.031 H 
ENDROOT
BRANCH   1  27
ATOM     27  N   UNK d   1      10.178  10.698  -5.268  0.00  0.00    -0.308 N 
ATOM     28  C   UNK d   1       9.536  11.832  -4.920  0.00  0.00     0.239 C 
ATOM     29  O   UNK d   1       8.518  11.776  -4.264  0.00  0.00    -0.273 OA
ATOM     30  H   UNK d   1      10.992  10.744  -5.793  0.00  0.00     0.149 HD
BRANCH  28  31
ATOM     31  C   UNK d   1      10.085  13.169  -5.347  0.00  0.00     0.123 C 
ATOM     32  H   UNK d   1      10.071  13.855  -4.500  0.00  0.00     0.066 H 
ATOM     33  H   UNK d   1      11.110  13.046  -5.698  0.00  0.00     0.066 H 
BRANCH  31  34
ATOM     34  O   UNK d   1       9.281  13.699  -6.403  0.00  0.00    -0.374 OA
BRANCH  34  35
ATOM     35  C   UNK d   1       9.631  13.213  -7.700  0.00  0.00     0.037 C 
ATOM     36  H   UNK d   1       8.953  12.406  -7.981  0.00  0.00     0.052 H 
ATOM     37  H   UNK d   1       9.551  14.022  -8.426  0.00  0.00     0.052 H 
ATOM     38  H   UNK d   1      10.654  12.839  -7.685  0.00  0.00     0.052 H 
ENDBRANCH  34  35
ENDBRANCH  31  34
ENDBRANCH  28  31
ENDBRANCH   1  27
BRANCH  16  39
ATOM     39  OD  HYP d   2      12.259   6.393   0.704  0.00  0.00    -0.390 OA
ATOM     40  HD  HYP d   2      12.743   7.226   0.785  0.00  0.00     0.210 HD
ENDBRANCH  16  39
TORSDOF 5
ENDMDL
