MODEL 1
REMARK VINA RESULT:      -5.2      0.000      0.000
REMARK  6 active torsions:
REMARK  status: ('A' for Active; 'I' for Inactive)
REMARK    1  A    between atoms: C_1  and  C_2 
REMARK    2  A    between atoms: C_2  and  C_20 
REMARK    3  A    between atoms: C_8  and  C_19 
REMARK    4  A    between atoms: C_15  and  C_17 
REMARK    5  A    between atoms: C_15  and  C_18 
REMARK    6  A    between atoms: C_19  and  N_39 
ROOT
ATOM      1  C   LIG d   1       6.914  -2.875  -4.504  0.00  0.00     0.166 C 
ATOM      2  O   LIG d   1       7.040  -1.842  -5.495  0.00  0.00    -0.341 OA
ATOM      3  C   LIG d   1       5.874  -1.971  -6.320  0.00  0.00     0.114 C 
ATOM      4  H   LIG d   1       6.060  -2.744  -7.066  0.00  0.00     0.065 H 
ATOM      5  C   LIG d   1       5.509  -0.705  -7.038  0.00  0.00     0.080 C 
ATOM      6  O   LIG d   1       4.928   0.285  -6.241  0.00  0.00    -0.340 OA
ATOM      7  C   LIG d   1       4.059  -0.004  -5.187  0.00  0.00     0.243 C 
ATOM      8  C   LIG d   1       4.124  -1.374  -4.579  0.00  0.00     0.149 C 
ATOM      9  H   LIG d   1       3.098  -1.692  -4.399  0.00  0.00     0.068 H 
ATOM     10  C   LIG d   1       4.796  -2.472  -5.360  0.00  0.00     0.122 C 
ATOM     11  H   LIG d   1       4.056  -3.066  -5.896  0.00  0.00     0.065 H 
ATOM     12  O   LIG d   1       5.548  -3.305  -4.441  0.00  0.00    -0.341 OA
ATOM     13  O   LIG d   1       4.719  -1.205  -3.285  0.00  0.00    -0.338 OA
ATOM     14  C   LIG d   1       5.051   0.185  -3.155  0.00  0.00     0.169 C 
ATOM     15  O   LIG d   1       4.294   0.912  -4.092  0.00  0.00    -0.311 OA
ATOM     16  H   LIG d   1       6.412  -0.295  -7.490  0.00  0.00     0.059 H 
ATOM     17  H   LIG d   1       4.813  -0.953  -7.839  0.00  0.00     0.059 H 
ENDROOT
BRANCH   1  18
ATOM     18  C   LIG d   1       7.805  -4.060  -4.885  0.00  0.00    -0.011 C 
ATOM     19  H   LIG d   1       8.840  -3.834  -4.627  0.00  0.00     0.028 H 
ATOM     20  H   LIG d   1       7.481  -4.948  -4.340  0.00  0.00     0.028 H 
ATOM     21  H   LIG d   1       7.729  -4.244  -5.956  0.00  0.00     0.028 H 
ENDBRANCH   1  18
BRANCH   1  22
ATOM     22  C   LIG d   1       7.342  -2.331  -3.141  0.00  0.00    -0.011 C 
ATOM     23  H   LIG d   1       7.679  -1.301  -3.250  0.00  0.00     0.028 H 
ATOM     24  H   LIG d   1       6.497  -2.365  -2.453  0.00  0.00     0.028 H 
ATOM     25  H   LIG d   1       8.156  -2.940  -2.745  0.00  0.00     0.028 H 
ENDBRANCH   1  22
BRANCH   7  26
ATOM     26  C   LIG d   1       2.624   0.200  -5.676  0.00  0.00     0.023 C 
ATOM     27  H   LIG d   1       2.460   1.256  -5.890  0.00  0.00     0.087 H 
ATOM     28  H   LIG d   1       2.462  -0.383  -6.582  0.00  0.00     0.087 H 
BRANCH  26  29
ATOM     29  N   LIG d   1       1.691  -0.265  -4.635  0.00  0.00     0.222 N 
ATOM     30  H   LIG d   1       1.395  -1.219  -4.831  0.00  0.00     0.200 HD
ATOM     31  H   LIG d   1       2.140  -0.230  -3.722  0.00  0.00     0.200 HD
ATOM     32  H   LIG d   1       0.866   0.346  -4.625  0.00  0.00     0.200 HD
ENDBRANCH  26  29
ENDBRANCH   7  26
BRANCH  14  33
ATOM     33  C   LIG d   1       4.718   0.666  -1.741  0.00  0.00    -0.011 C 
ATOM     34  H   LIG d   1       4.718  -0.184  -1.058  0.00  0.00     0.028 H 
ATOM     35  H   LIG d   1       5.466   1.391  -1.419  0.00  0.00     0.028 H 
ATOM     36  H   LIG d   1       3.734   1.135  -1.739  0.00  0.00     0.028 H 
ENDBRANCH  14  33
BRANCH  14  37
ATOM     37  C   LIG d   1       6.541   0.391  -3.435  0.00  0.00    -0.011 C 
ATOM     38  H   LIG d   1       6.848   1.370  -3.067  0.00  0.00     0.028 H 
ATOM     39  H   LIG d   1       7.116  -0.385  -2.928  0.00  0.00     0.028 H 
ATOM     40  H   LIG d   1       6.721   0.333  -4.509  0.00  0.00     0.028 H 
ENDBRANCH  14  37
TORSDOF 6
ENDMDL
MODEL 2
REMARK VINA RESULT:      -5.1      1.995      4.019
REMARK  6 active torsions:
REMARK  status: ('A' for Active; 'I' for Inactive)
REMARK    1  A    between atoms: C_1  and  C_2 
REMARK    2  A    between atoms: C_2  and  C_20 
REMARK    3  A    between atoms: C_8  and  C_19 
REMARK    4  A    between atoms: C_15  and  C_17 
REMARK    5  A    between atoms: C_15  and  C_18 
REMARK    6  A    between atoms: C_19  and  N_39 
ROOT
ATOM      1  C   LIG d   1       3.447  -0.100  -6.665  0.00  0.00     0.166 C 
ATOM      2  O   LIG d   1       3.533  -1.506  -6.382  0.00  0.00    -0.341 OA
ATOM      3  C   LIG d   1       4.895  -1.861  -6.659  0.00  0.00     0.114 C 
ATOM      4  H   LIG d   1       4.994  -2.044  -7.729  0.00  0.00     0.065 H 
ATOM      5  C   LIG d   1       5.350  -3.090  -5.928  0.00  0.00     0.080 C 
ATOM      6  O   LIG d   1       5.595  -2.914  -4.563  0.00  0.00    -0.340 OA
ATOM      7  C   LIG d   1       6.140  -1.742  -4.036  0.00  0.00     0.243 C 
ATOM      8  C   LIG d   1       6.011  -0.483  -4.841  0.00  0.00     0.149 C 
ATOM      9  H   LIG d   1       6.962   0.043  -4.768  0.00  0.00     0.068 H 
ATOM     10  C   LIG d   1       5.683  -0.601  -6.306  0.00  0.00     0.122 C 
ATOM     11  H   LIG d   1       6.591  -0.541  -6.905  0.00  0.00     0.065 H 
ATOM     12  O   LIG d   1       4.765   0.463  -6.666  0.00  0.00    -0.341 OA
ATOM     13  O   LIG d   1       5.053   0.332  -4.150  0.00  0.00    -0.338 OA
ATOM     14  C   LIG d   1       4.590  -0.430  -3.025  0.00  0.00     0.169 C 
ATOM     15  O   LIG d   1       5.526  -1.446  -2.760  0.00  0.00    -0.311 OA
ATOM     16  H   LIG d   1       4.588  -3.860  -6.044  0.00  0.00     0.059 H 
ATOM     17  H   LIG d   1       6.267  -3.448  -6.397  0.00  0.00     0.059 H 
ENDROOT
BRANCH   1  18
ATOM     18  C   LIG d   1       2.801   0.107  -8.037  0.00  0.00    -0.011 C 
ATOM     19  H   LIG d   1       3.574   0.323  -8.774  0.00  0.00     0.028 H 
ATOM     20  H   LIG d   1       2.266  -0.798  -8.326  0.00  0.00     0.028 H 
ATOM     21  H   LIG d   1       2.102   0.941  -7.987  0.00  0.00     0.028 H 
ENDBRANCH   1  18
BRANCH   1  22
ATOM     22  C   LIG d   1       2.599   0.586  -5.592  0.00  0.00    -0.011 C 
ATOM     23  H   LIG d   1       3.245   1.178  -4.943  0.00  0.00     0.028 H 
ATOM     24  H   LIG d   1       1.868   1.238  -6.069  0.00  0.00     0.028 H 
ATOM     25  H   LIG d   1       2.082  -0.168  -5.000  0.00  0.00     0.028 H 
ENDBRANCH   1  22
BRANCH   7  26
ATOM     26  C   LIG d   1       7.635  -1.969  -3.801  0.00  0.00     0.023 C 
ATOM     27  H   LIG d   1       7.802  -2.237  -2.758  0.00  0.00     0.087 H 
ATOM     28  H   LIG d   1       7.985  -2.776  -4.443  0.00  0.00     0.087 H 
BRANCH  26  29
ATOM     29  N   LIG d   1       8.368  -0.736  -4.139  0.00  0.00     0.222 N 
ATOM     30  H   LIG d   1       8.038  -0.366  -5.029  0.00  0.00     0.200 HD
ATOM     31  H   LIG d   1       8.232  -0.038  -3.411  0.00  0.00     0.200 HD
ATOM     32  H   LIG d   1       9.369  -0.950  -4.217  0.00  0.00     0.200 HD
ENDBRANCH  26  29
ENDBRANCH   7  26
BRANCH  14  33
ATOM     33  C   LIG d   1       4.458   0.481  -1.803  0.00  0.00    -0.011 C 
ATOM     34  H   LIG d   1       4.050   1.444  -2.109  0.00  0.00     0.028 H 
ATOM     35  H   LIG d   1       3.791   0.018  -1.075  0.00  0.00     0.028 H 
ATOM     36  H   LIG d   1       5.439   0.629  -1.353  0.00  0.00     0.028 H 
ENDBRANCH  14  33
BRANCH  14  37
ATOM     37  C   LIG d   1       3.234  -1.059  -3.350  0.00  0.00    -0.011 C 
ATOM     38  H   LIG d   1       3.346  -2.140  -3.434  0.00  0.00     0.028 H 
ATOM     39  H   LIG d   1       2.526  -0.828  -2.554  0.00  0.00     0.028 H 
ATOM     40  H   LIG d   1       2.863  -0.658  -4.293  0.00  0.00     0.028 H 
ENDBRANCH  14  37
TORSDOF 6
ENDMDL
MODEL 3
REMARK VINA RESULT:      -4.9      1.716      3.879
REMARK  6 active torsions:
REMARK  status: ('A' for Active; 'I' for Inactive)
REMARK    1  A    between atoms: C_1  and  C_2 
REMARK    2  A    between atoms: C_2  and  C_20 
REMARK    3  A    between atoms: C_8  and  C_19 
REMARK    4  A    between atoms: C_15  and  C_17 
REMARK    5  A    between atoms: C_15  and  C_18 
REMARK    6  A    between atoms: C_19  and  N_39 
ROOT
ATOM      1  C   LIG d   1       5.110   0.427  -2.987  0.00  0.00     0.166 C 
ATOM      2  O   LIG d   1       5.448  -0.969  -2.932  0.00  0.00    -0.341 OA
ATOM      3  C   LIG d   1       4.338  -1.646  -3.538  0.00  0.00     0.114 C 
ATOM      4  H   LIG d   1       3.561  -1.779  -2.787  0.00  0.00     0.065 H 
ATOM      5  C   LIG d   1       4.694  -2.996  -4.089  0.00  0.00     0.080 C 
ATOM      6  O   LIG d   1       5.430  -2.979  -5.278  0.00  0.00    -0.340 OA
ATOM      7  C   LIG d   1       5.231  -2.026  -6.277  0.00  0.00     0.243 C 
ATOM      8  C   LIG d   1       4.588  -0.727  -5.892  0.00  0.00     0.149 C 
ATOM      9  H   LIG d   1       3.883  -0.472  -6.683  0.00  0.00     0.068 H 
ATOM     10  C   LIG d   1       3.834  -0.660  -4.590  0.00  0.00     0.122 C 
ATOM     11  H   LIG d   1       2.767  -0.799  -4.761  0.00  0.00     0.065 H 
ATOM     12  O   LIG d   1       4.087   0.627  -3.970  0.00  0.00    -0.341 OA
ATOM     13  O   LIG d   1       5.626   0.262  -5.953  0.00  0.00    -0.338 OA
ATOM     14  C   LIG d   1       6.839  -0.424  -6.295  0.00  0.00     0.169 C 
ATOM     15  O   LIG d   1       6.501  -1.664  -6.869  0.00  0.00    -0.311 OA
ATOM     16  H   LIG d   1       5.271  -3.533  -3.336  0.00  0.00     0.059 H 
ATOM     17  H   LIG d   1       3.771  -3.548  -4.265  0.00  0.00     0.059 H 
ENDROOT
BRANCH   1  18
ATOM     18  C   LIG d   1       4.600   0.884  -1.618  0.00  0.00    -0.011 C 
ATOM     19  H   LIG d   1       5.060   0.279  -0.838  0.00  0.00     0.028 H 
ATOM     20  H   LIG d   1       4.859   1.932  -1.465  0.00  0.00     0.028 H 
ATOM     21  H   LIG d   1       3.517   0.768  -1.576  0.00  0.00     0.028 H 
ENDBRANCH   1  18
BRANCH   1  22
ATOM     22  C   LIG d   1       6.349   1.239  -3.366  0.00  0.00    -0.011 C 
ATOM     23  H   LIG d   1       6.520   1.161  -4.440  0.00  0.00     0.028 H 
ATOM     24  H   LIG d   1       6.196   2.284  -3.098  0.00  0.00     0.028 H 
ATOM     25  H   LIG d   1       7.217   0.850  -2.832  0.00  0.00     0.028 H 
ENDBRANCH   1  22
BRANCH   7  26
ATOM     26  C   LIG d   1       4.360  -2.648  -7.370  0.00  0.00     0.023 C 
ATOM     27  H   LIG d   1       4.997  -3.074  -8.145  0.00  0.00     0.087 H 
ATOM     28  H   LIG d   1       3.741  -3.434  -6.938  0.00  0.00     0.087 H 
BRANCH  26  29
ATOM     29  N   LIG d   1       3.485  -1.608  -7.938  0.00  0.00     0.222 N 
ATOM     30  H   LIG d   1       3.988  -0.725  -8.004  0.00  0.00     0.200 HD
ATOM     31  H   LIG d   1       3.166  -1.886  -8.864  0.00  0.00     0.200 HD
ATOM     32  H   LIG d   1       2.669  -1.483  -7.327  0.00  0.00     0.200 HD
ENDBRANCH  26  29
ENDBRANCH   7  26
BRANCH  14  33
ATOM     33  C   LIG d   1       7.638   0.407  -7.301  0.00  0.00    -0.011 C 
ATOM     34  H   LIG d   1       7.455   1.467  -7.122  0.00  0.00     0.028 H 
ATOM     35  H   LIG d   1       8.701   0.197  -7.183  0.00  0.00     0.028 H 
ATOM     36  H   LIG d   1       7.327   0.151  -8.313  0.00  0.00     0.028 H 
ENDBRANCH  14  33
BRANCH  14  37
ATOM     37  C   LIG d   1       7.674  -0.658  -5.036  0.00  0.00    -0.011 C 
ATOM     38  H   LIG d   1       8.412   0.139  -4.937  0.00  0.00     0.028 H 
ATOM     39  H   LIG d   1       7.022  -0.660  -4.162  0.00  0.00     0.028 H 
ATOM     40  H   LIG d   1       8.184  -1.618  -5.110  0.00  0.00     0.028 H 
ENDBRANCH  14  37
TORSDOF 6
ENDMDL
MODEL 4
REMARK VINA RESULT:      -4.9      1.982      3.211
REMARK  6 active torsions:
REMARK  status: ('A' for Active; 'I' for Inactive)
REMARK    1  A    between atoms: C_1  and  C_2 
REMARK    2  A    between atoms: C_2  and  C_20 
REMARK    3  A    between atoms: C_8  and  C_19 
REMARK    4  A    between atoms: C_15  and  C_17 
REMARK    5  A    between atoms: C_15  and  C_18 
REMARK    6  A    between atoms: C_19  and  N_39 
ROOT
ATOM      1  C   LIG d   1       7.211   0.581  -4.754  0.00  0.00     0.166 C 
ATOM      2  O   LIG d   1       6.231   0.507  -5.803  0.00  0.00    -0.341 OA
ATOM      3  C   LIG d   1       6.587  -0.654  -6.565  0.00  0.00     0.114 C 
ATOM      4  H   LIG d   1       7.364  -0.377  -7.277  0.00  0.00     0.065 H 
ATOM      5  C   LIG d   1       5.436  -1.238  -7.332  0.00  0.00     0.080 C 
ATOM      6  O   LIG d   1       4.502  -1.938  -6.562  0.00  0.00    -0.340 OA
ATOM      7  C   LIG d   1       4.859  -2.710  -5.456  0.00  0.00     0.243 C 
ATOM      8  C   LIG d   1       6.164  -2.410  -4.781  0.00  0.00     0.149 C 
ATOM      9  H   LIG d   1       6.625  -3.366  -4.537  0.00  0.00     0.068 H 
ATOM     10  C   LIG d   1       7.190  -1.604  -5.533  0.00  0.00     0.122 C 
ATOM     11  H   LIG d   1       7.921  -2.261  -6.002  0.00  0.00     0.065 H 
ATOM     12  O   LIG d   1       7.841  -0.697  -4.605  0.00  0.00    -0.341 OA
ATOM     13  O   LIG d   1       5.829  -1.801  -3.526  0.00  0.00    -0.338 OA
ATOM     14  C   LIG d   1       4.399  -1.686  -3.485  0.00  0.00     0.169 C 
ATOM     15  O   LIG d   1       3.854  -2.581  -4.423  0.00  0.00    -0.311 OA
ATOM     16  H   LIG d   1       4.920  -0.428  -7.846  0.00  0.00     0.059 H 
ATOM     17  H   LIG d   1       5.836  -1.916  -8.086  0.00  0.00     0.059 H 
ENDROOT
BRANCH   1  18
ATOM     18  C   LIG d   1       8.264   1.632  -5.112  0.00  0.00    -0.011 C 
ATOM     19  H   LIG d   1       8.525   1.542  -6.166  0.00  0.00     0.028 H 
ATOM     20  H   LIG d   1       7.862   2.628  -4.922  0.00  0.00     0.028 H 
ATOM     21  H   LIG d   1       9.154   1.478  -4.502  0.00  0.00     0.028 H 
ENDBRANCH   1  18
BRANCH   1  22
ATOM     22  C   LIG d   1       6.527   0.969  -3.442  0.00  0.00    -0.011 C 
ATOM     23  H   LIG d   1       6.107   0.079  -2.974  0.00  0.00     0.028 H 
ATOM     24  H   LIG d   1       7.257   1.422  -2.771  0.00  0.00     0.028 H 
ATOM     25  H   LIG d   1       5.729   1.684  -3.645  0.00  0.00     0.028 H 
ENDBRANCH   1  22
BRANCH   7  26
ATOM     26  C   LIG d   1       4.908  -4.177  -5.889  0.00  0.00     0.023 C 
ATOM     27  H   LIG d   1       5.652  -4.299  -6.677  0.00  0.00     0.087 H 
ATOM     28  H   LIG d   1       5.177  -4.799  -5.037  0.00  0.00     0.087 H 
BRANCH  26  29
ATOM     29  N   LIG d   1       3.576  -4.579  -6.375  0.00  0.00     0.222 N 
ATOM     30  H   LIG d   1       3.356  -4.088  -7.239  0.00  0.00     0.200 HD
ATOM     31  H   LIG d   1       3.553  -5.583  -6.540  0.00  0.00     0.200 HD
ATOM     32  H   LIG d   1       2.873  -4.340  -5.666  0.00  0.00     0.200 HD
ENDBRANCH  26  29
ENDBRANCH   7  26
BRANCH  14  33
ATOM     33  C   LIG d   1       3.892  -2.037  -2.084  0.00  0.00    -0.011 C 
ATOM     34  H   LIG d   1       4.564  -1.614  -1.337  0.00  0.00     0.028 H 
ATOM     35  H   LIG d   1       2.891  -1.627  -1.947  0.00  0.00     0.028 H 
ATOM     36  H   LIG d   1       3.858  -3.121  -1.971  0.00  0.00     0.028 H 
ENDBRANCH  14  33
BRANCH  14  37
ATOM     37  C   LIG d   1       3.983  -0.258  -3.843  0.00  0.00    -0.011 C 
ATOM     38  H   LIG d   1       4.567   0.449  -3.253  0.00  0.00     0.028 H 
ATOM     39  H   LIG d   1       4.163  -0.083  -4.904  0.00  0.00     0.028 H 
ATOM     40  H   LIG d   1       2.923  -0.123  -3.628  0.00  0.00     0.028 H 
ENDBRANCH  14  37
TORSDOF 6
ENDMDL
MODEL 5
REMARK VINA RESULT:      -4.6      2.295      4.594
REMARK  6 active torsions:
REMARK  status: ('A' for Active; 'I' for Inactive)
REMARK    1  A    between atoms: C_1  and  C_2 
REMARK    2  A    between atoms: C_2  and  C_20 
REMARK    3  A    between atoms: C_8  and  C_19 
REMARK    4  A    between atoms: C_15  and  C_17 
REMARK    5  A    between atoms: C_15  and  C_18 
REMARK    6  A    between atoms: C_19  and  N_39 
ROOT
ATOM      1  C   LIG d   1       4.296   0.083  -3.191  0.00  0.00     0.166 C 
ATOM      2  O   LIG d   1       5.056   0.594  -4.298  0.00  0.00    -0.341 OA
ATOM      3  C   LIG d   1       6.420   0.575  -3.855  0.00  0.00     0.114 C 
ATOM      4  H   LIG d   1       6.609   1.479  -3.276  0.00  0.00     0.065 H 
ATOM      5  C   LIG d   1       7.411   0.525  -4.982  0.00  0.00     0.080 C 
ATOM      6  O   LIG d   1       7.523  -0.713  -5.621  0.00  0.00    -0.340 OA
ATOM      7  C   LIG d   1       7.418  -1.928  -4.942  0.00  0.00     0.243 C 
ATOM      8  C   LIG d   1       6.698  -1.938  -3.627  0.00  0.00     0.149 C 
ATOM      9  H   LIG d   1       7.269  -2.577  -2.954  0.00  0.00     0.068 H 
ATOM     10  C   LIG d   1       6.487  -0.627  -2.917  0.00  0.00     0.122 C 
ATOM     11  H   LIG d   1       7.256  -0.477  -2.160  0.00  0.00     0.065 H 
ATOM     12  O   LIG d   1       5.169  -0.633  -2.309  0.00  0.00    -0.341 OA
ATOM     13  O   LIG d   1       5.456  -2.619  -3.861  0.00  0.00    -0.338 OA
ATOM     14  C   LIG d   1       5.412  -2.940  -5.259  0.00  0.00     0.169 C 
ATOM     15  O   LIG d   1       6.723  -2.892  -5.767  0.00  0.00    -0.311 OA
ATOM     16  H   LIG d   1       7.125   1.270  -5.724  0.00  0.00     0.059 H 
ATOM     17  H   LIG d   1       8.390   0.798  -4.589  0.00  0.00     0.059 H 
ENDROOT
BRANCH   1  18
ATOM     18  C   LIG d   1       3.647   1.245  -2.436  0.00  0.00    -0.011 C 
ATOM     19  H   LIG d   1       2.672   0.936  -2.060  0.00  0.00     0.028 H 
ATOM     20  H   LIG d   1       4.284   1.535  -1.599  0.00  0.00     0.028 H 
ATOM     21  H   LIG d   1       3.525   2.093  -3.109  0.00  0.00     0.028 H 
ENDBRANCH   1  18
BRANCH   1  22
ATOM     22  C   LIG d   1       3.209  -0.860  -3.710  0.00  0.00    -0.011 C 
ATOM     23  H   LIG d   1       3.530  -1.302  -4.653  0.00  0.00     0.028 H 
ATOM     24  H   LIG d   1       3.034  -1.650  -2.980  0.00  0.00     0.028 H 
ATOM     25  H   LIG d   1       2.286  -0.300  -3.867  0.00  0.00     0.028 H 
ENDBRANCH   1  22
BRANCH   7  26
ATOM     26  C   LIG d   1       8.830  -2.457  -4.682  0.00  0.00     0.023 C 
ATOM     27  H   LIG d   1       9.146  -3.077  -5.522  0.00  0.00     0.087 H 
ATOM     28  H   LIG d   1       9.517  -1.620  -4.570  0.00  0.00     0.087 H 
BRANCH  26  29
ATOM     29  N   LIG d   1       8.826  -3.243  -3.436  0.00  0.00     0.222 N 
ATOM     30  H   LIG d   1       8.500  -4.190  -3.621  0.00  0.00     0.200 HD
ATOM     31  H   LIG d   1       9.764  -3.278  -3.042  0.00  0.00     0.200 HD
ATOM     32  H   LIG d   1       8.195  -2.799  -2.759  0.00  0.00     0.200 HD
ENDBRANCH  26  29
ENDBRANCH   7  26
BRANCH  14  33
ATOM     33  C   LIG d   1       4.838  -4.346  -5.448  0.00  0.00    -0.011 C 
ATOM     34  H   LIG d   1       4.522  -4.473  -6.484  0.00  0.00     0.028 H 
ATOM     35  H   LIG d   1       5.601  -5.086  -5.207  0.00  0.00     0.028 H 
ATOM     36  H   LIG d   1       3.981  -4.480  -4.788  0.00  0.00     0.028 H 
ENDBRANCH  14  33
BRANCH  14  37
ATOM     37  C   LIG d   1       4.542  -1.922  -5.997  0.00  0.00    -0.011 C 
ATOM     38  H   LIG d   1       4.696  -2.024  -7.071  0.00  0.00     0.028 H 
ATOM     39  H   LIG d   1       3.493  -2.101  -5.761  0.00  0.00     0.028 H 
ATOM     40  H   LIG d   1       4.817  -0.914  -5.685  0.00  0.00     0.028 H 
ENDBRANCH  14  37
TORSDOF 6
ENDMDL
MODEL 6
REMARK VINA RESULT:      -4.6     10.823     12.363
REMARK  6 active torsions:
REMARK  status: ('A' for Active; 'I' for Inactive)
REMARK    1  A    between atoms: C_1  and  C_2 
REMARK    2  A    between atoms: C_2  and  C_20 
REMARK    3  A    between atoms: C_8  and  C_19 
REMARK    4  A    between atoms: C_15  and  C_17 
REMARK    5  A    between atoms: C_15  and  C_18 
REMARK    6  A    between atoms: C_19  and  N_39 
ROOT
ATOM      1  C   LIG d   1      11.028   7.373   0.016  0.00  0.00     0.166 C 
ATOM      2  O   LIG d   1      11.844   7.767  -1.099  0.00  0.00    -0.341 OA
ATOM      3  C   LIG d   1      10.958   7.774  -2.227  0.00  0.00     0.114 C 
ATOM      4  H   LIG d   1      10.880   6.758  -2.612  0.00  0.00     0.065 H 
ATOM      5  C   LIG d   1      11.423   8.664  -3.343  0.00  0.00     0.080 C 
ATOM      6  O   LIG d   1      11.266  10.035  -3.116  0.00  0.00    -0.340 OA
ATOM      7  C   LIG d   1      10.179  10.567  -2.421  0.00  0.00     0.243 C 
ATOM      8  C   LIG d   1       9.432   9.664  -1.485  0.00  0.00     0.149 C 
ATOM      9  H   LIG d   1       8.371   9.874  -1.617  0.00  0.00     0.068 H 
ATOM     10  C   LIG d   1       9.609   8.175  -1.635  0.00  0.00     0.122 C 
ATOM     11  H   LIG d   1       8.795   7.753  -2.223  0.00  0.00     0.065 H 
ATOM     12  O   LIG d   1       9.648   7.576  -0.314  0.00  0.00    -0.341 OA
ATOM     13  O   LIG d   1       9.763  10.105  -0.160  0.00  0.00    -0.338 OA
ATOM     14  C   LIG d   1      10.708  11.175  -0.299  0.00  0.00     0.169 C 
ATOM     15  O   LIG d   1      10.616  11.682  -1.609  0.00  0.00    -0.311 OA
ATOM     16  H   LIG d   1      12.479   8.465  -3.524  0.00  0.00     0.059 H 
ATOM     17  H   LIG d   1      10.870   8.400  -4.244  0.00  0.00     0.059 H 
ENDROOT
BRANCH   1  18
ATOM     18  C   LIG d   1      11.267   5.894   0.327  0.00  0.00    -0.011 C 
ATOM     19  H   LIG d   1      12.004   5.491  -0.368  0.00  0.00     0.028 H 
ATOM     20  H   LIG d   1      11.637   5.793   1.348  0.00  0.00     0.028 H 
ATOM     21  H   LIG d   1      10.332   5.344   0.224  0.00  0.00     0.028 H 
ENDBRANCH   1  18
BRANCH   1  22
ATOM     22  C   LIG d   1      11.390   8.217   1.239  0.00  0.00    -0.011 C 
ATOM     23  H   LIG d   1      12.413   7.997   1.542  0.00  0.00     0.028 H 
ATOM     24  H   LIG d   1      11.304   9.274   0.990  0.00  0.00     0.028 H 
ATOM     25  H   LIG d   1      10.710   7.981   2.058  0.00  0.00     0.028 H 
ENDBRANCH   1  22
BRANCH   7  26
ATOM     26  C   LIG d   1       9.165  11.091  -3.439  0.00  0.00     0.023 C 
ATOM     27  H   LIG d   1       9.556  11.994  -3.909  0.00  0.00     0.087 H 
ATOM     28  H   LIG d   1       8.990  10.333  -4.201  0.00  0.00     0.087 H 
BRANCH  26  29
ATOM     29  N   LIG d   1       7.896  11.379  -2.749  0.00  0.00     0.222 N 
ATOM     30  H   LIG d   1       7.874  10.909  -1.846  0.00  0.00     0.200 HD
ATOM     31  H   LIG d   1       7.792  12.382  -2.612  0.00  0.00     0.200 HD
ATOM     32  H   LIG d   1       7.115  11.037  -3.323  0.00  0.00     0.200 HD
ENDBRANCH  26  29
ENDBRANCH   7  26
BRANCH  14  33
ATOM     33  C   LIG d   1      10.386  12.283   0.705  0.00  0.00    -0.011 C 
ATOM     34  H   LIG d   1      10.940  13.185   0.442  0.00  0.00     0.028 H 
ATOM     35  H   LIG d   1       9.317  12.494   0.683  0.00  0.00     0.028 H 
ATOM     36  H   LIG d   1      10.672  11.961   1.706  0.00  0.00     0.028 H 
ENDBRANCH  14  33
BRANCH  14  37
ATOM     37  C   LIG d   1      12.124  10.651  -0.056  0.00  0.00    -0.011 C 
ATOM     38  H   LIG d   1      12.652  10.575  -1.006  0.00  0.00     0.028 H 
ATOM     39  H   LIG d   1      12.657  11.337   0.604  0.00  0.00     0.028 H 
ATOM     40  H   LIG d   1      12.073   9.667   0.411  0.00  0.00     0.028 H 
ENDBRANCH  14  37
TORSDOF 6
ENDMDL
MODEL 7
REMARK VINA RESULT:      -4.5      9.077     10.665
REMARK  6 active torsions:
REMARK  status: ('A' for Active; 'I' for Inactive)
REMARK    1  A    between atoms: C_1  and  C_2 
REMARK    2  A    between atoms: C_2  and  C_20 
REMARK    3  A    between atoms: C_8  and  C_19 
REMARK    4  A    between atoms: C_15  and  C_17 
REMARK    5  A    between atoms: C_15  and  C_18 
REMARK    6  A    between atoms: C_19  and  N_39 
ROOT
ATOM      1  C   LIG d   1      10.823   5.431  -3.169  0.00  0.00     0.166 C 
ATOM      2  O   LIG d   1      11.753   6.527  -3.189  0.00  0.00    -0.341 OA
ATOM      3  C   LIG d   1      10.943   7.701  -3.335  0.00  0.00     0.114 C 
ATOM      4  H   LIG d   1      10.719   7.839  -4.393  0.00  0.00     0.065 H 
ATOM      5  C   LIG d   1      11.607   8.949  -2.830  0.00  0.00     0.080 C 
ATOM      6  O   LIG d   1      11.665   9.071  -1.438  0.00  0.00    -0.340 OA
ATOM      7  C   LIG d   1      10.644   8.626  -0.596  0.00  0.00     0.243 C 
ATOM      8  C   LIG d   1       9.710   7.576  -1.119  0.00  0.00     0.149 C 
ATOM      9  H   LIG d   1       8.706   7.852  -0.796  0.00  0.00     0.068 H 
ATOM     10  C   LIG d   1       9.648   7.350  -2.606  0.00  0.00     0.122 C 
ATOM     11  H   LIG d   1       8.808   7.893  -3.039  0.00  0.00     0.065 H 
ATOM     12  O   LIG d   1       9.515   5.927  -2.856  0.00  0.00    -0.341 OA
ATOM     13  O   LIG d   1      10.036   6.370  -0.414  0.00  0.00    -0.338 OA
ATOM     14  C   LIG d   1      11.150   6.671   0.438  0.00  0.00     0.169 C 
ATOM     15  O   LIG d   1      11.214   8.066   0.610  0.00  0.00    -0.311 OA
ATOM     16  H   LIG d   1      12.624   8.978  -3.220  0.00  0.00     0.059 H 
ATOM     17  H   LIG d   1      11.068   9.809  -3.227  0.00  0.00     0.059 H 
ENDROOT
BRANCH   1  18
ATOM     18  C   LIG d   1      10.799   4.756  -4.543  0.00  0.00    -0.011 C 
ATOM     19  H   LIG d   1       9.772   4.697  -4.901  0.00  0.00     0.028 H 
ATOM     20  H   LIG d   1      11.396   5.341  -5.244  0.00  0.00     0.028 H 
ATOM     21  H   LIG d   1      11.215   3.752  -4.462  0.00  0.00     0.028 H 
ENDBRANCH   1  18
BRANCH   1  22
ATOM     22  C   LIG d   1      11.252   4.416  -2.109  0.00  0.00    -0.011 C 
ATOM     23  H   LIG d   1      11.888   3.658  -2.567  0.00  0.00     0.028 H 
ATOM     24  H   LIG d   1      11.806   4.925  -1.320  0.00  0.00     0.028 H 
ATOM     25  H   LIG d   1      10.368   3.940  -1.683  0.00  0.00     0.028 H 
ENDBRANCH   1  22
BRANCH   7  26
ATOM     26  C   LIG d   1       9.787   9.830  -0.201  0.00  0.00     0.023 C 
ATOM     27  H   LIG d   1       9.677   9.857   0.883  0.00  0.00     0.087 H 
ATOM     28  H   LIG d   1      10.269  10.746  -0.540  0.00  0.00     0.087 H 
BRANCH  26  29
ATOM     29  N   LIG d   1       8.469   9.715  -0.849  0.00  0.00     0.222 N 
ATOM     30  H   LIG d   1       8.358   8.787  -1.254  0.00  0.00     0.200 HD
ATOM     31  H   LIG d   1       7.729   9.879  -0.169  0.00  0.00     0.200 HD
ATOM     32  H   LIG d   1       8.398  10.416  -1.596  0.00  0.00     0.200 HD
ENDBRANCH  26  29
ENDBRANCH   7  26
BRANCH  14  33
ATOM     33  C   LIG d   1      10.960   5.994   1.797  0.00  0.00    -0.011 C 
ATOM     34  H   LIG d   1      11.442   6.591   2.572  0.00  0.00     0.028 H 
ATOM     35  H   LIG d   1       9.896   5.907   2.015  0.00  0.00     0.028 H 
ATOM     36  H   LIG d   1      11.408   5.000   1.774  0.00  0.00     0.028 H 
ENDBRANCH  14  33
BRANCH  14  37
ATOM     37  C   LIG d   1      12.445   6.179  -0.209  0.00  0.00    -0.011 C 
ATOM     38  H   LIG d   1      12.510   6.560  -1.228  0.00  0.00     0.028 H 
ATOM     39  H   LIG d   1      13.299   6.536   0.368  0.00  0.00     0.028 H 
ATOM     40  H   LIG d   1      12.452   5.089  -0.228  0.00  0.00     0.028 H 
ENDBRANCH  14  37
TORSDOF 6
ENDMDL
MODEL 8
REMARK VINA RESULT:      -4.4      1.770      2.667
REMARK  6 active torsions:
REMARK  status: ('A' for Active; 'I' for Inactive)
REMARK    1  A    between atoms: C_1  and  C_2 
REMARK    2  A    between atoms: C_2  and  C_20 
REMARK    3  A    between atoms: C_8  and  C_19 
REMARK    4  A    between atoms: C_15  and  C_17 
REMARK    5  A    between atoms: C_15  and  C_18 
REMARK    6  A    between atoms: C_19  and  N_39 
ROOT
ATOM      1  C   LIG d   1       7.114  -2.588  -5.542  0.00  0.00     0.166 C 
ATOM      2  O   LIG d   1       5.959  -1.842  -5.959  0.00  0.00    -0.341 OA
ATOM      3  C   LIG d   1       5.028  -1.958  -4.875  0.00  0.00     0.114 C 
ATOM      4  H   LIG d   1       4.489  -2.899  -4.979  0.00  0.00     0.065 H 
ATOM      5  C   LIG d   1       4.022  -0.844  -4.833  0.00  0.00     0.080 C 
ATOM      6  O   LIG d   1       4.513   0.384  -4.379  0.00  0.00    -0.340 OA
ATOM      7  C   LIG d   1       5.475   0.490  -3.374  0.00  0.00     0.243 C 
ATOM      8  C   LIG d   1       6.354  -0.697  -3.114  0.00  0.00     0.149 C 
ATOM      9  H   LIG d   1       6.455  -0.790  -2.034  0.00  0.00     0.068 H 
ATOM     10  C   LIG d   1       5.914  -2.040  -3.634  0.00  0.00     0.122 C 
ATOM     11  H   LIG d   1       5.416  -2.608  -2.848  0.00  0.00     0.065 H 
ATOM     12  O   LIG d   1       7.079  -2.757  -4.119  0.00  0.00    -0.341 OA
ATOM     13  O   LIG d   1       7.655  -0.341  -3.604  0.00  0.00    -0.338 OA
ATOM     14  C   LIG d   1       7.541   0.966  -4.184  0.00  0.00     0.169 C 
ATOM     15  O   LIG d   1       6.380   1.578  -3.675  0.00  0.00    -0.311 OA
ATOM     16  H   LIG d   1       3.622  -0.705  -5.837  0.00  0.00     0.059 H 
ATOM     17  H   LIG d   1       3.202  -1.148  -4.182  0.00  0.00     0.059 H 
ENDROOT
BRANCH   1  18
ATOM     18  C   LIG d   1       7.110  -3.960  -6.220  0.00  0.00    -0.011 C 
ATOM     19  H   LIG d   1       6.446  -3.937  -7.084  0.00  0.00     0.028 H 
ATOM     20  H   LIG d   1       8.121  -4.206  -6.547  0.00  0.00     0.028 H 
ATOM     21  H   LIG d   1       6.763  -4.714  -5.514  0.00  0.00     0.028 H 
ENDBRANCH   1  18
BRANCH   1  22
ATOM     22  C   LIG d   1       8.383  -1.828  -5.934  0.00  0.00    -0.011 C 
ATOM     23  H   LIG d   1       9.023  -1.714  -5.060  0.00  0.00     0.028 H 
ATOM     24  H   LIG d   1       8.917  -2.385  -6.704  0.00  0.00     0.028 H 
ATOM     25  H   LIG d   1       8.113  -0.844  -6.318  0.00  0.00     0.028 H 
ENDBRANCH   1  22
BRANCH   7  26
ATOM     26  C   LIG d   1       4.764   0.815  -2.059  0.00  0.00     0.023 C 
ATOM     27  H   LIG d   1       4.556  -0.110  -1.520  0.00  0.00     0.087 H 
ATOM     28  H   LIG d   1       5.402   1.454  -1.450  0.00  0.00     0.087 H 
BRANCH  26  29
ATOM     29  N   LIG d   1       3.511   1.531  -2.355  0.00  0.00     0.222 N 
ATOM     30  H   LIG d   1       3.185   2.023  -1.525  0.00  0.00     0.200 HD
ATOM     31  H   LIG d   1       3.660   2.200  -3.108  0.00  0.00     0.200 HD
ATOM     32  H   LIG d   1       2.796   0.854  -2.644  0.00  0.00     0.200 HD
ENDBRANCH  26  29
ENDBRANCH   7  26
BRANCH  14  33
ATOM     33  C   LIG d   1       8.767   1.804  -3.816  0.00  0.00    -0.011 C 
ATOM     34  H   LIG d   1       8.469   2.844  -3.678  0.00  0.00     0.028 H 
ATOM     35  H   LIG d   1       9.202   1.425  -2.892  0.00  0.00     0.028 H 
ATOM     36  H   LIG d   1       9.504   1.741  -4.617  0.00  0.00     0.028 H 
ENDBRANCH  14  33
BRANCH  14  37
ATOM     37  C   LIG d   1       7.430   0.851  -5.705  0.00  0.00    -0.011 C 
ATOM     38  H   LIG d   1       8.349   0.423  -6.105  0.00  0.00     0.028 H 
ATOM     39  H   LIG d   1       6.587   0.207  -5.960  0.00  0.00     0.028 H 
ATOM     40  H   LIG d   1       7.273   1.840  -6.135  0.00  0.00     0.028 H 
ENDBRANCH  14  37
TORSDOF 6
ENDMDL
MODEL 9
REMARK VINA RESULT:      -4.4      8.925     10.691
REMARK  6 active torsions:
REMARK  status: ('A' for Active; 'I' for Inactive)
REMARK    1  A    between atoms: C_1  and  C_2 
REMARK    2  A    between atoms: C_2  and  C_20 
REMARK    3  A    between atoms: C_8  and  C_19 
REMARK    4  A    between atoms: C_15  and  C_17 
REMARK    5  A    between atoms: C_15  and  C_18 
REMARK    6  A    between atoms: C_19  and  N_39 
ROOT
ATOM      1  C   LIG d   1      13.425   5.426  -1.852  0.00  0.00     0.166 C 
ATOM      2  O   LIG d   1      12.541   5.180  -0.746  0.00  0.00    -0.341 OA
ATOM      3  C   LIG d   1      12.392   6.450  -0.097  0.00  0.00     0.114 C 
ATOM      4  H   LIG d   1      13.236   6.595   0.578  0.00  0.00     0.065 H 
ATOM      5  C   LIG d   1      11.127   6.565   0.703  0.00  0.00     0.080 C 
ATOM      6  O   LIG d   1       9.960   6.729  -0.049  0.00  0.00    -0.340 OA
ATOM      7  C   LIG d   1       9.919   7.472  -1.230  0.00  0.00     0.243 C 
ATOM      8  C   LIG d   1      11.206   7.686  -1.971  0.00  0.00     0.149 C 
ATOM      9  H   LIG d   1      11.209   8.720  -2.315  0.00  0.00     0.068 H 
ATOM     10  C   LIG d   1      12.501   7.462  -1.235  0.00  0.00     0.122 C 
ATOM     11  H   LIG d   1      12.897   8.408  -0.867  0.00  0.00     0.065 H 
ATOM     12  O   LIG d   1      13.446   6.831  -2.137  0.00  0.00    -0.341 OA
ATOM     13  O   LIG d   1      11.122   6.876  -3.152  0.00  0.00    -0.338 OA
ATOM     14  C   LIG d   1       9.877   6.166  -3.086  0.00  0.00     0.169 C 
ATOM     15  O   LIG d   1       9.033   6.834  -2.179  0.00  0.00    -0.311 OA
ATOM     16  H   LIG d   1      11.022   5.666   1.309  0.00  0.00     0.059 H 
ATOM     17  H   LIG d   1      11.224   7.417   1.376  0.00  0.00     0.059 H 
ENDROOT
BRANCH   1  18
ATOM     18  C   LIG d   1      14.836   4.956  -1.493  0.00  0.00    -0.011 C 
ATOM     19  H   LIG d   1      14.775   4.119  -0.797  0.00  0.00     0.028 H 
ATOM     20  H   LIG d   1      15.354   4.638  -2.399  0.00  0.00     0.028 H 
ATOM     21  H   LIG d   1      15.386   5.775  -1.029  0.00  0.00     0.028 H 
ENDBRANCH   1  18
BRANCH   1  22
ATOM     22  C   LIG d   1      12.930   4.663  -3.082  0.00  0.00    -0.011 C 
ATOM     23  H   LIG d   1      12.263   5.302  -3.662  0.00  0.00     0.028 H 
ATOM     24  H   LIG d   1      13.782   4.374  -3.698  0.00  0.00     0.028 H 
ATOM     25  H   LIG d   1      12.392   3.770  -2.764  0.00  0.00     0.028 H 
ENDBRANCH   1  22
BRANCH   7  26
ATOM     26  C   LIG d   1       9.353   8.856  -0.910  0.00  0.00     0.023 C 
ATOM     27  H   LIG d   1       8.349   8.751  -0.497  0.00  0.00     0.087 H 
ATOM     28  H   LIG d   1       9.994   9.352  -0.182  0.00  0.00     0.087 H 
BRANCH  26  29
ATOM     29  N   LIG d   1       9.320   9.660  -2.144  0.00  0.00     0.222 N 
ATOM     30  H   LIG d   1       8.728  10.478  -2.013  0.00  0.00     0.200 HD
ATOM     31  H   LIG d   1      10.261   9.958  -2.392  0.00  0.00     0.200 HD
ATOM     32  H   LIG d   1       8.937   9.089  -2.907  0.00  0.00     0.200 HD
ENDBRANCH  26  29
ENDBRANCH   7  26
BRANCH  14  33
ATOM     33  C   LIG d   1       9.224   6.136  -4.470  0.00  0.00    -0.011 C 
ATOM     34  H   LIG d   1       8.140   6.180  -4.362  0.00  0.00     0.028 H 
ATOM     35  H   LIG d   1       9.567   6.992  -5.052  0.00  0.00     0.028 H 
ATOM     36  H   LIG d   1       9.501   5.215  -4.982  0.00  0.00     0.028 H 
ENDBRANCH  14  33
BRANCH  14  37
ATOM     37  C   LIG d   1      10.120   4.738  -2.597  0.00  0.00    -0.011 C 
ATOM     38  H   LIG d   1      11.022   4.711  -1.986  0.00  0.00     0.028 H 
ATOM     39  H   LIG d   1       9.267   4.407  -2.003  0.00  0.00     0.028 H 
ATOM     40  H   LIG d   1      10.243   4.075  -3.454  0.00  0.00     0.028 H 
ENDBRANCH  14  37
TORSDOF 6
ENDMDL
MODEL 10
REMARK VINA RESULT:      -4.3      2.446      4.245
REMARK  6 active torsions:
REMARK  status: ('A' for Active; 'I' for Inactive)
REMARK    1  A    between atoms: C_1  and  C_2 
REMARK    2  A    between atoms: C_2  and  C_20 
REMARK    3  A    between atoms: C_8  and  C_19 
REMARK    4  A    between atoms: C_15  and  C_17 
REMARK    5  A    between atoms: C_15  and  C_18 
REMARK    6  A    between atoms: C_19  and  N_39 
ROOT
ATOM      1  C   LIG d   1       4.090  -1.255  -3.541  0.00  0.00     0.166 C 
ATOM      2  O   LIG d   1       4.232  -1.365  -4.967  0.00  0.00    -0.341 OA
ATOM      3  C   LIG d   1       4.867  -0.146  -5.374  0.00  0.00     0.114 C 
ATOM      4  H   LIG d   1       4.102   0.623  -5.486  0.00  0.00     0.065 H 
ATOM      5  C   LIG d   1       5.604  -0.265  -6.677  0.00  0.00     0.080 C 
ATOM      6  O   LIG d   1       6.815  -0.962  -6.613  0.00  0.00    -0.340 OA
ATOM      7  C   LIG d   1       7.672  -0.891  -5.514  0.00  0.00     0.243 C 
ATOM      8  C   LIG d   1       7.092  -0.476  -4.195  0.00  0.00     0.149 C 
ATOM      9  H   LIG d   1       7.808   0.200  -3.730  0.00  0.00     0.068 H 
ATOM     10  C   LIG d   1       5.757   0.222  -4.189  0.00  0.00     0.122 C 
ATOM     11  H   LIG d   1       5.893   1.302  -4.136  0.00  0.00     0.065 H 
ATOM     12  O   LIG d   1       4.989  -0.251  -3.053  0.00  0.00    -0.341 OA
ATOM     13  O   LIG d   1       7.074  -1.657  -3.381  0.00  0.00    -0.338 OA
ATOM     14  C   LIG d   1       7.560  -2.734  -4.195  0.00  0.00     0.169 C 
ATOM     15  O   LIG d   1       8.272  -2.187  -5.278  0.00  0.00    -0.311 OA
ATOM     16  H   LIG d   1       4.956  -0.768  -7.393  0.00  0.00     0.059 H 
ATOM     17  H   LIG d   1       5.806   0.739  -7.049  0.00  0.00     0.059 H 
ENDROOT
BRANCH   1  18
ATOM     18  C   LIG d   1       2.651  -0.861  -3.200  0.00  0.00    -0.011 C 
ATOM     19  H   LIG d   1       2.656  -0.122  -2.399  0.00  0.00     0.028 H 
ATOM     20  H   LIG d   1       2.172  -0.436  -4.083  0.00  0.00     0.028 H 
ATOM     21  H   LIG d   1       2.099  -1.744  -2.877  0.00  0.00     0.028 H 
ENDBRANCH   1  18
BRANCH   1  22
ATOM     22  C   LIG d   1       4.421  -2.598  -2.888  0.00  0.00    -0.011 C 
ATOM     23  H   LIG d   1       5.210  -2.458  -2.150  0.00  0.00     0.028 H 
ATOM     24  H   LIG d   1       3.531  -2.993  -2.398  0.00  0.00     0.028 H 
ATOM     25  H   LIG d   1       4.757  -3.300  -3.651  0.00  0.00     0.028 H 
ENDBRANCH   1  22
BRANCH   7  26
ATOM     26  C   LIG d   1       8.793   0.098  -5.840  0.00  0.00     0.023 C 
ATOM     27  H   LIG d   1       9.490  -0.362  -6.541  0.00  0.00     0.087 H 
ATOM     28  H   LIG d   1       8.367   0.995  -6.288  0.00  0.00     0.087 H 
BRANCH  26  29
ATOM     29  N   LIG d   1       9.485   0.467  -4.593  0.00  0.00     0.222 N 
ATOM     30  H   LIG d   1       8.826   0.883  -3.937  0.00  0.00     0.200 HD
ATOM     31  H   LIG d   1       9.909  -0.357  -4.172  0.00  0.00     0.200 HD
ATOM     32  H   LIG d   1      10.221   1.151  -4.806  0.00  0.00     0.200 HD
ENDBRANCH  26  29
ENDBRANCH   7  26
BRANCH  14  33
ATOM     33  C   LIG d   1       8.487  -3.629  -3.370  0.00  0.00    -0.011 C 
ATOM     34  H   LIG d   1       8.319  -4.673  -3.638  0.00  0.00     0.028 H 
ATOM     35  H   LIG d   1       9.524  -3.364  -3.573  0.00  0.00     0.028 H 
ATOM     36  H   LIG d   1       8.278  -3.489  -2.309  0.00  0.00     0.028 H 
ENDBRANCH  14  33
BRANCH  14  37
ATOM     37  C   LIG d   1       6.383  -3.555  -4.724  0.00  0.00    -0.011 C 
ATOM     38  H   LIG d   1       5.614  -3.625  -3.955  0.00  0.00     0.028 H 
ATOM     39  H   LIG d   1       5.970  -3.070  -5.609  0.00  0.00     0.028 H 
ATOM     40  H   LIG d   1       6.726  -4.557  -4.987  0.00  0.00     0.028 H 
ENDBRANCH  14  37
TORSDOF 6
ENDMDL
