MODEL 1
REMARK VINA RESULT:      -6.2      0.000      0.000
REMARK  13 active torsions:
REMARK  status: ('A' for Active; 'I' for Inactive)
REMARK    1  A    between atoms: C_1  and  C_2 
REMARK    2  A    between atoms: C_5  and  C_8 
REMARK    3  A    between atoms: C_11  and  C_13 
REMARK    4  A    between atoms: C_13  and  C_14 
REMARK    5  A    between atoms: C_17  and  C_34 
REMARK    6  A    between atoms: C_19  and  C_24 
REMARK    7  A    between atoms: C_22  and  C_23 
REMARK    8  A    between atoms: C_24  and  N_25 
REMARK    9  A    between atoms: C_29  and  C_31 
REMARK   10  A    between atoms: C_31  and  O_32 
REMARK   11  A    between atoms: O_32  and  C_33 
REMARK   12  A    between atoms: C_34  and  C_35 
REMARK   13  A    between atoms: C_34  and  C_36 
ROOT
ATOM      1  C   LIG d   1       9.426   5.651  -3.525  0.00  0.00    -0.011 C 
ATOM      2  H   LIG d   1       8.474   5.440  -3.037  0.00  0.00     0.035 H 
ATOM      3  C   LIG d   1       9.169   6.374  -4.849  0.00  0.00    -0.042 C 
ATOM      4  C   LIG d   1      10.507   6.893  -5.387  0.00  0.00    -0.027 C 
ATOM      5  H   LIG d   1      11.231   6.078  -5.417  0.00  0.00     0.031 H 
ATOM      6  C   LIG d   1      11.012   7.993  -4.451  0.00  0.00     0.021 C 
ATOM      7  H   LIG d   1      10.386   8.878  -4.564  0.00  0.00     0.040 H 
ATOM      8  C   LIG d   1      10.957   7.525  -3.027  0.00  0.00    -0.076 C 
ATOM      9  C   LIG d   1      10.266   6.510  -2.625  0.00  0.00    -0.072 C 
ATOM     10  H   LIG d   1       8.730   5.680  -5.566  0.00  0.00     0.027 H 
ATOM     11  H   LIG d   1       8.491   7.211  -4.683  0.00  0.00     0.027 H 
ATOM     12  H   LIG d   1      11.533   8.069  -2.292  0.00  0.00     0.058 H 
ENDROOT
BRANCH   6  13
ATOM     13  C   LIG d   1      12.456   8.343  -4.812  0.00  0.00    -0.025 C 
ATOM     14  H   LIG d   1      13.134   7.863  -4.106  0.00  0.00     0.082 H 
ATOM     15  H   LIG d   1      12.674   7.994  -5.821  0.00  0.00     0.082 H 
BRANCH  13  16
ATOM     16  N   LIG d   1      12.638   9.799  -4.749  0.00  0.00     0.239 N 
ATOM     17  C   LIG d   1      11.327  10.468  -4.833  0.00  0.00     0.003 C 
ATOM     18  C   LIG d   1      11.343  11.351  -6.098  0.00  0.00    -0.003 C 
ATOM     19  H   LIG d   1      10.535   9.722  -4.912  0.00  0.00     0.087 H 
ATOM     20  C   LIG d   1      12.452  10.698  -6.966  0.00  0.00    -0.007 C 
ATOM     21  H   LIG d   1      11.605  12.379  -5.847  0.00  0.00     0.032 H 
ATOM     22  H   LIG d   1      10.381  11.312  -6.609  0.00  0.00     0.032 H 
ATOM     23  C   LIG d   1      13.468  10.248  -5.888  0.00  0.00    -0.031 C 
ATOM     24  H   LIG d   1      12.897  11.426  -7.643  0.00  0.00     0.032 H 
ATOM     25  H   LIG d   1      12.062   9.842  -7.516  0.00  0.00     0.032 H 
ATOM     26  H   LIG d   1      14.101  11.085  -5.590  0.00  0.00     0.081 H 
ATOM     27  H   LIG d   1      14.077   9.424  -6.260  0.00  0.00     0.081 H 
ATOM     28  H   LIG d   1      13.090  10.049  -3.883  0.00  0.00     0.204 HD
BRANCH  17  29
ATOM     29  C   LIG d   1      11.104  11.337  -3.594  0.00  0.00     0.090 C 
ATOM     30  H   LIG d   1      11.931  11.195  -2.897  0.00  0.00     0.062 H 
ATOM     31  H   LIG d   1      11.054  12.385  -3.889  0.00  0.00     0.062 H 
BRANCH  29  32
ATOM     32  O   LIG d   1       9.878  10.961  -2.963  0.00  0.00    -0.377 OA
BRANCH  32  33
ATOM     33  C   LIG d   1       8.726  11.622  -3.490  0.00  0.00     0.037 C 
ATOM     34  H   LIG d   1       8.963  12.670  -3.678  0.00  0.00     0.052 H 
ATOM     35  H   LIG d   1       8.428  11.144  -4.423  0.00  0.00     0.052 H 
ATOM     36  H   LIG d   1       7.910  11.558  -2.772  0.00  0.00     0.052 H 
ENDBRANCH  32  33
ENDBRANCH  29  32
ENDBRANCH  17  29
ENDBRANCH  13  16
ENDBRANCH   6  13
BRANCH   4  37
ATOM     37  C   LIG d   1      10.311   7.459  -6.794  0.00  0.00    -0.043 C 
ATOM     38  H   LIG d   1      11.210   7.995  -7.099  0.00  0.00     0.030 H 
BRANCH  37  39
ATOM     39  C   LIG d   1      10.045   6.313  -7.774  0.00  0.00    -0.062 C 
ATOM     40  H   LIG d   1       9.771   5.417  -7.217  0.00  0.00     0.023 H 
ATOM     41  H   LIG d   1       9.232   6.589  -8.443  0.00  0.00     0.023 H 
ATOM     42  H   LIG d   1      10.946   6.117  -8.357  0.00  0.00     0.023 H 
ENDBRANCH  37  39
BRANCH  37  43
ATOM     43  C   LIG d   1       9.119   8.419  -6.797  0.00  0.00    -0.062 C 
ATOM     44  H   LIG d   1       9.078   8.950  -5.847  0.00  0.00     0.023 H 
ATOM     45  H   LIG d   1       9.234   9.138  -7.610  0.00  0.00     0.023 H 
ATOM     46  H   LIG d   1       8.199   7.854  -6.938  0.00  0.00     0.023 H 
ENDBRANCH  37  43
ENDBRANCH   4  37
BRANCH   9  47
ATOM     47  C   LIG d   1      10.306   6.169  -1.158  0.00  0.00    -0.043 C 
ATOM     48  H   LIG d   1      11.233   6.542  -0.724  0.00  0.00     0.027 H 
ATOM     49  H   LIG d   1       9.457   6.631  -0.654  0.00  0.00     0.027 H 
ATOM     50  H   LIG d   1      10.256   5.087  -1.036  0.00  0.00     0.027 H 
ENDBRANCH   9  47
BRANCH   1  51
ATOM     51  C   LIG d   1      10.159   4.337  -3.799  0.00  0.00     0.032 C 
ATOM     52  H   LIG d   1      10.707   4.034  -2.908  0.00  0.00     0.037 H 
ATOM     53  H   LIG d   1      10.856   4.474  -4.625  0.00  0.00     0.037 H 
BRANCH  51  54
ATOM     54  C   LIG d   1       9.157   3.270  -4.160  0.00  0.00     0.218 A 
ATOM     55  N   LIG d   1       8.854   2.876  -5.366  0.00  0.00    -0.112 NA
ATOM     56  N   LIG d   1       7.963   1.950  -5.303  0.00  0.00    -0.107 NA
ATOM     57  C   LIG d   1       7.664   1.720  -4.045  0.00  0.00     0.248 A 
ATOM     58  O   LIG d   1       8.413   2.557  -3.298  0.00  0.00    -0.420 OA
BRANCH  57  59
ATOM     59  C   LIG d   1       6.685   0.734  -3.543  0.00  0.00     0.038 A 
ATOM     60  C   LIG d   1       5.562   1.160  -2.832  0.00  0.00    -0.049 A 
ATOM     61  C   LIG d   1       4.652   0.234  -2.366  0.00  0.00    -0.058 A 
ATOM     62  H   LIG d   1       5.405   2.212  -2.646  0.00  0.00     0.062 H 
ATOM     63  C   LIG d   1       4.850  -1.116  -2.603  0.00  0.00    -0.050 A 
ATOM     64  H   LIG d   1       3.782   0.561  -1.816  0.00  0.00     0.062 H 
ATOM     65  C   LIG d   1       5.964  -1.545  -3.302  0.00  0.00    -0.058 A 
ATOM     66  C   LIG d   1       6.879  -0.628  -3.778  0.00  0.00    -0.049 A 
ATOM     67  H   LIG d   1       6.116  -2.599  -3.480  0.00  0.00     0.062 H 
ATOM     68  H   LIG d   1       7.745  -0.965  -4.328  0.00  0.00     0.062 H 
BRANCH  63  69
ATOM     69  C   LIG d   1       3.852  -2.122  -2.092  0.00  0.00    -0.040 C 
ATOM     70  H   LIG d   1       3.496  -2.734  -2.921  0.00  0.00     0.028 H 
ATOM     71  H   LIG d   1       4.328  -2.760  -1.347  0.00  0.00     0.028 H 
ATOM     72  H   LIG d   1       3.010  -1.600  -1.637  0.00  0.00     0.028 H 
ENDBRANCH  63  69
ENDBRANCH  57  59
ENDBRANCH  51  54
ENDBRANCH   1  51
TORSDOF 13
ENDMDL
MODEL 2
REMARK VINA RESULT:      -6.0      1.779      3.548
REMARK  13 active torsions:
REMARK  status: ('A' for Active; 'I' for Inactive)
REMARK    1  A    between atoms: C_1  and  C_2 
REMARK    2  A    between atoms: C_5  and  C_8 
REMARK    3  A    between atoms: C_11  and  C_13 
REMARK    4  A    between atoms: C_13  and  C_14 
REMARK    5  A    between atoms: C_17  and  C_34 
REMARK    6  A    between atoms: C_19  and  C_24 
REMARK    7  A    between atoms: C_22  and  C_23 
REMARK    8  A    between atoms: C_24  and  N_25 
REMARK    9  A    between atoms: C_29  and  C_31 
REMARK   10  A    between atoms: C_31  and  O_32 
REMARK   11  A    between atoms: O_32  and  C_33 
REMARK   12  A    between atoms: C_34  and  C_35 
REMARK   13  A    between atoms: C_34  and  C_36 
ROOT
ATOM      1  C   LIG d   1      11.181   4.316  -3.933  0.00  0.00    -0.011 C 
ATOM      2  H   LIG d   1      11.500   3.290  -4.119  0.00  0.00     0.035 H 
ATOM      3  C   LIG d   1      11.719   4.777  -2.576  0.00  0.00    -0.042 C 
ATOM      4  C   LIG d   1      11.490   6.287  -2.450  0.00  0.00    -0.027 C 
ATOM      5  H   LIG d   1      10.445   6.518  -2.656  0.00  0.00     0.031 H 
ATOM      6  C   LIG d   1      12.383   6.999  -3.469  0.00  0.00     0.021 C 
ATOM      7  H   LIG d   1      13.423   6.920  -3.155  0.00  0.00     0.040 H 
ATOM      8  C   LIG d   1      12.225   6.371  -4.823  0.00  0.00    -0.076 C 
ATOM      9  C   LIG d   1      11.706   5.204  -5.022  0.00  0.00    -0.072 C 
ATOM     10  H   LIG d   1      11.190   4.258  -1.776  0.00  0.00     0.027 H 
ATOM     11  H   LIG d   1      12.785   4.561  -2.512  0.00  0.00     0.027 H 
ATOM     12  H   LIG d   1      12.564   6.928  -5.683  0.00  0.00     0.058 H 
ENDROOT
BRANCH   6  13
ATOM     13  C   LIG d   1      11.986   8.474  -3.548  0.00  0.00    -0.025 C 
ATOM     14  H   LIG d   1      12.295   8.983  -2.635  0.00  0.00     0.082 H 
ATOM     15  H   LIG d   1      12.476   8.937  -4.405  0.00  0.00     0.082 H 
BRANCH  13  16
ATOM     16  N   LIG d   1      10.530   8.583  -3.699  0.00  0.00     0.239 N 
ATOM     17  C   LIG d   1      10.206   9.099  -5.042  0.00  0.00     0.003 C 
ATOM     18  C   LIG d   1       9.456  10.434  -4.851  0.00  0.00    -0.003 C 
ATOM     19  H   LIG d   1      11.125   9.268  -5.605  0.00  0.00     0.087 H 
ATOM     20  C   LIG d   1       9.894  10.880  -3.430  0.00  0.00    -0.007 C 
ATOM     21  H   LIG d   1       8.377  10.279  -4.890  0.00  0.00     0.032 H 
ATOM     22  H   LIG d   1       9.769  11.163  -5.597  0.00  0.00     0.032 H 
ATOM     23  C   LIG d   1       9.993   9.523  -2.692  0.00  0.00    -0.031 C 
ATOM     24  H   LIG d   1       9.140  11.520  -2.972  0.00  0.00     0.032 H 
ATOM     25  H   LIG d   1      10.862  11.380  -3.460  0.00  0.00     0.032 H 
ATOM     26  H   LIG d   1       9.006   9.199  -2.358  0.00  0.00     0.081 H 
ATOM     27  H   LIG d   1      10.674   9.599  -1.845  0.00  0.00     0.081 H 
ATOM     28  H   LIG d   1      10.106   7.676  -3.574  0.00  0.00     0.204 HD
BRANCH  17  29
ATOM     29  C   LIG d   1       9.314   8.102  -5.783  0.00  0.00     0.090 C 
ATOM     30  H   LIG d   1       9.313   7.149  -5.252  0.00  0.00     0.062 H 
ATOM     31  H   LIG d   1       8.297   8.491  -5.833  0.00  0.00     0.062 H 
BRANCH  29  32
ATOM     32  O   LIG d   1       9.815   7.908  -7.108  0.00  0.00    -0.377 OA
BRANCH  32  33
ATOM     33  C   LIG d   1       8.933   8.365  -8.135  0.00  0.00     0.037 C 
ATOM     34  H   LIG d   1       8.447   9.286  -7.813  0.00  0.00     0.052 H 
ATOM     35  H   LIG d   1       9.502   8.554  -9.045  0.00  0.00     0.052 H 
ATOM     36  H   LIG d   1       8.178   7.605  -8.331  0.00  0.00     0.052 H 
ENDBRANCH  32  33
ENDBRANCH  29  32
ENDBRANCH  17  29
ENDBRANCH  13  16
ENDBRANCH   6  13
BRANCH   4  37
ATOM     37  C   LIG d   1      11.849   6.747  -1.036  0.00  0.00    -0.043 C 
ATOM     38  H   LIG d   1      12.016   7.824  -1.035  0.00  0.00     0.030 H 
BRANCH  37  39
ATOM     39  C   LIG d   1      10.701   6.408  -0.082  0.00  0.00    -0.062 C 
ATOM     40  H   LIG d   1       9.985   5.763  -0.592  0.00  0.00     0.023 H 
ATOM     41  H   LIG d   1      11.096   5.894   0.793  0.00  0.00     0.023 H 
ATOM     42  H   LIG d   1      10.204   7.328   0.229  0.00  0.00     0.023 H 
ENDBRANCH  37  39
BRANCH  37  43
ATOM     43  C   LIG d   1      13.122   6.033  -0.575  0.00  0.00    -0.062 C 
ATOM     44  H   LIG d   1      13.197   5.066  -1.072  0.00  0.00     0.023 H 
ATOM     45  H   LIG d   1      13.991   6.640  -0.831  0.00  0.00     0.023 H 
ATOM     46  H   LIG d   1      13.085   5.887   0.503  0.00  0.00     0.023 H 
ENDBRANCH  37  43
ENDBRANCH   4  37
BRANCH   9  47
ATOM     47  C   LIG d   1      11.624   4.706  -6.441  0.00  0.00    -0.043 C 
ATOM     48  H   LIG d   1      12.454   5.113  -7.019  0.00  0.00     0.027 H 
ATOM     49  H   LIG d   1      11.677   3.617  -6.447  0.00  0.00     0.027 H 
ATOM     50  H   LIG d   1      10.681   5.025  -6.884  0.00  0.00     0.027 H 
ENDBRANCH   9  47
BRANCH   1  51
ATOM     51  C   LIG d   1       9.653   4.378  -3.920  0.00  0.00     0.032 C 
ATOM     52  H   LIG d   1       9.306   4.975  -4.762  0.00  0.00     0.037 H 
ATOM     53  H   LIG d   1       9.315   4.834  -2.989  0.00  0.00     0.037 H 
BRANCH  51  54
ATOM     54  C   LIG d   1       9.093   2.984  -4.028  0.00  0.00     0.218 A 
ATOM     55  N   LIG d   1       9.610   1.997  -4.706  0.00  0.00    -0.112 NA
ATOM     56  N   LIG d   1       8.870   0.952  -4.576  0.00  0.00    -0.107 NA
ATOM     57  C   LIG d   1       7.847   1.239  -3.804  0.00  0.00     0.248 A 
ATOM     58  O   LIG d   1       7.968   2.533  -3.447  0.00  0.00    -0.420 OA
BRANCH  57  59
ATOM     59  C   LIG d   1       6.764   0.316  -3.407  0.00  0.00     0.038 A 
ATOM     60  C   LIG d   1       6.843  -1.039  -3.728  0.00  0.00    -0.049 A 
ATOM     61  C   LIG d   1       5.828  -1.895  -3.354  0.00  0.00    -0.058 A 
ATOM     62  H   LIG d   1       7.698  -1.418  -4.270  0.00  0.00     0.062 H 
ATOM     63  C   LIG d   1       4.732  -1.412  -2.660  0.00  0.00    -0.050 A 
ATOM     64  H   LIG d   1       5.888  -2.945  -3.602  0.00  0.00     0.062 H 
ATOM     65  C   LIG d   1       4.645  -0.069  -2.342  0.00  0.00    -0.058 A 
ATOM     66  C   LIG d   1       5.656   0.797  -2.707  0.00  0.00    -0.049 A 
ATOM     67  H   LIG d   1       3.785   0.304  -1.805  0.00  0.00     0.062 H 
ATOM     68  H   LIG d   1       5.588   1.845  -2.454  0.00  0.00     0.062 H 
BRANCH  63  69
ATOM     69  C   LIG d   1       3.627  -2.352  -2.254  0.00  0.00    -0.040 C 
ATOM     70  H   LIG d   1       3.904  -2.860  -1.329  0.00  0.00     0.028 H 
ATOM     71  H   LIG d   1       2.709  -1.787  -2.097  0.00  0.00     0.028 H 
ATOM     72  H   LIG d   1       3.470  -3.090  -3.041  0.00  0.00     0.028 H 
ENDBRANCH  63  69
ENDBRANCH  57  59
ENDBRANCH  51  54
ENDBRANCH   1  51
TORSDOF 13
ENDMDL
MODEL 3
REMARK VINA RESULT:      -5.8      7.338     11.380
REMARK  13 active torsions:
REMARK  status: ('A' for Active; 'I' for Inactive)
REMARK    1  A    between atoms: C_1  and  C_2 
REMARK    2  A    between atoms: C_5  and  C_8 
REMARK    3  A    between atoms: C_11  and  C_13 
REMARK    4  A    between atoms: C_13  and  C_14 
REMARK    5  A    between atoms: C_17  and  C_34 
REMARK    6  A    between atoms: C_19  and  C_24 
REMARK    7  A    between atoms: C_22  and  C_23 
REMARK    8  A    between atoms: C_24  and  N_25 
REMARK    9  A    between atoms: C_29  and  C_31 
REMARK   10  A    between atoms: C_31  and  O_32 
REMARK   11  A    between atoms: O_32  and  C_33 
REMARK   12  A    between atoms: C_34  and  C_35 
REMARK   13  A    between atoms: C_34  and  C_36 
ROOT
ATOM      1  C   LIG d   1       5.522  -4.253  -6.580  0.00  0.00    -0.011 C 
ATOM      2  H   LIG d   1       6.309  -5.009  -6.574  0.00  0.00     0.035 H 
ATOM      3  C   LIG d   1       5.634  -3.396  -5.317  0.00  0.00    -0.042 C 
ATOM      4  C   LIG d   1       4.701  -2.189  -5.466  0.00  0.00    -0.027 C 
ATOM      5  H   LIG d   1       3.699  -2.530  -5.729  0.00  0.00     0.031 H 
ATOM      6  C   LIG d   1       5.245  -1.291  -6.579  0.00  0.00     0.021 C 
ATOM      7  H   LIG d   1       6.158  -0.805  -6.237  0.00  0.00     0.040 H 
ATOM      8  C   LIG d   1       5.544  -2.107  -7.802  0.00  0.00    -0.076 C 
ATOM      9  C   LIG d   1       5.668  -3.393  -7.800  0.00  0.00    -0.072 C 
ATOM     10  H   LIG d   1       5.337  -3.983  -4.448  0.00  0.00     0.027 H 
ATOM     11  H   LIG d   1       6.661  -3.052  -5.197  0.00  0.00     0.027 H 
ATOM     12  H   LIG d   1       5.663  -1.587  -8.741  0.00  0.00     0.058 H 
ENDROOT
BRANCH   6  13
ATOM     13  C   LIG d   1       4.203  -0.225  -6.926  0.00  0.00    -0.025 C 
ATOM     14  H   LIG d   1       3.205  -0.613  -6.721  0.00  0.00     0.082 H 
ATOM     15  H   LIG d   1       4.379   0.666  -6.323  0.00  0.00     0.082 H 
BRANCH  13  16
ATOM     16  N   LIG d   1       4.309   0.118  -8.350  0.00  0.00     0.239 N 
ATOM     17  C   LIG d   1       5.033   1.394  -8.501  0.00  0.00     0.003 C 
ATOM     18  C   LIG d   1       4.070   2.389  -9.182  0.00  0.00    -0.003 C 
ATOM     19  H   LIG d   1       5.324   1.772  -7.521  0.00  0.00     0.087 H 
ATOM     20  C   LIG d   1       2.672   1.794  -8.865  0.00  0.00    -0.007 C 
ATOM     21  H   LIG d   1       4.242   2.416 -10.259  0.00  0.00     0.032 H 
ATOM     22  H   LIG d   1       4.173   3.383  -8.749  0.00  0.00     0.032 H 
ATOM     23  C   LIG d   1       2.957   0.273  -8.928  0.00  0.00    -0.031 C 
ATOM     24  H   LIG d   1       1.943   2.086  -9.620  0.00  0.00     0.032 H 
ATOM     25  H   LIG d   1       2.340   2.088  -7.870  0.00  0.00     0.032 H 
ATOM     26  H   LIG d   1       2.943  -0.073  -9.962  0.00  0.00     0.081 H 
ATOM     27  H   LIG d   1       2.226  -0.275  -8.334  0.00  0.00     0.081 H 
ATOM     28  H   LIG d   1       4.804  -0.612  -8.841  0.00  0.00     0.204 HD
BRANCH  17  29
ATOM     29  C   LIG d   1       6.273   1.190  -9.373  0.00  0.00     0.090 C 
ATOM     30  H   LIG d   1       6.857   0.354  -8.986  0.00  0.00     0.062 H 
ATOM     31  H   LIG d   1       5.966   0.975 -10.397  0.00  0.00     0.062 H 
BRANCH  29  32
ATOM     32  O   LIG d   1       7.069   2.376  -9.354  0.00  0.00    -0.377 OA
BRANCH  32  33
ATOM     33  C   LIG d   1       8.473   2.132  -9.246  0.00  0.00     0.037 C 
ATOM     34  H   LIG d   1       9.002   2.711 -10.004  0.00  0.00     0.052 H 
ATOM     35  H   LIG d   1       8.819   2.430  -8.256  0.00  0.00     0.052 H 
ATOM     36  H   LIG d   1       8.670   1.071  -9.395  0.00  0.00     0.052 H 
ENDBRANCH  32  33
ENDBRANCH  29  32
ENDBRANCH  17  29
ENDBRANCH  13  16
ENDBRANCH   6  13
BRANCH   4  37
ATOM     37  C   LIG d   1       4.651  -1.411  -4.150  0.00  0.00    -0.043 C 
ATOM     38  H   LIG d   1       4.029  -0.524  -4.275  0.00  0.00     0.030 H 
BRANCH  37  39
ATOM     39  C   LIG d   1       4.057  -2.299  -3.054  0.00  0.00    -0.062 C 
ATOM     40  H   LIG d   1       3.407  -1.700  -2.415  0.00  0.00     0.023 H 
ATOM     41  H   LIG d   1       3.479  -3.101  -3.511  0.00  0.00     0.023 H 
ATOM     42  H   LIG d   1       4.862  -2.725  -2.456  0.00  0.00     0.023 H 
ENDBRANCH  37  39
BRANCH  37  43
ATOM     43  C   LIG d   1       6.067  -0.988  -3.753  0.00  0.00    -0.062 C 
ATOM     44  H   LIG d   1       6.187  -1.088  -2.674  0.00  0.00     0.023 H 
ATOM     45  H   LIG d   1       6.792  -1.627  -4.259  0.00  0.00     0.023 H 
ATOM     46  H   LIG d   1       6.231   0.049  -4.042  0.00  0.00     0.023 H 
ENDBRANCH  37  43
ENDBRANCH   4  37
BRANCH   9  47
ATOM     47  C   LIG d   1       5.979  -4.070  -9.109  0.00  0.00    -0.043 C 
ATOM     48  H   LIG d   1       6.745  -3.504  -9.639  0.00  0.00     0.027 H 
ATOM     49  H   LIG d   1       6.342  -5.081  -8.918  0.00  0.00     0.027 H 
ATOM     50  H   LIG d   1       5.076  -4.118  -9.717  0.00  0.00     0.027 H 
ENDBRANCH   9  47
BRANCH   1  51
ATOM     51  C   LIG d   1       4.158  -4.943  -6.605  0.00  0.00     0.032 C 
ATOM     52  H   LIG d   1       3.723  -4.853  -7.600  0.00  0.00     0.037 H 
ATOM     53  H   LIG d   1       3.498  -4.471  -5.877  0.00  0.00     0.037 H 
BRANCH  51  54
ATOM     54  C   LIG d   1       4.324  -6.400  -6.260  0.00  0.00     0.218 A 
ATOM     55  N   LIG d   1       4.014  -7.412  -7.022  0.00  0.00    -0.112 NA
ATOM     56  N   LIG d   1       4.289  -8.510  -6.411  0.00  0.00    -0.107 NA
ATOM     57  C   LIG d   1       4.788  -8.235  -5.228  0.00  0.00     0.248 A 
ATOM     58  O   LIG d   1       4.815  -6.892  -5.109  0.00  0.00    -0.420 OA
BRANCH  57  59
ATOM     59  C   LIG d   1       5.232  -9.214  -4.214  0.00  0.00     0.038 A 
ATOM     60  C   LIG d   1       4.305 -10.057  -3.600  0.00  0.00    -0.049 A 
ATOM     61  C   LIG d   1       4.726 -10.969  -2.655  0.00  0.00    -0.058 A 
ATOM     62  H   LIG d   1       3.259  -9.996  -3.865  0.00  0.00     0.062 H 
ATOM     63  C   LIG d   1       6.066 -11.049  -2.314  0.00  0.00    -0.050 A 
ATOM     64  H   LIG d   1       4.010 -11.623  -2.179  0.00  0.00     0.062 H 
ATOM     65  C   LIG d   1       6.989 -10.212  -2.915  0.00  0.00    -0.058 A 
ATOM     66  C   LIG d   1       6.581  -9.299  -3.866  0.00  0.00    -0.049 A 
ATOM     67  H   LIG d   1       8.032 -10.275  -2.641  0.00  0.00     0.062 H 
ATOM     68  H   LIG d   1       7.304  -8.650  -4.337  0.00  0.00     0.062 H 
BRANCH  63  69
ATOM     69  C   LIG d   1       6.519 -12.047  -1.281  0.00  0.00    -0.040 C 
ATOM     70  H   LIG d   1       5.685 -12.698  -1.015  0.00  0.00     0.028 H 
ATOM     71  H   LIG d   1       7.333 -12.647  -1.687  0.00  0.00     0.028 H 
ATOM     72  H   LIG d   1       6.866 -11.519  -0.393  0.00  0.00     0.028 H 
ENDBRANCH  63  69
ENDBRANCH  57  59
ENDBRANCH  51  54
ENDBRANCH   1  51
TORSDOF 13
ENDMDL
MODEL 4
REMARK VINA RESULT:      -5.8      5.911      9.972
REMARK  13 active torsions:
REMARK  status: ('A' for Active; 'I' for Inactive)
REMARK    1  A    between atoms: C_1  and  C_2 
REMARK    2  A    between atoms: C_5  and  C_8 
REMARK    3  A    between atoms: C_11  and  C_13 
REMARK    4  A    between atoms: C_13  and  C_14 
REMARK    5  A    between atoms: C_17  and  C_34 
REMARK    6  A    between atoms: C_19  and  C_24 
REMARK    7  A    between atoms: C_22  and  C_23 
REMARK    8  A    between atoms: C_24  and  N_25 
REMARK    9  A    between atoms: C_29  and  C_31 
REMARK   10  A    between atoms: C_31  and  O_32 
REMARK   11  A    between atoms: O_32  and  C_33 
REMARK   12  A    between atoms: C_34  and  C_35 
REMARK   13  A    between atoms: C_34  and  C_36 
ROOT
ATOM      1  C   LIG d   1       4.186  -1.400  -6.059  0.00  0.00    -0.011 C 
ATOM      2  H   LIG d   1       3.471  -2.109  -6.480  0.00  0.00     0.035 H 
ATOM      3  C   LIG d   1       4.092  -1.432  -4.532  0.00  0.00    -0.042 C 
ATOM      4  C   LIG d   1       5.271  -0.638  -3.957  0.00  0.00    -0.027 C 
ATOM      5  H   LIG d   1       5.305   0.351  -4.415  0.00  0.00     0.031 H 
ATOM      6  C   LIG d   1       6.564  -1.394  -4.271  0.00  0.00     0.021 C 
ATOM      7  H   LIG d   1       6.609  -2.299  -3.665  0.00  0.00     0.040 H 
ATOM      8  C   LIG d   1       6.606  -1.766  -5.723  0.00  0.00    -0.076 C 
ATOM      9  C   LIG d   1       5.571  -1.772  -6.498  0.00  0.00    -0.072 C 
ATOM     10  H   LIG d   1       3.154  -0.980  -4.212  0.00  0.00     0.027 H 
ATOM     11  H   LIG d   1       4.142  -2.464  -4.184  0.00  0.00     0.027 H 
ATOM     12  H   LIG d   1       7.558  -2.045  -6.148  0.00  0.00     0.058 H 
ENDROOT
BRANCH   6  13
ATOM     13  C   LIG d   1       7.764  -0.503  -3.944  0.00  0.00    -0.025 C 
ATOM     14  H   LIG d   1       7.761  -0.266  -2.879  0.00  0.00     0.082 H 
ATOM     15  H   LIG d   1       8.686  -1.027  -4.197  0.00  0.00     0.082 H 
BRANCH  13  16
ATOM     16  N   LIG d   1       7.678   0.740  -4.721  0.00  0.00     0.239 N 
ATOM     17  C   LIG d   1       8.878   0.882  -5.566  0.00  0.00     0.003 C 
ATOM     18  C   LIG d   1       9.595   2.177  -5.130  0.00  0.00    -0.003 C 
ATOM     19  H   LIG d   1       9.538   0.026  -5.419  0.00  0.00     0.087 H 
ATOM     20  C   LIG d   1       9.070   2.397  -3.686  0.00  0.00    -0.007 C 
ATOM     21  H   LIG d   1       9.311   3.010  -5.774  0.00  0.00     0.032 H 
ATOM     22  H   LIG d   1      10.675   2.039  -5.131  0.00  0.00     0.032 H 
ATOM     23  C   LIG d   1       7.609   1.898  -3.804  0.00  0.00    -0.031 C 
ATOM     24  H   LIG d   1       9.102   3.452  -3.415  0.00  0.00     0.032 H 
ATOM     25  H   LIG d   1       9.632   1.795  -2.971  0.00  0.00     0.032 H 
ATOM     26  H   LIG d   1       6.974   2.678  -4.225  0.00  0.00     0.081 H 
ATOM     27  H   LIG d   1       7.234   1.587  -2.829  0.00  0.00     0.081 H 
ATOM     28  H   LIG d   1       6.854   0.721  -5.303  0.00  0.00     0.204 HD
BRANCH  17  29
ATOM     29  C   LIG d   1       8.471   0.982  -7.037  0.00  0.00     0.090 C 
ATOM     30  H   LIG d   1       9.112   1.705  -7.543  0.00  0.00     0.062 H 
ATOM     31  H   LIG d   1       8.577   0.007  -7.511  0.00  0.00     0.062 H 
BRANCH  29  32
ATOM     32  O   LIG d   1       7.109   1.409  -7.126  0.00  0.00    -0.377 OA
BRANCH  32  33
ATOM     33  C   LIG d   1       6.647   1.598  -8.465  0.00  0.00     0.037 C 
ATOM     34  H   LIG d   1       5.881   0.857  -8.693  0.00  0.00     0.052 H 
ATOM     35  H   LIG d   1       6.225   2.598  -8.565  0.00  0.00     0.052 H 
ATOM     36  H   LIG d   1       7.480   1.485  -9.157  0.00  0.00     0.052 H 
ENDBRANCH  32  33
ENDBRANCH  29  32
ENDBRANCH  17  29
ENDBRANCH  13  16
ENDBRANCH   6  13
BRANCH   4  37
ATOM     37  C   LIG d   1       5.107  -0.497  -2.443  0.00  0.00    -0.043 C 
ATOM     38  H   LIG d   1       6.088  -0.513  -1.968  0.00  0.00     0.030 H 
BRANCH  37  39
ATOM     39  C   LIG d   1       4.408   0.827  -2.126  0.00  0.00    -0.062 C 
ATOM     40  H   LIG d   1       5.050   1.432  -1.485  0.00  0.00     0.023 H 
ATOM     41  H   LIG d   1       4.209   1.363  -3.052  0.00  0.00     0.023 H 
ATOM     42  H   LIG d   1       3.468   0.627  -1.611  0.00  0.00     0.023 H 
ENDBRANCH  37  39
BRANCH  37  43
ATOM     43  C   LIG d   1       4.265  -1.659  -1.910  0.00  0.00    -0.062 C 
ATOM     44  H   LIG d   1       4.810  -2.170  -1.118  0.00  0.00     0.023 H 
ATOM     45  H   LIG d   1       3.325  -1.273  -1.513  0.00  0.00     0.023 H 
ATOM     46  H   LIG d   1       4.058  -2.358  -2.720  0.00  0.00     0.023 H 
ENDBRANCH  37  43
ENDBRANCH   4  37
BRANCH   9  47
ATOM     47  C   LIG d   1       5.772  -2.179  -7.935  0.00  0.00    -0.043 C 
ATOM     48  H   LIG d   1       6.835  -2.156  -8.174  0.00  0.00     0.027 H 
ATOM     49  H   LIG d   1       5.388  -3.188  -8.083  0.00  0.00     0.027 H 
ATOM     50  H   LIG d   1       5.238  -1.487  -8.586  0.00  0.00     0.027 H 
ENDBRANCH   9  47
BRANCH   1  51
ATOM     51  C   LIG d   1       3.856   0.008  -6.557  0.00  0.00     0.032 C 
ATOM     52  H   LIG d   1       4.776   0.585  -6.651  0.00  0.00     0.037 H 
ATOM     53  H   LIG d   1       3.192   0.499  -5.846  0.00  0.00     0.037 H 
BRANCH  51  54
ATOM     54  C   LIG d   1       3.178  -0.080  -7.900  0.00  0.00     0.218 A 
ATOM     55  N   LIG d   1       3.031   0.896  -8.753  0.00  0.00    -0.112 NA
ATOM     56  N   LIG d   1       2.407   0.467  -9.793  0.00  0.00    -0.107 NA
ATOM     57  C   LIG d   1       2.131  -0.808  -9.637  0.00  0.00     0.248 A 
ATOM     58  O   LIG d   1       2.611  -1.175  -8.432  0.00  0.00    -0.420 OA
BRANCH  57  59
ATOM     59  C   LIG d   1       1.421  -1.674 -10.601  0.00  0.00     0.038 A 
ATOM     60  C   LIG d   1       0.915  -1.139 -11.786  0.00  0.00    -0.049 A 
ATOM     61  C   LIG d   1       0.254  -1.954 -12.681  0.00  0.00    -0.058 A 
ATOM     62  H   LIG d   1       1.041  -0.088 -12.002  0.00  0.00     0.062 H 
ATOM     63  C   LIG d   1       0.092  -3.301 -12.406  0.00  0.00    -0.050 A 
ATOM     64  H   LIG d   1      -0.138  -1.541 -13.599  0.00  0.00     0.062 H 
ATOM     65  C   LIG d   1       0.587  -3.837 -11.231  0.00  0.00    -0.058 A 
ATOM     66  C   LIG d   1       1.254  -3.033 -10.329  0.00  0.00    -0.049 A 
ATOM     67  H   LIG d   1       0.453  -4.888 -11.019  0.00  0.00     0.062 H 
ATOM     68  H   LIG d   1       1.643  -3.455  -9.414  0.00  0.00     0.062 H 
BRANCH  63  69
ATOM     69  C   LIG d   1      -0.631  -4.186 -13.388  0.00  0.00    -0.040 C 
ATOM     70  H   LIG d   1      -0.682  -5.200 -12.993  0.00  0.00     0.028 H 
ATOM     71  H   LIG d   1      -1.640  -3.805 -13.546  0.00  0.00     0.028 H 
ATOM     72  H   LIG d   1      -0.093  -4.192 -14.336  0.00  0.00     0.028 H 
ENDBRANCH  63  69
ENDBRANCH  57  59
ENDBRANCH  51  54
ENDBRANCH   1  51
TORSDOF 13
ENDMDL
MODEL 5
REMARK VINA RESULT:      -5.8      3.084      4.517
REMARK  13 active torsions:
REMARK  status: ('A' for Active; 'I' for Inactive)
REMARK    1  A    between atoms: C_1  and  C_2 
REMARK    2  A    between atoms: C_5  and  C_8 
REMARK    3  A    between atoms: C_11  and  C_13 
REMARK    4  A    between atoms: C_13  and  C_14 
REMARK    5  A    between atoms: C_17  and  C_34 
REMARK    6  A    between atoms: C_19  and  C_24 
REMARK    7  A    between atoms: C_22  and  C_23 
REMARK    8  A    between atoms: C_24  and  N_25 
REMARK    9  A    between atoms: C_29  and  C_31 
REMARK   10  A    between atoms: C_31  and  O_32 
REMARK   11  A    between atoms: O_32  and  C_33 
REMARK   12  A    between atoms: C_34  and  C_35 
REMARK   13  A    between atoms: C_34  and  C_36 
ROOT
ATOM      1  C   LIG d   1      10.808   4.078  -2.768  0.00  0.00    -0.011 C 
ATOM      2  H   LIG d   1      10.550   3.078  -2.417  0.00  0.00     0.035 H 
ATOM      3  C   LIG d   1      10.598   5.083  -1.633  0.00  0.00    -0.042 C 
ATOM      4  C   LIG d   1      11.208   6.425  -2.054  0.00  0.00    -0.027 C 
ATOM      5  H   LIG d   1      10.820   6.714  -3.031  0.00  0.00     0.031 H 
ATOM      6  C   LIG d   1      12.728   6.261  -2.136  0.00  0.00     0.021 C 
ATOM      7  H   LIG d   1      13.134   6.156  -1.130  0.00  0.00     0.040 H 
ATOM      8  C   LIG d   1      13.075   5.044  -2.941  0.00  0.00    -0.076 C 
ATOM      9  C   LIG d   1      12.241   4.095  -3.212  0.00  0.00    -0.072 C 
ATOM     10  H   LIG d   1       9.532   5.208  -1.446  0.00  0.00     0.027 H 
ATOM     11  H   LIG d   1      11.091   4.724  -0.730  0.00  0.00     0.027 H 
ATOM     12  H   LIG d   1      14.082   4.956  -3.319  0.00  0.00     0.058 H 
ENDROOT
BRANCH   6  13
ATOM     13  C   LIG d   1      13.336   7.497  -2.802  0.00  0.00    -0.025 C 
ATOM     14  H   LIG d   1      13.602   7.260  -3.833  0.00  0.00     0.082 H 
ATOM     15  H   LIG d   1      12.611   8.310  -2.791  0.00  0.00     0.082 H 
BRANCH  13  16
ATOM     16  N   LIG d   1      14.541   7.906  -2.068  0.00  0.00     0.239 N 
ATOM     17  C   LIG d   1      14.464   7.422  -0.678  0.00  0.00     0.003 C 
ATOM     18  C   LIG d   1      14.488   8.662   0.241  0.00  0.00    -0.003 C 
ATOM     19  H   LIG d   1      13.537   6.868  -0.529  0.00  0.00     0.087 H 
ATOM     20  C   LIG d   1      14.005   9.800  -0.697  0.00  0.00    -0.007 C 
ATOM     21  H   LIG d   1      15.500   8.859   0.596  0.00  0.00     0.032 H 
ATOM     22  H   LIG d   1      13.802   8.535   1.078  0.00  0.00     0.032 H 
ATOM     23  C   LIG d   1      14.636   9.381  -2.048  0.00  0.00    -0.031 C 
ATOM     24  H   LIG d   1      14.389  10.766  -0.370  0.00  0.00     0.032 H 
ATOM     25  H   LIG d   1      12.917   9.816  -0.762  0.00  0.00     0.032 H 
ATOM     26  H   LIG d   1      15.679   9.696  -2.094  0.00  0.00     0.081 H 
ATOM     27  H   LIG d   1      14.073   9.808  -2.879  0.00  0.00     0.081 H 
ATOM     28  H   LIG d   1      15.359   7.521  -2.516  0.00  0.00     0.204 HD
BRANCH  17  29
ATOM     29  C   LIG d   1      15.665   6.524  -0.372  0.00  0.00     0.090 C 
ATOM     30  H   LIG d   1      16.351   7.049   0.294  0.00  0.00     0.062 H 
ATOM     31  H   LIG d   1      15.321   5.609   0.109  0.00  0.00     0.062 H 
BRANCH  29  32
ATOM     32  O   LIG d   1      16.339   6.198  -1.589  0.00  0.00    -0.377 OA
BRANCH  32  33
ATOM     33  C   LIG d   1      16.607   4.804  -1.750  0.00  0.00     0.037 C 
ATOM     34  H   LIG d   1      16.314   4.271  -0.845  0.00  0.00     0.052 H 
ATOM     35  H   LIG d   1      16.041   4.420  -2.598  0.00  0.00     0.052 H 
ATOM     36  H   LIG d   1      17.672   4.657  -1.928  0.00  0.00     0.052 H 
ENDBRANCH  32  33
ENDBRANCH  29  32
ENDBRANCH  17  29
ENDBRANCH  13  16
ENDBRANCH   6  13
BRANCH   4  37
ATOM     37  C   LIG d   1      10.857   7.497  -1.022  0.00  0.00    -0.043 C 
ATOM     38  H   LIG d   1      11.545   8.337  -1.121  0.00  0.00     0.030 H 
BRANCH  37  39
ATOM     39  C   LIG d   1       9.425   7.982  -1.257  0.00  0.00    -0.062 C 
ATOM     40  H   LIG d   1       9.436   9.046  -1.495  0.00  0.00     0.023 H 
ATOM     41  H   LIG d   1       8.986   7.428  -2.086  0.00  0.00     0.023 H 
ATOM     42  H   LIG d   1       8.833   7.818  -0.356  0.00  0.00     0.023 H 
ENDBRANCH  37  39
BRANCH  37  43
ATOM     43  C   LIG d   1      10.972   6.908   0.386  0.00  0.00    -0.062 C 
ATOM     44  H   LIG d   1      11.418   5.916   0.329  0.00  0.00     0.023 H 
ATOM     45  H   LIG d   1      11.600   7.554   1.000  0.00  0.00     0.023 H 
ATOM     46  H   LIG d   1       9.980   6.836   0.830  0.00  0.00     0.023 H 
ENDBRANCH  37  43
ENDBRANCH   4  37
BRANCH   9  47
ATOM     47  C   LIG d   1      12.742   2.930  -4.026  0.00  0.00    -0.043 C 
ATOM     48  H   LIG d   1      12.200   2.887  -4.970  0.00  0.00     0.027 H 
ATOM     49  H   LIG d   1      13.807   3.057  -4.224  0.00  0.00     0.027 H 
ATOM     50  H   LIG d   1      12.583   2.005  -3.473  0.00  0.00     0.027 H 
ENDBRANCH   9  47
BRANCH   1  51
ATOM     51  C   LIG d   1       9.907   4.449  -3.946  0.00  0.00     0.032 C 
ATOM     52  H   LIG d   1      10.522   4.678  -4.816  0.00  0.00     0.037 H 
ATOM     53  H   LIG d   1       9.308   5.322  -3.686  0.00  0.00     0.037 H 
BRANCH  51  54
ATOM     54  C   LIG d   1       8.995   3.292  -4.266  0.00  0.00     0.218 A 
ATOM     55  N   LIG d   1       8.807   2.763  -5.443  0.00  0.00    -0.112 NA
ATOM     56  N   LIG d   1       7.965   1.795  -5.350  0.00  0.00    -0.107 NA
ATOM     57  C   LIG d   1       7.582   1.673  -4.099  0.00  0.00     0.248 A 
ATOM     58  O   LIG d   1       8.225   2.624  -3.391  0.00  0.00    -0.420 OA
BRANCH  57  59
ATOM     59  C   LIG d   1       6.622   0.683  -3.569  0.00  0.00     0.038 A 
ATOM     60  C   LIG d   1       6.807  -0.677  -3.820  0.00  0.00    -0.049 A 
ATOM     61  C   LIG d   1       5.907  -1.596  -3.322  0.00  0.00    -0.058 A 
ATOM     62  H   LIG d   1       7.653  -1.010  -4.403  0.00  0.00     0.062 H 
ATOM     63  C   LIG d   1       4.822  -1.172  -2.574  0.00  0.00    -0.050 A 
ATOM     64  H   LIG d   1       6.048  -2.649  -3.515  0.00  0.00     0.062 H 
ATOM     65  C   LIG d   1       4.630   0.176  -2.326  0.00  0.00    -0.058 A 
ATOM     66  C   LIG d   1       5.526   1.105  -2.815  0.00  0.00    -0.049 A 
ATOM     67  H   LIG d   1       3.779   0.502  -1.746  0.00  0.00     0.062 H 
ATOM     68  H   LIG d   1       5.377   2.156  -2.616  0.00  0.00     0.062 H 
BRANCH  63  69
ATOM     69  C   LIG d   1       3.843  -2.181  -2.033  0.00  0.00    -0.040 C 
ATOM     70  H   LIG d   1       3.989  -2.288  -0.958  0.00  0.00     0.028 H 
ATOM     71  H   LIG d   1       2.826  -1.842  -2.230  0.00  0.00     0.028 H 
ATOM     72  H   LIG d   1       4.005  -3.142  -2.519  0.00  0.00     0.028 H 
ENDBRANCH  63  69
ENDBRANCH  57  59
ENDBRANCH  51  54
ENDBRANCH   1  51
TORSDOF 13
ENDMDL
MODEL 6
REMARK VINA RESULT:      -5.6      6.006     10.095
REMARK  13 active torsions:
REMARK  status: ('A' for Active; 'I' for Inactive)
REMARK    1  A    between atoms: C_1  and  C_2 
REMARK    2  A    between atoms: C_5  and  C_8 
REMARK    3  A    between atoms: C_11  and  C_13 
REMARK    4  A    between atoms: C_13  and  C_14 
REMARK    5  A    between atoms: C_17  and  C_34 
REMARK    6  A    between atoms: C_19  and  C_24 
REMARK    7  A    between atoms: C_22  and  C_23 
REMARK    8  A    between atoms: C_24  and  N_25 
REMARK    9  A    between atoms: C_29  and  C_31 
REMARK   10  A    between atoms: C_31  and  O_32 
REMARK   11  A    between atoms: O_32  and  C_33 
REMARK   12  A    between atoms: C_34  and  C_35 
REMARK   13  A    between atoms: C_34  and  C_36 
ROOT
ATOM      1  C   LIG d   1       4.306  -1.443  -6.133  0.00  0.00    -0.011 C 
ATOM      2  H   LIG d   1       3.609  -2.172  -6.548  0.00  0.00     0.035 H 
ATOM      3  C   LIG d   1       4.054  -1.298  -4.630  0.00  0.00    -0.042 C 
ATOM      4  C   LIG d   1       5.200  -0.481  -4.022  0.00  0.00    -0.027 C 
ATOM      5  H   LIG d   1       5.325   0.447  -4.580  0.00  0.00     0.031 H 
ATOM      6  C   LIG d   1       6.485  -1.308  -4.111  0.00  0.00     0.021 C 
ATOM      7  H   LIG d   1       6.428  -2.140  -3.408  0.00  0.00     0.040 H 
ATOM      8  C   LIG d   1       6.660  -1.844  -5.501  0.00  0.00    -0.076 C 
ATOM      9  C   LIG d   1       5.712  -1.906  -6.377  0.00  0.00    -0.072 C 
ATOM     10  H   LIG d   1       3.109  -0.783  -4.464  0.00  0.00     0.027 H 
ATOM     11  H   LIG d   1       4.023  -2.285  -4.168  0.00  0.00     0.027 H 
ATOM     12  H   LIG d   1       7.639  -2.200  -5.788  0.00  0.00     0.058 H 
ENDROOT
BRANCH   6  13
ATOM     13  C   LIG d   1       7.683  -0.425  -3.757  0.00  0.00    -0.025 C 
ATOM     14  H   LIG d   1       7.610  -0.116  -2.713  0.00  0.00     0.082 H 
ATOM     15  H   LIG d   1       8.605  -0.985  -3.907  0.00  0.00     0.082 H 
BRANCH  13  16
ATOM     16  N   LIG d   1       7.686   0.764  -4.619  0.00  0.00     0.239 N 
ATOM     17  C   LIG d   1       8.906   0.775  -5.446  0.00  0.00     0.003 C 
ATOM     18  C   LIG d   1       9.694   2.052  -5.084  0.00  0.00    -0.003 C 
ATOM     19  H   LIG d   1       9.509  -0.107  -5.227  0.00  0.00     0.087 H 
ATOM     20  C   LIG d   1       9.160   2.402  -3.669  0.00  0.00    -0.007 C 
ATOM     21  H   LIG d   1       9.473   2.854  -5.789  0.00  0.00     0.032 H 
ATOM     22  H   LIG d   1      10.764   1.849  -5.053  0.00  0.00     0.032 H 
ATOM     23  C   LIG d   1       7.673   1.985  -3.784  0.00  0.00    -0.031 C 
ATOM     24  H   LIG d   1       9.252   3.469  -3.471  0.00  0.00     0.032 H 
ATOM     25  H   LIG d   1       9.672   1.818  -2.904  0.00  0.00     0.032 H 
ATOM     26  H   LIG d   1       7.095   2.771  -4.270  0.00  0.00     0.081 H 
ATOM     27  H   LIG d   1       7.263   1.765  -2.798  0.00  0.00     0.081 H 
ATOM     28  H   LIG d   1       6.873   0.755  -5.215  0.00  0.00     0.204 HD
BRANCH  17  29
ATOM     29  C   LIG d   1       8.530   0.798  -6.928  0.00  0.00     0.090 C 
ATOM     30  H   LIG d   1       9.270   1.378  -7.482  0.00  0.00     0.062 H 
ATOM     31  H   LIG d   1       8.506  -0.221  -7.313  0.00  0.00     0.062 H 
BRANCH  29  32
ATOM     32  O   LIG d   1       7.242   1.396  -7.084  0.00  0.00    -0.377 OA
BRANCH  32  33
ATOM     33  C   LIG d   1       6.884   1.661  -8.442  0.00  0.00     0.037 C 
ATOM     34  H   LIG d   1       6.045   1.026  -8.727  0.00  0.00     0.052 H 
ATOM     35  H   LIG d   1       6.599   2.708  -8.545  0.00  0.00     0.052 H 
ATOM     36  H   LIG d   1       7.734   1.451  -9.090  0.00  0.00     0.052 H 
ENDBRANCH  32  33
ENDBRANCH  29  32
ENDBRANCH  17  29
ENDBRANCH  13  16
ENDBRANCH   6  13
BRANCH   4  37
ATOM     37  C   LIG d   1       4.888  -0.165  -2.559  0.00  0.00    -0.043 C 
ATOM     38  H   LIG d   1       5.808   0.104  -2.041  0.00  0.00     0.030 H 
BRANCH  37  39
ATOM     39  C   LIG d   1       3.903   1.005  -2.489  0.00  0.00    -0.062 C 
ATOM     40  H   LIG d   1       4.350   1.822  -1.922  0.00  0.00     0.023 H 
ATOM     41  H   LIG d   1       3.672   1.346  -3.498  0.00  0.00     0.023 H 
ATOM     42  H   LIG d   1       2.987   0.679  -1.996  0.00  0.00     0.023 H 
ENDBRANCH  37  39
BRANCH  37  43
ATOM     43  C   LIG d   1       4.267  -1.394  -1.892  0.00  0.00    -0.062 C 
ATOM     44  H   LIG d   1       4.919  -1.742  -1.091  0.00  0.00     0.023 H 
ATOM     45  H   LIG d   1       3.293  -1.130  -1.478  0.00  0.00     0.023 H 
ATOM     46  H   LIG d   1       4.145  -2.185  -2.631  0.00  0.00     0.023 H 
ENDBRANCH  37  43
ENDBRANCH   4  37
BRANCH   9  47
ATOM     47  C   LIG d   1       6.042  -2.479  -7.731  0.00  0.00    -0.043 C 
ATOM     48  H   LIG d   1       7.124  -2.518  -7.855  0.00  0.00     0.027 H 
ATOM     49  H   LIG d   1       5.631  -3.486  -7.808  0.00  0.00     0.027 H 
ATOM     50  H   LIG d   1       5.608  -1.849  -8.507  0.00  0.00     0.027 H 
ENDBRANCH   9  47
BRANCH   1  51
ATOM     51  C   LIG d   1       4.091  -0.091  -6.814  0.00  0.00     0.032 C 
ATOM     52  H   LIG d   1       5.055   0.389  -6.983  0.00  0.00     0.037 H 
ATOM     53  H   LIG d   1       3.476   0.545  -6.176  0.00  0.00     0.037 H 
BRANCH  51  54
ATOM     54  C   LIG d   1       3.396  -0.298  -8.135  0.00  0.00     0.218 A 
ATOM     55  N   LIG d   1       2.106  -0.337  -8.328  0.00  0.00    -0.112 NA
ATOM     56  N   LIG d   1       1.864  -0.530  -9.577  0.00  0.00    -0.107 NA
ATOM     57  C   LIG d   1       3.001  -0.623 -10.229  0.00  0.00     0.248 A 
ATOM     58  O   LIG d   1       3.992  -0.483  -9.325  0.00  0.00    -0.420 OA
BRANCH  57  59
ATOM     59  C   LIG d   1       3.162  -0.846 -11.680  0.00  0.00     0.038 A 
ATOM     60  C   LIG d   1       2.239  -1.627 -12.377  0.00  0.00    -0.049 A 
ATOM     61  C   LIG d   1       2.395  -1.831 -13.732  0.00  0.00    -0.058 A 
ATOM     62  H   LIG d   1       1.402  -2.070 -11.857  0.00  0.00     0.062 H 
ATOM     63  C   LIG d   1       3.466  -1.264 -14.402  0.00  0.00    -0.050 A 
ATOM     64  H   LIG d   1       1.681  -2.434 -14.274  0.00  0.00     0.062 H 
ATOM     65  C   LIG d   1       4.388  -0.494 -13.716  0.00  0.00    -0.058 A 
ATOM     66  C   LIG d   1       4.240  -0.278 -12.361  0.00  0.00    -0.049 A 
ATOM     67  H   LIG d   1       5.225  -0.058 -14.242  0.00  0.00     0.062 H 
ATOM     68  H   LIG d   1       4.959   0.327 -11.828  0.00  0.00     0.062 H 
BRANCH  63  69
ATOM     69  C   LIG d   1       3.631  -1.490 -15.882  0.00  0.00    -0.040 C 
ATOM     70  H   LIG d   1       3.017  -2.337 -16.190  0.00  0.00     0.028 H 
ATOM     71  H   LIG d   1       3.318  -0.598 -16.423  0.00  0.00     0.028 H 
ATOM     72  H   LIG d   1       4.678  -1.701 -16.103  0.00  0.00     0.028 H 
ENDBRANCH  63  69
ENDBRANCH  57  59
ENDBRANCH  51  54
ENDBRANCH   1  51
TORSDOF 13
ENDMDL
MODEL 7
REMARK VINA RESULT:      -5.6      1.170      2.561
REMARK  13 active torsions:
REMARK  status: ('A' for Active; 'I' for Inactive)
REMARK    1  A    between atoms: C_1  and  C_2 
REMARK    2  A    between atoms: C_5  and  C_8 
REMARK    3  A    between atoms: C_11  and  C_13 
REMARK    4  A    between atoms: C_13  and  C_14 
REMARK    5  A    between atoms: C_17  and  C_34 
REMARK    6  A    between atoms: C_19  and  C_24 
REMARK    7  A    between atoms: C_22  and  C_23 
REMARK    8  A    between atoms: C_24  and  N_25 
REMARK    9  A    between atoms: C_29  and  C_31 
REMARK   10  A    between atoms: C_31  and  O_32 
REMARK   11  A    between atoms: O_32  and  C_33 
REMARK   12  A    between atoms: C_34  and  C_35 
REMARK   13  A    between atoms: C_34  and  C_36 
ROOT
ATOM      1  C   LIG d   1      10.686   5.013  -4.823  0.00  0.00    -0.011 C 
ATOM      2  H   LIG d   1      11.243   4.089  -4.663  0.00  0.00     0.035 H 
ATOM      3  C   LIG d   1      10.779   5.886  -3.569  0.00  0.00    -0.042 C 
ATOM      4  C   LIG d   1      10.223   7.275  -3.902  0.00  0.00    -0.027 C 
ATOM      5  H   LIG d   1       9.233   7.177  -4.346  0.00  0.00     0.031 H 
ATOM      6  C   LIG d   1      11.169   7.949  -4.899  0.00  0.00     0.021 C 
ATOM      7  H   LIG d   1      12.098   8.213  -4.394  0.00  0.00     0.040 H 
ATOM      8  C   LIG d   1      11.469   7.017  -6.036  0.00  0.00    -0.076 C 
ATOM      9  C   LIG d   1      11.263   5.742  -6.001  0.00  0.00    -0.072 C 
ATOM     10  H   LIG d   1      10.192   5.439  -2.767  0.00  0.00     0.027 H 
ATOM     11  H   LIG d   1      11.821   5.973  -3.260  0.00  0.00     0.027 H 
ATOM     12  H   LIG d   1      11.883   7.439  -6.941  0.00  0.00     0.058 H 
ENDROOT
BRANCH   6  13
ATOM     13  C   LIG d   1      10.509   9.216  -5.446  0.00  0.00    -0.025 C 
ATOM     14  H   LIG d   1      10.404   9.133  -6.528  0.00  0.00     0.082 H 
ATOM     15  H   LIG d   1       9.526   9.339  -4.993  0.00  0.00     0.082 H 
BRANCH  13  16
ATOM     16  N   LIG d   1      11.345  10.380  -5.125  0.00  0.00     0.239 N 
ATOM     17  C   LIG d   1      10.489  11.554  -4.878  0.00  0.00     0.003 C 
ATOM     18  C   LIG d   1      10.856  12.620  -5.932  0.00  0.00    -0.003 C 
ATOM     19  H   LIG d   1       9.439  11.276  -4.982  0.00  0.00     0.087 H 
ATOM     20  C   LIG d   1      11.500  11.780  -7.067  0.00  0.00    -0.007 C 
ATOM     21  H   LIG d   1      11.574  13.333  -5.525  0.00  0.00     0.032 H 
ATOM     22  H   LIG d   1       9.964  13.132  -6.289  0.00  0.00     0.032 H 
ATOM     23  C   LIG d   1      12.239  10.682  -6.264  0.00  0.00    -0.031 C 
ATOM     24  H   LIG d   1      12.201  12.379  -7.647  0.00  0.00     0.032 H 
ATOM     25  H   LIG d   1      10.735  11.345  -7.711  0.00  0.00     0.032 H 
ATOM     26  H   LIG d   1      13.199  11.055  -5.906  0.00  0.00     0.081 H 
ATOM     27  H   LIG d   1      12.382   9.793  -6.879  0.00  0.00     0.081 H 
ATOM     28  H   LIG d   1      11.899  10.186  -4.304  0.00  0.00     0.204 HD
BRANCH  17  29
ATOM     29  C   LIG d   1      10.747  12.101  -3.473  0.00  0.00     0.090 C 
ATOM     30  H   LIG d   1      11.686  11.698  -3.092  0.00  0.00     0.062 H 
ATOM     31  H   LIG d   1      10.807  13.189  -3.511  0.00  0.00     0.062 H 
BRANCH  29  32
ATOM     32  O   LIG d   1       9.677  11.714  -2.607  0.00  0.00    -0.377 OA
BRANCH  32  33
ATOM     33  C   LIG d   1       8.398  11.682  -3.243  0.00  0.00     0.037 C 
ATOM     34  H   LIG d   1       8.348  12.467  -3.998  0.00  0.00     0.052 H 
ATOM     35  H   LIG d   1       8.252  10.712  -3.717  0.00  0.00     0.052 H 
ATOM     36  H   LIG d   1       7.618  11.844  -2.499  0.00  0.00     0.052 H 
ENDBRANCH  32  33
ENDBRANCH  29  32
ENDBRANCH  17  29
ENDBRANCH  13  16
ENDBRANCH   6  13
BRANCH   4  37
ATOM     37  C   LIG d   1      10.133   8.113  -2.626  0.00  0.00    -0.043 C 
ATOM     38  H   LIG d   1       9.636   9.058  -2.845  0.00  0.00     0.030 H 
BRANCH  37  39
ATOM     39  C   LIG d   1       9.334   7.349  -1.568  0.00  0.00    -0.062 C 
ATOM     40  H   LIG d   1       9.086   8.020  -0.745  0.00  0.00     0.023 H 
ATOM     41  H   LIG d   1       8.417   6.966  -2.014  0.00  0.00     0.023 H 
ATOM     42  H   LIG d   1       9.930   6.518  -1.192  0.00  0.00     0.023 H 
ENDBRANCH  37  39
BRANCH  37  43
ATOM     43  C   LIG d   1      11.543   8.391  -2.097  0.00  0.00    -0.062 C 
ATOM     44  H   LIG d   1      11.599   8.107  -1.046  0.00  0.00     0.023 H 
ATOM     45  H   LIG d   1      12.266   7.809  -2.669  0.00  0.00     0.023 H 
ATOM     46  H   LIG d   1      11.766   9.452  -2.200  0.00  0.00     0.023 H 
ENDBRANCH  37  43
ENDBRANCH   4  37
BRANCH   9  47
ATOM     47  C   LIG d   1      11.625   4.938  -7.222  0.00  0.00    -0.043 C 
ATOM     48  H   LIG d   1      11.523   3.875  -7.000  0.00  0.00     0.027 H 
ATOM     49  H   LIG d   1      10.958   5.203  -8.043  0.00  0.00     0.027 H 
ATOM     50  H   LIG d   1      12.655   5.153  -7.506  0.00  0.00     0.027 H 
ENDBRANCH   9  47
BRANCH   1  51
ATOM     51  C   LIG d   1       9.220   4.680  -5.101  0.00  0.00     0.032 C 
ATOM     52  H   LIG d   1       9.037   4.711  -6.174  0.00  0.00     0.037 H 
ATOM     53  H   LIG d   1       8.580   5.409  -4.602  0.00  0.00     0.037 H 
BRANCH  51  54
ATOM     54  C   LIG d   1       8.910   3.301  -4.578  0.00  0.00     0.218 A 
ATOM     55  N   LIG d   1       9.780   2.371  -4.296  0.00  0.00    -0.112 NA
ATOM     56  N   LIG d   1       9.166   1.323  -3.873  0.00  0.00    -0.107 NA
ATOM     57  C   LIG d   1       7.873   1.549  -3.871  0.00  0.00     0.248 A 
ATOM     58  O   LIG d   1       7.687   2.806  -4.322  0.00  0.00    -0.420 OA
BRANCH  57  59
ATOM     59  C   LIG d   1       6.818   0.601  -3.457  0.00  0.00     0.038 A 
ATOM     60  C   LIG d   1       6.988  -0.770  -3.659  0.00  0.00    -0.049 A 
ATOM     61  C   LIG d   1       5.999  -1.649  -3.270  0.00  0.00    -0.058 A 
ATOM     62  H   LIG d   1       7.891  -1.141  -4.120  0.00  0.00     0.062 H 
ATOM     63  C   LIG d   1       4.840  -1.176  -2.679  0.00  0.00    -0.050 A 
ATOM     64  H   LIG d   1       6.129  -2.711  -3.426  0.00  0.00     0.062 H 
ATOM     65  C   LIG d   1       4.663   0.181  -2.480  0.00  0.00    -0.058 A 
ATOM     66  C   LIG d   1       5.647   1.072  -2.861  0.00  0.00    -0.049 A 
ATOM     67  H   LIG d   1       3.755   0.546  -2.023  0.00  0.00     0.062 H 
ATOM     68  H   LIG d   1       5.509   2.131  -2.700  0.00  0.00     0.062 H 
BRANCH  63  69
ATOM     69  C   LIG d   1       3.765  -2.142  -2.256  0.00  0.00    -0.040 C 
ATOM     70  H   LIG d   1       4.187  -2.879  -1.572  0.00  0.00     0.028 H 
ATOM     71  H   LIG d   1       2.964  -1.598  -1.756  0.00  0.00     0.028 H 
ATOM     72  H   LIG d   1       3.365  -2.649  -3.135  0.00  0.00     0.028 H 
ENDBRANCH  63  69
ENDBRANCH  57  59
ENDBRANCH  51  54
ENDBRANCH   1  51
TORSDOF 13
ENDMDL
MODEL 8
REMARK VINA RESULT:      -5.6      1.357      2.270
REMARK  13 active torsions:
REMARK  status: ('A' for Active; 'I' for Inactive)
REMARK    1  A    between atoms: C_1  and  C_2 
REMARK    2  A    between atoms: C_5  and  C_8 
REMARK    3  A    between atoms: C_11  and  C_13 
REMARK    4  A    between atoms: C_13  and  C_14 
REMARK    5  A    between atoms: C_17  and  C_34 
REMARK    6  A    between atoms: C_19  and  C_24 
REMARK    7  A    between atoms: C_22  and  C_23 
REMARK    8  A    between atoms: C_24  and  N_25 
REMARK    9  A    between atoms: C_29  and  C_31 
REMARK   10  A    between atoms: C_31  and  O_32 
REMARK   11  A    between atoms: O_32  and  C_33 
REMARK   12  A    between atoms: C_34  and  C_35 
REMARK   13  A    between atoms: C_34  and  C_36 
ROOT
ATOM      1  C   LIG d   1       9.479   5.609  -3.514  0.00  0.00    -0.011 C 
ATOM      2  H   LIG d   1       8.539   5.416  -2.995  0.00  0.00     0.035 H 
ATOM      3  C   LIG d   1       9.190   6.314  -4.841  0.00  0.00    -0.042 C 
ATOM      4  C   LIG d   1      10.518   6.810  -5.426  0.00  0.00    -0.027 C 
ATOM      5  H   LIG d   1      11.232   5.987  -5.464  0.00  0.00     0.031 H 
ATOM      6  C   LIG d   1      11.062   7.918  -4.522  0.00  0.00     0.021 C 
ATOM      7  H   LIG d   1      10.442   8.809  -4.630  0.00  0.00     0.040 H 
ATOM      8  C   LIG d   1      11.044   7.472  -3.089  0.00  0.00    -0.076 C 
ATOM      9  C   LIG d   1      10.353   6.471  -2.652  0.00  0.00    -0.072 C 
ATOM     10  H   LIG d   1       8.723   5.615  -5.534  0.00  0.00     0.027 H 
ATOM     11  H   LIG d   1       8.527   7.162  -4.669  0.00  0.00     0.027 H 
ATOM     12  H   LIG d   1      11.646   8.021  -2.380  0.00  0.00     0.058 H 
ENDROOT
BRANCH   6  13
ATOM     13  C   LIG d   1      12.499   8.247  -4.930  0.00  0.00    -0.025 C 
ATOM     14  H   LIG d   1      13.145   8.202  -4.053  0.00  0.00     0.082 H 
ATOM     15  H   LIG d   1      12.841   7.524  -5.671  0.00  0.00     0.082 H 
BRANCH  13  16
ATOM     16  N   LIG d   1      12.548   9.597  -5.504  0.00  0.00     0.239 N 
ATOM     17  C   LIG d   1      13.925  10.120  -5.428  0.00  0.00     0.003 C 
ATOM     18  C   LIG d   1      13.886  11.389  -4.551  0.00  0.00    -0.003 C 
ATOM     19  H   LIG d   1      14.579   9.375  -4.973  0.00  0.00     0.087 H 
ATOM     20  C   LIG d   1      12.592  11.196  -3.715  0.00  0.00    -0.007 C 
ATOM     21  H   LIG d   1      13.814  12.283  -5.170  0.00  0.00     0.032 H 
ATOM     22  H   LIG d   1      14.760  11.437  -3.903  0.00  0.00     0.032 H 
ATOM     23  C   LIG d   1      11.661  10.498  -4.737  0.00  0.00    -0.031 C 
ATOM     24  H   LIG d   1      12.181  12.156  -3.405  0.00  0.00     0.032 H 
ATOM     25  H   LIG d   1      12.777  10.555  -2.854  0.00  0.00     0.032 H 
ATOM     26  H   LIG d   1      11.203  11.234  -5.398  0.00  0.00     0.081 H 
ATOM     27  H   LIG d   1      10.893   9.922  -4.220  0.00  0.00     0.081 H 
ATOM     28  H   LIG d   1      12.249   9.569  -6.467  0.00  0.00     0.204 HD
BRANCH  17  29
ATOM     29  C   LIG d   1      14.427  10.471  -6.829  0.00  0.00     0.090 C 
ATOM     30  H   LIG d   1      15.466  10.155  -6.933  0.00  0.00     0.062 H 
ATOM     31  H   LIG d   1      13.816   9.960  -7.573  0.00  0.00     0.062 H 
BRANCH  29  32
ATOM     32  O   LIG d   1      14.338  11.884  -7.027  0.00  0.00    -0.377 OA
BRANCH  32  33
ATOM     33  C   LIG d   1      13.836  12.259  -8.312  0.00  0.00     0.037 C 
ATOM     34  H   LIG d   1      12.746  12.264  -8.289  0.00  0.00     0.052 H 
ATOM     35  H   LIG d   1      14.199  13.255  -8.566  0.00  0.00     0.052 H 
ATOM     36  H   LIG d   1      14.180  11.546  -9.060  0.00  0.00     0.052 H 
ENDBRANCH  32  33
ENDBRANCH  29  32
ENDBRANCH  17  29
ENDBRANCH  13  16
ENDBRANCH   6  13
BRANCH   4  37
ATOM     37  C   LIG d   1      10.288   7.357  -6.835  0.00  0.00    -0.043 C 
ATOM     38  H   LIG d   1      11.218   7.775  -7.220  0.00  0.00     0.030 H 
BRANCH  37  39
ATOM     39  C   LIG d   1       9.820   6.224  -7.753  0.00  0.00    -0.062 C 
ATOM     40  H   LIG d   1      10.386   6.255  -8.684  0.00  0.00     0.023 H 
ATOM     41  H   LIG d   1       9.982   5.267  -7.259  0.00  0.00     0.023 H 
ATOM     42  H   LIG d   1       8.758   6.347  -7.969  0.00  0.00     0.023 H 
ENDBRANCH  37  39
BRANCH  37  43
ATOM     43  C   LIG d   1       9.218   8.451  -6.790  0.00  0.00    -0.062 C 
ATOM     44  H   LIG d   1       8.275   8.052  -7.161  0.00  0.00     0.023 H 
ATOM     45  H   LIG d   1       9.089   8.790  -5.761  0.00  0.00     0.023 H 
ATOM     46  H   LIG d   1       9.529   9.288  -7.413  0.00  0.00     0.023 H 
ENDBRANCH  37  43
ENDBRANCH   4  37
BRANCH   9  47
ATOM     47  C   LIG d   1      10.432   6.152  -1.182  0.00  0.00    -0.043 C 
ATOM     48  H   LIG d   1       9.671   6.717  -0.646  0.00  0.00     0.027 H 
ATOM     49  H   LIG d   1      10.265   5.085  -1.033  0.00  0.00     0.027 H 
ATOM     50  H   LIG d   1      11.419   6.420  -0.805  0.00  0.00     0.027 H 
ENDBRANCH   9  47
BRANCH   1  51
ATOM     51  C   LIG d   1      10.188   4.282  -3.789  0.00  0.00     0.032 C 
ATOM     52  H   LIG d   1      10.730   3.968  -2.897  0.00  0.00     0.037 H 
ATOM     53  H   LIG d   1      10.889   4.408  -4.614  0.00  0.00     0.037 H 
BRANCH  51  54
ATOM     54  C   LIG d   1       9.169   3.233  -4.153  0.00  0.00     0.218 A 
ATOM     55  N   LIG d   1       8.840   2.866  -5.361  0.00  0.00    -0.112 NA
ATOM     56  N   LIG d   1       7.940   1.949  -5.301  0.00  0.00    -0.107 NA
ATOM     57  C   LIG d   1       7.660   1.698  -4.042  0.00  0.00     0.248 A 
ATOM     58  O   LIG d   1       8.431   2.512  -3.292  0.00  0.00    -0.420 OA
BRANCH  57  59
ATOM     59  C   LIG d   1       6.679   0.713  -3.542  0.00  0.00     0.038 A 
ATOM     60  C   LIG d   1       6.859  -0.647  -3.796  0.00  0.00    -0.049 A 
ATOM     61  C   LIG d   1       5.940  -1.562  -3.326  0.00  0.00    -0.058 A 
ATOM     62  H   LIG d   1       7.717  -0.984  -4.360  0.00  0.00     0.062 H 
ATOM     63  C   LIG d   1       4.839  -1.133  -2.604  0.00  0.00    -0.050 A 
ATOM     64  H   LIG d   1       6.078  -2.615  -3.522  0.00  0.00     0.062 H 
ATOM     65  C   LIG d   1       4.652   0.214  -2.353  0.00  0.00    -0.058 A 
ATOM     66  C   LIG d   1       5.568   1.139  -2.814  0.00  0.00    -0.049 A 
ATOM     67  H   LIG d   1       3.789   0.544  -1.793  0.00  0.00     0.062 H 
ATOM     68  H   LIG d   1       5.422   2.190  -2.613  0.00  0.00     0.062 H 
BRANCH  63  69
ATOM     69  C   LIG d   1       3.839  -2.137  -2.093  0.00  0.00    -0.040 C 
ATOM     70  H   LIG d   1       4.364  -3.025  -1.739  0.00  0.00     0.028 H 
ATOM     71  H   LIG d   1       3.271  -1.699  -1.273  0.00  0.00     0.028 H 
ATOM     72  H   LIG d   1       3.159  -2.414  -2.898  0.00  0.00     0.028 H 
ENDBRANCH  63  69
ENDBRANCH  57  59
ENDBRANCH  51  54
ENDBRANCH   1  51
TORSDOF 13
ENDMDL
MODEL 9
REMARK VINA RESULT:      -5.5      2.428      3.784
REMARK  13 active torsions:
REMARK  status: ('A' for Active; 'I' for Inactive)
REMARK    1  A    between atoms: C_1  and  C_2 
REMARK    2  A    between atoms: C_5  and  C_8 
REMARK    3  A    between atoms: C_11  and  C_13 
REMARK    4  A    between atoms: C_13  and  C_14 
REMARK    5  A    between atoms: C_17  and  C_34 
REMARK    6  A    between atoms: C_19  and  C_24 
REMARK    7  A    between atoms: C_22  and  C_23 
REMARK    8  A    between atoms: C_24  and  N_25 
REMARK    9  A    between atoms: C_29  and  C_31 
REMARK   10  A    between atoms: C_31  and  O_32 
REMARK   11  A    between atoms: O_32  and  C_33 
REMARK   12  A    between atoms: C_34  and  C_35 
REMARK   13  A    between atoms: C_34  and  C_36 
ROOT
ATOM      1  C   LIG d   1      10.476   4.612  -5.260  0.00  0.00    -0.011 C 
ATOM      2  H   LIG d   1       9.770   4.413  -6.067  0.00  0.00     0.035 H 
ATOM      3  C   LIG d   1      11.830   3.985  -5.603  0.00  0.00    -0.042 C 
ATOM      4  C   LIG d   1      12.869   4.494  -4.598  0.00  0.00    -0.027 C 
ATOM      5  H   LIG d   1      12.508   4.331  -3.582  0.00  0.00     0.031 H 
ATOM      6  C   LIG d   1      13.079   5.992  -4.834  0.00  0.00     0.021 C 
ATOM      7  H   LIG d   1      13.610   6.138  -5.774  0.00  0.00     0.040 H 
ATOM      8  C   LIG d   1      11.755   6.695  -4.898  0.00  0.00    -0.076 C 
ATOM      9  C   LIG d   1      10.626   6.095  -5.086  0.00  0.00    -0.072 C 
ATOM     10  H   LIG d   1      11.758   2.900  -5.538  0.00  0.00     0.027 H 
ATOM     11  H   LIG d   1      12.123   4.276  -6.612  0.00  0.00     0.027 H 
ATOM     12  H   LIG d   1      11.745   7.768  -4.777  0.00  0.00     0.058 H 
ENDROOT
BRANCH   6  13
ATOM     13  C   LIG d   1      13.905   6.575  -3.687  0.00  0.00    -0.025 C 
ATOM     14  H   LIG d   1      14.835   6.015  -3.587  0.00  0.00     0.082 H 
ATOM     15  H   LIG d   1      14.131   7.621  -3.896  0.00  0.00     0.082 H 
BRANCH  13  16
ATOM     16  N   LIG d   1      13.142   6.480  -2.435  0.00  0.00     0.239 N 
ATOM     17  C   LIG d   1      13.071   7.806  -1.795  0.00  0.00     0.003 C 
ATOM     18  C   LIG d   1      13.758   7.688  -0.419  0.00  0.00    -0.003 C 
ATOM     19  H   LIG d   1      13.593   8.542  -2.408  0.00  0.00     0.087 H 
ATOM     20  C   LIG d   1      14.679   6.451  -0.594  0.00  0.00    -0.007 C 
ATOM     21  H   LIG d   1      13.022   7.512   0.366  0.00  0.00     0.032 H 
ATOM     22  H   LIG d   1      14.347   8.579  -0.203  0.00  0.00     0.032 H 
ATOM     23  C   LIG d   1      13.818   5.546  -1.509  0.00  0.00    -0.031 C 
ATOM     24  H   LIG d   1      14.871   5.968   0.364  0.00  0.00     0.032 H 
ATOM     25  H   LIG d   1      15.613   6.727  -1.084  0.00  0.00     0.032 H 
ATOM     26  H   LIG d   1      13.083   4.999  -0.918  0.00  0.00     0.081 H 
ATOM     27  H   LIG d   1      14.451   4.855  -2.064  0.00  0.00     0.081 H 
ATOM     28  H   LIG d   1      12.210   6.147  -2.629  0.00  0.00     0.204 HD
BRANCH  17  29
ATOM     29  C   LIG d   1      11.609   8.220  -1.613  0.00  0.00     0.090 C 
ATOM     30  H   LIG d   1      11.505   8.793  -0.691  0.00  0.00     0.062 H 
ATOM     31  H   LIG d   1      11.296   8.831  -2.459  0.00  0.00     0.062 H 
BRANCH  29  32
ATOM     32  O   LIG d   1      10.790   7.051  -1.542  0.00  0.00    -0.377 OA
BRANCH  32  33
ATOM     33  C   LIG d   1       9.387   7.325  -1.517  0.00  0.00     0.037 C 
ATOM     34  H   LIG d   1       9.221   8.383  -1.723  0.00  0.00     0.052 H 
ATOM     35  H   LIG d   1       8.885   6.724  -2.275  0.00  0.00     0.052 H 
ATOM     36  H   LIG d   1       8.986   7.079  -0.534  0.00  0.00     0.052 H 
ENDBRANCH  32  33
ENDBRANCH  29  32
ENDBRANCH  17  29
ENDBRANCH  13  16
ENDBRANCH   6  13
BRANCH   4  37
ATOM     37  C   LIG d   1      14.189   3.748  -4.800  0.00  0.00    -0.043 C 
ATOM     38  H   LIG d   1      15.021   4.443  -4.684  0.00  0.00     0.030 H 
BRANCH  37  39
ATOM     39  C   LIG d   1      14.309   2.632  -3.760  0.00  0.00    -0.062 C 
ATOM     40  H   LIG d   1      14.542   1.692  -4.261  0.00  0.00     0.023 H 
ATOM     41  H   LIG d   1      15.103   2.876  -3.055  0.00  0.00     0.023 H 
ATOM     42  H   LIG d   1      13.365   2.532  -3.223  0.00  0.00     0.023 H 
ENDBRANCH  37  39
BRANCH  37  43
ATOM     43  C   LIG d   1      14.223   3.142  -6.205  0.00  0.00    -0.062 C 
ATOM     44  H   LIG d   1      14.224   2.055  -6.131  0.00  0.00     0.023 H 
ATOM     45  H   LIG d   1      13.344   3.468  -6.762  0.00  0.00     0.023 H 
ATOM     46  H   LIG d   1      15.124   3.472  -6.720  0.00  0.00     0.023 H 
ENDBRANCH  37  43
ENDBRANCH   4  37
BRANCH   9  47
ATOM     47  C   LIG d   1       9.380   6.941  -5.135  0.00  0.00    -0.043 C 
ATOM     48  H   LIG d   1       9.073   7.076  -6.171  0.00  0.00     0.027 H 
ATOM     49  H   LIG d   1       8.583   6.446  -4.580  0.00  0.00     0.027 H 
ATOM     50  H   LIG d   1       9.584   7.913  -4.686  0.00  0.00     0.027 H 
ENDBRANCH   9  47
BRANCH   1  51
ATOM     51  C   LIG d   1       9.949   4.000  -3.961  0.00  0.00     0.032 C 
ATOM     52  H   LIG d   1       9.489   4.778  -3.353  0.00  0.00     0.037 H 
ATOM     53  H   LIG d   1      10.774   3.549  -3.410  0.00  0.00     0.037 H 
BRANCH  51  54
ATOM     54  C   LIG d   1       8.925   2.943  -4.284  0.00  0.00     0.218 A 
ATOM     55  N   LIG d   1       8.573   2.550  -5.478  0.00  0.00    -0.112 NA
ATOM     56  N   LIG d   1       7.676   1.634  -5.381  0.00  0.00    -0.107 NA
ATOM     57  C   LIG d   1       7.421   1.408  -4.113  0.00  0.00     0.248 A 
ATOM     58  O   LIG d   1       8.205   2.238  -3.395  0.00  0.00    -0.420 OA
BRANCH  57  59
ATOM     59  C   LIG d   1       6.452   0.432  -3.574  0.00  0.00     0.038 A 
ATOM     60  C   LIG d   1       5.453   0.848  -2.693  0.00  0.00    -0.049 A 
ATOM     61  C   LIG d   1       4.551  -0.068  -2.194  0.00  0.00    -0.058 A 
ATOM     62  H   LIG d   1       5.386   1.887  -2.402  0.00  0.00     0.062 H 
ATOM     63  C   LIG d   1       4.635  -1.399  -2.565  0.00  0.00    -0.050 A 
ATOM     64  H   LIG d   1       3.777   0.253  -1.511  0.00  0.00     0.062 H 
ATOM     65  C   LIG d   1       5.626  -1.820  -3.433  0.00  0.00    -0.058 A 
ATOM     66  C   LIG d   1       6.531  -0.911  -3.944  0.00  0.00    -0.049 A 
ATOM     67  H   LIG d   1       5.689  -2.860  -3.716  0.00  0.00     0.062 H 
ATOM     68  H   LIG d   1       7.301  -1.241  -4.626  0.00  0.00     0.062 H 
BRANCH  63  69
ATOM     69  C   LIG d   1       3.646  -2.395  -2.016  0.00  0.00    -0.040 C 
ATOM     70  H   LIG d   1       3.411  -3.133  -2.783  0.00  0.00     0.028 H 
ATOM     71  H   LIG d   1       4.078  -2.895  -1.149  0.00  0.00     0.028 H 
ATOM     72  H   LIG d   1       2.735  -1.876  -1.718  0.00  0.00     0.028 H 
ENDBRANCH  63  69
ENDBRANCH  57  59
ENDBRANCH  51  54
ENDBRANCH   1  51
TORSDOF 13
ENDMDL
MODEL 10
REMARK VINA RESULT:      -5.4      3.311     11.318
REMARK  13 active torsions:
REMARK  status: ('A' for Active; 'I' for Inactive)
REMARK    1  A    between atoms: C_1  and  C_2 
REMARK    2  A    between atoms: C_5  and  C_8 
REMARK    3  A    between atoms: C_11  and  C_13 
REMARK    4  A    between atoms: C_13  and  C_14 
REMARK    5  A    between atoms: C_17  and  C_34 
REMARK    6  A    between atoms: C_19  and  C_24 
REMARK    7  A    between atoms: C_22  and  C_23 
REMARK    8  A    between atoms: C_24  and  N_25 
REMARK    9  A    between atoms: C_29  and  C_31 
REMARK   10  A    between atoms: C_31  and  O_32 
REMARK   11  A    between atoms: O_32  and  C_33 
REMARK   12  A    between atoms: C_34  and  C_35 
REMARK   13  A    between atoms: C_34  and  C_36 
ROOT
ATOM      1  C   LIG d   1       6.828   0.707  -4.791  0.00  0.00    -0.011 C 
ATOM      2  H   LIG d   1       6.640   1.707  -5.184  0.00  0.00     0.035 H 
ATOM      3  C   LIG d   1       5.560   0.179  -4.116  0.00  0.00    -0.042 C 
ATOM      4  C   LIG d   1       5.757  -1.309  -3.808  0.00  0.00    -0.027 C 
ATOM      5  H   LIG d   1       6.688  -1.450  -3.259  0.00  0.00     0.031 H 
ATOM      6  C   LIG d   1       5.823  -2.073  -5.133  0.00  0.00     0.021 C 
ATOM      7  H   LIG d   1       4.834  -2.086  -5.592  0.00  0.00     0.040 H 
ATOM      8  C   LIG d   1       6.794  -1.410  -6.064  0.00  0.00    -0.076 C 
ATOM      9  C   LIG d   1       7.227  -0.202  -5.917  0.00  0.00    -0.072 C 
ATOM     10  H   LIG d   1       5.384   0.725  -3.189  0.00  0.00     0.027 H 
ATOM     11  H   LIG d   1       4.709   0.306  -4.785  0.00  0.00     0.027 H 
ATOM     12  H   LIG d   1       7.154  -1.978  -6.909  0.00  0.00     0.058 H 
ENDROOT
BRANCH   6  13
ATOM     13  C   LIG d   1       6.277  -3.510  -4.868  0.00  0.00    -0.025 C 
ATOM     14  H   LIG d   1       7.337  -3.514  -4.612  0.00  0.00     0.082 H 
ATOM     15  H   LIG d   1       5.702  -3.927  -4.042  0.00  0.00     0.082 H 
BRANCH  13  16
ATOM     16  N   LIG d   1       6.063  -4.321  -6.073  0.00  0.00     0.239 N 
ATOM     17  C   LIG d   1       4.688  -4.125  -6.566  0.00  0.00     0.003 C 
ATOM     18  C   LIG d   1       3.985  -5.498  -6.520  0.00  0.00    -0.003 C 
ATOM     19  H   LIG d   1       4.162  -3.417  -5.925  0.00  0.00     0.087 H 
ATOM     20  C   LIG d   1       4.819  -6.282  -5.473  0.00  0.00    -0.007 C 
ATOM     21  H   LIG d   1       4.030  -5.987  -7.494  0.00  0.00     0.032 H 
ATOM     22  H   LIG d   1       2.952  -5.391  -6.189  0.00  0.00     0.032 H 
ATOM     23  C   LIG d   1       6.247  -5.752  -5.750  0.00  0.00    -0.031 C 
ATOM     24  H   LIG d   1       4.759  -7.356  -5.651  0.00  0.00     0.032 H 
ATOM     25  H   LIG d   1       4.501  -6.038  -4.459  0.00  0.00     0.032 H 
ATOM     26  H   LIG d   1       6.690  -6.279  -6.595  0.00  0.00     0.081 H 
ATOM     27  H   LIG d   1       6.872  -5.863  -4.863  0.00  0.00     0.081 H 
ATOM     28  H   LIG d   1       6.721  -4.050  -6.788  0.00  0.00     0.204 HD
BRANCH  17  29
ATOM     29  C   LIG d   1       4.719  -3.604  -8.005  0.00  0.00     0.090 C 
ATOM     30  H   LIG d   1       5.744  -3.348  -8.277  0.00  0.00     0.062 H 
ATOM     31  H   LIG d   1       4.346  -4.375  -8.679  0.00  0.00     0.062 H 
BRANCH  29  32
ATOM     32  O   LIG d   1       3.894  -2.442  -8.108  0.00  0.00    -0.377 OA
BRANCH  32  33
ATOM     33  C   LIG d   1       2.941  -2.498  -9.171  0.00  0.00     0.037 C 
ATOM     34  H   LIG d   1       1.944  -2.303  -8.776  0.00  0.00     0.052 H 
ATOM     35  H   LIG d   1       3.188  -1.746  -9.921  0.00  0.00     0.052 H 
ATOM     36  H   LIG d   1       2.964  -3.487  -9.628  0.00  0.00     0.052 H 
ENDBRANCH  32  33
ENDBRANCH  29  32
ENDBRANCH  17  29
ENDBRANCH  13  16
ENDBRANCH   6  13
BRANCH   4  37
ATOM     37  C   LIG d   1       4.583  -1.822  -2.972  0.00  0.00    -0.043 C 
ATOM     38  H   LIG d   1       4.640  -2.908  -2.893  0.00  0.00     0.030 H 
BRANCH  37  39
ATOM     39  C   LIG d   1       4.646  -1.206  -1.572  0.00  0.00    -0.062 C 
ATOM     40  H   LIG d   1       4.153  -0.233  -1.582  0.00  0.00     0.023 H 
ATOM     41  H   LIG d   1       4.143  -1.862  -0.864  0.00  0.00     0.023 H 
ATOM     42  H   LIG d   1       5.688  -1.081  -1.277  0.00  0.00     0.023 H 
ENDBRANCH  37  39
BRANCH  37  43
ATOM     43  C   LIG d   1       3.267  -1.428  -3.644  0.00  0.00    -0.062 C 
ATOM     44  H   LIG d   1       3.021  -0.398  -3.386  0.00  0.00     0.023 H 
ATOM     45  H   LIG d   1       3.371  -1.515  -4.726  0.00  0.00     0.023 H 
ATOM     46  H   LIG d   1       2.472  -2.088  -3.300  0.00  0.00     0.023 H 
ENDBRANCH  37  43
ENDBRANCH   4  37
BRANCH   9  47
ATOM     47  C   LIG d   1       8.195   0.328  -6.943  0.00  0.00    -0.043 C 
ATOM     48  H   LIG d   1       7.779   0.189  -7.940  0.00  0.00     0.027 H 
ATOM     49  H   LIG d   1       8.368   1.389  -6.765  0.00  0.00     0.027 H 
ATOM     50  H   LIG d   1       9.139  -0.212  -6.864  0.00  0.00     0.027 H 
ENDBRANCH   9  47
BRANCH   1  51
ATOM     51  C   LIG d   1       7.960   0.770  -3.765  0.00  0.00     0.032 C 
ATOM     52  H   LIG d   1       8.676  -0.027  -3.964  0.00  0.00     0.037 H 
ATOM     53  H   LIG d   1       7.549   0.646  -2.762  0.00  0.00     0.037 H 
BRANCH  51  54
ATOM     54  C   LIG d   1       8.653   2.104  -3.862  0.00  0.00     0.218 A 
ATOM     55  N   LIG d   1       9.552   2.567  -3.038  0.00  0.00    -0.112 NA
ATOM     56  N   LIG d   1       9.928   3.735  -3.424  0.00  0.00    -0.107 NA
ATOM     57  C   LIG d   1       9.276   4.061  -4.516  0.00  0.00     0.248 A 
ATOM     58  O   LIG d   1       8.452   3.035  -4.811  0.00  0.00    -0.420 OA
BRANCH  57  59
ATOM     59  C   LIG d   1       9.415   5.320  -5.277  0.00  0.00     0.038 A 
ATOM     60  C   LIG d   1       9.818   5.293  -6.612  0.00  0.00    -0.049 A 
ATOM     61  C   LIG d   1       9.945   6.472  -7.316  0.00  0.00    -0.058 A 
ATOM     62  H   LIG d   1      10.031   4.349  -7.094  0.00  0.00     0.062 H 
ATOM     63  C   LIG d   1       9.673   7.682  -6.701  0.00  0.00    -0.050 A 
ATOM     64  H   LIG d   1      10.258   6.452  -8.350  0.00  0.00     0.062 H 
ATOM     65  C   LIG d   1       9.278   7.717  -5.376  0.00  0.00    -0.058 A 
ATOM     66  C   LIG d   1       9.142   6.543  -4.662  0.00  0.00    -0.049 A 
ATOM     67  H   LIG d   1       9.072   8.664  -4.900  0.00  0.00     0.062 H 
ATOM     68  H   LIG d   1       8.829   6.573  -3.629  0.00  0.00     0.062 H 
BRANCH  63  69
ATOM     69  C   LIG d   1       9.814   8.966  -7.476  0.00  0.00    -0.040 C 
ATOM     70  H   LIG d   1       8.965   9.078  -8.151  0.00  0.00     0.028 H 
ATOM     71  H   LIG d   1       9.841   9.807  -6.784  0.00  0.00     0.028 H 
ATOM     72  H   LIG d   1      10.738   8.943  -8.054  0.00  0.00     0.028 H 
ENDBRANCH  63  69
ENDBRANCH  57  59
ENDBRANCH  51  54
ENDBRANCH   1  51
TORSDOF 13
ENDMDL
