MODEL 1
REMARK VINA RESULT:      -6.2      0.000      0.000
REMARK  19 active torsions:
REMARK  status: ('A' for Active; 'I' for Inactive)
REMARK    1  A    between atoms: C_1  and  C_2 
REMARK    2  A    between atoms: C_2  and  C_4 
REMARK    3  A    between atoms: C_2  and  N_10 
REMARK    4  A    between atoms: C_4  and  C_5 
REMARK    5  A    between atoms: C_5  and  C_6 
REMARK    6  A    between atoms: C_6  and  C_7 
REMARK    7  A    between atoms: C_7  and  C_8 
REMARK    8  A    between atoms: C_7  and  C_9 
REMARK       I    between atoms: N_10  and  C_11 
REMARK    9  A    between atoms: C_11  and  C_13 
REMARK   10  A    between atoms: C_13  and  C_15 
REMARK   11  A    between atoms: C_13  and  N_18 
REMARK   12  A    between atoms: C_15  and  C_16 
REMARK   13  A    between atoms: C_15  and  C_17 
REMARK       I    between atoms: N_18  and  C_19 
REMARK   14  A    between atoms: C_19  and  C_21 
REMARK   15  A    between atoms: C_21  and  N_22 
REMARK   16  A    between atoms: C_27  and  O_35 
REMARK   17  A    between atoms: C_28  and  O_33 
REMARK   18  A    between atoms: O_33  and  C_34 
REMARK   19  A    between atoms: O_35  and  C_36 
ROOT
ATOM      1  C   LIG d   1       7.033   1.063  -6.992  0.00  0.00     0.102 C 
ATOM      2  H   LIG d   1       6.301   1.730  -6.536  0.00  0.00     0.060 H 
ENDROOT
BRANCH   1   3
ATOM      3  C   LIG d   1       6.827  -0.337  -6.475  0.00  0.00     0.234 C 
ATOM      4  N   LIG d   1       6.274  -0.533  -5.261  0.00  0.00    -0.311 N 
ATOM      5  H   LIG d   1       6.072   0.226  -4.691  0.00  0.00     0.149 HD
ATOM      6  O   LIG d   1       7.158  -1.288  -7.150  0.00  0.00    -0.274 OA
BRANCH   4   7
ATOM      7  C   LIG d   1       5.976  -1.892  -4.802  0.00  0.00     0.020 C 
ATOM      8  H   LIG d   1       6.288  -2.608  -5.563  0.00  0.00     0.050 H 
BRANCH   7   9
ATOM      9  C   LIG d   1       6.732  -2.168  -3.501  0.00  0.00    -0.047 C 
ATOM     10  H   LIG d   1       6.808  -3.244  -3.346  0.00  0.00     0.025 H 
ATOM     11  H   LIG d   1       7.732  -1.739  -3.563  0.00  0.00     0.025 H 
ATOM     12  H   LIG d   1       6.195  -1.717  -2.666  0.00  0.00     0.025 H 
ENDBRANCH   7   9
BRANCH   7  13
ATOM     13  C   LIG d   1       4.472  -2.030  -4.557  0.00  0.00    -0.035 C 
ATOM     14  H   LIG d   1       3.938  -1.286  -5.149  0.00  0.00     0.028 H 
ATOM     15  H   LIG d   1       4.146  -3.028  -4.847  0.00  0.00     0.028 H 
BRANCH  13  16
ATOM     16  C   LIG d   1       4.175  -1.807  -3.072  0.00  0.00    -0.051 C 
ATOM     17  H   LIG d   1       4.013  -2.769  -2.587  0.00  0.00     0.027 H 
ATOM     18  H   LIG d   1       5.020  -1.302  -2.605  0.00  0.00     0.027 H 
BRANCH  16  19
ATOM     19  C   LIG d   1       2.921  -0.943  -2.927  0.00  0.00    -0.051 C 
ATOM     20  H   LIG d   1       2.439  -0.837  -3.898  0.00  0.00     0.027 H 
ATOM     21  H   LIG d   1       2.232  -1.418  -2.229  0.00  0.00     0.027 H 
BRANCH  19  22
ATOM     22  C   LIG d   1       3.312   0.438  -2.396  0.00  0.00    -0.047 C 
ATOM     23  H   LIG d   1       2.562   0.778  -1.682  0.00  0.00     0.029 H 
BRANCH  22  24
ATOM     24  C   LIG d   1       4.674   0.350  -1.703  0.00  0.00    -0.063 C 
ATOM     25  H   LIG d   1       4.647  -0.434  -0.948  0.00  0.00     0.023 H 
ATOM     26  H   LIG d   1       5.442   0.119  -2.441  0.00  0.00     0.023 H 
ATOM     27  H   LIG d   1       4.902   1.304  -1.229  0.00  0.00     0.023 H 
ENDBRANCH  22  24
BRANCH  22  28
ATOM     28  C   LIG d   1       3.395   1.427  -3.560  0.00  0.00    -0.063 C 
ATOM     29  H   LIG d   1       3.101   2.418  -3.215  0.00  0.00     0.023 H 
ATOM     30  H   LIG d   1       4.417   1.461  -3.936  0.00  0.00     0.023 H 
ATOM     31  H   LIG d   1       2.724   1.107  -4.358  0.00  0.00     0.023 H 
ENDBRANCH  22  28
ENDBRANCH  19  22
ENDBRANCH  16  19
ENDBRANCH  13  16
ENDBRANCH   7  13
ENDBRANCH   4   7
ENDBRANCH   1   3
BRANCH   1  32
ATOM     32  C   LIG d   1       6.856   1.077  -8.512  0.00  0.00    -0.020 C 
ATOM     33  H   LIG d   1       6.887   0.055  -8.891  0.00  0.00     0.032 H 
BRANCH  32  34
ATOM     34  C   LIG d   1       5.507   1.709  -8.862  0.00  0.00    -0.060 C 
ATOM     35  H   LIG d   1       4.909   1.814  -7.957  0.00  0.00     0.023 H 
ATOM     36  H   LIG d   1       5.670   2.691  -9.306  0.00  0.00     0.023 H 
ATOM     37  H   LIG d   1       4.981   1.072  -9.573  0.00  0.00     0.023 H 
ENDBRANCH  32  34
BRANCH  32  38
ATOM     38  C   LIG d   1       7.981   1.892  -9.149  0.00  0.00    -0.060 C 
ATOM     39  H   LIG d   1       8.277   1.430 -10.092  0.00  0.00     0.023 H 
ATOM     40  H   LIG d   1       7.633   2.909  -9.337  0.00  0.00     0.023 H 
ATOM     41  H   LIG d   1       8.837   1.921  -8.476  0.00  0.00     0.023 H 
ENDBRANCH  32  38
ENDBRANCH   1  32
BRANCH   1  42
ATOM     42  N   LIG d   1       8.384   1.515  -6.653  0.00  0.00    -0.302 N 
ATOM     43  C   LIG d   1       8.622   2.094  -5.460  0.00  0.00     0.234 C 
ATOM     44  O   LIG d   1       7.717   2.240  -4.665  0.00  0.00    -0.274 OA
ATOM     45  H   LIG d   1       9.108   1.398  -7.288  0.00  0.00     0.149 HD
BRANCH  43  46
ATOM     46  C   LIG d   1      10.013   2.559  -5.112  0.00  0.00     0.104 C 
ATOM     47  H   LIG d   1      10.494   1.818  -4.472  0.00  0.00     0.059 H 
ATOM     48  H   LIG d   1      10.594   2.682  -6.025  0.00  0.00     0.059 H 
BRANCH  46  49
ATOM     49  N   LIG d   1       9.937   3.839  -4.404  0.00  0.00    -0.290 N 
ATOM     50  C   LIG d   1      10.293   3.906  -3.099  0.00  0.00     0.262 A 
ATOM     51  C   LIG d   1      10.201   5.215  -2.440  0.00  0.00     0.069 A 
ATOM     52  O   LIG d   1      10.677   2.919  -2.497  0.00  0.00    -0.267 OA
ATOM     53  C   LIG d   1       9.742   6.312  -3.202  0.00  0.00     0.082 A 
ATOM     54  C   LIG d   1      10.550   5.389  -1.099  0.00  0.00    -0.002 A 
ATOM     55  N   LIG d   1       9.410   6.115  -4.503  0.00  0.00    -0.237 NA
ATOM     56  C   LIG d   1       9.638   7.568  -2.604  0.00  0.00     0.010 A 
ATOM     57  C   LIG d   1       9.505   4.947  -5.061  0.00  0.00     0.100 A 
ATOM     58  H   LIG d   1       9.226   4.852  -6.100  0.00  0.00     0.103 H 
ATOM     59  C   LIG d   1       9.985   7.727  -1.277  0.00  0.00     0.164 A 
ATOM     60  H   LIG d   1       9.287   8.414  -3.177  0.00  0.00     0.068 H 
ATOM     61  C   LIG d   1      10.442   6.638  -0.524  0.00  0.00     0.162 A 
ATOM     62  H   LIG d   1      10.902   4.551  -0.516  0.00  0.00     0.066 H 
BRANCH  59  63
ATOM     63  O   LIG d   1       9.885   8.950  -0.696  0.00  0.00    -0.491 OA
BRANCH  63  64
ATOM     64  C   LIG d   1       8.606   9.585  -0.741  0.00  0.00     0.079 C 
ATOM     65  H   LIG d   1       8.464  10.183   0.159  0.00  0.00     0.066 H 
ATOM     66  H   LIG d   1       8.551  10.231  -1.618  0.00  0.00     0.066 H 
ATOM     67  H   LIG d   1       7.826   8.826  -0.800  0.00  0.00     0.066 H 
ENDBRANCH  63  64
ENDBRANCH  59  63
BRANCH  61  68
ATOM     68  O   LIG d   1      10.780   6.813   0.780  0.00  0.00    -0.491 OA
BRANCH  68  69
ATOM     69  C   LIG d   1      10.945   5.635   1.572  0.00  0.00     0.079 C 
ATOM     70  H   LIG d   1      11.003   4.763   0.921  0.00  0.00     0.066 H 
ATOM     71  H   LIG d   1      11.864   5.715   2.154  0.00  0.00     0.066 H 
ATOM     72  H   LIG d   1      10.096   5.529   2.247  0.00  0.00     0.066 H 
ENDBRANCH  68  69
ENDBRANCH  61  68
ENDBRANCH  46  49
ENDBRANCH  43  46
ENDBRANCH   1  42
TORSDOF 19
ENDMDL
MODEL 2
REMARK VINA RESULT:      -6.1      1.735      3.071
REMARK  19 active torsions:
REMARK  status: ('A' for Active; 'I' for Inactive)
REMARK    1  A    between atoms: C_1  and  C_2 
REMARK    2  A    between atoms: C_2  and  C_4 
REMARK    3  A    between atoms: C_2  and  N_10 
REMARK    4  A    between atoms: C_4  and  C_5 
REMARK    5  A    between atoms: C_5  and  C_6 
REMARK    6  A    between atoms: C_6  and  C_7 
REMARK    7  A    between atoms: C_7  and  C_8 
REMARK    8  A    between atoms: C_7  and  C_9 
REMARK       I    between atoms: N_10  and  C_11 
REMARK    9  A    between atoms: C_11  and  C_13 
REMARK   10  A    between atoms: C_13  and  C_15 
REMARK   11  A    between atoms: C_13  and  N_18 
REMARK   12  A    between atoms: C_15  and  C_16 
REMARK   13  A    between atoms: C_15  and  C_17 
REMARK       I    between atoms: N_18  and  C_19 
REMARK   14  A    between atoms: C_19  and  C_21 
REMARK   15  A    between atoms: C_21  and  N_22 
REMARK   16  A    between atoms: C_27  and  O_35 
REMARK   17  A    between atoms: C_28  and  O_33 
REMARK   18  A    between atoms: O_33  and  C_34 
REMARK   19  A    between atoms: O_35  and  C_36 
ROOT
ATOM      1  C   LIG d   1       7.299   0.529  -5.824  0.00  0.00     0.102 C 
ATOM      2  H   LIG d   1       8.031  -0.223  -6.117  0.00  0.00     0.060 H 
ENDROOT
BRANCH   1   3
ATOM      3  C   LIG d   1       6.121   0.477  -6.762  0.00  0.00     0.234 C 
ATOM      4  N   LIG d   1       4.973  -0.112  -6.371  0.00  0.00    -0.311 N 
ATOM      5  H   LIG d   1       4.927  -0.562  -5.514  0.00  0.00     0.149 HD
ATOM      6  O   LIG d   1       6.206   0.964  -7.869  0.00  0.00    -0.274 OA
BRANCH   4   7
ATOM      7  C   LIG d   1       3.796  -0.071  -7.242  0.00  0.00     0.020 C 
ATOM      8  H   LIG d   1       3.930   0.703  -7.998  0.00  0.00     0.050 H 
BRANCH   7   9
ATOM      9  C   LIG d   1       3.620  -1.427  -7.927  0.00  0.00    -0.047 C 
ATOM     10  H   LIG d   1       3.223  -2.147  -7.211  0.00  0.00     0.025 H 
ATOM     11  H   LIG d   1       2.927  -1.326  -8.762  0.00  0.00     0.025 H 
ATOM     12  H   LIG d   1       4.585  -1.776  -8.295  0.00  0.00     0.025 H 
ENDBRANCH   7   9
BRANCH   7  13
ATOM     13  C   LIG d   1       2.553   0.243  -6.405  0.00  0.00    -0.035 C 
ATOM     14  H   LIG d   1       2.049   1.118  -6.816  0.00  0.00     0.028 H 
ATOM     15  H   LIG d   1       1.876  -0.610  -6.426  0.00  0.00     0.028 H 
BRANCH  13  16
ATOM     16  C   LIG d   1       2.971   0.527  -4.961  0.00  0.00    -0.051 C 
ATOM     17  H   LIG d   1       4.056   0.478  -4.880  0.00  0.00     0.027 H 
ATOM     18  H   LIG d   1       2.629   1.522  -4.673  0.00  0.00     0.027 H 
BRANCH  16  19
ATOM     19  C   LIG d   1       2.341  -0.515  -4.034  0.00  0.00    -0.051 C 
ATOM     20  H   LIG d   1       1.267  -0.345  -3.972  0.00  0.00     0.027 H 
ATOM     21  H   LIG d   1       2.529  -1.513  -4.429  0.00  0.00     0.027 H 
BRANCH  19  22
ATOM     22  C   LIG d   1       2.958  -0.395  -2.638  0.00  0.00    -0.047 C 
ATOM     23  H   LIG d   1       2.174  -0.480  -1.886  0.00  0.00     0.029 H 
BRANCH  22  24
ATOM     24  C   LIG d   1       3.983  -1.513  -2.436  0.00  0.00    -0.063 C 
ATOM     25  H   LIG d   1       3.697  -2.379  -3.033  0.00  0.00     0.023 H 
ATOM     26  H   LIG d   1       4.967  -1.165  -2.749  0.00  0.00     0.023 H 
ATOM     27  H   LIG d   1       4.013  -1.792  -1.383  0.00  0.00     0.023 H 
ENDBRANCH  22  24
BRANCH  22  28
ATOM     28  C   LIG d   1       3.650   0.962  -2.502  0.00  0.00    -0.063 C 
ATOM     29  H   LIG d   1       2.940   1.696  -2.122  0.00  0.00     0.023 H 
ATOM     30  H   LIG d   1       4.488   0.875  -1.810  0.00  0.00     0.023 H 
ATOM     31  H   LIG d   1       4.017   1.283  -3.478  0.00  0.00     0.023 H 
ENDBRANCH  22  28
ENDBRANCH  19  22
ENDBRANCH  16  19
ENDBRANCH  13  16
ENDBRANCH   7  13
ENDBRANCH   4   7
ENDBRANCH   1   3
BRANCH   1  32
ATOM     32  C   LIG d   1       6.825   0.249  -4.396  0.00  0.00    -0.020 C 
ATOM     33  H   LIG d   1       5.743   0.115  -4.391  0.00  0.00     0.032 H 
BRANCH  32  34
ATOM     34  C   LIG d   1       7.498  -1.022  -3.876  0.00  0.00    -0.060 C 
ATOM     35  H   LIG d   1       7.151  -1.880  -4.453  0.00  0.00     0.023 H 
ATOM     36  H   LIG d   1       8.580  -0.929  -3.978  0.00  0.00     0.023 H 
ATOM     37  H   LIG d   1       7.244  -1.165  -2.826  0.00  0.00     0.023 H 
ENDBRANCH  32  34
BRANCH  32  38
ATOM     38  C   LIG d   1       7.197   1.427  -3.494  0.00  0.00    -0.060 C 
ATOM     39  H   LIG d   1       7.022   1.157  -2.452  0.00  0.00     0.023 H 
ATOM     40  H   LIG d   1       8.249   1.674  -3.634  0.00  0.00     0.023 H 
ATOM     41  H   LIG d   1       6.585   2.291  -3.752  0.00  0.00     0.023 H 
ENDBRANCH  32  38
ENDBRANCH   1  32
BRANCH   1  42
ATOM     42  N   LIG d   1       7.913   1.858  -5.883  0.00  0.00    -0.302 N 
ATOM     43  C   LIG d   1       9.192   1.991  -6.282  0.00  0.00     0.234 C 
ATOM     44  O   LIG d   1       9.837   1.012  -6.592  0.00  0.00    -0.274 OA
ATOM     45  H   LIG d   1       7.397   2.642  -5.635  0.00  0.00     0.149 HD
BRANCH  43  46
ATOM     46  C   LIG d   1       9.823   3.359  -6.343  0.00  0.00     0.104 C 
ATOM     47  H   LIG d   1      10.781   3.294  -6.860  0.00  0.00     0.059 H 
ATOM     48  H   LIG d   1       9.165   4.040  -6.882  0.00  0.00     0.059 H 
BRANCH  46  49
ATOM     49  N   LIG d   1      10.036   3.860  -4.983  0.00  0.00    -0.290 N 
ATOM     50  C   LIG d   1       9.803   5.164  -4.705  0.00  0.00     0.262 A 
ATOM     51  C   LIG d   1      10.028   5.612  -3.324  0.00  0.00     0.069 A 
ATOM     52  O   LIG d   1       9.419   5.936  -5.566  0.00  0.00    -0.267 OA
ATOM     53  C   LIG d   1      10.480   4.660  -2.382  0.00  0.00     0.082 A 
ATOM     54  C   LIG d   1       9.813   6.935  -2.936  0.00  0.00    -0.002 A 
ATOM     55  N   LIG d   1      10.681   3.380  -2.787  0.00  0.00    -0.237 NA
ATOM     56  C   LIG d   1      10.708   5.054  -1.064  0.00  0.00     0.010 A 
ATOM     57  C   LIG d   1      10.469   3.012  -4.013  0.00  0.00     0.100 A 
ATOM     58  H   LIG d   1      10.647   1.980  -4.276  0.00  0.00     0.103 H 
ATOM     59  C   LIG d   1      10.491   6.366  -0.693  0.00  0.00     0.164 A 
ATOM     60  H   LIG d   1      11.053   4.335  -0.335  0.00  0.00     0.068 H 
ATOM     61  C   LIG d   1      10.043   7.307  -1.628  0.00  0.00     0.162 A 
ATOM     62  H   LIG d   1       9.468   7.663  -3.655  0.00  0.00     0.066 H 
BRANCH  59  63
ATOM     63  O   LIG d   1      10.714   6.749   0.591  0.00  0.00    -0.491 OA
BRANCH  63  64
ATOM     64  C   LIG d   1      11.019   5.717   1.530  0.00  0.00     0.079 C 
ATOM     65  H   LIG d   1      10.093   5.315   1.943  0.00  0.00     0.066 H 
ATOM     66  H   LIG d   1      11.569   4.919   1.030  0.00  0.00     0.066 H 
ATOM     67  H   LIG d   1      11.627   6.127   2.336  0.00  0.00     0.066 H 
ENDBRANCH  63  64
ENDBRANCH  59  63
BRANCH  61  68
ATOM     68  O   LIG d   1       9.835   8.594  -1.244  0.00  0.00    -0.491 OA
BRANCH  68  69
ATOM     69  C   LIG d   1       8.497   8.961  -0.901  0.00  0.00     0.079 C 
ATOM     70  H   LIG d   1       8.516   9.694  -0.095  0.00  0.00     0.066 H 
ATOM     71  H   LIG d   1       8.004   9.392  -1.772  0.00  0.00     0.066 H 
ATOM     72  H   LIG d   1       7.951   8.076  -0.575  0.00  0.00     0.066 H 
ENDBRANCH  68  69
ENDBRANCH  61  68
ENDBRANCH  46  49
ENDBRANCH  43  46
ENDBRANCH   1  42
TORSDOF 19
ENDMDL
MODEL 3
REMARK VINA RESULT:      -5.9      1.141      2.079
REMARK  19 active torsions:
REMARK  status: ('A' for Active; 'I' for Inactive)
REMARK    1  A    between atoms: C_1  and  C_2 
REMARK    2  A    between atoms: C_2  and  C_4 
REMARK    3  A    between atoms: C_2  and  N_10 
REMARK    4  A    between atoms: C_4  and  C_5 
REMARK    5  A    between atoms: C_5  and  C_6 
REMARK    6  A    between atoms: C_6  and  C_7 
REMARK    7  A    between atoms: C_7  and  C_8 
REMARK    8  A    between atoms: C_7  and  C_9 
REMARK       I    between atoms: N_10  and  C_11 
REMARK    9  A    between atoms: C_11  and  C_13 
REMARK   10  A    between atoms: C_13  and  C_15 
REMARK   11  A    between atoms: C_13  and  N_18 
REMARK   12  A    between atoms: C_15  and  C_16 
REMARK   13  A    between atoms: C_15  and  C_17 
REMARK       I    between atoms: N_18  and  C_19 
REMARK   14  A    between atoms: C_19  and  C_21 
REMARK   15  A    between atoms: C_21  and  N_22 
REMARK   16  A    between atoms: C_27  and  O_35 
REMARK   17  A    between atoms: C_28  and  O_33 
REMARK   18  A    between atoms: O_33  and  C_34 
REMARK   19  A    between atoms: O_35  and  C_36 
ROOT
ATOM      1  C   LIG d   1       6.790   0.632  -7.173  0.00  0.00     0.102 C 
ATOM      2  H   LIG d   1       6.074   1.292  -6.684  0.00  0.00     0.060 H 
ENDROOT
BRANCH   1   3
ATOM      3  C   LIG d   1       6.820  -0.694  -6.458  0.00  0.00     0.234 C 
ATOM      4  N   LIG d   1       6.291  -0.806  -5.223  0.00  0.00    -0.311 N 
ATOM      5  H   LIG d   1       5.953  -0.019  -4.767  0.00  0.00     0.149 HD
ATOM      6  O   LIG d   1       7.320  -1.660  -6.992  0.00  0.00    -0.274 OA
BRANCH   4   7
ATOM      7  C   LIG d   1       6.224  -2.116  -4.571  0.00  0.00     0.020 C 
ATOM      8  H   LIG d   1       6.596  -2.881  -5.253  0.00  0.00     0.050 H 
BRANCH   7   9
ATOM      9  C   LIG d   1       7.085  -2.100  -3.306  0.00  0.00    -0.047 C 
ATOM     10  H   LIG d   1       7.600  -1.142  -3.229  0.00  0.00     0.025 H 
ATOM     11  H   LIG d   1       6.449  -2.241  -2.432  0.00  0.00     0.025 H 
ATOM     12  H   LIG d   1       7.818  -2.905  -3.354  0.00  0.00     0.025 H 
ENDBRANCH   7   9
BRANCH   7  13
ATOM     13  C   LIG d   1       4.773  -2.426  -4.197  0.00  0.00    -0.035 C 
ATOM     14  H   LIG d   1       4.103  -1.927  -4.897  0.00  0.00     0.028 H 
ATOM     15  H   LIG d   1       4.609  -3.502  -4.241  0.00  0.00     0.028 H 
BRANCH  13  16
ATOM     16  C   LIG d   1       4.494  -1.925  -2.778  0.00  0.00    -0.051 C 
ATOM     17  H   LIG d   1       4.532  -2.763  -2.083  0.00  0.00     0.027 H 
ATOM     18  H   LIG d   1       5.246  -1.186  -2.500  0.00  0.00     0.027 H 
BRANCH  16  19
ATOM     19  C   LIG d   1       3.106  -1.282  -2.729  0.00  0.00    -0.051 C 
ATOM     20  H   LIG d   1       2.589  -1.463  -3.670  0.00  0.00     0.027 H 
ATOM     21  H   LIG d   1       2.533  -1.718  -1.910  0.00  0.00     0.027 H 
BRANCH  19  22
ATOM     22  C   LIG d   1       3.249   0.225  -2.505  0.00  0.00    -0.047 C 
ATOM     23  H   LIG d   1       2.425   0.580  -1.887  0.00  0.00     0.029 H 
BRANCH  22  24
ATOM     24  C   LIG d   1       4.577   0.511  -1.799  0.00  0.00    -0.063 C 
ATOM     25  H   LIG d   1       4.703   1.587  -1.685  0.00  0.00     0.023 H 
ATOM     26  H   LIG d   1       4.575   0.039  -0.816  0.00  0.00     0.023 H 
ATOM     27  H   LIG d   1       5.398   0.110  -2.392  0.00  0.00     0.023 H 
ENDBRANCH  22  24
BRANCH  22  28
ATOM     28  C   LIG d   1       3.224   0.945  -3.853  0.00  0.00    -0.063 C 
ATOM     29  H   LIG d   1       2.580   0.401  -4.544  0.00  0.00     0.023 H 
ATOM     30  H   LIG d   1       2.840   1.956  -3.718  0.00  0.00     0.023 H 
ATOM     31  H   LIG d   1       4.235   0.992  -4.260  0.00  0.00     0.023 H 
ENDBRANCH  22  28
ENDBRANCH  19  22
ENDBRANCH  16  19
ENDBRANCH  13  16
ENDBRANCH   7  13
ENDBRANCH   4   7
ENDBRANCH   1   3
BRANCH   1  32
ATOM     32  C   LIG d   1       6.372   0.417  -8.629  0.00  0.00    -0.020 C 
ATOM     33  H   LIG d   1       6.111  -0.630  -8.782  0.00  0.00     0.032 H 
BRANCH  32  34
ATOM     34  C   LIG d   1       5.161   1.295  -8.947  0.00  0.00    -0.060 C 
ATOM     35  H   LIG d   1       4.266   0.854  -8.508  0.00  0.00     0.023 H 
ATOM     36  H   LIG d   1       5.315   2.292  -8.531  0.00  0.00     0.023 H 
ATOM     37  H   LIG d   1       5.038   1.368 -10.027  0.00  0.00     0.023 H 
ENDBRANCH  32  34
BRANCH  32  38
ATOM     38  C   LIG d   1       7.530   0.793  -9.554  0.00  0.00    -0.060 C 
ATOM     39  H   LIG d   1       7.324   1.755 -10.024  0.00  0.00     0.023 H 
ATOM     40  H   LIG d   1       8.451   0.862  -8.974  0.00  0.00     0.023 H 
ATOM     41  H   LIG d   1       7.644   0.030 -10.324  0.00  0.00     0.023 H 
ENDBRANCH  32  38
ENDBRANCH   1  32
BRANCH   1  42
ATOM     42  N   LIG d   1       8.123   1.240  -7.132  0.00  0.00    -0.302 N 
ATOM     43  C   LIG d   1       8.491   1.983  -6.070  0.00  0.00     0.234 C 
ATOM     44  O   LIG d   1       7.721   2.149  -5.148  0.00  0.00    -0.274 OA
ATOM     45  H   LIG d   1       8.739   1.106  -7.869  0.00  0.00     0.149 HD
BRANCH  43  46
ATOM     46  C   LIG d   1       9.863   2.607  -6.029  0.00  0.00     0.104 C 
ATOM     47  H   LIG d   1      10.620   1.827  -6.106  0.00  0.00     0.059 H 
ATOM     48  H   LIG d   1       9.971   3.303  -6.861  0.00  0.00     0.059 H 
BRANCH  46  49
ATOM     49  N   LIG d   1      10.033   3.328  -4.765  0.00  0.00    -0.290 N 
ATOM     50  C   LIG d   1       9.746   4.650  -4.703  0.00  0.00     0.262 A 
ATOM     51  C   LIG d   1       9.930   5.323  -3.411  0.00  0.00     0.069 A 
ATOM     52  O   LIG d   1       9.347   5.257  -5.681  0.00  0.00    -0.267 OA
ATOM     53  C   LIG d   1      10.401   4.554  -2.323  0.00  0.00     0.082 A 
ATOM     54  C   LIG d   1       9.657   6.681  -3.244  0.00  0.00    -0.002 A 
ATOM     55  N   LIG d   1      10.658   3.235  -2.513  0.00  0.00    -0.237 NA
ATOM     56  C   LIG d   1      10.591   5.163  -1.083  0.00  0.00     0.010 A 
ATOM     57  C   LIG d   1      10.481   2.666  -3.667  0.00  0.00     0.100 A 
ATOM     58  H   LIG d   1      10.703   1.613  -3.758  0.00  0.00     0.103 H 
ATOM     59  C   LIG d   1      10.318   6.508  -0.931  0.00  0.00     0.164 A 
ATOM     60  H   LIG d   1      10.951   4.585  -0.244  0.00  0.00     0.068 H 
ATOM     61  C   LIG d   1       9.851   7.268  -2.010  0.00  0.00     0.162 A 
ATOM     62  H   LIG d   1       9.297   7.270  -4.074  0.00  0.00     0.066 H 
BRANCH  59  63
ATOM     63  O   LIG d   1      10.504   7.101   0.277  0.00  0.00    -0.491 OA
BRANCH  63  64
ATOM     64  C   LIG d   1      11.112   6.310   1.300  0.00  0.00     0.079 C 
ATOM     65  H   LIG d   1      11.014   5.253   1.049  0.00  0.00     0.066 H 
ATOM     66  H   LIG d   1      12.168   6.568   1.380  0.00  0.00     0.066 H 
ATOM     67  H   LIG d   1      10.617   6.504   2.251  0.00  0.00     0.066 H 
ENDBRANCH  63  64
ENDBRANCH  59  63
BRANCH  61  68
ATOM     68  O   LIG d   1       9.587   8.590  -1.841  0.00  0.00    -0.491 OA
BRANCH  68  69
ATOM     69  C   LIG d   1      10.259   9.503  -2.713  0.00  0.00     0.079 C 
ATOM     70  H   LIG d   1      11.215   9.078  -3.018  0.00  0.00     0.066 H 
ATOM     71  H   LIG d   1       9.643   9.682  -3.594  0.00  0.00     0.066 H 
ATOM     72  H   LIG d   1      10.428  10.444  -2.191  0.00  0.00     0.066 H 
ENDBRANCH  68  69
ENDBRANCH  61  68
ENDBRANCH  46  49
ENDBRANCH  43  46
ENDBRANCH   1  42
TORSDOF 19
ENDMDL
MODEL 4
REMARK VINA RESULT:      -5.9      5.119     10.144
REMARK  19 active torsions:
REMARK  status: ('A' for Active; 'I' for Inactive)
REMARK    1  A    between atoms: C_1  and  C_2 
REMARK    2  A    between atoms: C_2  and  C_4 
REMARK    3  A    between atoms: C_2  and  N_10 
REMARK    4  A    between atoms: C_4  and  C_5 
REMARK    5  A    between atoms: C_5  and  C_6 
REMARK    6  A    between atoms: C_6  and  C_7 
REMARK    7  A    between atoms: C_7  and  C_8 
REMARK    8  A    between atoms: C_7  and  C_9 
REMARK       I    between atoms: N_10  and  C_11 
REMARK    9  A    between atoms: C_11  and  C_13 
REMARK   10  A    between atoms: C_13  and  C_15 
REMARK   11  A    between atoms: C_13  and  N_18 
REMARK   12  A    between atoms: C_15  and  C_16 
REMARK   13  A    between atoms: C_15  and  C_17 
REMARK       I    between atoms: N_18  and  C_19 
REMARK   14  A    between atoms: C_19  and  C_21 
REMARK   15  A    between atoms: C_21  and  N_22 
REMARK   16  A    between atoms: C_27  and  O_35 
REMARK   17  A    between atoms: C_28  and  O_33 
REMARK   18  A    between atoms: O_33  and  C_34 
REMARK   19  A    between atoms: O_35  and  C_36 
ROOT
ATOM      1  C   LIG d   1       3.736   0.062  -6.757  0.00  0.00     0.102 C 
ATOM      2  H   LIG d   1       4.170   1.054  -6.873  0.00  0.00     0.060 H 
ENDROOT
BRANCH   1   3
ATOM      3  C   LIG d   1       3.098  -0.052  -5.397  0.00  0.00     0.234 C 
ATOM      4  N   LIG d   1       3.520  -0.995  -4.531  0.00  0.00    -0.311 N 
ATOM      5  H   LIG d   1       4.185  -1.644  -4.807  0.00  0.00     0.149 HD
ATOM      6  O   LIG d   1       2.205   0.704  -5.081  0.00  0.00    -0.274 OA
BRANCH   4   7
ATOM      7  C   LIG d   1       2.974  -1.038  -3.172  0.00  0.00     0.020 C 
ATOM      8  H   LIG d   1       1.896  -1.192  -3.219  0.00  0.00     0.050 H 
BRANCH   7   9
ATOM      9  C   LIG d   1       3.621  -2.190  -2.400  0.00  0.00    -0.047 C 
ATOM     10  H   LIG d   1       4.646  -2.327  -2.743  0.00  0.00     0.025 H 
ATOM     11  H   LIG d   1       3.623  -1.957  -1.335  0.00  0.00     0.025 H 
ATOM     12  H   LIG d   1       3.055  -3.105  -2.570  0.00  0.00     0.025 H 
ENDBRANCH   7   9
BRANCH   7  13
ATOM     13  C   LIG d   1       3.272   0.284  -2.461  0.00  0.00    -0.035 C 
ATOM     14  H   LIG d   1       3.118   1.112  -3.154  0.00  0.00     0.028 H 
ATOM     15  H   LIG d   1       2.604   0.395  -1.608  0.00  0.00     0.028 H 
BRANCH  13  16
ATOM     16  C   LIG d   1       4.723   0.287  -1.977  0.00  0.00    -0.051 C 
ATOM     17  H   LIG d   1       4.747   0.458  -0.901  0.00  0.00     0.027 H 
ATOM     18  H   LIG d   1       5.183  -0.676  -2.202  0.00  0.00     0.027 H 
BRANCH  16  19
ATOM     19  C   LIG d   1       5.496   1.399  -2.690  0.00  0.00    -0.051 C 
ATOM     20  H   LIG d   1       4.796   2.054  -3.206  0.00  0.00     0.027 H 
ATOM     21  H   LIG d   1       6.061   1.975  -1.957  0.00  0.00     0.027 H 
BRANCH  19  22
ATOM     22  C   LIG d   1       6.460   0.781  -3.704  0.00  0.00    -0.047 C 
ATOM     23  H   LIG d   1       5.979   0.733  -4.681  0.00  0.00     0.029 H 
BRANCH  22  24
ATOM     24  C   LIG d   1       7.721   1.642  -3.799  0.00  0.00    -0.063 C 
ATOM     25  H   LIG d   1       7.594   2.388  -4.583  0.00  0.00     0.023 H 
ATOM     26  H   LIG d   1       7.892   2.143  -2.846  0.00  0.00     0.023 H 
ATOM     27  H   LIG d   1       8.577   1.010  -4.035  0.00  0.00     0.023 H 
ENDBRANCH  22  24
BRANCH  22  28
ATOM     28  C   LIG d   1       6.840  -0.630  -3.253  0.00  0.00    -0.063 C 
ATOM     29  H   LIG d   1       6.264  -0.894  -2.366  0.00  0.00     0.023 H 
ATOM     30  H   LIG d   1       6.622  -1.339  -4.052  0.00  0.00     0.023 H 
ATOM     31  H   LIG d   1       7.904  -0.663  -3.018  0.00  0.00     0.023 H 
ENDBRANCH  22  28
ENDBRANCH  19  22
ENDBRANCH  16  19
ENDBRANCH  13  16
ENDBRANCH   7  13
ENDBRANCH   4   7
ENDBRANCH   1   3
BRANCH   1  32
ATOM     32  C   LIG d   1       2.675  -0.158  -7.838  0.00  0.00    -0.020 C 
ATOM     33  H   LIG d   1       1.694  -0.253  -7.371  0.00  0.00     0.032 H 
BRANCH  32  34
ATOM     34  C   LIG d   1       2.669   1.034  -8.796  0.00  0.00    -0.060 C 
ATOM     35  H   LIG d   1       2.116   1.860  -8.346  0.00  0.00     0.023 H 
ATOM     36  H   LIG d   1       3.694   1.348  -8.993  0.00  0.00     0.023 H 
ATOM     37  H   LIG d   1       2.192   0.746  -9.733  0.00  0.00     0.023 H 
ENDBRANCH  32  34
BRANCH  32  38
ATOM     38  C   LIG d   1       2.995  -1.435  -8.616  0.00  0.00    -0.060 C 
ATOM     39  H   LIG d   1       3.782  -1.987  -8.102  0.00  0.00     0.023 H 
ATOM     40  H   LIG d   1       2.100  -2.055  -8.682  0.00  0.00     0.023 H 
ATOM     41  H   LIG d   1       3.331  -1.175  -9.620  0.00  0.00     0.023 H 
ENDBRANCH  32  38
ENDBRANCH   1  32
BRANCH   1  42
ATOM     42  N   LIG d   1       4.786  -0.951  -6.891  0.00  0.00    -0.302 N 
ATOM     43  C   LIG d   1       6.057  -0.575  -7.131  0.00  0.00     0.234 C 
ATOM     44  O   LIG d   1       6.332   0.602  -7.238  0.00  0.00    -0.274 OA
ATOM     45  H   LIG d   1       4.565  -1.892  -6.805  0.00  0.00     0.149 HD
BRANCH  43  46
ATOM     46  C   LIG d   1       7.137  -1.617  -7.268  0.00  0.00     0.104 C 
ATOM     47  H   LIG d   1       7.795  -1.352  -8.096  0.00  0.00     0.059 H 
ATOM     48  H   LIG d   1       7.715  -1.665  -6.346  0.00  0.00     0.059 H 
BRANCH  46  49
ATOM     49  N   LIG d   1       6.526  -2.923  -7.530  0.00  0.00    -0.290 N 
ATOM     50  C   LIG d   1       6.236  -3.746  -6.495  0.00  0.00     0.262 A 
ATOM     51  C   LIG d   1       5.620  -5.041  -6.814  0.00  0.00     0.069 A 
ATOM     52  O   LIG d   1       6.473  -3.424  -5.345  0.00  0.00    -0.267 OA
ATOM     53  C   LIG d   1       5.380  -5.346  -8.172  0.00  0.00     0.082 A 
ATOM     54  C   LIG d   1       5.279  -5.958  -5.818  0.00  0.00    -0.002 A 
ATOM     55  N   LIG d   1       5.721  -4.437  -9.120  0.00  0.00    -0.237 NA
ATOM     56  C   LIG d   1       4.801  -6.570  -8.509  0.00  0.00     0.010 A 
ATOM     57  C   LIG d   1       6.260  -3.298  -8.809  0.00  0.00     0.100 A 
ATOM     58  H   LIG d   1       6.510  -2.614  -9.606  0.00  0.00     0.103 H 
ATOM     59  C   LIG d   1       4.469  -7.468  -7.515  0.00  0.00     0.164 A 
ATOM     60  H   LIG d   1       4.613  -6.814  -9.545  0.00  0.00     0.068 H 
ATOM     61  C   LIG d   1       4.707  -7.163  -6.169  0.00  0.00     0.162 A 
ATOM     62  H   LIG d   1       5.462  -5.726  -4.780  0.00  0.00     0.066 H 
BRANCH  59  63
ATOM     63  O   LIG d   1       3.905  -8.659  -7.844  0.00  0.00    -0.491 OA
BRANCH  63  64
ATOM     64  C   LIG d   1       3.863  -8.994  -9.232  0.00  0.00     0.079 C 
ATOM     65  H   LIG d   1       4.774  -9.527  -9.506  0.00  0.00     0.066 H 
ATOM     66  H   LIG d   1       2.999  -9.629  -9.427  0.00  0.00     0.066 H 
ATOM     67  H   LIG d   1       3.784  -8.082  -9.823  0.00  0.00     0.066 H 
ENDBRANCH  63  64
ENDBRANCH  59  63
BRANCH  61  68
ATOM     68  O   LIG d   1       4.373  -8.060  -5.204  0.00  0.00    -0.491 OA
BRANCH  68  69
ATOM     69  C   LIG d   1       5.409  -8.927  -4.737  0.00  0.00     0.079 C 
ATOM     70  H   LIG d   1       5.322  -9.896  -5.227  0.00  0.00     0.066 H 
ATOM     71  H   LIG d   1       6.380  -8.489  -4.968  0.00  0.00     0.066 H 
ATOM     72  H   LIG d   1       5.316  -9.055  -3.659  0.00  0.00     0.066 H 
ENDBRANCH  68  69
ENDBRANCH  61  68
ENDBRANCH  46  49
ENDBRANCH  43  46
ENDBRANCH   1  42
TORSDOF 19
ENDMDL
MODEL 5
REMARK VINA RESULT:      -5.9      5.072      7.580
REMARK  19 active torsions:
REMARK  status: ('A' for Active; 'I' for Inactive)
REMARK    1  A    between atoms: C_1  and  C_2 
REMARK    2  A    between atoms: C_2  and  C_4 
REMARK    3  A    between atoms: C_2  and  N_10 
REMARK    4  A    between atoms: C_4  and  C_5 
REMARK    5  A    between atoms: C_5  and  C_6 
REMARK    6  A    between atoms: C_6  and  C_7 
REMARK    7  A    between atoms: C_7  and  C_8 
REMARK    8  A    between atoms: C_7  and  C_9 
REMARK       I    between atoms: N_10  and  C_11 
REMARK    9  A    between atoms: C_11  and  C_13 
REMARK   10  A    between atoms: C_13  and  C_15 
REMARK   11  A    between atoms: C_13  and  N_18 
REMARK   12  A    between atoms: C_15  and  C_16 
REMARK   13  A    between atoms: C_15  and  C_17 
REMARK       I    between atoms: N_18  and  C_19 
REMARK   14  A    between atoms: C_19  and  C_21 
REMARK   15  A    between atoms: C_21  and  N_22 
REMARK   16  A    between atoms: C_27  and  O_35 
REMARK   17  A    between atoms: C_28  and  O_33 
REMARK   18  A    between atoms: O_33  and  C_34 
REMARK   19  A    between atoms: O_35  and  C_36 
ROOT
ATOM      1  C   LIG d   1       3.613   0.478  -6.851  0.00  0.00     0.102 C 
ATOM      2  H   LIG d   1       4.243   1.359  -6.727  0.00  0.00     0.060 H 
ENDROOT
BRANCH   1   3
ATOM      3  C   LIG d   1       3.008   0.102  -5.523  0.00  0.00     0.234 C 
ATOM      4  N   LIG d   1       3.630  -0.792  -4.728  0.00  0.00    -0.311 N 
ATOM      5  H   LIG d   1       4.430  -1.244  -5.039  0.00  0.00     0.149 HD
ATOM      6  O   LIG d   1       1.962   0.601  -5.170  0.00  0.00    -0.274 OA
BRANCH   4   7
ATOM      7  C   LIG d   1       3.098  -1.079  -3.393  0.00  0.00     0.020 C 
ATOM      8  H   LIG d   1       2.032  -1.296  -3.466  0.00  0.00     0.050 H 
BRANCH   7   9
ATOM      9  C   LIG d   1       3.826  -2.288  -2.804  0.00  0.00    -0.047 C 
ATOM     10  H   LIG d   1       4.533  -1.953  -2.045  0.00  0.00     0.025 H 
ATOM     11  H   LIG d   1       3.101  -2.964  -2.351  0.00  0.00     0.025 H 
ATOM     12  H   LIG d   1       4.364  -2.810  -3.595  0.00  0.00     0.025 H 
ENDBRANCH   7   9
BRANCH   7  13
ATOM     13  C   LIG d   1       3.311   0.136  -2.487  0.00  0.00    -0.035 C 
ATOM     14  H   LIG d   1       3.085   1.047  -3.042  0.00  0.00     0.028 H 
ATOM     15  H   LIG d   1       2.653   0.064  -1.622  0.00  0.00     0.028 H 
BRANCH  13  16
ATOM     16  C   LIG d   1       4.768   0.174  -2.019  0.00  0.00    -0.051 C 
ATOM     17  H   LIG d   1       4.798   0.311  -0.939  0.00  0.00     0.027 H 
ATOM     18  H   LIG d   1       5.257  -0.765  -2.281  0.00  0.00     0.027 H 
BRANCH  16  19
ATOM     19  C   LIG d   1       5.493   1.335  -2.703  0.00  0.00    -0.051 C 
ATOM     20  H   LIG d   1       4.766   1.974  -3.201  0.00  0.00     0.027 H 
ATOM     21  H   LIG d   1       6.035   1.914  -1.955  0.00  0.00     0.027 H 
BRANCH  19  22
ATOM     22  C   LIG d   1       6.481   0.783  -3.734  0.00  0.00    -0.047 C 
ATOM     23  H   LIG d   1       5.987   0.701  -4.702  0.00  0.00     0.029 H 
BRANCH  22  24
ATOM     24  C   LIG d   1       7.678   1.729  -3.850  0.00  0.00    -0.063 C 
ATOM     25  H   LIG d   1       8.390   1.327  -4.569  0.00  0.00     0.023 H 
ATOM     26  H   LIG d   1       7.336   2.708  -4.185  0.00  0.00     0.023 H 
ATOM     27  H   LIG d   1       8.160   1.827  -2.877  0.00  0.00     0.023 H 
ENDBRANCH  22  24
BRANCH  22  28
ATOM     28  C   LIG d   1       6.964  -0.598  -3.288  0.00  0.00    -0.063 C 
ATOM     29  H   LIG d   1       6.106  -1.213  -3.017  0.00  0.00     0.023 H 
ATOM     30  H   LIG d   1       7.508  -1.073  -4.104  0.00  0.00     0.023 H 
ATOM     31  H   LIG d   1       7.622  -0.492  -2.425  0.00  0.00     0.023 H 
ENDBRANCH  22  28
ENDBRANCH  19  22
ENDBRANCH  16  19
ENDBRANCH  13  16
ENDBRANCH   7  13
ENDBRANCH   4   7
ENDBRANCH   1   3
BRANCH   1  32
ATOM     32  C   LIG d   1       2.497   0.787  -7.851  0.00  0.00    -0.020 C 
ATOM     33  H   LIG d   1       1.580   1.021  -7.311  0.00  0.00     0.032 H 
BRANCH  32  34
ATOM     34  C   LIG d   1       2.901   1.986  -8.711  0.00  0.00    -0.060 C 
ATOM     35  H   LIG d   1       3.858   2.377  -8.364  0.00  0.00     0.023 H 
ATOM     36  H   LIG d   1       2.993   1.672  -9.752  0.00  0.00     0.023 H 
ATOM     37  H   LIG d   1       2.141   2.763  -8.632  0.00  0.00     0.023 H 
ENDBRANCH  32  34
BRANCH  32  38
ATOM     38  C   LIG d   1       2.264  -0.429  -8.749  0.00  0.00    -0.060 C 
ATOM     39  H   LIG d   1       2.121  -1.316  -8.131  0.00  0.00     0.023 H 
ATOM     40  H   LIG d   1       1.376  -0.265  -9.360  0.00  0.00     0.023 H 
ATOM     41  H   LIG d   1       3.128  -0.574  -9.397  0.00  0.00     0.023 H 
ENDBRANCH  32  38
ENDBRANCH   1  32
BRANCH   1  42
ATOM     42  N   LIG d   1       4.424  -0.635  -7.352  0.00  0.00    -0.302 N 
ATOM     43  C   LIG d   1       5.748  -0.474  -7.538  0.00  0.00     0.234 C 
ATOM     44  O   LIG d   1       6.270   0.593  -7.291  0.00  0.00    -0.274 OA
ATOM     45  H   LIG d   1       4.006  -1.488  -7.549  0.00  0.00     0.149 HD
BRANCH  43  46
ATOM     46  C   LIG d   1       6.581  -1.620  -8.053  0.00  0.00     0.104 C 
ATOM     47  H   LIG d   1       5.942  -2.321  -8.590  0.00  0.00     0.059 H 
ATOM     48  H   LIG d   1       7.348  -1.238  -8.727  0.00  0.00     0.059 H 
BRANCH  46  49
ATOM     49  N   LIG d   1       7.219  -2.305  -6.927  0.00  0.00    -0.290 N 
ATOM     50  C   LIG d   1       8.528  -2.084  -6.661  0.00  0.00     0.262 A 
ATOM     51  C   LIG d   1       9.115  -2.794  -5.518  0.00  0.00     0.069 A 
ATOM     52  O   LIG d   1       9.191  -1.323  -7.343  0.00  0.00    -0.267 OA
ATOM     53  C   LIG d   1       8.284  -3.664  -4.778  0.00  0.00     0.082 A 
ATOM     54  C   LIG d   1      10.454  -2.629  -5.160  0.00  0.00    -0.002 A 
ATOM     55  N   LIG d   1       6.985  -3.805  -5.147  0.00  0.00    -0.237 NA
ATOM     56  C   LIG d   1       8.812  -4.357  -3.688  0.00  0.00     0.010 A 
ATOM     57  C   LIG d   1       6.492  -3.160  -6.160  0.00  0.00     0.100 A 
ATOM     58  H   LIG d   1       5.452  -3.313  -6.407  0.00  0.00     0.103 H 
ATOM     59  C   LIG d   1      10.139  -4.186  -3.345  0.00  0.00     0.164 A 
ATOM     60  H   LIG d   1       8.186  -5.026  -3.116  0.00  0.00     0.068 H 
ATOM     61  C   LIG d   1      10.960  -3.322  -4.080  0.00  0.00     0.162 A 
ATOM     62  H   LIG d   1      11.090  -1.964  -5.724  0.00  0.00     0.066 H 
BRANCH  59  63
ATOM     63  O   LIG d   1      10.652  -4.861  -2.285  0.00  0.00    -0.491 OA
BRANCH  63  64
ATOM     64  C   LIG d   1       9.835  -5.882  -1.710  0.00  0.00     0.079 C 
ATOM     65  H   LIG d   1       8.882  -5.926  -2.238  0.00  0.00     0.066 H 
ATOM     66  H   LIG d   1      10.341  -6.845  -1.794  0.00  0.00     0.066 H 
ATOM     67  H   LIG d   1       9.657  -5.657  -0.659  0.00  0.00     0.066 H 
ENDBRANCH  63  64
ENDBRANCH  59  63
BRANCH  61  68
ATOM     68  O   LIG d   1      12.263  -3.167  -3.726  0.00  0.00    -0.491 OA
BRANCH  68  69
ATOM     69  C   LIG d   1      12.850  -1.884  -3.958  0.00  0.00     0.079 C 
ATOM     70  H   LIG d   1      13.871  -1.876  -3.577  0.00  0.00     0.066 H 
ATOM     71  H   LIG d   1      12.860  -1.678  -5.028  0.00  0.00     0.066 H 
ATOM     72  H   LIG d   1      12.265  -1.120  -3.446  0.00  0.00     0.066 H 
ENDBRANCH  68  69
ENDBRANCH  61  68
ENDBRANCH  46  49
ENDBRANCH  43  46
ENDBRANCH   1  42
TORSDOF 19
ENDMDL
MODEL 6
REMARK VINA RESULT:      -5.8      2.043      3.636
REMARK  19 active torsions:
REMARK  status: ('A' for Active; 'I' for Inactive)
REMARK    1  A    between atoms: C_1  and  C_2 
REMARK    2  A    between atoms: C_2  and  C_4 
REMARK    3  A    between atoms: C_2  and  N_10 
REMARK    4  A    between atoms: C_4  and  C_5 
REMARK    5  A    between atoms: C_5  and  C_6 
REMARK    6  A    between atoms: C_6  and  C_7 
REMARK    7  A    between atoms: C_7  and  C_8 
REMARK    8  A    between atoms: C_7  and  C_9 
REMARK       I    between atoms: N_10  and  C_11 
REMARK    9  A    between atoms: C_11  and  C_13 
REMARK   10  A    between atoms: C_13  and  C_15 
REMARK   11  A    between atoms: C_13  and  N_18 
REMARK   12  A    between atoms: C_15  and  C_16 
REMARK   13  A    between atoms: C_15  and  C_17 
REMARK       I    between atoms: N_18  and  C_19 
REMARK   14  A    between atoms: C_19  and  C_21 
REMARK   15  A    between atoms: C_21  and  N_22 
REMARK   16  A    between atoms: C_27  and  O_35 
REMARK   17  A    between atoms: C_28  and  O_33 
REMARK   18  A    between atoms: O_33  and  C_34 
REMARK   19  A    between atoms: O_35  and  C_36 
ROOT
ATOM      1  C   LIG d   1       7.235  -1.243  -5.795  0.00  0.00     0.102 C 
ATOM      2  H   LIG d   1       7.677  -1.911  -6.534  0.00  0.00     0.060 H 
ENDROOT
BRANCH   1   3
ATOM      3  C   LIG d   1       6.239  -0.336  -6.470  0.00  0.00     0.234 C 
ATOM      4  N   LIG d   1       4.965  -0.742  -6.642  0.00  0.00    -0.311 N 
ATOM      5  H   LIG d   1       4.706  -1.643  -6.393  0.00  0.00     0.149 HD
ATOM      6  O   LIG d   1       6.583   0.759  -6.860  0.00  0.00    -0.274 OA
BRANCH   4   7
ATOM      7  C   LIG d   1       3.972   0.178  -7.202  0.00  0.00     0.020 C 
ATOM      8  H   LIG d   1       4.441   1.143  -7.398  0.00  0.00     0.050 H 
BRANCH   7   9
ATOM      9  C   LIG d   1       3.424  -0.398  -8.509  0.00  0.00    -0.047 C 
ATOM     10  H   LIG d   1       2.382  -0.686  -8.370  0.00  0.00     0.025 H 
ATOM     11  H   LIG d   1       3.491   0.355  -9.294  0.00  0.00     0.025 H 
ATOM     12  H   LIG d   1       4.008  -1.273  -8.794  0.00  0.00     0.025 H 
ENDBRANCH   7   9
BRANCH   7  13
ATOM     13  C   LIG d   1       2.826   0.360  -6.204  0.00  0.00    -0.035 C 
ATOM     14  H   LIG d   1       2.606   1.422  -6.093  0.00  0.00     0.028 H 
ATOM     15  H   LIG d   1       1.940  -0.158  -6.570  0.00  0.00     0.028 H 
BRANCH  13  16
ATOM     16  C   LIG d   1       3.234  -0.220  -4.848  0.00  0.00    -0.051 C 
ATOM     17  H   LIG d   1       2.543  -1.016  -4.572  0.00  0.00     0.027 H 
ATOM     18  H   LIG d   1       4.244  -0.623  -4.914  0.00  0.00     0.027 H 
BRANCH  16  19
ATOM     19  C   LIG d   1       3.193   0.883  -3.789  0.00  0.00    -0.051 C 
ATOM     20  H   LIG d   1       4.012   1.581  -3.959  0.00  0.00     0.027 H 
ATOM     21  H   LIG d   1       2.244   1.415  -3.854  0.00  0.00     0.027 H 
BRANCH  19  22
ATOM     22  C   LIG d   1       3.333   0.260  -2.398  0.00  0.00    -0.047 C 
ATOM     23  H   LIG d   1       2.457   0.509  -1.799  0.00  0.00     0.029 H 
BRANCH  22  24
ATOM     24  C   LIG d   1       3.446  -1.260  -2.530  0.00  0.00    -0.063 C 
ATOM     25  H   LIG d   1       2.475  -1.674  -2.803  0.00  0.00     0.023 H 
ATOM     26  H   LIG d   1       4.175  -1.505  -3.302  0.00  0.00     0.023 H 
ATOM     27  H   LIG d   1       3.767  -1.685  -1.579  0.00  0.00     0.023 H 
ENDBRANCH  22  24
BRANCH  22  28
ATOM     28  C   LIG d   1       4.588   0.807  -1.718  0.00  0.00    -0.063 C 
ATOM     29  H   LIG d   1       5.051   0.021  -1.122  0.00  0.00     0.023 H 
ATOM     30  H   LIG d   1       5.293   1.150  -2.476  0.00  0.00     0.023 H 
ATOM     31  H   LIG d   1       4.317   1.642  -1.070  0.00  0.00     0.023 H 
ENDBRANCH  22  28
ENDBRANCH  19  22
ENDBRANCH  16  19
ENDBRANCH  13  16
ENDBRANCH   7  13
ENDBRANCH   4   7
ENDBRANCH   1   3
BRANCH   1  32
ATOM     32  C   LIG d   1       6.525  -2.069  -4.721  0.00  0.00    -0.020 C 
ATOM     33  H   LIG d   1       5.447  -1.931  -4.808  0.00  0.00     0.032 H 
BRANCH  32  34
ATOM     34  C   LIG d   1       6.864  -3.549  -4.910  0.00  0.00    -0.060 C 
ATOM     35  H   LIG d   1       6.135  -4.008  -5.577  0.00  0.00     0.023 H 
ATOM     36  H   LIG d   1       7.861  -3.641  -5.343  0.00  0.00     0.023 H 
ATOM     37  H   LIG d   1       6.841  -4.054  -3.944  0.00  0.00     0.023 H 
ENDBRANCH  32  34
BRANCH  32  38
ATOM     38  C   LIG d   1       6.987  -1.614  -3.337  0.00  0.00    -0.060 C 
ATOM     39  H   LIG d   1       6.726  -0.565  -3.193  0.00  0.00     0.023 H 
ATOM     40  H   LIG d   1       6.497  -2.218  -2.572  0.00  0.00     0.023 H 
ATOM     41  H   LIG d   1       8.067  -1.733  -3.255  0.00  0.00     0.023 H 
ENDBRANCH  32  38
ENDBRANCH   1  32
BRANCH   1  42
ATOM     42  N   LIG d   1       8.288  -0.436  -5.174  0.00  0.00    -0.302 N 
ATOM     43  C   LIG d   1       9.542  -0.473  -5.665  0.00  0.00     0.234 C 
ATOM     44  O   LIG d   1       9.800  -1.174  -6.621  0.00  0.00    -0.274 OA
ATOM     45  H   LIG d   1       8.082   0.124  -4.409  0.00  0.00     0.149 HD
BRANCH  43  46
ATOM     46  C   LIG d   1      10.626   0.357  -5.025  0.00  0.00     0.104 C 
ATOM     47  H   LIG d   1      10.638   0.173  -3.950  0.00  0.00     0.059 H 
ATOM     48  H   LIG d   1      11.591   0.086  -5.451  0.00  0.00     0.059 H 
BRANCH  46  49
ATOM     49  N   LIG d   1      10.364   1.777  -5.273  0.00  0.00    -0.290 N 
ATOM     50  C   LIG d   1      10.209   2.623  -4.228  0.00  0.00     0.262 A 
ATOM     51  C   LIG d   1       9.951   4.036  -4.534  0.00  0.00     0.069 A 
ATOM     52  O   LIG d   1      10.283   2.228  -3.078  0.00  0.00    -0.267 OA
ATOM     53  C   LIG d   1       9.874   4.418  -5.892  0.00  0.00     0.082 A 
ATOM     54  C   LIG d   1       9.782   4.988  -3.526  0.00  0.00    -0.002 A 
ATOM     55  N   LIG d   1      10.042   3.473  -6.851  0.00  0.00    -0.237 NA
ATOM     56  C   LIG d   1       9.626   5.752  -6.216  0.00  0.00     0.010 A 
ATOM     57  C   LIG d   1      10.273   2.232  -6.551  0.00  0.00     0.100 A 
ATOM     58  H   LIG d   1      10.398   1.524  -7.357  0.00  0.00     0.103 H 
ATOM     59  C   LIG d   1       9.459   6.683  -5.211  0.00  0.00     0.164 A 
ATOM     60  H   LIG d   1       9.563   6.056  -7.252  0.00  0.00     0.068 H 
ATOM     61  C   LIG d   1       9.538   6.302  -3.866  0.00  0.00     0.162 A 
ATOM     62  H   LIG d   1       9.842   4.697  -2.489  0.00  0.00     0.066 H 
BRANCH  59  63
ATOM     63  O   LIG d   1       9.218   7.981  -5.528  0.00  0.00    -0.491 OA
BRANCH  63  64
ATOM     64  C   LIG d   1       9.296   8.336  -6.910  0.00  0.00     0.079 C 
ATOM     65  H   LIG d   1      10.108   7.782  -7.382  0.00  0.00     0.066 H 
ATOM     66  H   LIG d   1       8.355   8.090  -7.402  0.00  0.00     0.066 H 
ATOM     67  H   LIG d   1       9.485   9.405  -7.000  0.00  0.00     0.066 H 
ENDBRANCH  63  64
ENDBRANCH  59  63
BRANCH  61  68
ATOM     68  O   LIG d   1       9.372   7.233  -2.889  0.00  0.00    -0.491 OA
BRANCH  68  69
ATOM     69  C   LIG d   1       9.812   6.881  -1.575  0.00  0.00     0.079 C 
ATOM     70  H   LIG d   1      10.894   6.993  -1.511  0.00  0.00     0.066 H 
ATOM     71  H   LIG d   1       9.335   7.536  -0.846  0.00  0.00     0.066 H 
ATOM     72  H   LIG d   1       9.540   5.847  -1.367  0.00  0.00     0.066 H 
ENDBRANCH  68  69
ENDBRANCH  61  68
ENDBRANCH  46  49
ENDBRANCH  43  46
ENDBRANCH   1  42
TORSDOF 19
ENDMDL
MODEL 7
REMARK VINA RESULT:      -5.8      2.430      4.207
REMARK  19 active torsions:
REMARK  status: ('A' for Active; 'I' for Inactive)
REMARK    1  A    between atoms: C_1  and  C_2 
REMARK    2  A    between atoms: C_2  and  C_4 
REMARK    3  A    between atoms: C_2  and  N_10 
REMARK    4  A    between atoms: C_4  and  C_5 
REMARK    5  A    between atoms: C_5  and  C_6 
REMARK    6  A    between atoms: C_6  and  C_7 
REMARK    7  A    between atoms: C_7  and  C_8 
REMARK    8  A    between atoms: C_7  and  C_9 
REMARK       I    between atoms: N_10  and  C_11 
REMARK    9  A    between atoms: C_11  and  C_13 
REMARK   10  A    between atoms: C_13  and  C_15 
REMARK   11  A    between atoms: C_13  and  N_18 
REMARK   12  A    between atoms: C_15  and  C_16 
REMARK   13  A    between atoms: C_15  and  C_17 
REMARK       I    between atoms: N_18  and  C_19 
REMARK   14  A    between atoms: C_19  and  C_21 
REMARK   15  A    between atoms: C_21  and  N_22 
REMARK   16  A    between atoms: C_27  and  O_35 
REMARK   17  A    between atoms: C_28  and  O_33 
REMARK   18  A    between atoms: O_33  and  C_34 
REMARK   19  A    between atoms: O_35  and  C_36 
ROOT
ATOM      1  C   LIG d   1       9.989   3.009  -4.412  0.00  0.00     0.102 C 
ATOM      2  H   LIG d   1       9.958   3.952  -4.957  0.00  0.00     0.060 H 
ENDROOT
BRANCH   1   3
ATOM      3  C   LIG d   1       8.691   2.270  -4.614  0.00  0.00     0.234 C 
ATOM      4  N   LIG d   1       8.266   1.389  -3.685  0.00  0.00    -0.311 N 
ATOM      5  H   LIG d   1       8.827   1.180  -2.922  0.00  0.00     0.149 HD
ATOM      6  O   LIG d   1       8.030   2.466  -5.610  0.00  0.00    -0.274 OA
BRANCH   4   7
ATOM      7  C   LIG d   1       6.956   0.750  -3.828  0.00  0.00     0.020 C 
ATOM      8  H   LIG d   1       6.633   0.813  -4.868  0.00  0.00     0.050 H 
BRANCH   7   9
ATOM      9  C   LIG d   1       7.058  -0.719  -3.414  0.00  0.00    -0.047 C 
ATOM     10  H   LIG d   1       6.119  -1.034  -2.958  0.00  0.00     0.025 H 
ATOM     11  H   LIG d   1       7.258  -1.332  -4.293  0.00  0.00     0.025 H 
ATOM     12  H   LIG d   1       7.869  -0.839  -2.695  0.00  0.00     0.025 H 
ENDBRANCH   7   9
BRANCH   7  13
ATOM     13  C   LIG d   1       5.940   1.463  -2.933  0.00  0.00    -0.035 C 
ATOM     14  H   LIG d   1       6.467   2.085  -2.209  0.00  0.00     0.028 H 
ATOM     15  H   LIG d   1       5.292   2.089  -3.546  0.00  0.00     0.028 H 
BRANCH  13  16
ATOM     16  C   LIG d   1       5.094   0.424  -2.194  0.00  0.00    -0.051 C 
ATOM     17  H   LIG d   1       5.223  -0.550  -2.664  0.00  0.00     0.027 H 
ATOM     18  H   LIG d   1       5.413   0.371  -1.153  0.00  0.00     0.027 H 
BRANCH  16  19
ATOM     19  C   LIG d   1       3.620   0.830  -2.254  0.00  0.00    -0.051 C 
ATOM     20  H   LIG d   1       3.243   0.980  -1.244  0.00  0.00     0.027 H 
ATOM     21  H   LIG d   1       3.522   1.757  -2.820  0.00  0.00     0.027 H 
BRANCH  19  22
ATOM     22  C   LIG d   1       2.815  -0.274  -2.942  0.00  0.00    -0.047 C 
ATOM     23  H   LIG d   1       1.796  -0.277  -2.553  0.00  0.00     0.029 H 
BRANCH  22  24
ATOM     24  C   LIG d   1       2.785  -0.019  -4.450  0.00  0.00    -0.063 C 
ATOM     25  H   LIG d   1       2.515   1.020  -4.638  0.00  0.00     0.023 H 
ATOM     26  H   LIG d   1       3.769  -0.221  -4.873  0.00  0.00     0.023 H 
ATOM     27  H   LIG d   1       2.048  -0.674  -4.915  0.00  0.00     0.023 H 
ENDBRANCH  22  24
BRANCH  22  28
ATOM     28  C   LIG d   1       3.469  -1.629  -2.667  0.00  0.00    -0.063 C 
ATOM     29  H   LIG d   1       4.080  -1.561  -1.767  0.00  0.00     0.023 H 
ATOM     30  H   LIG d   1       2.697  -2.384  -2.525  0.00  0.00     0.023 H 
ATOM     31  H   LIG d   1       4.099  -1.907  -3.513  0.00  0.00     0.023 H 
ENDBRANCH  22  28
ENDBRANCH  19  22
ENDBRANCH  16  19
ENDBRANCH  13  16
ENDBRANCH   7  13
ENDBRANCH   4   7
ENDBRANCH   1   3
BRANCH   1  32
ATOM     32  C   LIG d   1      11.147   2.157  -4.936  0.00  0.00    -0.020 C 
ATOM     33  H   LIG d   1      10.757   1.371  -5.583  0.00  0.00     0.032 H 
BRANCH  32  34
ATOM     34  C   LIG d   1      12.110   3.041  -5.731  0.00  0.00    -0.060 C 
ATOM     35  H   LIG d   1      12.653   2.430  -6.453  0.00  0.00     0.023 H 
ATOM     36  H   LIG d   1      11.546   3.811  -6.258  0.00  0.00     0.023 H 
ATOM     37  H   LIG d   1      12.818   3.512  -5.049  0.00  0.00     0.023 H 
ENDBRANCH  32  34
BRANCH  32  38
ATOM     38  C   LIG d   1      11.890   1.525  -3.758  0.00  0.00    -0.060 C 
ATOM     39  H   LIG d   1      12.089   2.286  -3.003  0.00  0.00     0.023 H 
ATOM     40  H   LIG d   1      11.278   0.734  -3.324  0.00  0.00     0.023 H 
ATOM     41  H   LIG d   1      12.833   1.105  -4.106  0.00  0.00     0.023 H 
ENDBRANCH  32  38
ENDBRANCH   1  32
BRANCH   1  42
ATOM     42  N   LIG d   1      10.184   3.274  -2.985  0.00  0.00    -0.302 N 
ATOM     43  C   LIG d   1      10.696   4.454  -2.583  0.00  0.00     0.234 C 
ATOM     44  O   LIG d   1      10.996   5.296  -3.403  0.00  0.00    -0.274 OA
ATOM     45  H   LIG d   1       9.944   2.600  -2.330  0.00  0.00     0.149 HD
BRANCH  43  46
ATOM     46  C   LIG d   1      10.897   4.726  -1.114  0.00  0.00     0.104 C 
ATOM     47  H   LIG d   1      10.216   4.104  -0.533  0.00  0.00     0.059 H 
ATOM     48  H   LIG d   1      11.925   4.496  -0.839  0.00  0.00     0.059 H 
BRANCH  46  49
ATOM     49  N   LIG d   1      10.622   6.138  -0.838  0.00  0.00    -0.290 N 
ATOM     50  C   LIG d   1      11.340   6.789   0.108  0.00  0.00     0.262 A 
ATOM     51  C   LIG d   1      11.025   8.204   0.342  0.00  0.00     0.069 A 
ATOM     52  O   LIG d   1      12.215   6.222   0.738  0.00  0.00    -0.267 OA
ATOM     53  C   LIG d   1       9.993   8.791  -0.424  0.00  0.00     0.082 A 
ATOM     54  C   LIG d   1      11.712   8.963   1.291  0.00  0.00    -0.002 A 
ATOM     55  N   LIG d   1       9.342   8.030  -1.341  0.00  0.00    -0.237 NA
ATOM     56  C   LIG d   1       9.666  10.132  -0.224  0.00  0.00     0.010 A 
ATOM     57  C   LIG d   1       9.645   6.782  -1.529  0.00  0.00     0.100 A 
ATOM     58  H   LIG d   1       9.092   6.227  -2.273  0.00  0.00     0.103 H 
ATOM     59  C   LIG d   1      10.352  10.871   0.719  0.00  0.00     0.164 A 
ATOM     60  H   LIG d   1       8.878  10.590  -0.804  0.00  0.00     0.068 H 
ATOM     61  C   LIG d   1      11.375  10.288   1.476  0.00  0.00     0.162 A 
ATOM     62  H   LIG d   1      12.501   8.516   1.877  0.00  0.00     0.066 H 
BRANCH  59  63
ATOM     63  O   LIG d   1      10.034  12.176   0.914  0.00  0.00    -0.491 OA
BRANCH  63  64
ATOM     64  C   LIG d   1      10.520  13.112  -0.050  0.00  0.00     0.079 C 
ATOM     65  H   LIG d   1      10.456  14.122   0.358  0.00  0.00     0.066 H 
ATOM     66  H   LIG d   1      11.559  12.883  -0.289  0.00  0.00     0.066 H 
ATOM     67  H   LIG d   1       9.916  13.048  -0.955  0.00  0.00     0.066 H 
ENDBRANCH  63  64
ENDBRANCH  59  63
BRANCH  61  68
ATOM     68  O   LIG d   1      12.040  11.031   2.400  0.00  0.00    -0.491 OA
BRANCH  68  69
ATOM     69  C   LIG d   1      12.556  10.341   3.540  0.00  0.00     0.079 C 
ATOM     70  H   LIG d   1      11.968   9.441   3.718  0.00  0.00     0.066 H 
ATOM     71  H   LIG d   1      13.595  10.066   3.358  0.00  0.00     0.066 H 
ATOM     72  H   LIG d   1      12.500  10.991   4.413  0.00  0.00     0.066 H 
ENDBRANCH  68  69
ENDBRANCH  61  68
ENDBRANCH  46  49
ENDBRANCH  43  46
ENDBRANCH   1  42
TORSDOF 19
ENDMDL
MODEL 8
REMARK VINA RESULT:      -5.7      3.963      7.059
REMARK  19 active torsions:
REMARK  status: ('A' for Active; 'I' for Inactive)
REMARK    1  A    between atoms: C_1  and  C_2 
REMARK    2  A    between atoms: C_2  and  C_4 
REMARK    3  A    between atoms: C_2  and  N_10 
REMARK    4  A    between atoms: C_4  and  C_5 
REMARK    5  A    between atoms: C_5  and  C_6 
REMARK    6  A    between atoms: C_6  and  C_7 
REMARK    7  A    between atoms: C_7  and  C_8 
REMARK    8  A    between atoms: C_7  and  C_9 
REMARK       I    between atoms: N_10  and  C_11 
REMARK    9  A    between atoms: C_11  and  C_13 
REMARK   10  A    between atoms: C_13  and  C_15 
REMARK   11  A    between atoms: C_13  and  N_18 
REMARK   12  A    between atoms: C_15  and  C_16 
REMARK   13  A    between atoms: C_15  and  C_17 
REMARK       I    between atoms: N_18  and  C_19 
REMARK   14  A    between atoms: C_19  and  C_21 
REMARK   15  A    between atoms: C_21  and  N_22 
REMARK   16  A    between atoms: C_27  and  O_35 
REMARK   17  A    between atoms: C_28  and  O_33 
REMARK   18  A    between atoms: O_33  and  C_34 
REMARK   19  A    between atoms: O_35  and  C_36 
ROOT
ATOM      1  C   LIG d   1       4.372  -0.369  -4.083  0.00  0.00     0.102 C 
ATOM      2  H   LIG d   1       4.725  -1.369  -4.331  0.00  0.00     0.060 H 
ENDROOT
BRANCH   1   3
ATOM      3  C   LIG d   1       3.347   0.069  -5.096  0.00  0.00     0.234 C 
ATOM      4  N   LIG d   1       3.695   0.201  -6.392  0.00  0.00    -0.311 N 
ATOM      5  H   LIG d   1       4.618   0.081  -6.661  0.00  0.00     0.149 HD
ATOM      6  O   LIG d   1       2.210   0.303  -4.747  0.00  0.00    -0.274 OA
BRANCH   4   7
ATOM      7  C   LIG d   1       2.676   0.523  -7.395  0.00  0.00     0.020 C 
ATOM      8  H   LIG d   1       1.717   0.680  -6.900  0.00  0.00     0.050 H 
BRANCH   7   9
ATOM      9  C   LIG d   1       3.079   1.796  -8.140  0.00  0.00    -0.047 C 
ATOM     10  H   LIG d   1       2.348   2.008  -8.921  0.00  0.00     0.025 H 
ATOM     11  H   LIG d   1       3.116   2.632  -7.441  0.00  0.00     0.025 H 
ATOM     12  H   LIG d   1       4.062   1.657  -8.591  0.00  0.00     0.025 H 
ENDBRANCH   7   9
BRANCH   7  13
ATOM     13  C   LIG d   1       2.554  -0.634  -8.389  0.00  0.00    -0.035 C 
ATOM     14  H   LIG d   1       3.499  -1.177  -8.432  0.00  0.00     0.028 H 
ATOM     15  H   LIG d   1       1.762  -1.308  -8.067  0.00  0.00     0.028 H 
BRANCH  13  16
ATOM     16  C   LIG d   1       2.222  -0.080  -9.777  0.00  0.00    -0.051 C 
ATOM     17  H   LIG d   1       1.159  -0.215  -9.976  0.00  0.00     0.027 H 
ATOM     18  H   LIG d   1       2.467   0.981  -9.812  0.00  0.00     0.027 H 
BRANCH  16  19
ATOM     19  C   LIG d   1       3.039  -0.828 -10.833  0.00  0.00    -0.051 C 
ATOM     20  H   LIG d   1       3.623  -1.612 -10.352  0.00  0.00     0.027 H 
ATOM     21  H   LIG d   1       2.365  -1.273 -11.565  0.00  0.00     0.027 H 
BRANCH  19  22
ATOM     22  C   LIG d   1       3.980   0.152 -11.537  0.00  0.00    -0.047 C 
ATOM     23  H   LIG d   1       3.494   1.124 -11.623  0.00  0.00     0.029 H 
BRANCH  22  24
ATOM     24  C   LIG d   1       5.268   0.297 -10.722  0.00  0.00    -0.063 C 
ATOM     25  H   LIG d   1       5.240  -0.387  -9.874  0.00  0.00     0.023 H 
ATOM     26  H   LIG d   1       6.125   0.059 -11.352  0.00  0.00     0.023 H 
ATOM     27  H   LIG d   1       5.356   1.321 -10.360  0.00  0.00     0.023 H 
ENDBRANCH  22  24
BRANCH  22  28
ATOM     28  C   LIG d   1       4.316  -0.376 -12.932  0.00  0.00    -0.063 C 
ATOM     29  H   LIG d   1       5.221   0.109 -13.296  0.00  0.00     0.023 H 
ATOM     30  H   LIG d   1       4.475  -1.453 -12.884  0.00  0.00     0.023 H 
ATOM     31  H   LIG d   1       3.491  -0.161 -13.611  0.00  0.00     0.023 H 
ENDBRANCH  22  28
ENDBRANCH  19  22
ENDBRANCH  16  19
ENDBRANCH  13  16
ENDBRANCH   7  13
ENDBRANCH   4   7
ENDBRANCH   1   3
BRANCH   1  32
ATOM     32  C   LIG d   1       3.737  -0.384  -2.690  0.00  0.00    -0.020 C 
ATOM     33  H   LIG d   1       2.652  -0.364  -2.785  0.00  0.00     0.032 H 
BRANCH  32  34
ATOM     34  C   LIG d   1       4.161  -1.655  -1.951  0.00  0.00    -0.060 C 
ATOM     35  H   LIG d   1       4.356  -1.419  -0.905  0.00  0.00     0.023 H 
ATOM     36  H   LIG d   1       3.364  -2.396  -2.015  0.00  0.00     0.023 H 
ATOM     37  H   LIG d   1       5.066  -2.056  -2.408  0.00  0.00     0.023 H 
ENDBRANCH  32  34
BRANCH  32  38
ATOM     38  C   LIG d   1       4.202   0.842  -1.903  0.00  0.00    -0.060 C 
ATOM     39  H   LIG d   1       5.262   1.017  -2.095  0.00  0.00     0.023 H 
ATOM     40  H   LIG d   1       3.628   1.714  -2.216  0.00  0.00     0.023 H 
ATOM     41  H   LIG d   1       4.050   0.670  -0.838  0.00  0.00     0.023 H 
ENDBRANCH  32  38
ENDBRANCH   1  32
BRANCH   1  42
ATOM     42  N   LIG d   1       5.501   0.565  -4.095  0.00  0.00    -0.302 N 
ATOM     43  C   LIG d   1       6.763   0.095  -4.062  0.00  0.00     0.234 C 
ATOM     44  O   LIG d   1       6.966  -1.100  -4.023  0.00  0.00    -0.274 OA
ATOM     45  H   LIG d   1       5.339   1.521  -4.126  0.00  0.00     0.149 HD
BRANCH  43  46
ATOM     46  C   LIG d   1       7.925   1.056  -4.075  0.00  0.00     0.104 C 
ATOM     47  H   LIG d   1       7.691   1.916  -3.447  0.00  0.00     0.059 H 
ATOM     48  H   LIG d   1       8.814   0.557  -3.691  0.00  0.00     0.059 H 
BRANCH  46  49
ATOM     49  N   LIG d   1       8.171   1.506  -5.447  0.00  0.00    -0.290 N 
ATOM     50  C   LIG d   1       8.836   2.665  -5.663  0.00  0.00     0.262 A 
ATOM     51  C   LIG d   1       9.059   3.067  -7.058  0.00  0.00     0.069 A 
ATOM     52  O   LIG d   1       9.235   3.347  -4.737  0.00  0.00    -0.267 OA
ATOM     53  C   LIG d   1       8.560   2.227  -8.079  0.00  0.00     0.082 A 
ATOM     54  C   LIG d   1       9.737   4.242  -7.385  0.00  0.00    -0.002 A 
ATOM     55  N   LIG d   1       7.905   1.089  -7.733  0.00  0.00    -0.237 NA
ATOM     56  C   LIG d   1       8.751   2.582  -9.415  0.00  0.00     0.010 A 
ATOM     57  C   LIG d   1       7.727   0.758  -6.491  0.00  0.00     0.100 A 
ATOM     58  H   LIG d   1       7.197  -0.159  -6.276  0.00  0.00     0.103 H 
ATOM     59  C   LIG d   1       9.423   3.747  -9.725  0.00  0.00     0.164 A 
ATOM     60  H   LIG d   1       8.374   1.947 -10.203  0.00  0.00     0.068 H 
ATOM     61  C   LIG d   1       9.917   4.577  -8.711  0.00  0.00     0.162 A 
ATOM     62  H   LIG d   1      10.118   4.884  -6.606  0.00  0.00     0.066 H 
BRANCH  59  63
ATOM     63  O   LIG d   1       9.609   4.092 -11.025  0.00  0.00    -0.491 OA
BRANCH  63  64
ATOM     64  C   LIG d   1      10.424   3.225 -11.815  0.00  0.00     0.079 C 
ATOM     65  H   LIG d   1      10.710   2.355 -11.223  0.00  0.00     0.066 H 
ATOM     66  H   LIG d   1       9.866   2.898 -12.693  0.00  0.00     0.066 H 
ATOM     67  H   LIG d   1      11.320   3.758 -12.132  0.00  0.00     0.066 H 
ENDBRANCH  63  64
ENDBRANCH  59  63
BRANCH  61  68
ATOM     68  O   LIG d   1      10.576   5.721  -9.036  0.00  0.00    -0.491 OA
BRANCH  68  69
ATOM     69  C   LIG d   1      12.002   5.698  -8.939  0.00  0.00     0.079 C 
ATOM     70  H   LIG d   1      12.294   5.412  -7.929  0.00  0.00     0.066 H 
ATOM     71  H   LIG d   1      12.402   4.975  -9.650  0.00  0.00     0.066 H 
ATOM     72  H   LIG d   1      12.397   6.688  -9.166  0.00  0.00     0.066 H 
ENDBRANCH  68  69
ENDBRANCH  61  68
ENDBRANCH  46  49
ENDBRANCH  43  46
ENDBRANCH   1  42
TORSDOF 19
ENDMDL
MODEL 9
REMARK VINA RESULT:      -5.6      1.623      2.703
REMARK  19 active torsions:
REMARK  status: ('A' for Active; 'I' for Inactive)
REMARK    1  A    between atoms: C_1  and  C_2 
REMARK    2  A    between atoms: C_2  and  C_4 
REMARK    3  A    between atoms: C_2  and  N_10 
REMARK    4  A    between atoms: C_4  and  C_5 
REMARK    5  A    between atoms: C_5  and  C_6 
REMARK    6  A    between atoms: C_6  and  C_7 
REMARK    7  A    between atoms: C_7  and  C_8 
REMARK    8  A    between atoms: C_7  and  C_9 
REMARK       I    between atoms: N_10  and  C_11 
REMARK    9  A    between atoms: C_11  and  C_13 
REMARK   10  A    between atoms: C_13  and  C_15 
REMARK   11  A    between atoms: C_13  and  N_18 
REMARK   12  A    between atoms: C_15  and  C_16 
REMARK   13  A    between atoms: C_15  and  C_17 
REMARK       I    between atoms: N_18  and  C_19 
REMARK   14  A    between atoms: C_19  and  C_21 
REMARK   15  A    between atoms: C_21  and  N_22 
REMARK   16  A    between atoms: C_27  and  O_35 
REMARK   17  A    between atoms: C_28  and  O_33 
REMARK   18  A    between atoms: O_33  and  C_34 
REMARK   19  A    between atoms: O_35  and  C_36 
ROOT
ATOM      1  C   LIG d   1       7.738   1.016  -5.334  0.00  0.00     0.102 C 
ATOM      2  H   LIG d   1       7.203   1.467  -6.169  0.00  0.00     0.060 H 
ENDROOT
BRANCH   1   3
ATOM      3  C   LIG d   1       6.924   1.169  -4.075  0.00  0.00     0.234 C 
ATOM      4  N   LIG d   1       5.760   0.502  -3.940  0.00  0.00    -0.311 N 
ATOM      5  H   LIG d   1       5.413  -0.021  -4.678  0.00  0.00     0.149 HD
ATOM      6  O   LIG d   1       7.315   1.892  -3.184  0.00  0.00    -0.274 OA
BRANCH   4   7
ATOM      7  C   LIG d   1       5.021   0.567  -2.676  0.00  0.00     0.020 C 
ATOM      8  H   LIG d   1       5.661   0.994  -1.904  0.00  0.00     0.050 H 
BRANCH   7   9
ATOM      9  C   LIG d   1       3.781   1.445  -2.856  0.00  0.00    -0.047 C 
ATOM     10  H   LIG d   1       4.076   2.410  -3.269  0.00  0.00     0.025 H 
ATOM     11  H   LIG d   1       3.085   0.955  -3.536  0.00  0.00     0.025 H 
ATOM     12  H   LIG d   1       3.299   1.595  -1.889  0.00  0.00     0.025 H 
ENDBRANCH   7   9
BRANCH   7  13
ATOM     13  C   LIG d   1       4.593  -0.843  -2.263  0.00  0.00    -0.035 C 
ATOM     14  H   LIG d   1       4.784  -0.983  -1.199  0.00  0.00     0.028 H 
ATOM     15  H   LIG d   1       3.530  -0.972  -2.462  0.00  0.00     0.028 H 
BRANCH  13  16
ATOM     16  C   LIG d   1       5.391  -1.873  -3.065  0.00  0.00    -0.051 C 
ATOM     17  H   LIG d   1       5.919  -1.373  -3.875  0.00  0.00     0.027 H 
ATOM     18  H   LIG d   1       6.111  -2.364  -2.410  0.00  0.00     0.027 H 
BRANCH  16  19
ATOM     19  C   LIG d   1       4.436  -2.918  -3.645  0.00  0.00    -0.051 C 
ATOM     20  H   LIG d   1       4.376  -3.771  -2.970  0.00  0.00     0.027 H 
ATOM     21  H   LIG d   1       3.445  -2.478  -3.764  0.00  0.00     0.027 H 
BRANCH  19  22
ATOM     22  C   LIG d   1       4.954  -3.382  -5.008  0.00  0.00    -0.047 C 
ATOM     23  H   LIG d   1       4.426  -4.287  -5.309  0.00  0.00     0.029 H 
BRANCH  22  24
ATOM     24  C   LIG d   1       4.714  -2.282  -6.045  0.00  0.00    -0.063 C 
ATOM     25  H   LIG d   1       5.256  -1.383  -5.753  0.00  0.00     0.023 H 
ATOM     26  H   LIG d   1       5.066  -2.619  -7.020  0.00  0.00     0.023 H 
ATOM     27  H   LIG d   1       3.648  -2.062  -6.101  0.00  0.00     0.023 H 
ENDBRANCH  22  24
BRANCH  22  28
ATOM     28  C   LIG d   1       6.452  -3.673  -4.912  0.00  0.00    -0.063 C 
ATOM     29  H   LIG d   1       6.973  -2.781  -4.563  0.00  0.00     0.023 H 
ATOM     30  H   LIG d   1       6.620  -4.489  -4.210  0.00  0.00     0.023 H 
ATOM     31  H   LIG d   1       6.832  -3.955  -5.895  0.00  0.00     0.023 H 
ENDBRANCH  22  28
ENDBRANCH  19  22
ENDBRANCH  16  19
ENDBRANCH  13  16
ENDBRANCH   7  13
ENDBRANCH   4   7
ENDBRANCH   1   3
BRANCH   1  32
ATOM     32  C   LIG d   1       7.965  -0.470  -5.617  0.00  0.00    -0.020 C 
ATOM     33  H   LIG d   1       7.196  -1.058  -5.114  0.00  0.00     0.032 H 
BRANCH  32  34
ATOM     34  C   LIG d   1       7.891  -0.719  -7.124  0.00  0.00    -0.060 C 
ATOM     35  H   LIG d   1       8.590  -0.057  -7.637  0.00  0.00     0.023 H 
ATOM     36  H   LIG d   1       8.152  -1.756  -7.335  0.00  0.00     0.023 H 
ATOM     37  H   LIG d   1       6.879  -0.521  -7.477  0.00  0.00     0.023 H 
ENDBRANCH  32  34
BRANCH  32  38
ATOM     38  C   LIG d   1       9.343  -0.885  -5.099  0.00  0.00    -0.060 C 
ATOM     39  H   LIG d   1       9.369  -1.966  -4.958  0.00  0.00     0.023 H 
ATOM     40  H   LIG d   1      10.106  -0.594  -5.822  0.00  0.00     0.023 H 
ATOM     41  H   LIG d   1       9.538  -0.390  -4.148  0.00  0.00     0.023 H 
ENDBRANCH  32  38
ENDBRANCH   1  32
BRANCH   1  42
ATOM     42  N   LIG d   1       9.031   1.684  -5.164  0.00  0.00    -0.302 N 
ATOM     43  C   LIG d   1       9.436   2.605  -6.060  0.00  0.00     0.234 C 
ATOM     44  O   LIG d   1       8.731   2.882  -7.007  0.00  0.00    -0.274 OA
ATOM     45  H   LIG d   1       9.595   1.463  -4.406  0.00  0.00     0.149 HD
BRANCH  43  46
ATOM     46  C   LIG d   1      10.766   3.292  -5.884  0.00  0.00     0.104 C 
ATOM     47  H   LIG d   1      11.472   2.604  -5.419  0.00  0.00     0.059 H 
ATOM     48  H   LIG d   1      11.147   3.600  -6.858  0.00  0.00     0.059 H 
BRANCH  46  49
ATOM     49  N   LIG d   1      10.598   4.470  -5.030  0.00  0.00    -0.290 N 
ATOM     50  C   LIG d   1      10.679   4.340  -3.685  0.00  0.00     0.262 A 
ATOM     51  C   LIG d   1      10.507   5.554  -2.876  0.00  0.00     0.069 A 
ATOM     52  O   LIG d   1      10.890   3.258  -3.166  0.00  0.00    -0.267 OA
ATOM     53  C   LIG d   1      10.260   6.771  -3.550  0.00  0.00     0.082 A 
ATOM     54  C   LIG d   1      10.578   5.525  -1.483  0.00  0.00    -0.002 A 
ATOM     55  N   LIG d   1      10.197   6.771  -4.906  0.00  0.00    -0.237 NA
ATOM     56  C   LIG d   1      10.087   7.942  -2.811  0.00  0.00     0.010 A 
ATOM     57  C   LIG d   1      10.358   5.682  -5.595  0.00  0.00     0.100 A 
ATOM     58  H   LIG d   1      10.296   5.744  -6.671  0.00  0.00     0.103 H 
ATOM     59  C   LIG d   1      10.159   7.900  -1.433  0.00  0.00     0.164 A 
ATOM     60  H   LIG d   1       9.897   8.878  -3.316  0.00  0.00     0.068 H 
ATOM     61  C   LIG d   1      10.405   6.692  -0.768  0.00  0.00     0.162 A 
ATOM     62  H   LIG d   1      10.767   4.596  -0.967  0.00  0.00     0.066 H 
BRANCH  59  63
ATOM     63  O   LIG d   1       9.990   9.040  -0.715  0.00  0.00    -0.491 OA
BRANCH  63  64
ATOM     64  C   LIG d   1       8.699   9.649  -0.762  0.00  0.00     0.079 C 
ATOM     65  H   LIG d   1       8.023   9.026  -1.347  0.00  0.00     0.066 H 
ATOM     66  H   LIG d   1       8.310   9.756   0.251  0.00  0.00     0.066 H 
ATOM     67  H   LIG d   1       8.779  10.632  -1.225  0.00  0.00     0.066 H 
ENDBRANCH  63  64
ENDBRANCH  59  63
BRANCH  61  68
ATOM     68  O   LIG d   1      10.472   6.670   0.589  0.00  0.00    -0.491 OA
BRANCH  68  69
ATOM     69  C   LIG d   1      11.124   5.548   1.189  0.00  0.00     0.079 C 
ATOM     70  H   LIG d   1      12.186   5.763   1.303  0.00  0.00     0.066 H 
ATOM     71  H   LIG d   1      10.685   5.355   2.168  0.00  0.00     0.066 H 
ATOM     72  H   LIG d   1      10.996   4.672   0.554  0.00  0.00     0.066 H 
ENDBRANCH  68  69
ENDBRANCH  61  68
ENDBRANCH  46  49
ENDBRANCH  43  46
ENDBRANCH   1  42
TORSDOF 19
ENDMDL
MODEL 10
REMARK VINA RESULT:      -5.6      6.057     11.314
REMARK  19 active torsions:
REMARK  status: ('A' for Active; 'I' for Inactive)
REMARK    1  A    between atoms: C_1  and  C_2 
REMARK    2  A    between atoms: C_2  and  C_4 
REMARK    3  A    between atoms: C_2  and  N_10 
REMARK    4  A    between atoms: C_4  and  C_5 
REMARK    5  A    between atoms: C_5  and  C_6 
REMARK    6  A    between atoms: C_6  and  C_7 
REMARK    7  A    between atoms: C_7  and  C_8 
REMARK    8  A    between atoms: C_7  and  C_9 
REMARK       I    between atoms: N_10  and  C_11 
REMARK    9  A    between atoms: C_11  and  C_13 
REMARK   10  A    between atoms: C_13  and  C_15 
REMARK   11  A    between atoms: C_13  and  N_18 
REMARK   12  A    between atoms: C_15  and  C_16 
REMARK   13  A    between atoms: C_15  and  C_17 
REMARK       I    between atoms: N_18  and  C_19 
REMARK   14  A    between atoms: C_19  and  C_21 
REMARK   15  A    between atoms: C_21  and  N_22 
REMARK   16  A    between atoms: C_27  and  O_35 
REMARK   17  A    between atoms: C_28  and  O_33 
REMARK   18  A    between atoms: O_33  and  C_34 
REMARK   19  A    between atoms: O_35  and  C_36 
ROOT
ATOM      1  C   LIG d   1       3.720  -0.382  -8.138  0.00  0.00     0.102 C 
ATOM      2  H   LIG d   1       4.610  -0.353  -8.766  0.00  0.00     0.060 H 
ENDROOT
BRANCH   1   3
ATOM      3  C   LIG d   1       4.115  -0.184  -6.697  0.00  0.00     0.234 C 
ATOM      4  N   LIG d   1       3.171  -0.175  -5.735  0.00  0.00    -0.311 N 
ATOM      5  H   LIG d   1       2.233  -0.228  -5.975  0.00  0.00     0.149 HD
ATOM      6  O   LIG d   1       5.281  -0.032  -6.403  0.00  0.00    -0.274 OA
BRANCH   4   7
ATOM      7  C   LIG d   1       3.562  -0.089  -4.326  0.00  0.00     0.020 C 
ATOM      8  H   LIG d   1       4.647  -0.159  -4.245  0.00  0.00     0.050 H 
BRANCH   7   9
ATOM      9  C   LIG d   1       3.093   1.248  -3.748  0.00  0.00    -0.047 C 
ATOM     10  H   LIG d   1       2.907   1.136  -2.679  0.00  0.00     0.025 H 
ATOM     11  H   LIG d   1       3.864   2.003  -3.905  0.00  0.00     0.025 H 
ATOM     12  H   LIG d   1       2.175   1.557  -4.247  0.00  0.00     0.025 H 
ENDBRANCH   7   9
BRANCH   7  13
ATOM     13  C   LIG d   1       2.917  -1.236  -3.545  0.00  0.00    -0.035 C 
ATOM     14  H   LIG d   1       2.406  -0.838  -2.669  0.00  0.00     0.028 H 
ATOM     15  H   LIG d   1       2.198  -1.750  -4.183  0.00  0.00     0.028 H 
BRANCH  13  16
ATOM     16  C   LIG d   1       4.000  -2.222  -3.100  0.00  0.00    -0.051 C 
ATOM     17  H   LIG d   1       3.571  -2.942  -2.404  0.00  0.00     0.027 H 
ATOM     18  H   LIG d   1       4.393  -2.747  -3.970  0.00  0.00     0.027 H 
BRANCH  16  19
ATOM     19  C   LIG d   1       5.133  -1.457  -2.412  0.00  0.00    -0.051 C 
ATOM     20  H   LIG d   1       4.950  -0.387  -2.493  0.00  0.00     0.027 H 
ATOM     21  H   LIG d   1       5.174  -1.740  -1.360  0.00  0.00     0.027 H 
BRANCH  19  22
ATOM     22  C   LIG d   1       6.463  -1.802  -3.084  0.00  0.00    -0.047 C 
ATOM     23  H   LIG d   1       7.111  -2.310  -2.370  0.00  0.00     0.029 H 
BRANCH  22  24
ATOM     24  C   LIG d   1       6.206  -2.721  -4.281  0.00  0.00    -0.063 C 
ATOM     25  H   LIG d   1       6.340  -3.759  -3.978  0.00  0.00     0.023 H 
ATOM     26  H   LIG d   1       5.186  -2.576  -4.638  0.00  0.00     0.023 H 
ATOM     27  H   LIG d   1       6.907  -2.482  -5.080  0.00  0.00     0.023 H 
ENDBRANCH  22  24
BRANCH  22  28
ATOM     28  C   LIG d   1       7.140  -0.518  -3.564  0.00  0.00    -0.063 C 
ATOM     29  H   LIG d   1       7.472   0.061  -2.703  0.00  0.00     0.023 H 
ATOM     30  H   LIG d   1       7.999  -0.770  -4.185  0.00  0.00     0.023 H 
ATOM     31  H   LIG d   1       6.431   0.072  -4.147  0.00  0.00     0.023 H 
ENDBRANCH  22  28
ENDBRANCH  19  22
ENDBRANCH  16  19
ENDBRANCH  13  16
ENDBRANCH   7  13
ENDBRANCH   4   7
ENDBRANCH   1   3
BRANCH   1  32
ATOM     32  C   LIG d   1       2.762   0.733  -8.562  0.00  0.00    -0.020 C 
ATOM     33  H   LIG d   1       2.036   0.910  -7.768  0.00  0.00     0.032 H 
BRANCH  32  34
ATOM     34  C   LIG d   1       3.555   2.015  -8.822  0.00  0.00    -0.060 C 
ATOM     35  H   LIG d   1       3.947   2.000  -9.839  0.00  0.00     0.023 H 
ATOM     36  H   LIG d   1       2.902   2.879  -8.697  0.00  0.00     0.023 H 
ATOM     37  H   LIG d   1       4.383   2.080  -8.115  0.00  0.00     0.023 H 
ENDBRANCH  32  34
BRANCH  32  38
ATOM     38  C   LIG d   1       2.029   0.319  -9.839  0.00  0.00    -0.060 C 
ATOM     39  H   LIG d   1       1.107   0.893  -9.932  0.00  0.00     0.023 H 
ATOM     40  H   LIG d   1       2.666   0.513 -10.702  0.00  0.00     0.023 H 
ATOM     41  H   LIG d   1       1.793  -0.744  -9.795  0.00  0.00     0.023 H 
ENDBRANCH  32  38
ENDBRANCH   1  32
BRANCH   1  42
ATOM     42  N   LIG d   1       3.057  -1.680  -8.289  0.00  0.00    -0.302 N 
ATOM     43  C   LIG d   1       3.704  -2.702  -8.882  0.00  0.00     0.234 C 
ATOM     44  O   LIG d   1       4.835  -2.548  -9.291  0.00  0.00    -0.274 OA
ATOM     45  H   LIG d   1       2.152  -1.803  -7.961  0.00  0.00     0.149 HD
BRANCH  43  46
ATOM     46  C   LIG d   1       3.021  -4.037  -9.037  0.00  0.00     0.104 C 
ATOM     47  H   LIG d   1       1.953  -3.922  -8.851  0.00  0.00     0.059 H 
ATOM     48  H   LIG d   1       3.176  -4.409 -10.049  0.00  0.00     0.059 H 
BRANCH  46  49
ATOM     49  N   LIG d   1       3.584  -4.988  -8.076  0.00  0.00    -0.290 N 
ATOM     50  C   LIG d   1       3.834  -6.262  -8.461  0.00  0.00     0.262 A 
ATOM     51  C   LIG d   1       4.403  -7.172  -7.458  0.00  0.00     0.069 A 
ATOM     52  O   LIG d   1       3.599  -6.637  -9.595  0.00  0.00    -0.267 OA
ATOM     53  C   LIG d   1       4.643  -6.665  -6.161  0.00  0.00     0.082 A 
ATOM     54  C   LIG d   1       4.700  -8.503  -7.758  0.00  0.00    -0.002 A 
ATOM     55  N   LIG d   1       4.345  -5.368  -5.897  0.00  0.00    -0.237 NA
ATOM     56  C   LIG d   1       5.177  -7.505  -5.184  0.00  0.00     0.010 A 
ATOM     57  C   LIG d   1       3.847  -4.585  -6.805  0.00  0.00     0.100 A 
ATOM     58  H   LIG d   1       3.630  -3.562  -6.536  0.00  0.00     0.103 H 
ATOM     59  C   LIG d   1       5.466  -8.820  -5.493  0.00  0.00     0.164 A 
ATOM     60  H   LIG d   1       5.365  -7.129  -4.189  0.00  0.00     0.068 H 
ATOM     61  C   LIG d   1       5.228  -9.319  -6.779  0.00  0.00     0.162 A 
ATOM     62  H   LIG d   1       4.517  -8.890  -8.748  0.00  0.00     0.066 H 
BRANCH  59  63
ATOM     63  O   LIG d   1       5.987  -9.636  -4.541  0.00  0.00    -0.491 OA
BRANCH  63  64
ATOM     64  C   LIG d   1       7.083  -9.127  -3.780  0.00  0.00     0.079 C 
ATOM     65  H   LIG d   1       6.777  -8.213  -3.269  0.00  0.00     0.066 H 
ATOM     66  H   LIG d   1       7.390  -9.869  -3.042  0.00  0.00     0.066 H 
ATOM     67  H   LIG d   1       7.917  -8.909  -4.445  0.00  0.00     0.066 H 
ENDBRANCH  63  64
ENDBRANCH  59  63
BRANCH  61  68
ATOM     68  O   LIG d   1       5.519 -10.615  -7.065  0.00  0.00    -0.491 OA
BRANCH  68  69
ATOM     69  C   LIG d   1       4.418 -11.521  -7.167  0.00  0.00     0.079 C 
ATOM     70  H   LIG d   1       3.996 -11.470  -8.170  0.00  0.00     0.066 H 
ATOM     71  H   LIG d   1       4.764 -12.536  -6.969  0.00  0.00     0.066 H 
ATOM     72  H   LIG d   1       3.656 -11.248  -6.437  0.00  0.00     0.066 H 
ENDBRANCH  68  69
ENDBRANCH  61  68
ENDBRANCH  46  49
ENDBRANCH  43  46
ENDBRANCH   1  42
TORSDOF 19
ENDMDL
