MODEL 1
REMARK VINA RESULT:      -7.3      0.000      0.000
REMARK  3 active torsions:
REMARK  status: ('A' for Active; 'I' for Inactive)
REMARK    1  A    between atoms: C_4  and  C_7 
REMARK    2  A    between atoms: C_7  and  C_9 
REMARK    3  A    between atoms: C_9  and  C_10 
ROOT
ATOM      1  C   LIG d   1       4.857  -1.723  -6.897  0.00  0.00     0.003 A 
ATOM      2  C   LIG d   1       4.061  -2.491  -7.687  0.00  0.00     0.190 A 
ATOM      3  C   LIG d   1       3.220  -1.901  -8.743  0.00  0.00     0.033 A 
ATOM      4  C   LIG d   1       2.412  -2.707  -9.538  0.00  0.00    -0.050 A 
ATOM      5  C   LIG d   1       1.623  -2.135 -10.523  0.00  0.00    -0.061 A 
ATOM      6  C   LIG d   1       1.639  -0.769 -10.732  0.00  0.00    -0.061 A 
ATOM      7  C   LIG d   1       2.437   0.051  -9.950  0.00  0.00    -0.050 A 
ATOM      8  C   LIG d   1       3.231  -0.509  -8.954  0.00  0.00     0.032 A 
ATOM      9  C   LIG d   1       4.092   0.338  -8.102  0.00  0.00     0.179 A 
ATOM     10  O   LIG d   1       4.129   1.541  -8.254  0.00  0.00    -0.288 OA
ATOM     11  C   LIG d   1       4.920  -0.329  -7.048  0.00  0.00    -0.052 A 
ATOM     12  O   LIG d   1       5.642   0.333  -6.327  0.00  0.00    -0.871 OA
ATOM     13  O   LIG d   1       4.039  -3.829  -7.497  0.00  0.00    -0.287 OA
ATOM     14  H   LIG d   1       2.397  -3.776  -9.386  0.00  0.00     0.062 H 
ATOM     15  H   LIG d   1       0.994  -2.763 -11.137  0.00  0.00     0.062 H 
ATOM     16  H   LIG d   1       1.022  -0.337 -11.506  0.00  0.00     0.062 H 
ATOM     17  H   LIG d   1       2.445   1.118 -10.113  0.00  0.00     0.062 H 
ENDROOT
BRANCH   1  18
ATOM     18  C   LIG d   1       5.695  -2.384  -5.834  0.00  0.00     0.039 C 
ATOM     19  H   LIG d   1       6.566  -1.751  -5.606  0.00  0.00     0.040 H 
ATOM     20  H   LIG d   1       6.040  -3.364  -6.197  0.00  0.00     0.040 H 
BRANCH  18  21
ATOM     21  C   LIG d   1       4.870  -2.572  -4.587  0.00  0.00     0.168 C 
ATOM     22  O   LIG d   1       4.464  -3.675  -4.290  0.00  0.00    -0.292 OA
BRANCH  21  23
ATOM     23  C   LIG d   1       4.556  -1.417  -3.731  0.00  0.00     0.018 A 
ATOM     24  C   LIG d   1       3.227  -1.032  -3.531  0.00  0.00    -0.051 A 
ATOM     25  C   LIG d   1       2.942   0.052  -2.727  0.00  0.00    -0.061 A 
ATOM     26  H   LIG d   1       2.427  -1.580  -4.005  0.00  0.00     0.062 H 
ATOM     27  C   LIG d   1       3.965   0.756  -2.119  0.00  0.00    -0.062 A 
ATOM     28  H   LIG d   1       1.916   0.351  -2.572  0.00  0.00     0.062 H 
ATOM     29  C   LIG d   1       5.284   0.381  -2.311  0.00  0.00    -0.061 A 
ATOM     30  H   LIG d   1       3.736   1.604  -1.491  0.00  0.00     0.062 H 
ATOM     31  C   LIG d   1       5.585  -0.704  -3.108  0.00  0.00    -0.051 A 
ATOM     32  H   LIG d   1       6.078   0.935  -1.833  0.00  0.00     0.062 H 
ATOM     33  H   LIG d   1       6.614  -0.999  -3.253  0.00  0.00     0.062 H 
ENDBRANCH  21  23
ENDBRANCH  18  21
ENDBRANCH   1  18
TORSDOF 3
ENDMDL
MODEL 2
REMARK VINA RESULT:      -7.3      1.861      6.059
REMARK  3 active torsions:
REMARK  status: ('A' for Active; 'I' for Inactive)
REMARK    1  A    between atoms: C_4  and  C_7 
REMARK    2  A    between atoms: C_7  and  C_9 
REMARK    3  A    between atoms: C_9  and  C_10 
ROOT
ATOM      1  C   LIG d   1       5.949  -1.491  -6.315  0.00  0.00     0.003 A 
ATOM      2  C   LIG d   1       5.989  -0.404  -5.499  0.00  0.00     0.190 A 
ATOM      3  C   LIG d   1       5.429  -0.440  -4.137  0.00  0.00     0.033 A 
ATOM      4  C   LIG d   1       5.481   0.685  -3.320  0.00  0.00    -0.050 A 
ATOM      5  C   LIG d   1       4.946   0.636  -2.043  0.00  0.00    -0.061 A 
ATOM      6  C   LIG d   1       4.370  -0.527  -1.567  0.00  0.00    -0.061 A 
ATOM      7  C   LIG d   1       4.309  -1.658  -2.366  0.00  0.00    -0.050 A 
ATOM      8  C   LIG d   1       4.838  -1.622  -3.651  0.00  0.00     0.032 A 
ATOM      9  C   LIG d   1       4.788  -2.811  -4.528  0.00  0.00     0.179 A 
ATOM     10  O   LIG d   1       4.287  -3.847  -4.145  0.00  0.00    -0.288 OA
ATOM     11  C   LIG d   1       5.375  -2.702  -5.901  0.00  0.00    -0.052 A 
ATOM     12  O   LIG d   1       5.354  -3.659  -6.653  0.00  0.00    -0.871 OA
ATOM     13  O   LIG d   1       6.554   0.738  -5.951  0.00  0.00    -0.287 OA
ATOM     14  H   LIG d   1       5.933   1.596  -3.682  0.00  0.00     0.062 H 
ATOM     15  H   LIG d   1       4.983   1.511  -1.412  0.00  0.00     0.062 H 
ATOM     16  H   LIG d   1       3.959  -0.553  -0.568  0.00  0.00     0.062 H 
ATOM     17  H   LIG d   1       3.855  -2.563  -1.992  0.00  0.00     0.062 H 
ENDROOT
BRANCH   1  18
ATOM     18  C   LIG d   1       6.538  -1.393  -7.698  0.00  0.00     0.039 C 
ATOM     19  H   LIG d   1       7.080  -2.321  -7.933  0.00  0.00     0.040 H 
ATOM     20  H   LIG d   1       7.234  -0.542  -7.741  0.00  0.00     0.040 H 
BRANCH  18  21
ATOM     21  C   LIG d   1       5.432  -1.189  -8.703  0.00  0.00     0.168 C 
ATOM     22  O   LIG d   1       5.117  -2.092  -9.448  0.00  0.00    -0.292 OA
BRANCH  21  23
ATOM     23  C   LIG d   1       4.737   0.105  -8.780  0.00  0.00     0.018 A 
ATOM     24  C   LIG d   1       5.419   1.245  -9.214  0.00  0.00    -0.051 A 
ATOM     25  C   LIG d   1       4.760   2.454  -9.282  0.00  0.00    -0.061 A 
ATOM     26  H   LIG d   1       6.460   1.179  -9.493  0.00  0.00     0.062 H 
ATOM     27  C   LIG d   1       3.426   2.541  -8.924  0.00  0.00    -0.062 A 
ATOM     28  H   LIG d   1       5.286   3.336  -9.617  0.00  0.00     0.062 H 
ATOM     29  C   LIG d   1       2.743   1.416  -8.494  0.00  0.00    -0.061 A 
ATOM     30  H   LIG d   1       2.915   3.490  -8.980  0.00  0.00     0.062 H 
ATOM     31  C   LIG d   1       3.387   0.199  -8.425  0.00  0.00    -0.051 A 
ATOM     32  H   LIG d   1       1.702   1.491  -8.216  0.00  0.00     0.062 H 
ATOM     33  H   LIG d   1       2.851  -0.679  -8.094  0.00  0.00     0.062 H 
ENDBRANCH  21  23
ENDBRANCH  18  21
ENDBRANCH   1  18
TORSDOF 3
ENDMDL
MODEL 3
REMARK VINA RESULT:      -7.2      2.362      2.765
REMARK  3 active torsions:
REMARK  status: ('A' for Active; 'I' for Inactive)
REMARK    1  A    between atoms: C_4  and  C_7 
REMARK    2  A    between atoms: C_7  and  C_9 
REMARK    3  A    between atoms: C_9  and  C_10 
ROOT
ATOM      1  C   LIG d   1       6.025  -1.109  -6.705  0.00  0.00     0.003 A 
ATOM      2  C   LIG d   1       4.754  -0.636  -6.803  0.00  0.00     0.190 A 
ATOM      3  C   LIG d   1       4.406   0.456  -7.728  0.00  0.00     0.033 A 
ATOM      4  C   LIG d   1       3.098   0.924  -7.811  0.00  0.00    -0.050 A 
ATOM      5  C   LIG d   1       2.788   1.956  -8.682  0.00  0.00    -0.061 A 
ATOM      6  C   LIG d   1       3.765   2.519  -9.481  0.00  0.00    -0.061 A 
ATOM      7  C   LIG d   1       5.074   2.067  -9.412  0.00  0.00    -0.050 A 
ATOM      8  C   LIG d   1       5.401   1.036  -8.539  0.00  0.00     0.032 A 
ATOM      9  C   LIG d   1       6.787   0.531  -8.442  0.00  0.00     0.179 A 
ATOM     10  O   LIG d   1       7.671   1.005  -9.124  0.00  0.00    -0.288 OA
ATOM     11  C   LIG d   1       7.069  -0.581  -7.480  0.00  0.00    -0.052 A 
ATOM     12  O   LIG d   1       8.197  -1.023  -7.371  0.00  0.00    -0.871 OA
ATOM     13  O   LIG d   1       3.788  -1.182  -6.033  0.00  0.00    -0.287 OA
ATOM     14  H   LIG d   1       2.327   0.487  -7.195  0.00  0.00     0.062 H 
ATOM     15  H   LIG d   1       1.773   2.320  -8.742  0.00  0.00     0.062 H 
ATOM     16  H   LIG d   1       3.509   3.321 -10.158  0.00  0.00     0.062 H 
ATOM     17  H   LIG d   1       5.836   2.512 -10.034  0.00  0.00     0.062 H 
ENDROOT
BRANCH   1  18
ATOM     18  C   LIG d   1       6.321  -2.228  -5.741  0.00  0.00     0.039 C 
ATOM     19  H   LIG d   1       7.039  -2.925  -6.197  0.00  0.00     0.040 H 
ATOM     20  H   LIG d   1       5.389  -2.764  -5.507  0.00  0.00     0.040 H 
BRANCH  18  21
ATOM     21  C   LIG d   1       6.906  -1.660  -4.474  0.00  0.00     0.168 C 
ATOM     22  O   LIG d   1       8.082  -1.823  -4.224  0.00  0.00    -0.292 OA
BRANCH  21  23
ATOM     23  C   LIG d   1       6.053  -0.909  -3.540  0.00  0.00     0.018 A 
ATOM     24  C   LIG d   1       5.127  -1.583  -2.738  0.00  0.00    -0.051 A 
ATOM     25  C   LIG d   1       4.331  -0.872  -1.865  0.00  0.00    -0.061 A 
ATOM     26  H   LIG d   1       5.036  -2.657  -2.801  0.00  0.00     0.062 H 
ATOM     27  C   LIG d   1       4.446   0.504  -1.781  0.00  0.00    -0.062 A 
ATOM     28  H   LIG d   1       3.615  -1.391  -1.244  0.00  0.00     0.062 H 
ATOM     29  C   LIG d   1       5.360   1.179  -2.572  0.00  0.00    -0.061 A 
ATOM     30  H   LIG d   1       3.819   1.056  -1.097  0.00  0.00     0.062 H 
ATOM     31  C   LIG d   1       6.168   0.481  -3.446  0.00  0.00    -0.051 A 
ATOM     32  H   LIG d   1       5.445   2.253  -2.502  0.00  0.00     0.062 H 
ATOM     33  H   LIG d   1       6.884   1.009  -4.059  0.00  0.00     0.062 H 
ENDBRANCH  21  23
ENDBRANCH  18  21
ENDBRANCH   1  18
TORSDOF 3
ENDMDL
MODEL 4
REMARK VINA RESULT:      -7.1      1.167      2.626
REMARK  3 active torsions:
REMARK  status: ('A' for Active; 'I' for Inactive)
REMARK    1  A    between atoms: C_4  and  C_7 
REMARK    2  A    between atoms: C_7  and  C_9 
REMARK    3  A    between atoms: C_9  and  C_10 
ROOT
ATOM      1  C   LIG d   1       5.094  -1.780  -6.699  0.00  0.00     0.003 A 
ATOM      2  C   LIG d   1       5.302  -0.494  -7.089  0.00  0.00     0.190 A 
ATOM      3  C   LIG d   1       4.707   0.043  -8.325  0.00  0.00     0.033 A 
ATOM      4  C   LIG d   1       4.934   1.362  -8.705  0.00  0.00    -0.050 A 
ATOM      5  C   LIG d   1       4.372   1.851  -9.873  0.00  0.00    -0.061 A 
ATOM      6  C   LIG d   1       3.576   1.042 -10.662  0.00  0.00    -0.061 A 
ATOM      7  C   LIG d   1       3.338  -0.275 -10.300  0.00  0.00    -0.050 A 
ATOM      8  C   LIG d   1       3.900  -0.780  -9.133  0.00  0.00     0.032 A 
ATOM      9  C   LIG d   1       3.666  -2.180  -8.720  0.00  0.00     0.179 A 
ATOM     10  O   LIG d   1       2.976  -2.920  -9.389  0.00  0.00    -0.288 OA
ATOM     11  C   LIG d   1       4.302  -2.660  -7.452  0.00  0.00    -0.052 A 
ATOM     12  O   LIG d   1       4.134  -3.805  -7.078  0.00  0.00    -0.871 OA
ATOM     13  O   LIG d   1       6.074   0.309  -6.325  0.00  0.00    -0.287 OA
ATOM     14  H   LIG d   1       5.551   2.003  -8.092  0.00  0.00     0.062 H 
ATOM     15  H   LIG d   1       4.553   2.874 -10.168  0.00  0.00     0.062 H 
ATOM     16  H   LIG d   1       3.140   1.436 -11.568  0.00  0.00     0.062 H 
ATOM     17  H   LIG d   1       2.719  -0.906 -10.920  0.00  0.00     0.062 H 
ENDROOT
BRANCH   1  18
ATOM     18  C   LIG d   1       5.728  -2.273  -5.424  0.00  0.00     0.039 C 
ATOM     19  H   LIG d   1       6.558  -1.606  -5.145  0.00  0.00     0.040 H 
ATOM     20  H   LIG d   1       6.114  -3.292  -5.577  0.00  0.00     0.040 H 
BRANCH  18  21
ATOM     21  C   LIG d   1       4.700  -2.285  -4.322  0.00  0.00     0.168 C 
ATOM     22  O   LIG d   1       4.160  -3.324  -4.009  0.00  0.00    -0.292 OA
BRANCH  21  23
ATOM     23  C   LIG d   1       4.352  -1.036  -3.627  0.00  0.00     0.018 A 
ATOM     24  C   LIG d   1       3.391  -0.176  -4.166  0.00  0.00    -0.051 A 
ATOM     25  C   LIG d   1       3.070   0.992  -3.508  0.00  0.00    -0.061 A 
ATOM     26  H   LIG d   1       2.901  -0.426  -5.095  0.00  0.00     0.062 H 
ATOM     27  C   LIG d   1       3.695   1.314  -2.316  0.00  0.00    -0.062 A 
ATOM     28  H   LIG d   1       2.327   1.658  -3.923  0.00  0.00     0.062 H 
ATOM     29  C   LIG d   1       4.648   0.468  -1.775  0.00  0.00    -0.061 A 
ATOM     30  H   LIG d   1       3.441   2.231  -1.806  0.00  0.00     0.062 H 
ATOM     31  C   LIG d   1       4.976  -0.707  -2.419  0.00  0.00    -0.051 A 
ATOM     32  H   LIG d   1       5.132   0.726  -0.845  0.00  0.00     0.062 H 
ATOM     33  H   LIG d   1       5.716  -1.369  -1.993  0.00  0.00     0.062 H 
ENDBRANCH  21  23
ENDBRANCH  18  21
ENDBRANCH   1  18
TORSDOF 3
ENDMDL
MODEL 5
REMARK VINA RESULT:      -6.9      4.672      6.530
REMARK  3 active torsions:
REMARK  status: ('A' for Active; 'I' for Inactive)
REMARK    1  A    between atoms: C_4  and  C_7 
REMARK    2  A    between atoms: C_7  and  C_9 
REMARK    3  A    between atoms: C_9  and  C_10 
ROOT
ATOM      1  C   LIG d   1       7.913  -1.426  -4.854  0.00  0.00     0.003 A 
ATOM      2  C   LIG d   1       6.881  -1.898  -4.104  0.00  0.00     0.190 A 
ATOM      3  C   LIG d   1       6.010  -0.993  -3.334  0.00  0.00     0.033 A 
ATOM      4  C   LIG d   1       4.961  -1.498  -2.574  0.00  0.00    -0.050 A 
ATOM      5  C   LIG d   1       4.154  -0.634  -1.851  0.00  0.00    -0.061 A 
ATOM      6  C   LIG d   1       4.375   0.730  -1.887  0.00  0.00    -0.061 A 
ATOM      7  C   LIG d   1       5.416   1.252  -2.639  0.00  0.00    -0.050 A 
ATOM      8  C   LIG d   1       6.237   0.397  -3.366  0.00  0.00     0.032 A 
ATOM      9  C   LIG d   1       7.356   0.922  -4.177  0.00  0.00     0.179 A 
ATOM     10  O   LIG d   1       7.582   2.113  -4.229  0.00  0.00    -0.288 OA
ATOM     11  C   LIG d   1       8.201  -0.055  -4.933  0.00  0.00    -0.052 A 
ATOM     12  O   LIG d   1       9.131   0.337  -5.612  0.00  0.00    -0.871 OA
ATOM     13  O   LIG d   1       6.651  -3.228  -4.064  0.00  0.00    -0.287 OA
ATOM     14  H   LIG d   1       4.777  -2.561  -2.543  0.00  0.00     0.062 H 
ATOM     15  H   LIG d   1       3.342  -1.028  -1.258  0.00  0.00     0.062 H 
ATOM     16  H   LIG d   1       3.736   1.393  -1.322  0.00  0.00     0.062 H 
ATOM     17  H   LIG d   1       5.589   2.318  -2.662  0.00  0.00     0.062 H 
ENDROOT
BRANCH   1  18
ATOM     18  C   LIG d   1       8.770  -2.401  -5.620  0.00  0.00     0.039 C 
ATOM     19  H   LIG d   1       9.180  -1.906  -6.513  0.00  0.00     0.040 H 
ATOM     20  H   LIG d   1       8.158  -3.262  -5.928  0.00  0.00     0.040 H 
BRANCH  18  21
ATOM     21  C   LIG d   1       9.900  -2.875  -4.744  0.00  0.00     0.168 C 
ATOM     22  O   LIG d   1      10.929  -2.236  -4.684  0.00  0.00    -0.292 OA
BRANCH  21  23
ATOM     23  C   LIG d   1       9.757  -4.113  -3.962  0.00  0.00     0.018 A 
ATOM     24  C   LIG d   1       9.889  -4.084  -2.571  0.00  0.00    -0.051 A 
ATOM     25  C   LIG d   1       9.754  -5.249  -1.845  0.00  0.00    -0.061 A 
ATOM     26  H   LIG d   1      10.098  -3.153  -2.066  0.00  0.00     0.062 H 
ATOM     27  C   LIG d   1       9.486  -6.444  -2.490  0.00  0.00    -0.062 A 
ATOM     28  H   LIG d   1       9.855  -5.229  -0.770  0.00  0.00     0.062 H 
ATOM     29  C   LIG d   1       9.353  -6.480  -3.867  0.00  0.00    -0.061 A 
ATOM     30  H   LIG d   1       9.381  -7.353  -1.917  0.00  0.00     0.062 H 
ATOM     31  C   LIG d   1       9.481  -5.323  -4.607  0.00  0.00    -0.051 A 
ATOM     32  H   LIG d   1       9.144  -7.416  -4.364  0.00  0.00     0.062 H 
ATOM     33  H   LIG d   1       9.371  -5.352  -5.681  0.00  0.00     0.062 H 
ENDBRANCH  21  23
ENDBRANCH  18  21
ENDBRANCH   1  18
TORSDOF 3
ENDMDL
MODEL 6
REMARK VINA RESULT:      -6.8      1.681      5.599
REMARK  3 active torsions:
REMARK  status: ('A' for Active; 'I' for Inactive)
REMARK    1  A    between atoms: C_4  and  C_7 
REMARK    2  A    between atoms: C_7  and  C_9 
REMARK    3  A    between atoms: C_9  and  C_10 
ROOT
ATOM      1  C   LIG d   1       5.417  -1.703  -6.614  0.00  0.00     0.003 A 
ATOM      2  C   LIG d   1       4.738  -2.309  -5.604  0.00  0.00     0.190 A 
ATOM      3  C   LIG d   1       4.724  -1.750  -4.240  0.00  0.00     0.033 A 
ATOM      4  C   LIG d   1       4.023  -2.387  -3.222  0.00  0.00    -0.050 A 
ATOM      5  C   LIG d   1       4.023  -1.852  -1.944  0.00  0.00    -0.061 A 
ATOM      6  C   LIG d   1       4.707  -0.682  -1.672  0.00  0.00    -0.061 A 
ATOM      7  C   LIG d   1       5.411  -0.032  -2.674  0.00  0.00    -0.050 A 
ATOM      8  C   LIG d   1       5.423  -0.560  -3.960  0.00  0.00     0.032 A 
ATOM      9  C   LIG d   1       6.166   0.107  -5.050  0.00  0.00     0.179 A 
ATOM     10  O   LIG d   1       6.780   1.134  -4.848  0.00  0.00    -0.288 OA
ATOM     11  C   LIG d   1       6.137  -0.516  -6.411  0.00  0.00    -0.052 A 
ATOM     12  O   LIG d   1       6.736   0.003  -7.334  0.00  0.00    -0.871 OA
ATOM     13  O   LIG d   1       4.062  -3.450  -5.856  0.00  0.00    -0.287 OA
ATOM     14  H   LIG d   1       3.482  -3.299  -3.425  0.00  0.00     0.062 H 
ATOM     15  H   LIG d   1       3.482  -2.350  -1.154  0.00  0.00     0.062 H 
ATOM     16  H   LIG d   1       4.696  -0.273  -0.673  0.00  0.00     0.062 H 
ATOM     17  H   LIG d   1       5.947   0.880  -2.458  0.00  0.00     0.062 H 
ENDROOT
BRANCH   1  18
ATOM     18  C   LIG d   1       5.395  -2.321  -7.988  0.00  0.00     0.039 C 
ATOM     19  H   LIG d   1       5.445  -3.417  -7.898  0.00  0.00     0.040 H 
ATOM     20  H   LIG d   1       6.259  -1.962  -8.566  0.00  0.00     0.040 H 
BRANCH  18  21
ATOM     21  C   LIG d   1       4.122  -1.932  -8.694  0.00  0.00     0.168 C 
ATOM     22  O   LIG d   1       3.300  -2.780  -8.973  0.00  0.00    -0.292 OA
BRANCH  21  23
ATOM     23  C   LIG d   1       3.876  -0.526  -9.048  0.00  0.00     0.018 A 
ATOM     24  C   LIG d   1       3.008   0.252  -8.275  0.00  0.00    -0.051 A 
ATOM     25  C   LIG d   1       2.783   1.570  -8.613  0.00  0.00    -0.061 A 
ATOM     26  H   LIG d   1       2.516  -0.179  -7.416  0.00  0.00     0.062 H 
ATOM     27  C   LIG d   1       3.413   2.123  -9.713  0.00  0.00    -0.062 A 
ATOM     28  H   LIG d   1       2.113   2.172  -8.017  0.00  0.00     0.062 H 
ATOM     29  C   LIG d   1       4.274   1.361 -10.483  0.00  0.00    -0.061 A 
ATOM     30  H   LIG d   1       3.233   3.156  -9.973  0.00  0.00     0.062 H 
ATOM     31  C   LIG d   1       4.514   0.043 -10.155  0.00  0.00    -0.051 A 
ATOM     32  H   LIG d   1       4.763   1.799 -11.340  0.00  0.00     0.062 H 
ATOM     33  H   LIG d   1       5.190  -0.550 -10.754  0.00  0.00     0.062 H 
ENDBRANCH  21  23
ENDBRANCH  18  21
ENDBRANCH   1  18
TORSDOF 3
ENDMDL
MODEL 7
REMARK VINA RESULT:      -6.8      1.499      3.026
REMARK  3 active torsions:
REMARK  status: ('A' for Active; 'I' for Inactive)
REMARK    1  A    between atoms: C_4  and  C_7 
REMARK    2  A    between atoms: C_7  and  C_9 
REMARK    3  A    between atoms: C_9  and  C_10 
ROOT
ATOM      1  C   LIG d   1       3.579  -0.841  -7.608  0.00  0.00     0.003 A 
ATOM      2  C   LIG d   1       2.790  -0.341  -8.597  0.00  0.00     0.190 A 
ATOM      3  C   LIG d   1       2.262  -1.199  -9.672  0.00  0.00     0.033 A 
ATOM      4  C   LIG d   1       1.458  -0.666 -10.673  0.00  0.00    -0.050 A 
ATOM      5  C   LIG d   1       0.974  -1.486 -11.679  0.00  0.00    -0.061 A 
ATOM      6  C   LIG d   1       1.273  -2.835 -11.693  0.00  0.00    -0.061 A 
ATOM      7  C   LIG d   1       2.074  -3.385 -10.703  0.00  0.00    -0.050 A 
ATOM      8  C   LIG d   1       2.571  -2.573  -9.690  0.00  0.00     0.032 A 
ATOM      9  C   LIG d   1       3.427  -3.129  -8.621  0.00  0.00     0.179 A 
ATOM     10  O   LIG d   1       3.715  -4.308  -8.602  0.00  0.00    -0.288 OA
ATOM     11  C   LIG d   1       3.929  -2.198  -7.561  0.00  0.00    -0.052 A 
ATOM     12  O   LIG d   1       4.637  -2.617  -6.664  0.00  0.00    -0.871 OA
ATOM     13  O   LIG d   1       2.485   0.975  -8.594  0.00  0.00    -0.287 OA
ATOM     14  H   LIG d   1       1.213   0.386 -10.669  0.00  0.00     0.062 H 
ATOM     15  H   LIG d   1       0.352  -1.069 -12.458  0.00  0.00     0.062 H 
ATOM     16  H   LIG d   1       0.886  -3.464 -12.481  0.00  0.00     0.062 H 
ATOM     17  H   LIG d   1       2.310  -4.438 -10.718  0.00  0.00     0.062 H 
ENDROOT
BRANCH   1  18
ATOM     18  C   LIG d   1       4.089   0.087  -6.536  0.00  0.00     0.039 C 
ATOM     19  H   LIG d   1       4.158   1.109  -6.937  0.00  0.00     0.040 H 
ATOM     20  H   LIG d   1       5.085  -0.246  -6.208  0.00  0.00     0.040 H 
BRANCH  18  21
ATOM     21  C   LIG d   1       3.142   0.070  -5.364  0.00  0.00     0.168 C 
ATOM     22  O   LIG d   1       1.973   0.351  -5.525  0.00  0.00    -0.292 OA
BRANCH  21  23
ATOM     23  C   LIG d   1       3.634  -0.286  -4.024  0.00  0.00     0.018 A 
ATOM     24  C   LIG d   1       4.155   0.700  -3.182  0.00  0.00    -0.051 A 
ATOM     25  C   LIG d   1       4.615   0.358  -1.928  0.00  0.00    -0.061 A 
ATOM     26  H   LIG d   1       4.198   1.727  -3.512  0.00  0.00     0.062 H 
ATOM     27  C   LIG d   1       4.561  -0.958  -1.502  0.00  0.00    -0.062 A 
ATOM     28  H   LIG d   1       5.018   1.119  -1.276  0.00  0.00     0.062 H 
ATOM     29  C   LIG d   1       4.047  -1.940  -2.329  0.00  0.00    -0.061 A 
ATOM     30  H   LIG d   1       4.924  -1.220  -0.519  0.00  0.00     0.062 H 
ATOM     31  C   LIG d   1       3.578  -1.613  -3.584  0.00  0.00    -0.051 A 
ATOM     32  H   LIG d   1       4.008  -2.965  -1.990  0.00  0.00     0.062 H 
ATOM     33  H   LIG d   1       3.172  -2.380  -4.227  0.00  0.00     0.062 H 
ENDBRANCH  21  23
ENDBRANCH  18  21
ENDBRANCH   1  18
TORSDOF 3
ENDMDL
MODEL 8
REMARK VINA RESULT:      -6.8      1.815      2.520
REMARK  3 active torsions:
REMARK  status: ('A' for Active; 'I' for Inactive)
REMARK    1  A    between atoms: C_4  and  C_7 
REMARK    2  A    between atoms: C_7  and  C_9 
REMARK    3  A    between atoms: C_9  and  C_10 
ROOT
ATOM      1  C   LIG d   1       3.273  -0.077  -7.940  0.00  0.00     0.003 A 
ATOM      2  C   LIG d   1       3.547  -1.191  -8.669  0.00  0.00     0.190 A 
ATOM      3  C   LIG d   1       3.835  -1.119 -10.112  0.00  0.00     0.033 A 
ATOM      4  C   LIG d   1       4.112  -2.272 -10.837  0.00  0.00    -0.050 A 
ATOM      5  C   LIG d   1       4.375  -2.187 -12.195  0.00  0.00    -0.061 A 
ATOM      6  C   LIG d   1       4.376  -0.963 -12.836  0.00  0.00    -0.061 A 
ATOM      7  C   LIG d   1       4.101   0.198 -12.130  0.00  0.00    -0.050 A 
ATOM      8  C   LIG d   1       3.831   0.128 -10.768  0.00  0.00     0.032 A 
ATOM      9  C   LIG d   1       3.534   1.347  -9.987  0.00  0.00     0.179 A 
ATOM     10  O   LIG d   1       3.522   2.439 -10.516  0.00  0.00    -0.288 OA
ATOM     11  C   LIG d   1       3.250   1.199  -8.524  0.00  0.00    -0.052 A 
ATOM     12  O   LIG d   1       3.001   2.178  -7.847  0.00  0.00    -0.871 OA
ATOM     13  O   LIG d   1       3.555  -2.394  -8.054  0.00  0.00    -0.287 OA
ATOM     14  H   LIG d   1       4.119  -3.233 -10.345  0.00  0.00     0.062 H 
ATOM     15  H   LIG d   1       4.587  -3.085 -12.757  0.00  0.00     0.062 H 
ATOM     16  H   LIG d   1       4.586  -0.910 -13.894  0.00  0.00     0.062 H 
ATOM     17  H   LIG d   1       4.099   1.153 -12.634  0.00  0.00     0.062 H 
ENDROOT
BRANCH   1  18
ATOM     18  C   LIG d   1       2.987  -0.214  -6.467  0.00  0.00     0.039 C 
ATOM     19  H   LIG d   1       2.486  -1.175  -6.278  0.00  0.00     0.040 H 
ATOM     20  H   LIG d   1       2.333   0.609  -6.142  0.00  0.00     0.040 H 
BRANCH  18  21
ATOM     21  C   LIG d   1       4.281  -0.162  -5.696  0.00  0.00     0.168 C 
ATOM     22  O   LIG d   1       5.303   0.182  -6.250  0.00  0.00    -0.292 OA
BRANCH  21  23
ATOM     23  C   LIG d   1       4.305  -0.530  -4.272  0.00  0.00     0.018 A 
ATOM     24  C   LIG d   1       4.008  -1.838  -3.878  0.00  0.00    -0.051 A 
ATOM     25  C   LIG d   1       4.032  -2.173  -2.541  0.00  0.00    -0.061 A 
ATOM     26  H   LIG d   1       3.760  -2.583  -4.619  0.00  0.00     0.062 H 
ATOM     27  C   LIG d   1       4.350  -1.221  -1.590  0.00  0.00    -0.062 A 
ATOM     28  H   LIG d   1       3.803  -3.184  -2.235  0.00  0.00     0.062 H 
ATOM     29  C   LIG d   1       4.646   0.076  -1.971  0.00  0.00    -0.061 A 
ATOM     30  H   LIG d   1       4.367  -1.490  -0.544  0.00  0.00     0.062 H 
ATOM     31  C   LIG d   1       4.631   0.427  -3.305  0.00  0.00    -0.051 A 
ATOM     32  H   LIG d   1       4.893   0.815  -1.223  0.00  0.00     0.062 H 
ATOM     33  H   LIG d   1       4.867   1.439  -3.601  0.00  0.00     0.062 H 
ENDBRANCH  21  23
ENDBRANCH  18  21
ENDBRANCH   1  18
TORSDOF 3
ENDMDL
MODEL 9
REMARK VINA RESULT:      -6.7      1.869      6.718
REMARK  3 active torsions:
REMARK  status: ('A' for Active; 'I' for Inactive)
REMARK    1  A    between atoms: C_4  and  C_7 
REMARK    2  A    between atoms: C_7  and  C_9 
REMARK    3  A    between atoms: C_9  and  C_10 
ROOT
ATOM      1  C   LIG d   1       4.042  -0.376  -7.205  0.00  0.00     0.003 A 
ATOM      2  C   LIG d   1       3.477   0.065  -6.049  0.00  0.00     0.190 A 
ATOM      3  C   LIG d   1       3.627  -0.677  -4.785  0.00  0.00     0.033 A 
ATOM      4  C   LIG d   1       3.040  -0.207  -3.615  0.00  0.00    -0.050 A 
ATOM      5  C   LIG d   1       3.187  -0.919  -2.435  0.00  0.00    -0.061 A 
ATOM      6  C   LIG d   1       3.922  -2.089  -2.407  0.00  0.00    -0.061 A 
ATOM      7  C   LIG d   1       4.515  -2.573  -3.563  0.00  0.00    -0.050 A 
ATOM      8  C   LIG d   1       4.372  -1.871  -4.755  0.00  0.00     0.032 A 
ATOM      9  C   LIG d   1       4.991  -2.361  -6.005  0.00  0.00     0.179 A 
ATOM     10  O   LIG d   1       5.640  -3.386  -6.018  0.00  0.00    -0.288 OA
ATOM     11  C   LIG d   1       4.797  -1.557  -7.253  0.00  0.00    -0.052 A 
ATOM     12  O   LIG d   1       5.290  -1.927  -8.301  0.00  0.00    -0.871 OA
ATOM     13  O   LIG d   1       2.760   1.210  -6.061  0.00  0.00    -0.287 OA
ATOM     14  H   LIG d   1       2.468   0.708  -3.625  0.00  0.00     0.062 H 
ATOM     15  H   LIG d   1       2.727  -0.555  -1.528  0.00  0.00     0.062 H 
ATOM     16  H   LIG d   1       4.032  -2.632  -1.480  0.00  0.00     0.062 H 
ATOM     17  H   LIG d   1       5.086  -3.489  -3.538  0.00  0.00     0.062 H 
ENDROOT
BRANCH   1  18
ATOM     18  C   LIG d   1       3.853   0.426  -8.466  0.00  0.00     0.039 C 
ATOM     19  H   LIG d   1       4.802   0.465  -9.022  0.00  0.00     0.040 H 
ATOM     20  H   LIG d   1       3.538   1.448  -8.208  0.00  0.00     0.040 H 
BRANCH  18  21
ATOM     21  C   LIG d   1       2.797  -0.224  -9.323  0.00  0.00     0.168 C 
ATOM     22  O   LIG d   1       1.721  -0.512  -8.843  0.00  0.00    -0.292 OA
BRANCH  21  23
ATOM     23  C   LIG d   1       3.070  -0.509 -10.740  0.00  0.00     0.018 A 
ATOM     24  C   LIG d   1       2.177  -1.285 -11.485  0.00  0.00    -0.051 A 
ATOM     25  C   LIG d   1       2.442  -1.548 -12.813  0.00  0.00    -0.061 A 
ATOM     26  H   LIG d   1       1.284  -1.677 -11.023  0.00  0.00     0.062 H 
ATOM     27  C   LIG d   1       3.585  -1.047 -13.408  0.00  0.00    -0.062 A 
ATOM     28  H   LIG d   1       1.753  -2.147 -13.391  0.00  0.00     0.062 H 
ATOM     29  C   LIG d   1       4.474  -0.277 -12.677  0.00  0.00    -0.061 A 
ATOM     30  H   LIG d   1       3.787  -1.257 -14.448  0.00  0.00     0.062 H 
ATOM     31  C   LIG d   1       4.222  -0.001 -11.349  0.00  0.00    -0.051 A 
ATOM     32  H   LIG d   1       5.365   0.110 -13.148  0.00  0.00     0.062 H 
ATOM     33  H   LIG d   1       4.914   0.604 -10.782  0.00  0.00     0.062 H 
ENDBRANCH  21  23
ENDBRANCH  18  21
ENDBRANCH   1  18
TORSDOF 3
ENDMDL
MODEL 10
REMARK VINA RESULT:      -6.6      4.807      7.129
REMARK  3 active torsions:
REMARK  status: ('A' for Active; 'I' for Inactive)
REMARK    1  A    between atoms: C_4  and  C_7 
REMARK    2  A    between atoms: C_7  and  C_9 
REMARK    3  A    between atoms: C_9  and  C_10 
ROOT
ATOM      1  C   LIG d   1       8.215   0.293  -4.863  0.00  0.00     0.003 A 
ATOM      2  C   LIG d   1       7.278   0.995  -4.171  0.00  0.00     0.190 A 
ATOM      3  C   LIG d   1       6.242   0.320  -3.372  0.00  0.00     0.033 A 
ATOM      4  C   LIG d   1       5.293   1.059  -2.673  0.00  0.00    -0.050 A 
ATOM      5  C   LIG d   1       4.321   0.409  -1.930  0.00  0.00    -0.061 A 
ATOM      6  C   LIG d   1       4.292  -0.972  -1.865  0.00  0.00    -0.061 A 
ATOM      7  C   LIG d   1       5.229  -1.726  -2.555  0.00  0.00    -0.050 A 
ATOM      8  C   LIG d   1       6.207  -1.087  -3.308  0.00  0.00     0.032 A 
ATOM      9  C   LIG d   1       7.220  -1.862  -4.056  0.00  0.00     0.179 A 
ATOM     10  O   LIG d   1       7.223  -3.075  -4.026  0.00  0.00    -0.288 OA
ATOM     11  C   LIG d   1       8.243  -1.110  -4.848  0.00  0.00    -0.052 A 
ATOM     12  O   LIG d   1       9.094  -1.712  -5.477  0.00  0.00    -0.871 OA
ATOM     13  O   LIG d   1       7.298   2.345  -4.221  0.00  0.00    -0.287 OA
ATOM     14  H   LIG d   1       5.310   2.138  -2.713  0.00  0.00     0.062 H 
ATOM     15  H   LIG d   1       3.583   0.984  -1.391  0.00  0.00     0.062 H 
ATOM     16  H   LIG d   1       3.532  -1.466  -1.279  0.00  0.00     0.062 H 
ATOM     17  H   LIG d   1       5.202  -2.804  -2.506  0.00  0.00     0.062 H 
ENDROOT
BRANCH   1  18
ATOM     18  C   LIG d   1       9.250   1.039  -5.663  0.00  0.00     0.039 C 
ATOM     19  H   LIG d   1       8.800   1.948  -6.089  0.00  0.00     0.040 H 
ATOM     20  H   LIG d   1       9.617   0.397  -6.477  0.00  0.00     0.040 H 
BRANCH  18  21
ATOM     21  C   LIG d   1      10.401   1.421  -4.767  0.00  0.00     0.168 C 
ATOM     22  O   LIG d   1      11.273   0.614  -4.524  0.00  0.00    -0.292 OA
BRANCH  21  23
ATOM     23  C   LIG d   1      10.465   2.771  -4.186  0.00  0.00     0.018 A 
ATOM     24  C   LIG d   1      10.330   3.896  -5.005  0.00  0.00    -0.051 A 
ATOM     25  C   LIG d   1      10.392   5.158  -4.453  0.00  0.00    -0.061 A 
ATOM     26  H   LIG d   1      10.178   3.776  -6.067  0.00  0.00     0.062 H 
ATOM     27  C   LIG d   1      10.586   5.313  -3.092  0.00  0.00    -0.062 A 
ATOM     28  H   LIG d   1      10.288   6.028  -5.084  0.00  0.00     0.062 H 
ATOM     29  C   LIG d   1      10.721   4.205  -2.274  0.00  0.00    -0.061 A 
ATOM     30  H   LIG d   1      10.635   6.304  -2.665  0.00  0.00     0.062 H 
ATOM     31  C   LIG d   1      10.656   2.936  -2.810  0.00  0.00    -0.051 A 
ATOM     32  H   LIG d   1      10.873   4.333  -1.212  0.00  0.00     0.062 H 
ATOM     33  H   LIG d   1      10.756   2.072  -2.170  0.00  0.00     0.062 H 
ENDBRANCH  21  23
ENDBRANCH  18  21
ENDBRANCH   1  18
TORSDOF 3
ENDMDL
