MODEL 1
REMARK VINA RESULT:      -7.3      0.000      0.000
REMARK  4 active torsions:
REMARK  status: ('A' for Active; 'I' for Inactive)
REMARK    1  A    between atoms: C_1  and  N_2 
REMARK    2  A    between atoms: N_5  and  C_8 
REMARK    3  A    between atoms: C_8  and  C_9 
REMARK    4  A    between atoms: C_17  and  C_18 
ROOT
ATOM      1  C   LIG d   1       8.526   2.412  -8.278  0.00  0.00     0.032 A 
ATOM      2  C   LIG d   1       9.178   3.409  -8.985  0.00  0.00    -0.097 A 
ATOM      3  C   LIG d   1       9.824   4.445  -8.316  0.00  0.00    -0.068 A 
ATOM      4  C   LIG d   1       9.830   4.482  -6.951  0.00  0.00    -0.048 A 
ATOM      5  C   LIG d   1       9.181   3.482  -6.225  0.00  0.00     0.068 A 
ATOM      6  C   LIG d   1       8.521   2.435  -6.889  0.00  0.00     0.147 A 
ATOM      7  O   LIG d   1       7.974   1.595  -5.983  0.00  0.00    -0.451 OA
ATOM      8  C   LIG d   1       8.215   1.999  -4.713  0.00  0.00     0.176 A 
ATOM      9  C   LIG d   1       7.801   1.374  -3.580  0.00  0.00    -0.005 C 
ATOM     10  C   LIG d   1       9.006   3.235  -4.783  0.00  0.00     0.232 A 
ATOM     11  O   LIG d   1       9.422   3.907  -3.855  0.00  0.00    -0.283 OA
ATOM     12  O   LIG d   1       9.184   3.378 -10.342  0.00  0.00    -0.873 OA
ATOM     13  H   LIG d   1      10.325   5.219  -8.878  0.00  0.00     0.061 H 
ATOM     14  H   LIG d   1      10.335   5.284  -6.433  0.00  0.00     0.063 H 
ATOM     15  H   LIG d   1       8.138   1.735  -2.598  0.00  0.00     0.066 H 
ENDROOT
BRANCH   1  16
ATOM     16  C   LIG d   1       7.825   1.300  -9.015  0.00  0.00    -0.003 C 
ATOM     17  H   LIG d   1       8.400   0.369  -8.906  0.00  0.00     0.087 H 
ATOM     18  H   LIG d   1       7.746   1.560 -10.081  0.00  0.00     0.087 H 
BRANCH  16  19
ATOM     19  N   LIG d   1       6.479   1.114  -8.456  0.00  0.00     0.240 N 
ATOM     20  C   LIG d   1       6.253  -0.292  -8.087  0.00  0.00    -0.018 C 
ATOM     21  C   LIG d   1       4.874  -0.430  -7.438  0.00  0.00     0.039 C 
ATOM     22  H   LIG d   1       7.028  -0.614  -7.376  0.00  0.00     0.083 H 
ATOM     23  H   LIG d   1       6.298  -0.921  -8.988  0.00  0.00     0.083 H 
ATOM     24  N   LIG d   1       3.844   0.037  -8.376  0.00  0.00    -0.295 N 
ATOM     25  H   LIG d   1       4.837   0.178  -6.521  0.00  0.00     0.048 H 
ATOM     26  H   LIG d   1       4.691  -1.485  -7.186  0.00  0.00     0.048 H 
ATOM     27  C   LIG d   1       4.071   1.442  -8.746  0.00  0.00     0.039 C 
ATOM     28  C   LIG d   1       5.450   1.581  -9.395  0.00  0.00    -0.018 C 
ATOM     29  H   LIG d   1       3.296   1.763  -9.456  0.00  0.00     0.048 H 
ATOM     30  H   LIG d   1       4.024   2.070  -7.843  0.00  0.00     0.048 H 
ATOM     31  H   LIG d   1       5.634   2.635  -9.645  0.00  0.00     0.083 H 
ATOM     32  H   LIG d   1       5.486   0.973 -10.312  0.00  0.00     0.083 H 
ATOM     33  H   LIG d   1       6.407   1.720  -7.542  0.00  0.00     0.204 HD
BRANCH  24  34
ATOM     34  C   LIG d   1       2.499  -0.150  -7.817  0.00  0.00    -0.012 C 
ATOM     35  H   LIG d   1       2.573  -0.656  -6.843  0.00  0.00     0.039 H 
ATOM     36  H   LIG d   1       1.899  -0.766  -8.504  0.00  0.00     0.039 H 
ATOM     37  H   LIG d   1       2.017   0.829  -7.687  0.00  0.00     0.039 H 
ENDBRANCH  24  34
ENDBRANCH  16  19
ENDBRANCH   1  16
BRANCH   9  38
ATOM     38  C   LIG d   1       6.904   0.215  -3.668  0.00  0.00     0.022 A 
ATOM     39  C   LIG d   1       5.550   0.342  -3.317  0.00  0.00     0.136 A 
ATOM     40  C   LIG d   1       4.711  -0.757  -3.406  0.00  0.00     0.022 A 
ATOM     41  O   LIG d   1       5.077   1.540  -2.889  0.00  0.00    -0.465 OA
ATOM     42  C   LIG d   1       5.208  -1.974  -3.836  0.00  0.00    -0.035 A 
ATOM     43  C   LIG d   1       3.254  -0.635  -3.038  0.00  0.00     0.080 C 
ATOM     44  C   LIG d   1       6.544  -2.106  -4.182  0.00  0.00     0.042 A 
ATOM     45  H   LIG d   1       4.550  -2.828  -3.902  0.00  0.00     0.064 H 
ATOM     46  C   LIG d   1       7.393  -1.022  -4.107  0.00  0.00    -0.033 A 
ATOM     47 CL   LIG d   1       7.150  -3.641  -4.720  0.00  0.00    -0.084 Cl
ATOM     48  H   LIG d   1       8.431  -1.127  -4.383  0.00  0.00     0.064 H 
ATOM     49  O   LIG d   1       3.055   0.565  -2.286  0.00  0.00    -0.339 OA
ATOM     50  H   LIG d   1       2.647  -0.601  -3.954  0.00  0.00     0.061 H 
ATOM     51  H   LIG d   1       2.955  -1.503  -2.432  0.00  0.00     0.061 H 
ATOM     52  C   LIG d   1       3.657   1.715  -2.894  0.00  0.00     0.191 C 
ATOM     53  H   LIG d   1       3.396   2.619  -2.325  0.00  0.00     0.102 H 
ATOM     54  H   LIG d   1       3.304   1.819  -3.931  0.00  0.00     0.102 H 
ENDBRANCH   9  38
TORSDOF 4
ENDMDL
MODEL 2
REMARK VINA RESULT:      -6.6      1.759      2.570
REMARK  4 active torsions:
REMARK  status: ('A' for Active; 'I' for Inactive)
REMARK    1  A    between atoms: C_1  and  N_2 
REMARK    2  A    between atoms: N_5  and  C_8 
REMARK    3  A    between atoms: C_8  and  C_9 
REMARK    4  A    between atoms: C_17  and  C_18 
ROOT
ATOM      1  C   LIG d   1       8.430   2.415  -8.216  0.00  0.00     0.032 A 
ATOM      2  C   LIG d   1       9.167   3.425  -8.813  0.00  0.00    -0.097 A 
ATOM      3  C   LIG d   1       9.849   4.358  -8.036  0.00  0.00    -0.068 A 
ATOM      4  C   LIG d   1       9.807   4.278  -6.674  0.00  0.00    -0.048 A 
ATOM      5  C   LIG d   1       9.074   3.262  -6.059  0.00  0.00     0.068 A 
ATOM      6  C   LIG d   1       8.377   2.319  -6.831  0.00  0.00     0.147 A 
ATOM      7  O   LIG d   1       7.748   1.441  -6.020  0.00  0.00    -0.451 OA
ATOM      8  C   LIG d   1       7.967   1.719  -4.713  0.00  0.00     0.176 A 
ATOM      9  C   LIG d   1       7.475   1.027  -3.652  0.00  0.00    -0.005 C 
ATOM     10  C   LIG d   1       8.832   2.904  -4.649  0.00  0.00     0.232 A 
ATOM     11  O   LIG d   1       9.254   3.467  -3.654  0.00  0.00    -0.283 OA
ATOM     12  O   LIG d   1       9.219   3.510 -10.167  0.00  0.00    -0.873 OA
ATOM     13  H   LIG d   1      10.416   5.144  -8.513  0.00  0.00     0.061 H 
ATOM     14  H   LIG d   1      10.341   4.999  -6.072  0.00  0.00     0.063 H 
ATOM     15  H   LIG d   1       7.797   1.281  -2.632  0.00  0.00     0.066 H 
ENDROOT
BRANCH   1  16
ATOM     16  C   LIG d   1       7.691   1.416  -9.069  0.00  0.00    -0.003 C 
ATOM     17  H   LIG d   1       8.262   0.477  -9.112  0.00  0.00     0.087 H 
ATOM     18  H   LIG d   1       7.572   1.820 -10.085  0.00  0.00     0.087 H 
BRANCH  16  19
ATOM     19  N   LIG d   1       6.367   1.159  -8.487  0.00  0.00     0.240 N 
ATOM     20  C   LIG d   1       6.140  -0.283  -8.312  0.00  0.00    -0.018 C 
ATOM     21  C   LIG d   1       4.787  -0.506  -7.632  0.00  0.00     0.039 C 
ATOM     22  H   LIG d   1       6.940  -0.707  -7.687  0.00  0.00     0.083 H 
ATOM     23  H   LIG d   1       6.142  -0.778  -9.294  0.00  0.00     0.083 H 
ATOM     24  N   LIG d   1       3.726   0.096  -8.450  0.00  0.00    -0.295 N 
ATOM     25  H   LIG d   1       4.795  -0.035  -6.637  0.00  0.00     0.048 H 
ATOM     26  H   LIG d   1       4.602  -1.585  -7.525  0.00  0.00     0.048 H 
ATOM     27  C   LIG d   1       3.953   1.538  -8.625  0.00  0.00     0.039 C 
ATOM     28  C   LIG d   1       5.305   1.760  -9.305  0.00  0.00    -0.018 C 
ATOM     29  H   LIG d   1       3.153   1.961  -9.250  0.00  0.00     0.048 H 
ATOM     30  H   LIG d   1       3.950   2.031  -7.641  0.00  0.00     0.048 H 
ATOM     31  H   LIG d   1       5.491   2.839  -9.411  0.00  0.00     0.083 H 
ATOM     32  H   LIG d   1       5.298   1.289 -10.300  0.00  0.00     0.083 H 
ATOM     33  H   LIG d   1       6.339   1.630  -7.493  0.00  0.00     0.204 HD
BRANCH  24  34
ATOM     34  C   LIG d   1       2.403  -0.161  -7.867  0.00  0.00    -0.012 C 
ATOM     35  H   LIG d   1       2.510  -0.802  -6.980  0.00  0.00     0.039 H 
ATOM     36  H   LIG d   1       1.768  -0.669  -8.610  0.00  0.00     0.039 H 
ATOM     37  H   LIG d   1       1.937   0.792  -7.578  0.00  0.00     0.039 H 
ENDBRANCH  24  34
ENDBRANCH  16  19
ENDBRANCH   1  16
BRANCH   9  38
ATOM     38  C   LIG d   1       6.514  -0.062  -3.868  0.00  0.00     0.022 A 
ATOM     39  C   LIG d   1       6.960  -1.324  -4.294  0.00  0.00     0.136 A 
ATOM     40  C   LIG d   1       6.045  -2.345  -4.491  0.00  0.00     0.022 A 
ATOM     41  O   LIG d   1       8.284  -1.530  -4.511  0.00  0.00    -0.465 OA
ATOM     42  C   LIG d   1       4.698  -2.119  -4.273  0.00  0.00    -0.035 A 
ATOM     43  C   LIG d   1       6.508  -3.707  -4.942  0.00  0.00     0.080 C 
ATOM     44  C   LIG d   1       4.251  -0.875  -3.856  0.00  0.00     0.042 A 
ATOM     45  H   LIG d   1       3.989  -2.918  -4.431  0.00  0.00     0.064 H 
ATOM     46  C   LIG d   1       5.148   0.152  -3.646  0.00  0.00    -0.033 A 
ATOM     47 CL   LIG d   1       2.557  -0.609  -3.587  0.00  0.00    -0.084 Cl
ATOM     48  H   LIG d   1       4.797   1.118  -3.315  0.00  0.00     0.064 H 
ATOM     49  O   LIG d   1       7.840  -3.608  -5.455  0.00  0.00    -0.339 OA
ATOM     50  H   LIG d   1       6.493  -4.401  -4.089  0.00  0.00     0.061 H 
ATOM     51  H   LIG d   1       5.837  -4.080  -5.731  0.00  0.00     0.061 H 
ATOM     52  C   LIG d   1       8.723  -2.889  -4.585  0.00  0.00     0.191 C 
ATOM     53  H   LIG d   1       9.749  -2.923  -4.982  0.00  0.00     0.102 H 
ATOM     54  H   LIG d   1       8.705  -3.336  -3.579  0.00  0.00     0.102 H 
ENDBRANCH   9  38
TORSDOF 4
ENDMDL
MODEL 3
REMARK VINA RESULT:      -6.4      3.525      6.530
REMARK  4 active torsions:
REMARK  status: ('A' for Active; 'I' for Inactive)
REMARK    1  A    between atoms: C_1  and  N_2 
REMARK    2  A    between atoms: N_5  and  C_8 
REMARK    3  A    between atoms: C_8  and  C_9 
REMARK    4  A    between atoms: C_17  and  C_18 
ROOT
ATOM      1  C   LIG d   1       3.491  -2.657  -8.884  0.00  0.00     0.032 A 
ATOM      2  C   LIG d   1       2.989  -3.458  -9.897  0.00  0.00    -0.097 A 
ATOM      3  C   LIG d   1       2.911  -4.839  -9.736  0.00  0.00    -0.068 A 
ATOM      4  C   LIG d   1       3.321  -5.418  -8.569  0.00  0.00    -0.048 A 
ATOM      5  C   LIG d   1       3.823  -4.623  -7.538  0.00  0.00     0.068 A 
ATOM      6  C   LIG d   1       3.912  -3.230  -7.691  0.00  0.00     0.147 A 
ATOM      7  O   LIG d   1       4.424  -2.680  -6.568  0.00  0.00    -0.451 OA
ATOM      8  C   LIG d   1       4.702  -3.618  -5.631  0.00  0.00     0.176 A 
ATOM      9  C   LIG d   1       5.225  -3.389  -4.398  0.00  0.00    -0.005 C 
ATOM     10  C   LIG d   1       4.335  -4.926  -6.189  0.00  0.00     0.232 A 
ATOM     11  O   LIG d   1       4.433  -6.018  -5.656  0.00  0.00    -0.283 OA
ATOM     12  O   LIG d   1       2.573  -2.892 -11.059  0.00  0.00    -0.873 OA
ATOM     13  H   LIG d   1       2.523  -5.453 -10.535  0.00  0.00     0.061 H 
ATOM     14  H   LIG d   1       3.256  -6.488  -8.443  0.00  0.00     0.063 H 
ATOM     15  H   LIG d   1       5.318  -4.215  -3.679  0.00  0.00     0.066 H 
ENDROOT
BRANCH   1  16
ATOM     16  C   LIG d   1       3.575  -1.165  -9.075  0.00  0.00    -0.003 C 
ATOM     17  H   LIG d   1       2.992  -0.662  -8.290  0.00  0.00     0.087 H 
ATOM     18  H   LIG d   1       3.169  -0.898 -10.062  0.00  0.00     0.087 H 
BRANCH  16  19
ATOM     19  N   LIG d   1       4.979  -0.739  -8.992  0.00  0.00     0.240 N 
ATOM     20  C   LIG d   1       5.103   0.521  -8.245  0.00  0.00    -0.018 C 
ATOM     21  C   LIG d   1       6.582   0.890  -8.113  0.00  0.00     0.039 C 
ATOM     22  H   LIG d   1       4.664   0.400  -7.244  0.00  0.00     0.083 H 
ATOM     23  H   LIG d   1       4.573   1.322  -8.783  0.00  0.00     0.083 H 
ATOM     24  N   LIG d   1       7.175   1.014  -9.451  0.00  0.00    -0.295 N 
ATOM     25  H   LIG d   1       7.108   0.103  -7.551  0.00  0.00     0.048 H 
ATOM     26  H   LIG d   1       6.676   1.847  -7.579  0.00  0.00     0.048 H 
ATOM     27  C   LIG d   1       7.051  -0.246 -10.199  0.00  0.00     0.039 C 
ATOM     28  C   LIG d   1       5.571  -0.614 -10.331  0.00  0.00    -0.018 C 
ATOM     29  H   LIG d   1       7.490  -0.123 -11.199  0.00  0.00     0.048 H 
ATOM     30  H   LIG d   1       7.582  -1.045  -9.660  0.00  0.00     0.048 H 
ATOM     31  H   LIG d   1       5.477  -1.571 -10.864  0.00  0.00     0.083 H 
ATOM     32  H   LIG d   1       5.046   0.173 -10.893  0.00  0.00     0.083 H 
ATOM     33  H   LIG d   1       5.534  -1.514  -8.444  0.00  0.00     0.204 HD
BRANCH  24  34
ATOM     34  C   LIG d   1       8.578   1.440  -9.368  0.00  0.00    -0.012 C 
ATOM     35  H   LIG d   1       8.666   2.482  -9.710  0.00  0.00     0.039 H 
ATOM     36  H   LIG d   1       9.197   0.792 -10.007  0.00  0.00     0.039 H 
ATOM     37  H   LIG d   1       8.923   1.365  -8.327  0.00  0.00     0.039 H 
ENDBRANCH  24  34
ENDBRANCH  16  19
ENDBRANCH   1  16
BRANCH   9  38
ATOM     38  C   LIG d   1       5.665  -2.039  -4.027  0.00  0.00     0.022 A 
ATOM     39  C   LIG d   1       6.847  -1.506  -4.570  0.00  0.00     0.136 A 
ATOM     40  C   LIG d   1       7.251  -0.230  -4.216  0.00  0.00     0.022 A 
ATOM     41  O   LIG d   1       7.582  -2.250  -5.436  0.00  0.00    -0.465 OA
ATOM     42  C   LIG d   1       6.496   0.514  -3.327  0.00  0.00    -0.035 A 
ATOM     43  C   LIG d   1       8.513   0.357  -4.795  0.00  0.00     0.080 C 
ATOM     44  C   LIG d   1       5.331  -0.007  -2.786  0.00  0.00     0.042 A 
ATOM     45  H   LIG d   1       6.818   1.508  -3.053  0.00  0.00     0.064 H 
ATOM     46  C   LIG d   1       4.907  -1.272  -3.133  0.00  0.00    -0.033 A 
ATOM     47 CL   LIG d   1       4.396   0.942  -1.672  0.00  0.00    -0.084 Cl
ATOM     48  H   LIG d   1       3.996  -1.672  -2.713  0.00  0.00     0.064 H 
ATOM     49  O   LIG d   1       9.303  -0.689  -5.368  0.00  0.00    -0.339 OA
ATOM     50  H   LIG d   1       8.253   1.090  -5.573  0.00  0.00     0.061 H 
ATOM     51  H   LIG d   1       9.085   0.856  -3.998  0.00  0.00     0.061 H 
ATOM     52  C   LIG d   1       8.550  -1.554  -6.226  0.00  0.00     0.191 C 
ATOM     53  H   LIG d   1       9.221  -2.281  -6.708  0.00  0.00     0.102 H 
ATOM     54  H   LIG d   1       8.036  -0.961  -6.998  0.00  0.00     0.102 H 
ENDBRANCH   9  38
TORSDOF 4
ENDMDL
MODEL 4
REMARK VINA RESULT:      -6.4      2.873      4.943
REMARK  4 active torsions:
REMARK  status: ('A' for Active; 'I' for Inactive)
REMARK    1  A    between atoms: C_1  and  N_2 
REMARK    2  A    between atoms: N_5  and  C_8 
REMARK    3  A    between atoms: C_8  and  C_9 
REMARK    4  A    between atoms: C_17  and  C_18 
ROOT
ATOM      1  C   LIG d   1       9.096   2.554  -6.440  0.00  0.00     0.032 A 
ATOM      2  C   LIG d   1       9.828   3.530  -7.097  0.00  0.00    -0.097 A 
ATOM      3  C   LIG d   1       9.525   3.878  -8.411  0.00  0.00    -0.068 A 
ATOM      4  C   LIG d   1       8.492   3.265  -9.062  0.00  0.00    -0.048 A 
ATOM      5  C   LIG d   1       7.743   2.284  -8.410  0.00  0.00     0.068 A 
ATOM      6  C   LIG d   1       8.043   1.921  -7.087  0.00  0.00     0.147 A 
ATOM      7  O   LIG d   1       7.188   0.960  -6.674  0.00  0.00    -0.451 OA
ATOM      8  C   LIG d   1       6.300   0.627  -7.641  0.00  0.00     0.176 A 
ATOM      9  C   LIG d   1       5.315  -0.302  -7.539  0.00  0.00    -0.005 C 
ATOM     10  C   LIG d   1       6.596   1.454  -8.819  0.00  0.00     0.232 A 
ATOM     11  O   LIG d   1       6.021   1.453  -9.894  0.00  0.00    -0.283 OA
ATOM     12  O   LIG d   1      10.852   4.150  -6.456  0.00  0.00    -0.873 OA
ATOM     13  H   LIG d   1      10.105   4.636  -8.915  0.00  0.00     0.061 H 
ATOM     14  H   LIG d   1       8.255   3.539 -10.079  0.00  0.00     0.063 H 
ATOM     15  H   LIG d   1       4.586  -0.422  -8.354  0.00  0.00     0.066 H 
ENDROOT
BRANCH   1  16
ATOM     16  C   LIG d   1       9.440   2.184  -5.020  0.00  0.00    -0.003 C 
ATOM     17  H   LIG d   1       8.658   1.526  -4.613  0.00  0.00     0.087 H 
ATOM     18  H   LIG d   1       9.506   3.096  -4.409  0.00  0.00     0.087 H 
BRANCH  16  19
ATOM     19  N   LIG d   1      10.731   1.483  -4.995  0.00  0.00     0.240 N 
ATOM     20  C   LIG d   1      10.546   0.033  -5.148  0.00  0.00    -0.018 C 
ATOM     21  C   LIG d   1      11.914  -0.651  -5.196  0.00  0.00     0.039 C 
ATOM     22  H   LIG d   1      10.000  -0.171  -6.080  0.00  0.00     0.083 H 
ATOM     23  H   LIG d   1       9.972  -0.357  -4.295  0.00  0.00     0.083 H 
ATOM     24  N   LIG d   1      12.657  -0.344  -3.966  0.00  0.00    -0.295 N 
ATOM     25  H   LIG d   1      12.479  -0.282  -6.066  0.00  0.00     0.048 H 
ATOM     26  H   LIG d   1      11.779  -1.739  -5.282  0.00  0.00     0.048 H 
ATOM     27  C   LIG d   1      12.841   1.106  -3.812  0.00  0.00     0.039 C 
ATOM     28  C   LIG d   1      11.472   1.790  -3.764  0.00  0.00    -0.018 C 
ATOM     29  H   LIG d   1      13.387   1.309  -2.880  0.00  0.00     0.048 H 
ATOM     30  H   LIG d   1      13.416   1.494  -4.666  0.00  0.00     0.048 H 
ATOM     31  H   LIG d   1      11.608   2.877  -3.679  0.00  0.00     0.083 H 
ATOM     32  H   LIG d   1      10.908   1.420  -2.894  0.00  0.00     0.083 H 
ATOM     33  H   LIG d   1      11.325   1.842  -5.848  0.00  0.00     0.204 HD
BRANCH  24  34
ATOM     34  C   LIG d   1      13.947  -1.045  -3.941  0.00  0.00    -0.012 C 
ATOM     35  H   LIG d   1      13.863  -1.989  -4.498  0.00  0.00     0.039 H 
ATOM     36  H   LIG d   1      14.228  -1.259  -2.899  0.00  0.00     0.039 H 
ATOM     37  H   LIG d   1      14.717  -0.412  -4.405  0.00  0.00     0.039 H 
ENDBRANCH  24  34
ENDBRANCH  16  19
ENDBRANCH   1  16
BRANCH   9  38
ATOM     38  C   LIG d   1       5.222  -1.146  -6.342  0.00  0.00     0.022 A 
ATOM     39  C   LIG d   1       4.324  -0.817  -5.313  0.00  0.00     0.136 A 
ATOM     40  C   LIG d   1       4.242  -1.622  -4.189  0.00  0.00     0.022 A 
ATOM     41  O   LIG d   1       3.547   0.290  -5.429  0.00  0.00    -0.465 OA
ATOM     42  C   LIG d   1       5.046  -2.742  -4.080  0.00  0.00    -0.035 A 
ATOM     43  C   LIG d   1       3.279  -1.285  -3.079  0.00  0.00     0.080 C 
ATOM     44  C   LIG d   1       5.936  -3.071  -5.091  0.00  0.00     0.042 A 
ATOM     45  H   LIG d   1       4.979  -3.365  -3.200  0.00  0.00     0.064 H 
ATOM     46  C   LIG d   1       6.026  -2.287  -6.221  0.00  0.00    -0.033 A 
ATOM     47 CL   LIG d   1       6.936  -4.481  -4.937  0.00  0.00    -0.084 Cl
ATOM     48  H   LIG d   1       6.716  -2.549  -7.009  0.00  0.00     0.064 H 
ATOM     49  O   LIG d   1       2.845   0.070  -3.224  0.00  0.00    -0.339 OA
ATOM     50  H   LIG d   1       2.410  -1.957  -3.131  0.00  0.00     0.061 H 
ATOM     51  H   LIG d   1       3.781  -1.409  -2.108  0.00  0.00     0.061 H 
ATOM     52  C   LIG d   1       2.418   0.383  -4.556  0.00  0.00     0.191 C 
ATOM     53  H   LIG d   1       2.011   1.404  -4.589  0.00  0.00     0.102 H 
ATOM     54  H   LIG d   1       1.645  -0.331  -4.878  0.00  0.00     0.102 H 
ENDBRANCH   9  38
TORSDOF 4
ENDMDL
MODEL 5
REMARK VINA RESULT:      -6.3      3.966      5.516
REMARK  4 active torsions:
REMARK  status: ('A' for Active; 'I' for Inactive)
REMARK    1  A    between atoms: C_1  and  N_2 
REMARK    2  A    between atoms: N_5  and  C_8 
REMARK    3  A    between atoms: C_8  and  C_9 
REMARK    4  A    between atoms: C_17  and  C_18 
ROOT
ATOM      1  C   LIG d   1       4.743   0.119  -9.051  0.00  0.00     0.032 A 
ATOM      2  C   LIG d   1       4.029   1.108  -9.707  0.00  0.00    -0.097 A 
ATOM      3  C   LIG d   1       2.994   1.780  -9.063  0.00  0.00    -0.068 A 
ATOM      4  C   LIG d   1       2.681   1.478  -7.768  0.00  0.00    -0.048 A 
ATOM      5  C   LIG d   1       3.396   0.489  -7.092  0.00  0.00     0.068 A 
ATOM      6  C   LIG d   1       4.438  -0.201  -7.734  0.00  0.00     0.147 A 
ATOM      7  O   LIG d   1       4.977  -1.103  -6.885  0.00  0.00    -0.451 OA
ATOM      8  C   LIG d   1       4.366  -1.084  -5.677  0.00  0.00     0.176 A 
ATOM      9  C   LIG d   1       4.674  -1.867  -4.610  0.00  0.00    -0.005 C 
ATOM     10  C   LIG d   1       3.312  -0.062  -5.727  0.00  0.00     0.232 A 
ATOM     11  O   LIG d   1       2.540   0.258  -4.840  0.00  0.00    -0.283 OA
ATOM     12  O   LIG d   1       4.336   1.420 -10.992  0.00  0.00    -0.873 OA
ATOM     13  H   LIG d   1       2.441   2.546  -9.587  0.00  0.00     0.061 H 
ATOM     14  H   LIG d   1       1.881   2.004  -7.267  0.00  0.00     0.063 H 
ATOM     15  H   LIG d   1       4.178  -1.700  -3.644  0.00  0.00     0.066 H 
ENDROOT
BRANCH   1  16
ATOM     16  C   LIG d   1       5.856  -0.605  -9.763  0.00  0.00    -0.003 C 
ATOM     17  H   LIG d   1       6.826  -0.264  -9.372  0.00  0.00     0.087 H 
ATOM     18  H   LIG d   1       5.800  -0.394 -10.840  0.00  0.00     0.087 H 
BRANCH  16  19
ATOM     19  N   LIG d   1       5.721  -2.052  -9.540  0.00  0.00     0.240 N 
ATOM     20  C   LIG d   1       7.038  -2.685  -9.380  0.00  0.00    -0.018 C 
ATOM     21  C   LIG d   1       6.852  -4.172  -9.073  0.00  0.00     0.039 C 
ATOM     22  H   LIG d   1       7.579  -2.203  -8.553  0.00  0.00     0.083 H 
ATOM     23  H   LIG d   1       7.616  -2.573 -10.310  0.00  0.00     0.083 H 
ATOM     24  N   LIG d   1       6.096  -4.805 -10.162  0.00  0.00    -0.295 N 
ATOM     25  H   LIG d   1       6.298  -4.285  -8.128  0.00  0.00     0.048 H 
ATOM     26  H   LIG d   1       7.837  -4.655  -8.980  0.00  0.00     0.048 H 
ATOM     27  C   LIG d   1       4.779  -4.171 -10.322  0.00  0.00     0.039 C 
ATOM     28  C   LIG d   1       4.965  -2.684 -10.630  0.00  0.00    -0.018 C 
ATOM     29  H   LIG d   1       4.239  -4.653 -11.150  0.00  0.00     0.048 H 
ATOM     30  H   LIG d   1       4.202  -4.285  -9.392  0.00  0.00     0.048 H 
ATOM     31  H   LIG d   1       3.982  -2.201 -10.721  0.00  0.00     0.083 H 
ATOM     32  H   LIG d   1       5.519  -2.571 -11.575  0.00  0.00     0.083 H 
ATOM     33  H   LIG d   1       5.159  -2.198  -8.606  0.00  0.00     0.204 HD
BRANCH  24  34
ATOM     34  C   LIG d   1       5.961  -6.250  -9.939  0.00  0.00    -0.012 C 
ATOM     35  H   LIG d   1       5.392  -6.697 -10.767  0.00  0.00     0.039 H 
ATOM     36  H   LIG d   1       5.430  -6.427  -8.992  0.00  0.00     0.039 H 
ATOM     37  H   LIG d   1       6.960  -6.708  -9.890  0.00  0.00     0.039 H 
ENDBRANCH  24  34
ENDBRANCH  16  19
ENDBRANCH   1  16
BRANCH   9  38
ATOM     38  C   LIG d   1       5.668  -2.938  -4.749  0.00  0.00     0.022 A 
ATOM     39  C   LIG d   1       5.324  -4.145  -5.382  0.00  0.00     0.136 A 
ATOM     40  C   LIG d   1       6.271  -5.147  -5.510  0.00  0.00     0.022 A 
ATOM     41  O   LIG d   1       4.065  -4.317  -5.858  0.00  0.00    -0.465 OA
ATOM     42  C   LIG d   1       7.548  -4.961  -5.014  0.00  0.00    -0.035 A 
ATOM     43  C   LIG d   1       5.918  -6.445  -6.192  0.00  0.00     0.080 C 
ATOM     44  C   LIG d   1       7.893  -3.774  -4.386  0.00  0.00     0.042 A 
ATOM     45  H   LIG d   1       8.282  -5.747  -5.115  0.00  0.00     0.064 H 
ATOM     46  C   LIG d   1       6.967  -2.761  -4.256  0.00  0.00    -0.033 A 
ATOM     47 CL   LIG d   1       9.501  -3.558  -3.770  0.00  0.00    -0.084 Cl
ATOM     48  H   LIG d   1       7.241  -1.835  -3.772  0.00  0.00     0.064 H 
ATOM     49  O   LIG d   1       4.495  -6.562  -6.280  0.00  0.00    -0.339 OA
ATOM     50  H   LIG d   1       6.352  -6.458  -7.202  0.00  0.00     0.061 H 
ATOM     51  H   LIG d   1       6.321  -7.287  -5.609  0.00  0.00     0.061 H 
ATOM     52  C   LIG d   1       3.866  -5.381  -6.793  0.00  0.00     0.191 C 
ATOM     53  H   LIG d   1       2.789  -5.558  -6.925  0.00  0.00     0.102 H 
ATOM     54  H   LIG d   1       4.315  -5.108  -7.760  0.00  0.00     0.102 H 
ENDBRANCH   9  38
TORSDOF 4
ENDMDL
MODEL 6
REMARK VINA RESULT:      -6.3      3.607      5.603
REMARK  4 active torsions:
REMARK  status: ('A' for Active; 'I' for Inactive)
REMARK    1  A    between atoms: C_1  and  N_2 
REMARK    2  A    between atoms: N_5  and  C_8 
REMARK    3  A    between atoms: C_8  and  C_9 
REMARK    4  A    between atoms: C_17  and  C_18 
ROOT
ATOM      1  C   LIG d   1       3.399  -2.230 -10.211  0.00  0.00     0.032 A 
ATOM      2  C   LIG d   1       2.968  -2.012 -11.509  0.00  0.00    -0.097 A 
ATOM      3  C   LIG d   1       3.285  -0.828 -12.171  0.00  0.00    -0.068 A 
ATOM      4  C   LIG d   1       4.035   0.127 -11.547  0.00  0.00    -0.048 A 
ATOM      5  C   LIG d   1       4.480  -0.081 -10.241  0.00  0.00     0.068 A 
ATOM      6  C   LIG d   1       4.163  -1.269  -9.561  0.00  0.00     0.147 A 
ATOM      7  O   LIG d   1       4.700  -1.242  -8.322  0.00  0.00    -0.451 OA
ATOM      8  C   LIG d   1       5.381  -0.094  -8.094  0.00  0.00     0.176 A 
ATOM      9  C   LIG d   1       6.034   0.238  -6.950  0.00  0.00    -0.005 C 
ATOM     10  C   LIG d   1       5.287   0.727  -9.309  0.00  0.00     0.232 A 
ATOM     11  O   LIG d   1       5.767   1.831  -9.502  0.00  0.00    -0.283 OA
ATOM     12  O   LIG d   1       2.227  -2.958 -12.141  0.00  0.00    -0.873 OA
ATOM     13  H   LIG d   1       2.939  -0.667 -13.182  0.00  0.00     0.061 H 
ATOM     14  H   LIG d   1       4.284   1.043 -12.063  0.00  0.00     0.063 H 
ATOM     15  H   LIG d   1       6.638   1.155  -6.908  0.00  0.00     0.066 H 
ENDROOT
BRANCH   1  16
ATOM     16  C   LIG d   1       3.043  -3.513  -9.504  0.00  0.00    -0.003 C 
ATOM     17  H   LIG d   1       2.763  -4.274 -10.246  0.00  0.00     0.087 H 
ATOM     18  H   LIG d   1       2.198  -3.335  -8.824  0.00  0.00     0.087 H 
BRANCH  16  19
ATOM     19  N   LIG d   1       4.201  -3.984  -8.732  0.00  0.00     0.240 N 
ATOM     20  C   LIG d   1       4.981  -4.965  -9.500  0.00  0.00    -0.018 C 
ATOM     21  C   LIG d   1       6.218  -5.372  -8.695  0.00  0.00     0.039 C 
ATOM     22  H   LIG d   1       5.294  -4.519 -10.455  0.00  0.00     0.083 H 
ATOM     23  H   LIG d   1       4.364  -5.855  -9.696  0.00  0.00     0.083 H 
ATOM     24  N   LIG d   1       5.797  -5.932  -7.404  0.00  0.00    -0.295 N 
ATOM     25  H   LIG d   1       6.850  -4.487  -8.523  0.00  0.00     0.048 H 
ATOM     26  H   LIG d   1       6.789  -6.127  -9.256  0.00  0.00     0.048 H 
ATOM     27  C   LIG d   1       5.016  -4.952  -6.636  0.00  0.00     0.039 C 
ATOM     28  C   LIG d   1       3.779  -4.545  -7.441  0.00  0.00    -0.018 C 
ATOM     29  H   LIG d   1       4.704  -5.399  -5.682  0.00  0.00     0.048 H 
ATOM     30  H   LIG d   1       5.636  -4.063  -6.440  0.00  0.00     0.048 H 
ATOM     31  H   LIG d   1       3.209  -3.790  -6.882  0.00  0.00     0.083 H 
ATOM     32  H   LIG d   1       3.147  -5.430  -7.614  0.00  0.00     0.083 H 
ATOM     33  H   LIG d   1       4.848  -3.118  -8.532  0.00  0.00     0.204 HD
BRANCH  24  34
ATOM     34  C   LIG d   1       6.954  -6.404  -6.633  0.00  0.00    -0.012 C 
ATOM     35  H   LIG d   1       6.805  -6.173  -5.568  0.00  0.00     0.039 H 
ATOM     36  H   LIG d   1       7.864  -5.900  -6.992  0.00  0.00     0.039 H 
ATOM     37  H   LIG d   1       7.063  -7.490  -6.761  0.00  0.00     0.039 H 
ENDBRANCH  24  34
ENDBRANCH  16  19
ENDBRANCH   1  16
BRANCH   9  38
ATOM     38  C   LIG d   1       5.931  -0.628  -5.769  0.00  0.00     0.022 A 
ATOM     39  C   LIG d   1       4.833  -0.510  -4.900  0.00  0.00     0.136 A 
ATOM     40  C   LIG d   1       4.745  -1.335  -3.790  0.00  0.00     0.022 A 
ATOM     41  O   LIG d   1       3.872   0.413  -5.154  0.00  0.00    -0.465 OA
ATOM     42  C   LIG d   1       5.736  -2.266  -3.539  0.00  0.00    -0.035 A 
ATOM     43  C   LIG d   1       3.570  -1.224  -2.851  0.00  0.00     0.080 C 
ATOM     44  C   LIG d   1       6.822  -2.386  -4.392  0.00  0.00     0.042 A 
ATOM     45  H   LIG d   1       5.662  -2.905  -2.672  0.00  0.00     0.064 H 
ATOM     46  C   LIG d   1       6.924  -1.580  -5.506  0.00  0.00    -0.033 A 
ATOM     47 CL   LIG d   1       8.056  -3.561  -4.061  0.00  0.00    -0.084 Cl
ATOM     48  H   LIG d   1       7.769  -1.680  -6.171  0.00  0.00     0.064 H 
ATOM     49  O   LIG d   1       2.893   0.014  -3.084  0.00  0.00    -0.339 OA
ATOM     50  H   LIG d   1       2.879  -2.061  -3.029  0.00  0.00     0.061 H 
ATOM     51  H   LIG d   1       3.928  -1.259  -1.811  0.00  0.00     0.061 H 
ATOM     52  C   LIG d   1       2.626   0.255  -4.471  0.00  0.00     0.191 C 
ATOM     53  H   LIG d   1       2.026   1.170  -4.583  0.00  0.00     0.102 H 
ATOM     54  H   LIG d   1       2.078  -0.597  -4.900  0.00  0.00     0.102 H 
ENDBRANCH   9  38
TORSDOF 4
ENDMDL
MODEL 7
REMARK VINA RESULT:      -6.2      3.464      7.134
REMARK  4 active torsions:
REMARK  status: ('A' for Active; 'I' for Inactive)
REMARK    1  A    between atoms: C_1  and  N_2 
REMARK    2  A    between atoms: N_5  and  C_8 
REMARK    3  A    between atoms: C_8  and  C_9 
REMARK    4  A    between atoms: C_17  and  C_18 
ROOT
ATOM      1  C   LIG d   1       5.797  -2.462  -4.449  0.00  0.00     0.032 A 
ATOM      2  C   LIG d   1       4.692  -3.112  -3.925  0.00  0.00    -0.097 A 
ATOM      3  C   LIG d   1       3.877  -2.481  -2.988  0.00  0.00    -0.068 A 
ATOM      4  C   LIG d   1       4.155  -1.206  -2.585  0.00  0.00    -0.048 A 
ATOM      5  C   LIG d   1       5.263  -0.538  -3.108  0.00  0.00     0.068 A 
ATOM      6  C   LIG d   1       6.095  -1.166  -4.049  0.00  0.00     0.147 A 
ATOM      7  O   LIG d   1       7.092  -0.327  -4.406  0.00  0.00    -0.451 OA
ATOM      8  C   LIG d   1       7.004   0.861  -3.764  0.00  0.00     0.176 A 
ATOM      9  C   LIG d   1       7.852   1.914  -3.904  0.00  0.00    -0.005 C 
ATOM     10  C   LIG d   1       5.825   0.807  -2.889  0.00  0.00     0.232 A 
ATOM     11  O   LIG d   1       5.407   1.679  -2.147  0.00  0.00    -0.283 OA
ATOM     12  O   LIG d   1       4.402  -4.377  -4.324  0.00  0.00    -0.873 OA
ATOM     13  H   LIG d   1       3.020  -3.000  -2.583  0.00  0.00     0.061 H 
ATOM     14  H   LIG d   1       3.520  -0.716  -1.862  0.00  0.00     0.063 H 
ATOM     15  H   LIG d   1       7.630   2.869  -3.407  0.00  0.00     0.066 H 
ENDROOT
BRANCH   1  16
ATOM     16  C   LIG d   1       6.674  -3.160  -5.456  0.00  0.00    -0.003 C 
ATOM     17  H   LIG d   1       7.425  -2.454  -5.840  0.00  0.00     0.087 H 
ATOM     18  H   LIG d   1       6.055  -3.526  -6.289  0.00  0.00     0.087 H 
BRANCH  16  19
ATOM     19  N   LIG d   1       7.352  -4.295  -4.814  0.00  0.00     0.240 N 
ATOM     20  C   LIG d   1       8.629  -3.876  -4.220  0.00  0.00    -0.018 C 
ATOM     21  C   LIG d   1       9.265  -5.065  -3.495  0.00  0.00     0.039 C 
ATOM     22  H   LIG d   1       8.452  -3.061  -3.503  0.00  0.00     0.083 H 
ATOM     23  H   LIG d   1       9.307  -3.526  -5.012  0.00  0.00     0.083 H 
ATOM     24  N   LIG d   1       9.465  -6.166  -4.446  0.00  0.00    -0.295 N 
ATOM     25  H   LIG d   1       8.600  -5.398  -2.683  0.00  0.00     0.048 H 
ATOM     26  H   LIG d   1      10.235  -4.762  -3.073  0.00  0.00     0.048 H 
ATOM     27  C   LIG d   1       8.188  -6.584  -5.042  0.00  0.00     0.039 C 
ATOM     28  C   LIG d   1       7.552  -5.395  -5.767  0.00  0.00    -0.018 C 
ATOM     29  H   LIG d   1       8.366  -7.399  -5.757  0.00  0.00     0.048 H 
ATOM     30  H   LIG d   1       7.512  -6.935  -4.247  0.00  0.00     0.048 H 
ATOM     31  H   LIG d   1       6.583  -5.697  -6.188  0.00  0.00     0.083 H 
ATOM     32  H   LIG d   1       8.218  -5.062  -6.578  0.00  0.00     0.083 H 
ATOM     33  H   LIG d   1       6.703  -4.659  -4.004  0.00  0.00     0.204 HD
BRANCH  24  34
ATOM     34  C   LIG d   1      10.143  -7.300  -3.805  0.00  0.00    -0.012 C 
ATOM     35  H   LIG d   1      10.286  -8.106  -4.539  0.00  0.00     0.039 H 
ATOM     36  H   LIG d   1       9.528  -7.670  -2.970  0.00  0.00     0.039 H 
ATOM     37  H   LIG d   1      11.121  -6.974  -3.422  0.00  0.00     0.039 H 
ENDBRANCH  24  34
ENDBRANCH  16  19
ENDBRANCH   1  16
BRANCH   9  38
ATOM     38  C   LIG d   1       9.065   1.775  -4.719  0.00  0.00     0.022 A 
ATOM     39  C   LIG d   1       8.975   1.745  -6.121  0.00  0.00     0.136 A 
ATOM     40  C   LIG d   1      10.126   1.617  -6.880  0.00  0.00     0.022 A 
ATOM     41  O   LIG d   1       7.759   1.837  -6.717  0.00  0.00    -0.465 OA
ATOM     42  C   LIG d   1      11.358   1.517  -6.259  0.00  0.00    -0.035 A 
ATOM     43  C   LIG d   1      10.046   1.589  -8.386  0.00  0.00     0.080 C 
ATOM     44  C   LIG d   1      11.453   1.545  -4.876  0.00  0.00     0.042 A 
ATOM     45  H   LIG d   1      12.252   1.416  -6.856  0.00  0.00     0.064 H 
ATOM     46  C   LIG d   1      10.319   1.679  -4.103  0.00  0.00    -0.033 A 
ATOM     47 CL   LIG d   1      13.007   1.418  -4.114  0.00  0.00    -0.084 Cl
ATOM     48  H   LIG d   1      10.398   1.706  -3.026  0.00  0.00     0.064 H 
ATOM     49  O   LIG d   1       8.697   1.330  -8.783  0.00  0.00    -0.339 OA
ATOM     50  H   LIG d   1      10.369   2.560  -8.788  0.00  0.00     0.061 H 
ATOM     51  H   LIG d   1      10.703   0.795  -8.772  0.00  0.00     0.061 H 
ATOM     52  C   LIG d   1       7.744   2.163  -8.110  0.00  0.00     0.191 C 
ATOM     53  H   LIG d   1       6.738   1.987  -8.518  0.00  0.00     0.102 H 
ATOM     54  H   LIG d   1       8.014   3.222  -8.241  0.00  0.00     0.102 H 
ENDBRANCH   9  38
TORSDOF 4
ENDMDL
MODEL 8
REMARK VINA RESULT:      -6.2      3.137      6.887
REMARK  4 active torsions:
REMARK  status: ('A' for Active; 'I' for Inactive)
REMARK    1  A    between atoms: C_1  and  N_2 
REMARK    2  A    between atoms: N_5  and  C_8 
REMARK    3  A    between atoms: C_8  and  C_9 
REMARK    4  A    between atoms: C_17  and  C_18 
ROOT
ATOM      1  C   LIG d   1       5.633  -2.308  -4.589  0.00  0.00     0.032 A 
ATOM      2  C   LIG d   1       4.681  -3.166  -4.063  0.00  0.00    -0.097 A 
ATOM      3  C   LIG d   1       3.915  -2.787  -2.963  0.00  0.00    -0.068 A 
ATOM      4  C   LIG d   1       4.089  -1.556  -2.398  0.00  0.00    -0.048 A 
ATOM      5  C   LIG d   1       5.040  -0.679  -2.921  0.00  0.00     0.068 A 
ATOM      6  C   LIG d   1       5.822  -1.052  -4.026  0.00  0.00     0.147 A 
ATOM      7  O   LIG d   1       6.665  -0.046  -4.348  0.00  0.00    -0.451 OA
ATOM      8  C   LIG d   1       6.515   1.018  -3.524  0.00  0.00     0.176 A 
ATOM      9  C   LIG d   1       7.211   2.183  -3.585  0.00  0.00    -0.005 C 
ATOM     10  C   LIG d   1       5.463   0.685  -2.554  0.00  0.00     0.232 A 
ATOM     11  O   LIG d   1       5.037   1.380  -1.649  0.00  0.00    -0.283 OA
ATOM     12  O   LIG d   1       4.496  -4.390  -4.622  0.00  0.00    -0.873 OA
ATOM     13  H   LIG d   1       3.179  -3.467  -2.560  0.00  0.00     0.061 H 
ATOM     14  H   LIG d   1       3.491  -1.261  -1.549  0.00  0.00     0.063 H 
ATOM     15  H   LIG d   1       6.940   3.021  -2.927  0.00  0.00     0.066 H 
ENDROOT
BRANCH   1  16
ATOM     16  C   LIG d   1       6.459  -2.734  -5.775  0.00  0.00    -0.003 C 
ATOM     17  H   LIG d   1       6.144  -2.169  -6.663  0.00  0.00     0.087 H 
ATOM     18  H   LIG d   1       6.315  -3.809  -5.954  0.00  0.00     0.087 H 
BRANCH  16  19
ATOM     19  N   LIG d   1       7.879  -2.469  -5.504  0.00  0.00     0.240 N 
ATOM     20  C   LIG d   1       8.579  -2.052  -6.727  0.00  0.00    -0.018 C 
ATOM     21  C   LIG d   1      10.032  -1.710  -6.389  0.00  0.00     0.039 C 
ATOM     22  H   LIG d   1       8.082  -1.167  -7.151  0.00  0.00     0.083 H 
ATOM     23  H   LIG d   1       8.557  -2.870  -7.462  0.00  0.00     0.083 H 
ATOM     24  N   LIG d   1      10.681  -2.883  -5.788  0.00  0.00    -0.295 N 
ATOM     25  H   LIG d   1      10.055  -0.872  -5.675  0.00  0.00     0.048 H 
ATOM     26  H   LIG d   1      10.565  -1.424  -7.308  0.00  0.00     0.048 H 
ATOM     27  C   LIG d   1       9.981  -3.301  -4.565  0.00  0.00     0.039 C 
ATOM     28  C   LIG d   1       8.528  -3.643  -4.903  0.00  0.00    -0.018 C 
ATOM     29  H   LIG d   1      10.478  -4.185  -4.142  0.00  0.00     0.048 H 
ATOM     30  H   LIG d   1      10.005  -2.481  -3.831  0.00  0.00     0.048 H 
ATOM     31  H   LIG d   1       7.994  -3.927  -3.985  0.00  0.00     0.083 H 
ATOM     32  H   LIG d   1       8.504  -4.480  -5.617  0.00  0.00     0.083 H 
ATOM     33  H   LIG d   1       7.935  -1.642  -4.781  0.00  0.00     0.204 HD
BRANCH  24  34
ATOM     34  C   LIG d   1      12.100  -2.618  -5.518  0.00  0.00    -0.012 C 
ATOM     35  H   LIG d   1      12.525  -2.021  -6.338  0.00  0.00     0.039 H 
ATOM     36  H   LIG d   1      12.643  -3.572  -5.441  0.00  0.00     0.039 H 
ATOM     37  H   LIG d   1      12.196  -2.064  -4.573  0.00  0.00     0.039 H 
ENDBRANCH  24  34
ENDBRANCH  16  19
ENDBRANCH   1  16
BRANCH   9  38
ATOM     38  C   LIG d   1       8.326   2.323  -4.529  0.00  0.00     0.022 A 
ATOM     39  C   LIG d   1       9.509   2.972  -4.134  0.00  0.00     0.136 A 
ATOM     40  C   LIG d   1      10.557   3.096  -5.032  0.00  0.00     0.022 A 
ATOM     41  O   LIG d   1       9.611   3.474  -2.878  0.00  0.00    -0.465 OA
ATOM     42  C   LIG d   1      10.436   2.585  -6.311  0.00  0.00    -0.035 A 
ATOM     43  C   LIG d   1      11.834   3.784  -4.621  0.00  0.00     0.080 C 
ATOM     44  C   LIG d   1       9.271   1.946  -6.707  0.00  0.00     0.042 A 
ATOM     45  H   LIG d   1      11.255   2.687  -7.008  0.00  0.00     0.064 H 
ATOM     46  C   LIG d   1       8.220   1.806  -5.826  0.00  0.00    -0.033 A 
ATOM     47 CL   LIG d   1       9.138   1.312  -8.318  0.00  0.00    -0.084 Cl
ATOM     48  H   LIG d   1       7.317   1.302  -6.136  0.00  0.00     0.064 H 
ATOM     49  O   LIG d   1      11.602   4.540  -3.430  0.00  0.00    -0.339 OA
ATOM     50  H   LIG d   1      12.612   3.030  -4.434  0.00  0.00     0.061 H 
ATOM     51  H   LIG d   1      12.162   4.458  -5.427  0.00  0.00     0.061 H 
ATOM     52  C   LIG d   1      10.926   3.791  -2.412  0.00  0.00     0.191 C 
ATOM     53  H   LIG d   1      10.856   4.388  -1.491  0.00  0.00     0.102 H 
ATOM     54  H   LIG d   1      11.476   2.860  -2.205  0.00  0.00     0.102 H 
ENDBRANCH   9  38
TORSDOF 4
ENDMDL
MODEL 9
REMARK VINA RESULT:      -6.2      3.312      6.122
REMARK  4 active torsions:
REMARK  status: ('A' for Active; 'I' for Inactive)
REMARK    1  A    between atoms: C_1  and  N_2 
REMARK    2  A    between atoms: N_5  and  C_8 
REMARK    3  A    between atoms: C_8  and  C_9 
REMARK    4  A    between atoms: C_17  and  C_18 
ROOT
ATOM      1  C   LIG d   1       3.238  -1.504  -9.649  0.00  0.00     0.032 A 
ATOM      2  C   LIG d   1       2.519  -1.855 -10.780  0.00  0.00    -0.097 A 
ATOM      3  C   LIG d   1       2.150  -3.180 -11.002  0.00  0.00    -0.068 A 
ATOM      4  C   LIG d   1       2.484  -4.146 -10.096  0.00  0.00    -0.048 A 
ATOM      5  C   LIG d   1       3.203  -3.805  -8.949  0.00  0.00     0.068 A 
ATOM      6  C   LIG d   1       3.587  -2.474  -8.718  0.00  0.00     0.147 A 
ATOM      7  O   LIG d   1       4.266  -2.392  -7.553  0.00  0.00    -0.451 OA
ATOM      8  C   LIG d   1       4.381  -3.600  -6.952  0.00  0.00     0.176 A 
ATOM      9  C   LIG d   1       5.006  -3.853  -5.772  0.00  0.00    -0.005 C 
ATOM     10  C   LIG d   1       3.706  -4.587  -7.806  0.00  0.00     0.232 A 
ATOM     11  O   LIG d   1       3.591  -5.785  -7.612  0.00  0.00    -0.283 OA
ATOM     12  O   LIG d   1       2.177  -0.902 -11.683  0.00  0.00    -0.873 OA
ATOM     13  H   LIG d   1       1.594  -3.442 -11.890  0.00  0.00     0.061 H 
ATOM     14  H   LIG d   1       2.193  -5.172 -10.266  0.00  0.00     0.063 H 
ATOM     15  H   LIG d   1       4.954  -4.856  -5.326  0.00  0.00     0.066 H 
ENDROOT
BRANCH   1  16
ATOM     16  C   LIG d   1       3.637  -0.068  -9.426  0.00  0.00    -0.003 C 
ATOM     17  H   LIG d   1       3.159   0.307  -8.510  0.00  0.00     0.087 H 
ATOM     18  H   LIG d   1       3.315   0.539 -10.284  0.00  0.00     0.087 H 
BRANCH  16  19
ATOM     19  N   LIG d   1       5.097   0.019  -9.287  0.00  0.00     0.240 N 
ATOM     20  C   LIG d   1       5.488   1.267  -8.615  0.00  0.00    -0.018 C 
ATOM     21  C   LIG d   1       7.006   1.283  -8.419  0.00  0.00     0.039 C 
ATOM     22  H   LIG d   1       4.991   1.329  -7.637  0.00  0.00     0.083 H 
ATOM     23  H   LIG d   1       5.190   2.126  -9.233  0.00  0.00     0.083 H 
ATOM     24  N   LIG d   1       7.669   1.161  -9.724  0.00  0.00    -0.295 N 
ATOM     25  H   LIG d   1       7.302   0.439  -7.777  0.00  0.00     0.048 H 
ATOM     26  H   LIG d   1       7.305   2.229  -7.942  0.00  0.00     0.048 H 
ATOM     27  C   LIG d   1       7.277  -0.086 -10.396  0.00  0.00     0.039 C 
ATOM     28  C   LIG d   1       5.759  -0.103 -10.593  0.00  0.00    -0.018 C 
ATOM     29  H   LIG d   1       7.775  -0.148 -11.374  0.00  0.00     0.048 H 
ATOM     30  H   LIG d   1       7.577  -0.945  -9.777  0.00  0.00     0.048 H 
ATOM     31  H   LIG d   1       5.460  -1.048 -11.068  0.00  0.00     0.083 H 
ATOM     32  H   LIG d   1       5.463   0.741 -11.234  0.00  0.00     0.083 H 
ATOM     33  H   LIG d   1       5.427  -0.822  -8.658  0.00  0.00     0.204 HD
BRANCH  24  34
ATOM     34  C   LIG d   1       9.127   1.248  -9.585  0.00  0.00    -0.012 C 
ATOM     35  H   LIG d   1       9.385   2.108  -8.950  0.00  0.00     0.039 H 
ATOM     36  H   LIG d   1       9.584   1.378 -10.578  0.00  0.00     0.039 H 
ATOM     37  H   LIG d   1       9.508   0.325  -9.125  0.00  0.00     0.039 H 
ENDBRANCH  24  34
ENDBRANCH  16  19
ENDBRANCH   1  16
BRANCH   9  38
ATOM     38  C   LIG d   1       5.750  -2.785  -5.093  0.00  0.00     0.022 A 
ATOM     39  C   LIG d   1       5.122  -1.997  -4.114  0.00  0.00     0.136 A 
ATOM     40  C   LIG d   1       5.835  -0.995  -3.477  0.00  0.00     0.022 A 
ATOM     41  O   LIG d   1       3.820  -2.224  -3.805  0.00  0.00    -0.465 OA
ATOM     42  C   LIG d   1       7.159  -0.771  -3.808  0.00  0.00    -0.035 A 
ATOM     43  C   LIG d   1       5.176  -0.145  -2.421  0.00  0.00     0.080 C 
ATOM     44  C   LIG d   1       7.784  -1.543  -4.774  0.00  0.00     0.042 A 
ATOM     45  H   LIG d   1       7.710   0.014  -3.309  0.00  0.00     0.064 H 
ATOM     46  C   LIG d   1       7.093  -2.551  -5.414  0.00  0.00    -0.033 A 
ATOM     47 CL   LIG d   1       9.447  -1.247  -5.176  0.00  0.00    -0.084 Cl
ATOM     48  H   LIG d   1       7.586  -3.154  -6.162  0.00  0.00     0.064 H 
ATOM     49  O   LIG d   1       3.756  -0.293  -2.512  0.00  0.00    -0.339 OA
ATOM     50  H   LIG d   1       5.517  -0.467  -1.426  0.00  0.00     0.061 H 
ATOM     51  H   LIG d   1       5.447   0.910  -2.577  0.00  0.00     0.061 H 
ATOM     52  C   LIG d   1       3.338  -1.662  -2.581  0.00  0.00     0.191 C 
ATOM     53  H   LIG d   1       2.240  -1.720  -2.557  0.00  0.00     0.102 H 
ATOM     54  H   LIG d   1       3.754  -2.224  -1.731  0.00  0.00     0.102 H 
ENDBRANCH   9  38
TORSDOF 4
ENDMDL
