MODEL 1
REMARK VINA RESULT:      -8.1      0.000      0.000
REMARK  3 active torsions:
REMARK  status: ('A' for Active; 'I' for Inactive)
REMARK    1  A    between atoms: C_3  and  C_11 
REMARK    2  A    between atoms: C_5  and  C_7 
REMARK       I    between atoms: N_25  and  C_27 
REMARK    3  A    between atoms: C_27  and  C_29 
ROOT
ATOM      1  C   LIG d   1       5.250  -1.626  -6.223  0.00  0.00     0.047 C 
ATOM      2  C   LIG d   1       4.300  -1.826  -7.213  0.00  0.00    -0.047 C 
ATOM      3  C   LIG d   1       4.721  -1.892  -8.541  0.00  0.00    -0.041 C 
ATOM      4  C   LIG d   1       6.041  -1.788  -8.861  0.00  0.00     0.027 C 
ATOM      5  N   LIG d   1       6.980  -1.685  -7.892  0.00  0.00    -0.311 N 
ATOM      6  C   LIG d   1       6.608  -1.521  -6.598  0.00  0.00     0.259 C 
ATOM      7  O   LIG d   1       7.452  -1.280  -5.752  0.00  0.00    -0.267 OA
ATOM      8  C   LIG d   1       8.416  -1.800  -8.154  0.00  0.00     0.031 C 
ATOM      9  C   LIG d   1       8.762  -1.550  -9.610  0.00  0.00    -0.006 C 
ATOM     10  H   LIG d   1       9.771  -1.921  -9.787  0.00  0.00     0.033 H 
ATOM     11  C   LIG d   1       7.816  -2.343 -10.513  0.00  0.00    -0.037 C 
ATOM     12  C   LIG d   1       6.400  -1.795 -10.329  0.00  0.00     0.016 C 
ATOM     13  H   LIG d   1       5.678  -2.391 -10.888  0.00  0.00     0.038 H 
ATOM     14  C   LIG d   1       6.376  -0.337 -10.823  0.00  0.00     0.023 C 
ATOM     15  N   LIG d   1       7.349   0.417 -10.016  0.00  0.00    -0.297 N 
ATOM     16  C   LIG d   1       8.734  -0.067  -9.957  0.00  0.00     0.019 C 
ATOM     17  C   LIG d   1       6.976   1.524  -9.346  0.00  0.00     0.247 C 
ATOM     18  O   LIG d   1       5.841   1.951  -9.459  0.00  0.00    -0.270 OA
ATOM     19  H   LIG d   1       3.256  -1.929  -6.960  0.00  0.00     0.063 H 
ATOM     20  H   LIG d   1       3.992  -2.027  -9.326  0.00  0.00     0.064 H 
ATOM     21  H   LIG d   1       8.947  -1.076  -7.536  0.00  0.00     0.050 H 
ATOM     22  H   LIG d   1       8.744  -2.803  -7.881  0.00  0.00     0.050 H 
ATOM     23  H   LIG d   1       7.841  -3.397 -10.234  0.00  0.00     0.028 H 
ATOM     24  H   LIG d   1       8.121  -2.230 -11.553  0.00  0.00     0.028 H 
ATOM     25  H   LIG d   1       6.658  -0.299 -11.875  0.00  0.00     0.047 H 
ATOM     26  H   LIG d   1       5.380   0.082 -10.690  0.00  0.00     0.047 H 
ATOM     27  H   LIG d   1       9.280   0.492  -9.197  0.00  0.00     0.047 H 
ATOM     28  H   LIG d   1       9.209   0.085 -10.927  0.00  0.00     0.047 H 
ENDROOT
BRANCH  17  29
ATOM     29  C   LIG d   1       7.942   2.221  -8.474  0.00  0.00     0.041 A 
ATOM     30  C   LIG d   1       8.119   1.806  -7.152  0.00  0.00    -0.004 A 
ATOM     31  C   LIG d   1       9.026   2.461  -6.341  0.00  0.00     0.167 A 
ATOM     32  H   LIG d   1       7.550   0.975  -6.766  0.00  0.00     0.066 H 
ATOM     33  C   LIG d   1       9.761   3.535  -6.841  0.00  0.00     0.166 A 
ATOM     34  O   LIG d   1       9.382   2.258  -5.039  0.00  0.00    -0.453 OA
ATOM     35  C   LIG d   1       9.584   3.947  -8.156  0.00  0.00    -0.015 A 
ATOM     36  O   LIG d   1      10.576   4.002  -5.854  0.00  0.00    -0.453 OA
ATOM     37  C   LIG d   1       8.686   3.293  -8.972  0.00  0.00    -0.046 A 
ATOM     38  H   LIG d   1      10.155   4.779  -8.542  0.00  0.00     0.066 H 
ATOM     39  H   LIG d   1       8.554   3.614  -9.995  0.00  0.00     0.063 H 
ATOM     40  C   LIG d   1      10.633   2.952  -4.871  0.00  0.00     0.233 C 
ATOM     41  H   LIG d   1      11.471   2.285  -5.073  0.00  0.00     0.117 H 
ATOM     42  H   LIG d   1      10.708   3.370  -3.867  0.00  0.00     0.117 H 
ENDBRANCH  17  29
BRANCH   1  43
ATOM     43  C   LIG d   1       4.849  -1.526  -4.800  0.00  0.00    -0.012 A 
ATOM     44  C   LIG d   1       4.496  -2.672  -4.090  0.00  0.00    -0.054 A 
ATOM     45  C   LIG d   1       4.129  -2.573  -2.763  0.00  0.00    -0.061 A 
ATOM     46  H   LIG d   1       4.515  -3.637  -4.575  0.00  0.00     0.062 H 
ATOM     47  C   LIG d   1       4.100  -1.337  -2.142  0.00  0.00    -0.050 A 
ATOM     48  H   LIG d   1       3.859  -3.460  -2.211  0.00  0.00     0.062 H 
ATOM     49  C   LIG d   1       4.443  -0.195  -2.844  0.00  0.00     0.055 A 
ATOM     50  H   LIG d   1       3.807  -1.263  -1.106  0.00  0.00     0.062 H 
ATOM     51  C   LIG d   1       4.818  -0.283  -4.169  0.00  0.00    -0.042 A 
ATOM     52  H   LIG d   1       5.086   0.609  -4.715  0.00  0.00     0.063 H 
BRANCH  49  53
ATOM     53  C   LIG d   1       4.409   1.148  -2.159  0.00  0.00     0.417 C 
ATOM     54  F   LIG d   1       4.819   1.003  -0.829  0.00  0.00    -0.166 F 
ATOM     55  F   LIG d   1       5.273   2.029  -2.819  0.00  0.00    -0.166 F 
ATOM     56  F   LIG d   1       3.107   1.656  -2.193  0.00  0.00    -0.166 F 
ENDBRANCH  49  53
ENDBRANCH   1  43
TORSDOF 3
ENDMDL
MODEL 2
REMARK VINA RESULT:      -7.8      4.712      7.900
REMARK  3 active torsions:
REMARK  status: ('A' for Active; 'I' for Inactive)
REMARK    1  A    between atoms: C_3  and  C_11 
REMARK    2  A    between atoms: C_5  and  C_7 
REMARK       I    between atoms: N_25  and  C_27 
REMARK    3  A    between atoms: C_27  and  C_29 
ROOT
ATOM      1  C   LIG d   1       6.374  -2.457  -4.771  0.00  0.00     0.047 C 
ATOM      2  C   LIG d   1       7.628  -2.057  -4.335  0.00  0.00    -0.047 C 
ATOM      3  C   LIG d   1       8.755  -2.621  -4.934  0.00  0.00    -0.041 C 
ATOM      4  C   LIG d   1       8.630  -3.528  -5.942  0.00  0.00     0.027 C 
ATOM      5  N   LIG d   1       7.411  -3.852  -6.433  0.00  0.00    -0.311 N 
ATOM      6  C   LIG d   1       6.288  -3.401  -5.819  0.00  0.00     0.259 C 
ATOM      7  O   LIG d   1       5.198  -3.815  -6.173  0.00  0.00    -0.267 OA
ATOM      8  C   LIG d   1       7.223  -4.634  -7.655  0.00  0.00     0.031 C 
ATOM      9  C   LIG d   1       8.455  -5.440  -8.024  0.00  0.00    -0.006 C 
ATOM     10  H   LIG d   1       8.351  -5.762  -9.060  0.00  0.00     0.033 H 
ATOM     11  C   LIG d   1       9.699  -4.555  -7.940  0.00  0.00    -0.037 C 
ATOM     12  C   LIG d   1       9.901  -4.143  -6.481  0.00  0.00     0.016 C 
ATOM     13  H   LIG d   1      10.728  -3.437  -6.389  0.00  0.00     0.038 H 
ATOM     14  C   LIG d   1      10.193  -5.409  -5.656  0.00  0.00     0.023 C 
ATOM     15  N   LIG d   1       9.036  -6.306  -5.802  0.00  0.00    -0.297 N 
ATOM     16  C   LIG d   1       8.607  -6.681  -7.155  0.00  0.00     0.019 C 
ATOM     17  C   LIG d   1       8.384  -6.770  -4.717  0.00  0.00     0.247 C 
ATOM     18  O   LIG d   1       8.793  -6.506  -3.602  0.00  0.00    -0.270 OA
ATOM     19  H   LIG d   1       7.729  -1.324  -3.550  0.00  0.00     0.063 H 
ATOM     20  H   LIG d   1       9.739  -2.336  -4.592  0.00  0.00     0.064 H 
ATOM     21  H   LIG d   1       6.385  -5.316  -7.512  0.00  0.00     0.050 H 
ATOM     22  H   LIG d   1       6.987  -3.955  -8.475  0.00  0.00     0.050 H 
ATOM     23  H   LIG d   1       9.559  -3.666  -8.557  0.00  0.00     0.028 H 
ATOM     24  H   LIG d   1      10.569  -5.111  -8.289  0.00  0.00     0.028 H 
ATOM     25  H   LIG d   1      11.091  -5.897  -6.034  0.00  0.00     0.047 H 
ATOM     26  H   LIG d   1      10.329  -5.145  -4.608  0.00  0.00     0.047 H 
ATOM     27  H   LIG d   1       7.651  -7.202  -7.099  0.00  0.00     0.047 H 
ATOM     28  H   LIG d   1       9.352  -7.342  -7.597  0.00  0.00     0.047 H 
ENDROOT
BRANCH  17  29
ATOM     29  C   LIG d   1       7.175  -7.600  -4.882  0.00  0.00     0.041 A 
ATOM     30  C   LIG d   1       7.221  -8.969  -4.603  0.00  0.00    -0.004 A 
ATOM     31  C   LIG d   1       6.086  -9.741  -4.757  0.00  0.00     0.167 A 
ATOM     32  H   LIG d   1       8.142  -9.421  -4.265  0.00  0.00     0.066 H 
ATOM     33  C   LIG d   1       4.898  -9.156  -5.193  0.00  0.00     0.166 A 
ATOM     34  O   LIG d   1       5.868 -11.074  -4.556  0.00  0.00    -0.453 OA
ATOM     35  C   LIG d   1       4.854  -7.796  -5.471  0.00  0.00    -0.015 A 
ATOM     36  O   LIG d   1       3.938 -10.121  -5.263  0.00  0.00    -0.453 OA
ATOM     37  C   LIG d   1       5.980  -7.019  -5.312  0.00  0.00    -0.046 A 
ATOM     38  H   LIG d   1       3.932  -7.345  -5.808  0.00  0.00     0.066 H 
ATOM     39  H   LIG d   1       5.940  -5.961  -5.526  0.00  0.00     0.063 H 
ATOM     40  C   LIG d   1       4.437 -11.219  -4.478  0.00  0.00     0.233 C 
ATOM     41  H   LIG d   1       4.099 -11.136  -3.445  0.00  0.00     0.117 H 
ATOM     42  H   LIG d   1       4.125 -12.171  -4.908  0.00  0.00     0.117 H 
ENDBRANCH  17  29
BRANCH   1  43
ATOM     43  C   LIG d   1       5.147  -1.904  -4.151  0.00  0.00    -0.012 A 
ATOM     44  C   LIG d   1       4.747  -2.335  -2.887  0.00  0.00    -0.054 A 
ATOM     45  C   LIG d   1       3.606  -1.813  -2.312  0.00  0.00    -0.061 A 
ATOM     46  H   LIG d   1       5.331  -3.073  -2.356  0.00  0.00     0.062 H 
ATOM     47  C   LIG d   1       2.854  -0.872  -2.993  0.00  0.00    -0.050 A 
ATOM     48  H   LIG d   1       3.297  -2.143  -1.332  0.00  0.00     0.062 H 
ATOM     49  C   LIG d   1       3.243  -0.445  -4.250  0.00  0.00     0.055 A 
ATOM     50  H   LIG d   1       1.959  -0.470  -2.542  0.00  0.00     0.062 H 
ATOM     51  C   LIG d   1       4.385  -0.956  -4.832  0.00  0.00    -0.042 A 
ATOM     52  H   LIG d   1       4.687  -0.622  -5.814  0.00  0.00     0.063 H 
BRANCH  49  53
ATOM     53  C   LIG d   1       2.418   0.580  -4.985  0.00  0.00     0.417 C 
ATOM     54  F   LIG d   1       2.584   1.832  -4.381  0.00  0.00    -0.166 F 
ATOM     55  F   LIG d   1       2.837   0.647  -6.318  0.00  0.00    -0.166 F 
ATOM     56  F   LIG d   1       1.068   0.216  -4.937  0.00  0.00    -0.166 F 
ENDBRANCH  49  53
ENDBRANCH   1  43
TORSDOF 3
ENDMDL
MODEL 3
REMARK VINA RESULT:      -7.7      1.478      2.072
REMARK  3 active torsions:
REMARK  status: ('A' for Active; 'I' for Inactive)
REMARK    1  A    between atoms: C_3  and  C_11 
REMARK    2  A    between atoms: C_5  and  C_7 
REMARK       I    between atoms: N_25  and  C_27 
REMARK    3  A    between atoms: C_27  and  C_29 
ROOT
ATOM      1  C   LIG d   1       6.538  -1.411  -5.843  0.00  0.00     0.047 C 
ATOM      2  C   LIG d   1       6.047  -1.729  -7.100  0.00  0.00    -0.047 C 
ATOM      3  C   LIG d   1       6.914  -1.670  -8.192  0.00  0.00    -0.041 C 
ATOM      4  C   LIG d   1       8.222  -1.330  -8.027  0.00  0.00     0.027 C 
ATOM      5  N   LIG d   1       8.727  -1.108  -6.790  0.00  0.00    -0.311 N 
ATOM      6  C   LIG d   1       7.901  -1.062  -5.715  0.00  0.00     0.259 C 
ATOM      7  O   LIG d   1       8.338  -0.716  -4.631  0.00  0.00    -0.267 OA
ATOM      8  C   LIG d   1      10.160  -0.968  -6.526  0.00  0.00     0.031 C 
ATOM      9  C   LIG d   1      10.947  -0.604  -7.770  0.00  0.00    -0.006 C 
ATOM     10  H   LIG d   1      12.002  -0.791  -7.571  0.00  0.00     0.033 H 
ATOM     11  C   LIG d   1      10.533  -1.510  -8.931  0.00  0.00    -0.037 C 
ATOM     12  C   LIG d   1       9.070  -1.217  -9.272  0.00  0.00     0.016 C 
ATOM     13  H   LIG d   1       8.707  -1.905 -10.037  0.00  0.00     0.038 H 
ATOM     14  C   LIG d   1       8.970   0.234  -9.776  0.00  0.00     0.023 C 
ATOM     15  N   LIG d   1       9.451   1.109  -8.694  0.00  0.00    -0.297 N 
ATOM     16  C   LIG d   1      10.788   0.865  -8.139  0.00  0.00     0.019 C 
ATOM     17  C   LIG d   1       8.680   2.109  -8.224  0.00  0.00     0.247 C 
ATOM     18  O   LIG d   1       7.603   2.341  -8.741  0.00  0.00    -0.270 OA
ATOM     19  H   LIG d   1       5.015  -2.018  -7.230  0.00  0.00     0.063 H 
ATOM     20  H   LIG d   1       6.542  -1.895  -9.181  0.00  0.00     0.064 H 
ATOM     21  H   LIG d   1      10.306  -0.190  -5.776  0.00  0.00     0.050 H 
ATOM     22  H   LIG d   1      10.539  -1.911  -6.132  0.00  0.00     0.050 H 
ATOM     23  H   LIG d   1      10.640  -2.554  -8.638  0.00  0.00     0.028 H 
ATOM     24  H   LIG d   1      11.160  -1.305  -9.798  0.00  0.00     0.028 H 
ATOM     25  H   LIG d   1       9.593   0.361 -10.661  0.00  0.00     0.047 H 
ATOM     26  H   LIG d   1       7.935   0.472 -10.014  0.00  0.00     0.047 H 
ATOM     27  H   LIG d   1      10.926   1.477  -7.247  0.00  0.00     0.047 H 
ATOM     28  H   LIG d   1      11.540   1.134  -8.881  0.00  0.00     0.047 H 
ENDROOT
BRANCH  17  29
ATOM     29  C   LIG d   1       9.142   2.924  -7.084  0.00  0.00     0.041 A 
ATOM     30  C   LIG d   1       8.831   2.540  -5.777  0.00  0.00    -0.004 A 
ATOM     31  C   LIG d   1       9.267   3.306  -4.713  0.00  0.00     0.167 A 
ATOM     32  H   LIG d   1       8.253   1.646  -5.599  0.00  0.00     0.066 H 
ATOM     33  C   LIG d   1      10.014   4.461  -4.943  0.00  0.00     0.166 A 
ATOM     34  O   LIG d   1       9.103   3.155  -3.366  0.00  0.00    -0.453 OA
ATOM     35  C   LIG d   1      10.322   4.841  -6.243  0.00  0.00    -0.015 A 
ATOM     36  O   LIG d   1      10.318   5.030  -3.743  0.00  0.00    -0.453 OA
ATOM     37  C   LIG d   1       9.896   4.078  -7.309  0.00  0.00    -0.046 A 
ATOM     38  H   LIG d   1      10.901   5.736  -6.420  0.00  0.00     0.066 H 
ATOM     39  H   LIG d   1      10.141   4.376  -8.318  0.00  0.00     0.063 H 
ATOM     40  C   LIG d   1      10.102   3.999  -2.762  0.00  0.00     0.233 C 
ATOM     41  H   LIG d   1      11.021   3.440  -2.586  0.00  0.00     0.117 H 
ATOM     42  H   LIG d   1       9.729   4.428  -1.831  0.00  0.00     0.117 H 
ENDBRANCH  17  29
BRANCH   1  43
ATOM     43  C   LIG d   1       5.651  -1.437  -4.656  0.00  0.00    -0.012 A 
ATOM     44  C   LIG d   1       5.111  -2.643  -4.213  0.00  0.00    -0.054 A 
ATOM     45  C   LIG d   1       4.290  -2.662  -3.104  0.00  0.00    -0.061 A 
ATOM     46  H   LIG d   1       5.339  -3.563  -4.733  0.00  0.00     0.062 H 
ATOM     47  C   LIG d   1       3.993  -1.485  -2.440  0.00  0.00    -0.050 A 
ATOM     48  H   LIG d   1       3.874  -3.596  -2.757  0.00  0.00     0.062 H 
ATOM     49  C   LIG d   1       4.522  -0.284  -2.879  0.00  0.00     0.055 A 
ATOM     50  H   LIG d   1       3.346  -1.503  -1.576  0.00  0.00     0.062 H 
ATOM     51  C   LIG d   1       5.349  -0.254  -3.983  0.00  0.00    -0.042 A 
ATOM     52  H   LIG d   1       5.761   0.684  -4.325  0.00  0.00     0.063 H 
BRANCH  49  53
ATOM     53  C   LIG d   1       4.194   0.994  -2.150  0.00  0.00     0.417 C 
ATOM     54  F   LIG d   1       4.731   2.080  -2.850  0.00  0.00    -0.166 F 
ATOM     55  F   LIG d   1       2.806   1.137  -2.062  0.00  0.00    -0.166 F 
ATOM     56  F   LIG d   1       4.743   0.951  -0.864  0.00  0.00    -0.166 F 
ENDBRANCH  49  53
ENDBRANCH   1  43
TORSDOF 3
ENDMDL
MODEL 4
REMARK VINA RESULT:      -7.7      3.258      6.068
REMARK  3 active torsions:
REMARK  status: ('A' for Active; 'I' for Inactive)
REMARK    1  A    between atoms: C_3  and  C_11 
REMARK    2  A    between atoms: C_5  and  C_7 
REMARK       I    between atoms: N_25  and  C_27 
REMARK    3  A    between atoms: C_27  and  C_29 
ROOT
ATOM      1  C   LIG d   1       7.018  -2.525  -5.296  0.00  0.00     0.047 C 
ATOM      2  C   LIG d   1       7.285  -3.706  -4.621  0.00  0.00    -0.047 C 
ATOM      3  C   LIG d   1       7.483  -4.870  -5.364  0.00  0.00    -0.041 C 
ATOM      4  C   LIG d   1       7.441  -4.846  -6.725  0.00  0.00     0.027 C 
ATOM      5  N   LIG d   1       7.272  -3.679  -7.390  0.00  0.00    -0.311 N 
ATOM      6  C   LIG d   1       6.980  -2.543  -6.708  0.00  0.00     0.259 C 
ATOM      7  O   LIG d   1       6.683  -1.530  -7.319  0.00  0.00    -0.267 OA
ATOM      8  C   LIG d   1       7.445  -3.551  -8.838  0.00  0.00     0.031 C 
ATOM      9  C   LIG d   1       7.339  -4.883  -9.555  0.00  0.00    -0.006 C 
ATOM     10  H   LIG d   1       7.749  -4.762 -10.558  0.00  0.00     0.033 H 
ATOM     11  C   LIG d   1       8.189  -5.931  -8.835  0.00  0.00    -0.037 C 
ATOM     12  C   LIG d   1       7.592  -6.165  -7.446  0.00  0.00     0.016 C 
ATOM     13  H   LIG d   1       8.220  -6.841  -6.864  0.00  0.00     0.038 H 
ATOM     14  C   LIG d   1       6.186  -6.768  -7.618  0.00  0.00     0.023 C 
ATOM     15  N   LIG d   1       5.385  -5.802  -8.387  0.00  0.00    -0.297 N 
ATOM     16  C   LIG d   1       5.894  -5.348  -9.687  0.00  0.00     0.019 C 
ATOM     17  C   LIG d   1       4.212  -5.345  -7.908  0.00  0.00     0.247 C 
ATOM     18  O   LIG d   1       3.770  -5.782  -6.862  0.00  0.00    -0.270 OA
ATOM     19  H   LIG d   1       7.339  -3.724  -3.544  0.00  0.00     0.063 H 
ATOM     20  H   LIG d   1       7.672  -5.803  -4.853  0.00  0.00     0.064 H 
ATOM     21  H   LIG d   1       6.681  -2.879  -9.227  0.00  0.00     0.050 H 
ATOM     22  H   LIG d   1       8.427  -3.120  -9.038  0.00  0.00     0.050 H 
ATOM     23  H   LIG d   1       9.213  -5.569  -8.738  0.00  0.00     0.028 H 
ATOM     24  H   LIG d   1       8.181  -6.863  -9.400  0.00  0.00     0.028 H 
ATOM     25  H   LIG d   1       6.252  -7.711  -8.160  0.00  0.00     0.047 H 
ATOM     26  H   LIG d   1       5.732  -6.932  -6.642  0.00  0.00     0.047 H 
ATOM     27  H   LIG d   1       5.282  -4.521 -10.047  0.00  0.00     0.047 H 
ATOM     28  H   LIG d   1       5.844  -6.170 -10.400  0.00  0.00     0.047 H 
ENDROOT
BRANCH  17  29
ATOM     29  C   LIG d   1       3.461  -4.315  -8.652  0.00  0.00     0.041 A 
ATOM     30  C   LIG d   1       3.669  -2.961  -8.376  0.00  0.00    -0.004 A 
ATOM     31  C   LIG d   1       2.965  -2.000  -9.076  0.00  0.00     0.167 A 
ATOM     32  H   LIG d   1       4.379  -2.666  -7.619  0.00  0.00     0.066 H 
ATOM     33  C   LIG d   1       2.047  -2.382 -10.055  0.00  0.00     0.166 A 
ATOM     34  O   LIG d   1       2.981  -0.637  -9.002  0.00  0.00    -0.453 OA
ATOM     35  C   LIG d   1       1.841  -3.728 -10.327  0.00  0.00    -0.015 A 
ATOM     36  O   LIG d   1       1.491  -1.259 -10.592  0.00  0.00    -0.453 OA
ATOM     37  C   LIG d   1       2.545  -4.691  -9.637  0.00  0.00    -0.046 A 
ATOM     38  H   LIG d   1       1.130  -4.022 -11.086  0.00  0.00     0.066 H 
ATOM     39  H   LIG d   1       2.385  -5.736  -9.855  0.00  0.00     0.063 H 
ATOM     40  C   LIG d   1       2.370  -0.180 -10.224  0.00  0.00     0.233 C 
ATOM     41  H   LIG d   1       3.124  -0.022 -10.994  0.00  0.00     0.117 H 
ATOM     42  H   LIG d   1       1.802   0.734 -10.050  0.00  0.00     0.117 H 
ENDBRANCH  17  29
BRANCH   1  43
ATOM     43  C   LIG d   1       6.776  -1.267  -4.550  0.00  0.00    -0.012 A 
ATOM     44  C   LIG d   1       7.590  -0.157  -4.769  0.00  0.00    -0.054 A 
ATOM     45  C   LIG d   1       7.358   1.014  -4.076  0.00  0.00    -0.061 A 
ATOM     46  H   LIG d   1       8.399  -0.210  -5.484  0.00  0.00     0.062 H 
ATOM     47  C   LIG d   1       6.326   1.083  -3.157  0.00  0.00    -0.050 A 
ATOM     48  H   LIG d   1       7.985   1.876  -4.247  0.00  0.00     0.062 H 
ATOM     49  C   LIG d   1       5.518  -0.018  -2.931  0.00  0.00     0.055 A 
ATOM     50  H   LIG d   1       6.150   1.998  -2.613  0.00  0.00     0.062 H 
ATOM     51  C   LIG d   1       5.738  -1.192  -3.623  0.00  0.00    -0.042 A 
ATOM     52  H   LIG d   1       5.107  -2.050  -3.445  0.00  0.00     0.063 H 
BRANCH  49  53
ATOM     53  C   LIG d   1       4.396   0.064  -1.928  0.00  0.00     0.417 C 
ATOM     54  F   LIG d   1       3.187   0.283  -2.598  0.00  0.00    -0.166 F 
ATOM     55  F   LIG d   1       4.322  -1.135  -1.212  0.00  0.00    -0.166 F 
ATOM     56  F   LIG d   1       4.637   1.122  -1.045  0.00  0.00    -0.166 F 
ENDBRANCH  49  53
ENDBRANCH   1  43
TORSDOF 3
ENDMDL
MODEL 5
REMARK VINA RESULT:      -7.5      3.557      5.945
REMARK  3 active torsions:
REMARK  status: ('A' for Active; 'I' for Inactive)
REMARK    1  A    between atoms: C_3  and  C_11 
REMARK    2  A    between atoms: C_5  and  C_7 
REMARK       I    between atoms: N_25  and  C_27 
REMARK    3  A    between atoms: C_27  and  C_29 
ROOT
ATOM      1  C   LIG d   1       8.505   1.455  -5.296  0.00  0.00     0.047 C 
ATOM      2  C   LIG d   1       8.081   1.911  -6.535  0.00  0.00    -0.047 C 
ATOM      3  C   LIG d   1       8.939   2.723  -7.278  0.00  0.00    -0.041 C 
ATOM      4  C   LIG d   1      10.177   3.043  -6.810  0.00  0.00     0.027 C 
ATOM      5  N   LIG d   1      10.630   2.525  -5.643  0.00  0.00    -0.311 N 
ATOM      6  C   LIG d   1       9.795   1.812  -4.846  0.00  0.00     0.259 C 
ATOM      7  O   LIG d   1      10.163   1.476  -3.733  0.00  0.00    -0.267 OA
ATOM      8  C   LIG d   1      12.020   2.643  -5.203  0.00  0.00     0.031 C 
ATOM      9  C   LIG d   1      12.754   3.777  -5.893  0.00  0.00    -0.006 C 
ATOM     10  H   LIG d   1      13.823   3.633  -5.738  0.00  0.00     0.033 H 
ATOM     11  C   LIG d   1      12.497   3.722  -7.399  0.00  0.00    -0.037 C 
ATOM     12  C   LIG d   1      11.010   3.988  -7.645  0.00  0.00     0.016 C 
ATOM     13  H   LIG d   1      10.765   3.869  -8.701  0.00  0.00     0.038 H 
ATOM     14  C   LIG d   1      10.691   5.421  -7.186  0.00  0.00     0.023 C 
ATOM     15  N   LIG d   1      11.019   5.508  -5.754  0.00  0.00    -0.297 N 
ATOM     16  C   LIG d   1      12.372   5.136  -5.322  0.00  0.00     0.019 C 
ATOM     17  C   LIG d   1      10.098   5.918  -4.861  0.00  0.00     0.247 C 
ATOM     18  O   LIG d   1       9.003   6.288  -5.242  0.00  0.00    -0.270 OA
ATOM     19  H   LIG d   1       7.108   1.642  -6.917  0.00  0.00     0.063 H 
ATOM     20  H   LIG d   1       8.617   3.103  -8.236  0.00  0.00     0.064 H 
ATOM     21  H   LIG d   1      12.036   2.816  -4.127  0.00  0.00     0.050 H 
ATOM     22  H   LIG d   1      12.537   1.707  -5.416  0.00  0.00     0.050 H 
ATOM     23  H   LIG d   1      12.762   2.736  -7.781  0.00  0.00     0.028 H 
ATOM     24  H   LIG d   1      13.093   4.483  -7.902  0.00  0.00     0.028 H 
ATOM     25  H   LIG d   1      11.296   6.133  -7.749  0.00  0.00     0.047 H 
ATOM     26  H   LIG d   1       9.633   5.632  -7.338  0.00  0.00     0.047 H 
ATOM     27  H   LIG d   1      12.405   5.092  -4.233  0.00  0.00     0.047 H 
ATOM     28  H   LIG d   1      13.080   5.887  -5.673  0.00  0.00     0.047 H 
ENDROOT
BRANCH  17  29
ATOM     29  C   LIG d   1      10.416   5.920  -3.420  0.00  0.00     0.041 A 
ATOM     30  C   LIG d   1      10.742   7.116  -2.775  0.00  0.00    -0.004 A 
ATOM     31  C   LIG d   1      11.038   7.112  -1.426  0.00  0.00     0.167 A 
ATOM     32  H   LIG d   1      10.761   8.041  -3.331  0.00  0.00     0.066 H 
ATOM     33  C   LIG d   1      11.013   5.916  -0.709  0.00  0.00     0.166 A 
ATOM     34  O   LIG d   1      11.381   8.123  -0.574  0.00  0.00    -0.453 OA
ATOM     35  C   LIG d   1      10.689   4.728  -1.351  0.00  0.00    -0.015 A 
ATOM     36  O   LIG d   1      11.339   6.179   0.588  0.00  0.00    -0.453 OA
ATOM     37  C   LIG d   1      10.387   4.726  -2.695  0.00  0.00    -0.046 A 
ATOM     38  H   LIG d   1      10.670   3.802  -0.794  0.00  0.00     0.066 H 
ATOM     39  H   LIG d   1      10.132   3.800  -3.189  0.00  0.00     0.063 H 
ATOM     40  C   LIG d   1      11.164   7.599   0.749  0.00  0.00     0.233 C 
ATOM     41  H   LIG d   1      10.154   7.823   1.090  0.00  0.00     0.117 H 
ATOM     42  H   LIG d   1      11.902   7.999   1.446  0.00  0.00     0.117 H 
ENDBRANCH  17  29
BRANCH   1  43
ATOM     43  C   LIG d   1       7.620   0.610  -4.460  0.00  0.00    -0.012 A 
ATOM     44  C   LIG d   1       7.862  -0.758  -4.347  0.00  0.00    -0.054 A 
ATOM     45  C   LIG d   1       7.039  -1.540  -3.562  0.00  0.00    -0.061 A 
ATOM     46  H   LIG d   1       8.697  -1.205  -4.868  0.00  0.00     0.062 H 
ATOM     47  C   LIG d   1       5.968  -0.969  -2.898  0.00  0.00    -0.050 A 
ATOM     48  H   LIG d   1       7.228  -2.599  -3.470  0.00  0.00     0.062 H 
ATOM     49  C   LIG d   1       5.719   0.387  -3.011  0.00  0.00     0.055 A 
ATOM     50  H   LIG d   1       5.323  -1.585  -2.289  0.00  0.00     0.062 H 
ATOM     51  C   LIG d   1       6.539   1.179  -3.788  0.00  0.00    -0.042 A 
ATOM     52  H   LIG d   1       6.344   2.238  -3.876  0.00  0.00     0.063 H 
BRANCH  49  53
ATOM     53  C   LIG d   1       4.550   1.001  -2.284  0.00  0.00     0.417 C 
ATOM     54  F   LIG d   1       4.193   2.203  -2.906  0.00  0.00    -0.166 F 
ATOM     55  F   LIG d   1       3.465   0.119  -2.319  0.00  0.00    -0.166 F 
ATOM     56  F   LIG d   1       4.906   1.253  -0.955  0.00  0.00    -0.166 F 
ENDBRANCH  49  53
ENDBRANCH   1  43
TORSDOF 3
ENDMDL
MODEL 6
REMARK VINA RESULT:      -7.5      3.402      5.075
REMARK  3 active torsions:
REMARK  status: ('A' for Active; 'I' for Inactive)
REMARK    1  A    between atoms: C_3  and  C_11 
REMARK    2  A    between atoms: C_5  and  C_7 
REMARK       I    between atoms: N_25  and  C_27 
REMARK    3  A    between atoms: C_27  and  C_29 
ROOT
ATOM      1  C   LIG d   1       3.934  -0.655  -6.931  0.00  0.00     0.047 C 
ATOM      2  C   LIG d   1       3.084   0.319  -7.430  0.00  0.00    -0.047 C 
ATOM      3  C   LIG d   1       2.351   0.040  -8.584  0.00  0.00    -0.041 C 
ATOM      4  C   LIG d   1       2.448  -1.172  -9.196  0.00  0.00     0.027 C 
ATOM      5  N   LIG d   1       3.207  -2.158  -8.661  0.00  0.00    -0.311 N 
ATOM      6  C   LIG d   1       4.008  -1.898  -7.597  0.00  0.00     0.259 C 
ATOM      7  O   LIG d   1       4.797  -2.745  -7.214  0.00  0.00    -0.267 OA
ATOM      8  C   LIG d   1       3.173  -3.541  -9.137  0.00  0.00     0.031 C 
ATOM      9  C   LIG d   1       2.618  -3.657 -10.544  0.00  0.00    -0.006 C 
ATOM     10  H   LIG d   1       2.361  -4.702 -10.722  0.00  0.00     0.033 H 
ATOM     11  C   LIG d   1       1.330  -2.841 -10.663  0.00  0.00    -0.037 C 
ATOM     12  C   LIG d   1       1.677  -1.362 -10.482  0.00  0.00     0.016 C 
ATOM     13  H   LIG d   1       0.774  -0.751 -10.471  0.00  0.00     0.038 H 
ATOM     14  C   LIG d   1       2.591  -0.932 -11.643  0.00  0.00     0.023 C 
ATOM     15  N   LIG d   1       3.797  -1.775 -11.588  0.00  0.00    -0.297 N 
ATOM     16  C   LIG d   1       3.634  -3.234 -11.597  0.00  0.00     0.019 C 
ATOM     17  C   LIG d   1       5.023  -1.218 -11.529  0.00  0.00     0.247 C 
ATOM     18  O   LIG d   1       5.146  -0.009 -11.592  0.00  0.00    -0.270 OA
ATOM     19  H   LIG d   1       2.990   1.274  -6.935  0.00  0.00     0.063 H 
ATOM     20  H   LIG d   1       1.699   0.795  -8.997  0.00  0.00     0.064 H 
ATOM     21  H   LIG d   1       4.186  -3.944  -9.123  0.00  0.00     0.050 H 
ATOM     22  H   LIG d   1       2.551  -4.131  -8.463  0.00  0.00     0.050 H 
ATOM     23  H   LIG d   1       0.626  -3.151  -9.890  0.00  0.00     0.028 H 
ATOM     24  H   LIG d   1       0.887  -2.996 -11.647  0.00  0.00     0.028 H 
ATOM     25  H   LIG d   1       2.078  -1.082 -12.592  0.00  0.00     0.047 H 
ATOM     26  H   LIG d   1       2.865   0.116 -11.530  0.00  0.00     0.047 H 
ATOM     27  H   LIG d   1       4.592  -3.706 -11.383  0.00  0.00     0.047 H 
ATOM     28  H   LIG d   1       3.287  -3.550 -12.580  0.00  0.00     0.047 H 
ENDROOT
BRANCH  17  29
ATOM     29  C   LIG d   1       6.217  -2.074 -11.390  0.00  0.00     0.041 A 
ATOM     30  C   LIG d   1       6.687  -2.420 -10.121  0.00  0.00    -0.004 A 
ATOM     31  C   LIG d   1       7.805  -3.223  -9.996  0.00  0.00     0.167 A 
ATOM     32  H   LIG d   1       6.178  -2.061  -9.240  0.00  0.00     0.066 H 
ATOM     33  C   LIG d   1       8.463  -3.686 -11.136  0.00  0.00     0.166 A 
ATOM     34  O   LIG d   1       8.456  -3.698  -8.894  0.00  0.00    -0.453 OA
ATOM     35  C   LIG d   1       7.994  -3.341 -12.397  0.00  0.00    -0.015 A 
ATOM     36  O   LIG d   1       9.523  -4.449 -10.746  0.00  0.00    -0.453 OA
ATOM     37  C   LIG d   1       6.876  -2.546 -12.528  0.00  0.00    -0.046 A 
ATOM     38  H   LIG d   1       8.505  -3.701 -13.278  0.00  0.00     0.066 H 
ATOM     39  H   LIG d   1       6.513  -2.283 -13.511  0.00  0.00     0.063 H 
ATOM     40  C   LIG d   1       9.270  -4.786  -9.370  0.00  0.00     0.233 C 
ATOM     41  H   LIG d   1       8.728  -5.729  -9.301  0.00  0.00     0.117 H 
ATOM     42  H   LIG d   1      10.205  -4.839  -8.811  0.00  0.00     0.117 H 
ENDBRANCH  17  29
BRANCH   1  43
ATOM     43  C   LIG d   1       4.751  -0.397  -5.721  0.00  0.00    -0.012 A 
ATOM     44  C   LIG d   1       6.135  -0.269  -5.826  0.00  0.00    -0.054 A 
ATOM     45  C   LIG d   1       6.891  -0.024  -4.697  0.00  0.00    -0.061 A 
ATOM     46  H   LIG d   1       6.616  -0.357  -6.790  0.00  0.00     0.062 H 
ATOM     47  C   LIG d   1       6.277   0.084  -3.462  0.00  0.00    -0.050 A 
ATOM     48  H   LIG d   1       7.962   0.079  -4.777  0.00  0.00     0.062 H 
ATOM     49  C   LIG d   1       4.904  -0.049  -3.351  0.00  0.00     0.055 A 
ATOM     50  H   LIG d   1       6.872   0.270  -2.581  0.00  0.00     0.062 H 
ATOM     51  C   LIG d   1       4.138  -0.288  -4.474  0.00  0.00    -0.042 A 
ATOM     52  H   LIG d   1       3.067  -0.391  -4.386  0.00  0.00     0.063 H 
BRANCH  49  53
ATOM     53  C   LIG d   1       4.243   0.070  -2.001  0.00  0.00     0.417 C 
ATOM     54  F   LIG d   1       2.885   0.359  -2.171  0.00  0.00    -0.166 F 
ATOM     55  F   LIG d   1       4.379  -1.138  -1.309  0.00  0.00    -0.166 F 
ATOM     56  F   LIG d   1       4.851   1.098  -1.273  0.00  0.00    -0.166 F 
ENDBRANCH  49  53
ENDBRANCH   1  43
TORSDOF 3
ENDMDL
MODEL 7
REMARK VINA RESULT:      -7.4      2.597      6.411
REMARK  3 active torsions:
REMARK  status: ('A' for Active; 'I' for Inactive)
REMARK    1  A    between atoms: C_3  and  C_11 
REMARK    2  A    between atoms: C_5  and  C_7 
REMARK       I    between atoms: N_25  and  C_27 
REMARK    3  A    between atoms: C_27  and  C_29 
ROOT
ATOM      1  C   LIG d   1       9.165   1.048  -6.975  0.00  0.00     0.047 C 
ATOM      2  C   LIG d   1      10.193   0.132  -7.134  0.00  0.00    -0.047 C 
ATOM      3  C   LIG d   1       9.868  -1.199  -7.398  0.00  0.00    -0.041 C 
ATOM      4  C   LIG d   1       8.570  -1.589  -7.522  0.00  0.00     0.027 C 
ATOM      5  N   LIG d   1       7.567  -0.682  -7.459  0.00  0.00    -0.311 N 
ATOM      6  C   LIG d   1       7.831   0.602  -7.110  0.00  0.00     0.259 C 
ATOM      7  O   LIG d   1       6.911   1.376  -6.911  0.00  0.00    -0.267 OA
ATOM      8  C   LIG d   1       6.181  -0.996  -7.811  0.00  0.00     0.031 C 
ATOM      9  C   LIG d   1       5.894  -2.485  -7.766  0.00  0.00    -0.006 C 
ATOM     10  H   LIG d   1       4.960  -2.666  -8.298  0.00  0.00     0.033 H 
ATOM     11  C   LIG d   1       6.996  -3.249  -8.500  0.00  0.00    -0.037 C 
ATOM     12  C   LIG d   1       8.307  -3.062  -7.733  0.00  0.00     0.016 C 
ATOM     13  H   LIG d   1       9.139  -3.518  -8.272  0.00  0.00     0.038 H 
ATOM     14  C   LIG d   1       8.155  -3.713  -6.347  0.00  0.00     0.023 C 
ATOM     15  N   LIG d   1       7.037  -3.040  -5.666  0.00  0.00    -0.297 N 
ATOM     16  C   LIG d   1       5.733  -2.993  -6.339  0.00  0.00     0.019 C 
ATOM     17  C   LIG d   1       7.208  -2.481  -4.452  0.00  0.00     0.247 C 
ATOM     18  O   LIG d   1       8.275  -2.588  -3.877  0.00  0.00    -0.270 OA
ATOM     19  H   LIG d   1      11.224   0.443  -7.055  0.00  0.00     0.063 H 
ATOM     20  H   LIG d   1      10.657  -1.930  -7.503  0.00  0.00     0.064 H 
ATOM     21  H   LIG d   1       5.516  -0.487  -7.114  0.00  0.00     0.050 H 
ATOM     22  H   LIG d   1       5.982  -0.629  -8.819  0.00  0.00     0.050 H 
ATOM     23  H   LIG d   1       7.104  -2.857  -9.512  0.00  0.00     0.028 H 
ATOM     24  H   LIG d   1       6.743  -4.309  -8.542  0.00  0.00     0.028 H 
ATOM     25  H   LIG d   1       7.936  -4.775  -6.459  0.00  0.00     0.047 H 
ATOM     26  H   LIG d   1       9.072  -3.582  -5.774  0.00  0.00     0.047 H 
ATOM     27  H   LIG d   1       5.067  -2.325  -5.792  0.00  0.00     0.047 H 
ATOM     28  H   LIG d   1       5.303  -3.994  -6.359  0.00  0.00     0.047 H 
ENDROOT
BRANCH  17  29
ATOM     29  C   LIG d   1       6.100  -1.738  -3.819  0.00  0.00     0.041 A 
ATOM     30  C   LIG d   1       6.066  -0.342  -3.882  0.00  0.00    -0.004 A 
ATOM     31  C   LIG d   1       5.027   0.348  -3.290  0.00  0.00     0.167 A 
ATOM     32  H   LIG d   1       6.850   0.195  -4.395  0.00  0.00     0.066 H 
ATOM     33  C   LIG d   1       4.015  -0.347  -2.628  0.00  0.00     0.166 A 
ATOM     34  O   LIG d   1       4.762   1.685  -3.209  0.00  0.00    -0.453 OA
ATOM     35  C   LIG d   1       4.050  -1.734  -2.565  0.00  0.00    -0.015 A 
ATOM     36  O   LIG d   1       3.119   0.555  -2.135  0.00  0.00    -0.453 OA
ATOM     37  C   LIG d   1       5.081  -2.429  -3.160  0.00  0.00    -0.046 A 
ATOM     38  H   LIG d   1       3.265  -2.270  -2.052  0.00  0.00     0.066 H 
ATOM     39  H   LIG d   1       5.102  -3.507  -3.112  0.00  0.00     0.063 H 
ATOM     40  C   LIG d   1       3.371   1.779  -2.849  0.00  0.00     0.233 C 
ATOM     41  H   LIG d   1       2.747   1.837  -3.740  0.00  0.00     0.117 H 
ATOM     42  H   LIG d   1       3.199   2.640  -2.203  0.00  0.00     0.117 H 
ENDBRANCH  17  29
BRANCH   1  43
ATOM     43  C   LIG d   1       9.459   2.468  -6.670  0.00  0.00    -0.012 A 
ATOM     44  C   LIG d   1       9.623   3.387  -7.706  0.00  0.00    -0.054 A 
ATOM     45  C   LIG d   1       9.892   4.709  -7.416  0.00  0.00    -0.061 A 
ATOM     46  H   LIG d   1       9.536   3.065  -8.734  0.00  0.00     0.062 H 
ATOM     47  C   LIG d   1      10.008   5.121  -6.101  0.00  0.00    -0.050 A 
ATOM     48  H   LIG d   1      10.015   5.422  -8.217  0.00  0.00     0.062 H 
ATOM     49  C   LIG d   1       9.852   4.213  -5.068  0.00  0.00     0.055 A 
ATOM     50  H   LIG d   1      10.223   6.155  -5.878  0.00  0.00     0.062 H 
ATOM     51  C   LIG d   1       9.578   2.889  -5.347  0.00  0.00    -0.042 A 
ATOM     52  H   LIG d   1       9.456   2.182  -4.540  0.00  0.00     0.063 H 
BRANCH  49  53
ATOM     53  C   LIG d   1       9.981   4.670  -3.638  0.00  0.00     0.417 C 
ATOM     54  F   LIG d   1       9.244   5.845  -3.456  0.00  0.00    -0.166 F 
ATOM     55  F   LIG d   1       9.490   3.676  -2.786  0.00  0.00    -0.166 F 
ATOM     56  F   LIG d   1      11.327   4.915  -3.345  0.00  0.00    -0.166 F 
ENDBRANCH  49  53
ENDBRANCH   1  43
TORSDOF 3
ENDMDL
MODEL 8
REMARK VINA RESULT:      -7.4      5.290      8.507
REMARK  3 active torsions:
REMARK  status: ('A' for Active; 'I' for Inactive)
REMARK    1  A    between atoms: C_3  and  C_11 
REMARK    2  A    between atoms: C_5  and  C_7 
REMARK       I    between atoms: N_25  and  C_27 
REMARK    3  A    between atoms: C_27  and  C_29 
ROOT
ATOM      1  C   LIG d   1       7.585  -3.103  -5.311  0.00  0.00     0.047 C 
ATOM      2  C   LIG d   1       8.771  -2.839  -4.644  0.00  0.00    -0.047 C 
ATOM      3  C   LIG d   1       9.863  -3.680  -4.863  0.00  0.00    -0.041 C 
ATOM      4  C   LIG d   1       9.776  -4.724  -5.732  0.00  0.00     0.027 C 
ATOM      5  N   LIG d   1       8.649  -4.930  -6.454  0.00  0.00    -0.311 N 
ATOM      6  C   LIG d   1       7.536  -4.198  -6.202  0.00  0.00     0.259 C 
ATOM      7  O   LIG d   1       6.486  -4.486  -6.750  0.00  0.00    -0.267 OA
ATOM      8  C   LIG d   1       8.573  -5.884  -7.561  0.00  0.00     0.031 C 
ATOM      9  C   LIG d   1       9.667  -6.933  -7.500  0.00  0.00    -0.006 C 
ATOM     10  H   LIG d   1       9.724  -7.420  -8.474  0.00  0.00     0.033 H 
ATOM     11  C   LIG d   1      11.017  -6.262  -7.243  0.00  0.00    -0.037 C 
ATOM     12  C   LIG d   1      10.982  -5.627  -5.851  0.00  0.00     0.016 C 
ATOM     13  H   LIG d   1      11.894  -5.060  -5.662  0.00  0.00     0.038 H 
ATOM     14  C   LIG d   1      10.831  -6.749  -4.809  0.00  0.00     0.023 C 
ATOM     15  N   LIG d   1       9.574  -7.457  -5.104  0.00  0.00    -0.297 N 
ATOM     16  C   LIG d   1       9.377  -8.001  -6.453  0.00  0.00     0.019 C 
ATOM     17  C   LIG d   1       8.627  -7.600  -4.156  0.00  0.00     0.247 C 
ATOM     18  O   LIG d   1       8.833  -7.204  -3.024  0.00  0.00    -0.270 OA
ATOM     19  H   LIG d   1       8.848  -2.000  -3.969  0.00  0.00     0.063 H 
ATOM     20  H   LIG d   1      10.788  -3.500  -4.335  0.00  0.00     0.064 H 
ATOM     21  H   LIG d   1       7.604  -6.382  -7.532  0.00  0.00     0.050 H 
ATOM     22  H   LIG d   1       8.659  -5.339  -8.502  0.00  0.00     0.050 H 
ATOM     23  H   LIG d   1      11.194  -5.493  -7.994  0.00  0.00     0.028 H 
ATOM     24  H   LIG d   1      11.811  -7.008  -7.286  0.00  0.00     0.028 H 
ATOM     25  H   LIG d   1      11.671  -7.438  -4.883  0.00  0.00     0.047 H 
ATOM     26  H   LIG d   1      10.790  -6.321  -3.808  0.00  0.00     0.047 H 
ATOM     27  H   LIG d   1       8.347  -8.340  -6.559  0.00  0.00     0.047 H 
ATOM     28  H   LIG d   1      10.051  -8.844  -6.602  0.00  0.00     0.047 H 
ENDROOT
BRANCH  17  29
ATOM     29  C   LIG d   1       7.339  -8.239  -4.491  0.00  0.00     0.041 A 
ATOM     30  C   LIG d   1       7.115  -9.578  -4.164  0.00  0.00    -0.004 A 
ATOM     31  C   LIG d   1       5.907 -10.171  -4.478  0.00  0.00     0.167 A 
ATOM     32  H   LIG d   1       7.883 -10.148  -3.664  0.00  0.00     0.066 H 
ATOM     33  C   LIG d   1       4.915  -9.433  -5.123  0.00  0.00     0.166 A 
ATOM     34  O   LIG d   1       5.443 -11.438  -4.272  0.00  0.00    -0.453 OA
ATOM     35  C   LIG d   1       5.139  -8.102  -5.449  0.00  0.00    -0.015 A 
ATOM     36  O   LIG d   1       3.832 -10.238  -5.319  0.00  0.00    -0.453 OA
ATOM     37  C   LIG d   1       6.339  -7.503  -5.132  0.00  0.00    -0.046 A 
ATOM     38  H   LIG d   1       4.369  -7.532  -5.949  0.00  0.00     0.066 H 
ATOM     39  H   LIG d   1       6.508  -6.466  -5.384  0.00  0.00     0.063 H 
ATOM     40  C   LIG d   1       4.014 -11.352  -4.427  0.00  0.00     0.233 C 
ATOM     41  H   LIG d   1       3.535 -11.156  -3.468  0.00  0.00     0.117 H 
ATOM     42  H   LIG d   1       3.621 -12.267  -4.872  0.00  0.00     0.117 H 
ENDBRANCH  17  29
BRANCH   1  43
ATOM     43  C   LIG d   1       6.390  -2.252  -5.093  0.00  0.00    -0.012 A 
ATOM     44  C   LIG d   1       6.003  -1.329  -6.063  0.00  0.00    -0.054 A 
ATOM     45  C   LIG d   1       4.887  -0.544  -5.858  0.00  0.00    -0.061 A 
ATOM     46  H   LIG d   1       6.572  -1.232  -6.977  0.00  0.00     0.062 H 
ATOM     47  C   LIG d   1       4.160  -0.664  -4.687  0.00  0.00    -0.050 A 
ATOM     48  H   LIG d   1       4.583   0.169  -6.610  0.00  0.00     0.062 H 
ATOM     49  C   LIG d   1       4.543  -1.574  -3.718  0.00  0.00     0.055 A 
ATOM     50  H   LIG d   1       3.290  -0.044  -4.527  0.00  0.00     0.062 H 
ATOM     51  C   LIG d   1       5.654  -2.369  -3.915  0.00  0.00    -0.042 A 
ATOM     52  H   LIG d   1       5.952  -3.079  -3.158  0.00  0.00     0.063 H 
BRANCH  49  53
ATOM     53  C   LIG d   1       3.746  -1.699  -2.445  0.00  0.00     0.417 C 
ATOM     54  F   LIG d   1       3.606  -3.051  -2.113  0.00  0.00    -0.166 F 
ATOM     55  F   LIG d   1       4.412  -1.033  -1.411  0.00  0.00    -0.166 F 
ATOM     56  F   LIG d   1       2.481  -1.131  -2.628  0.00  0.00    -0.166 F 
ENDBRANCH  49  53
ENDBRANCH   1  43
TORSDOF 3
ENDMDL
MODEL 9
REMARK VINA RESULT:      -7.1      4.992      7.660
REMARK  3 active torsions:
REMARK  status: ('A' for Active; 'I' for Inactive)
REMARK    1  A    between atoms: C_3  and  C_11 
REMARK    2  A    between atoms: C_5  and  C_7 
REMARK       I    between atoms: N_25  and  C_27 
REMARK    3  A    between atoms: C_27  and  C_29 
ROOT
ATOM      1  C   LIG d   1       6.474  -4.775  -5.286  0.00  0.00     0.047 C 
ATOM      2  C   LIG d   1       7.645  -4.232  -4.782  0.00  0.00    -0.047 C 
ATOM      3  C   LIG d   1       7.581  -3.010  -4.111  0.00  0.00    -0.041 C 
ATOM      4  C   LIG d   1       6.391  -2.372  -3.934  0.00  0.00     0.027 C 
ATOM      5  N   LIG d   1       5.234  -2.942  -4.344  0.00  0.00    -0.311 N 
ATOM      6  C   LIG d   1       5.260  -4.080  -5.082  0.00  0.00     0.259 C 
ATOM      7  O   LIG d   1       4.229  -4.506  -5.573  0.00  0.00    -0.267 OA
ATOM      8  C   LIG d   1       3.915  -2.424  -3.981  0.00  0.00     0.031 C 
ATOM      9  C   LIG d   1       3.961  -0.970  -3.549  0.00  0.00    -0.006 C 
ATOM     10  H   LIG d   1       3.027  -0.739  -3.037  0.00  0.00     0.033 H 
ATOM     11  C   LIG d   1       5.097  -0.762  -2.547  0.00  0.00    -0.037 C 
ATOM     12  C   LIG d   1       6.425  -1.018  -3.263  0.00  0.00     0.016 C 
ATOM     13  H   LIG d   1       7.259  -0.968  -2.562  0.00  0.00     0.038 H 
ATOM     14  C   LIG d   1       6.595   0.044  -4.364  0.00  0.00     0.023 C 
ATOM     15  N   LIG d   1       5.456  -0.092  -5.286  0.00  0.00    -0.297 N 
ATOM     16  C   LIG d   1       4.097  -0.025  -4.735  0.00  0.00     0.019 C 
ATOM     17  C   LIG d   1       5.658  -0.275  -6.606  0.00  0.00     0.247 C 
ATOM     18  O   LIG d   1       6.788  -0.260  -7.057  0.00  0.00    -0.270 OA
ATOM     19  H   LIG d   1       8.587  -4.745  -4.904  0.00  0.00     0.063 H 
ATOM     20  H   LIG d   1       8.488  -2.563  -3.730  0.00  0.00     0.064 H 
ATOM     21  H   LIG d   1       3.251  -2.515  -4.841  0.00  0.00     0.050 H 
ATOM     22  H   LIG d   1       3.513  -3.023  -3.163  0.00  0.00     0.050 H 
ATOM     23  H   LIG d   1       4.987  -1.460  -1.717  0.00  0.00     0.028 H 
ATOM     24  H   LIG d   1       5.073   0.261  -2.173  0.00  0.00     0.028 H 
ATOM     25  H   LIG d   1       6.596   1.039  -3.920  0.00  0.00     0.047 H 
ATOM     26  H   LIG d   1       7.528  -0.124  -4.899  0.00  0.00     0.047 H 
ATOM     27  H   LIG d   1       3.380  -0.308  -5.506  0.00  0.00     0.047 H 
ATOM     28  H   LIG d   1       3.891   0.994  -4.409  0.00  0.00     0.047 H 
ENDROOT
BRANCH  17  29
ATOM     29  C   LIG d   1       4.508  -0.494  -7.505  0.00  0.00     0.041 A 
ATOM     30  C   LIG d   1       4.312  -1.741  -8.102  0.00  0.00    -0.004 A 
ATOM     31  C   LIG d   1       3.233  -1.941  -8.942  0.00  0.00     0.167 A 
ATOM     32  H   LIG d   1       5.002  -2.548  -7.906  0.00  0.00     0.066 H 
ATOM     33  C   LIG d   1       2.343  -0.898  -9.194  0.00  0.00     0.166 A 
ATOM     34  O   LIG d   1       2.823  -3.042  -9.637  0.00  0.00    -0.453 OA
ATOM     35  C   LIG d   1       2.539   0.343  -8.601  0.00  0.00    -0.015 A 
ATOM     36  O   LIG d   1       1.377  -1.346 -10.046  0.00  0.00    -0.453 OA
ATOM     37  C   LIG d   1       3.609   0.546  -7.757  0.00  0.00    -0.046 A 
ATOM     38  H   LIG d   1       1.848   1.149  -8.797  0.00  0.00     0.066 H 
ATOM     39  H   LIG d   1       3.755   1.511  -7.294  0.00  0.00     0.063 H 
ATOM     40  C   LIG d   1       1.451  -2.782  -9.990  0.00  0.00     0.233 C 
ATOM     41  H   LIG d   1       0.779  -3.171  -9.225  0.00  0.00     0.117 H 
ATOM     42  H   LIG d   1       1.216  -3.216 -10.962  0.00  0.00     0.117 H 
ENDBRANCH  17  29
BRANCH   1  43
ATOM     43  C   LIG d   1       6.493  -6.059  -6.026  0.00  0.00    -0.012 A 
ATOM     44  C   LIG d   1       7.202  -6.167  -7.222  0.00  0.00    -0.054 A 
ATOM     45  C   LIG d   1       7.222  -7.366  -7.903  0.00  0.00    -0.061 A 
ATOM     46  H   LIG d   1       7.740  -5.314  -7.611  0.00  0.00     0.062 H 
ATOM     47  C   LIG d   1       6.530  -8.457  -7.408  0.00  0.00    -0.050 A 
ATOM     48  H   LIG d   1       7.774  -7.453  -8.827  0.00  0.00     0.062 H 
ATOM     49  C   LIG d   1       5.819  -8.354  -6.225  0.00  0.00     0.055 A 
ATOM     50  H   LIG d   1       6.543  -9.392  -7.947  0.00  0.00     0.062 H 
ATOM     51  C   LIG d   1       5.798  -7.161  -5.532  0.00  0.00    -0.042 A 
ATOM     52  H   LIG d   1       5.242  -7.082  -4.609  0.00  0.00     0.063 H 
BRANCH  49  53
ATOM     53  C   LIG d   1       5.067  -9.547  -5.693  0.00  0.00     0.417 C 
ATOM     54  F   LIG d   1       4.319  -9.165  -4.574  0.00  0.00    -0.166 F 
ATOM     55  F   LIG d   1       4.208 -10.036  -6.682  0.00  0.00    -0.166 F 
ATOM     56  F   LIG d   1       5.975 -10.546  -5.326  0.00  0.00    -0.166 F 
ENDBRANCH  49  53
ENDBRANCH   1  43
TORSDOF 3
ENDMDL
