MODEL 1
REMARK VINA RESULT:      -7.0      0.000      0.000
REMARK  7 active torsions:
REMARK  status: ('A' for Active; 'I' for Inactive)
REMARK    1  A    between atoms: C_1  and  O_2 
REMARK    2  A    between atoms: O_2  and  C_3 
REMARK    3  A    between atoms: C_6  and  C_9 
REMARK    4  A    between atoms: C_9  and  C_10 
REMARK       I    between atoms: C_10  and  N_12 
REMARK    5  A    between atoms: N_12  and  C_13 
REMARK    6  A    between atoms: C_13  and  C_14 
REMARK    7  A    between atoms: C_14  and  N_15 
ROOT
ATOM      1  C   LIG d   1       5.841   1.805  -8.834  0.00  0.00     0.217 C 
ATOM      2  O   LIG d   1       6.852   2.070  -9.447  0.00  0.00    -0.276 OA
ATOM      3  N   LIG d   1       5.900   1.011  -7.747  0.00  0.00    -0.313 N 
ATOM      4  H   LIG d   1       5.090   0.799  -7.257  0.00  0.00     0.149 HD
ENDROOT
BRANCH   3   5
ATOM      5  C   LIG d   1       7.187   0.469  -7.305  0.00  0.00     0.030 C 
ATOM      6  H   LIG d   1       7.994   0.963  -7.846  0.00  0.00     0.048 H 
ATOM      7  H   LIG d   1       7.218  -0.602  -7.504  0.00  0.00     0.048 H 
BRANCH   5   8
ATOM      8  C   LIG d   1       7.355   0.714  -5.803  0.00  0.00     0.039 C 
ATOM      9  H   LIG d   1       8.416   0.721  -5.554  0.00  0.00     0.051 H 
ATOM     10  H   LIG d   1       6.912   1.674  -5.540  0.00  0.00     0.051 H 
BRANCH   8  11
ATOM     11  N   LIG d   1       6.685  -0.354  -5.057  0.00  0.00    -0.345 N 
ATOM     12  C   LIG d   1       5.944  -0.174  -3.911  0.00  0.00     0.049 A 
ATOM     13  C   LIG d   1       5.475  -1.441  -3.517  0.00  0.00    -0.000 A 
ATOM     14  C   LIG d   1       5.601   0.945  -3.159  0.00  0.00    -0.038 A 
ATOM     15  C   LIG d   1       5.997  -2.390  -4.503  0.00  0.00    -0.036 A 
ATOM     16  C   LIG d   1       4.684  -1.565  -2.373  0.00  0.00    -0.053 A 
ATOM     17  C   LIG d   1       6.708  -1.681  -5.393  0.00  0.00     0.006 A 
ATOM     18  H   LIG d   1       5.838  -3.458  -4.512  0.00  0.00     0.064 H 
ATOM     19  H   LIG d   1       7.222  -2.095  -6.247  0.00  0.00     0.081 H 
ATOM     20  C   LIG d   1       4.363  -0.454  -1.646  0.00  0.00    -0.061 A 
ATOM     21  H   LIG d   1       4.326  -2.536  -2.065  0.00  0.00     0.062 H 
ATOM     22  C   LIG d   1       4.819   0.799  -2.034  0.00  0.00    -0.060 A 
ATOM     23  H   LIG d   1       3.751  -0.551  -0.762  0.00  0.00     0.062 H 
ATOM     24  H   LIG d   1       4.557   1.668  -1.449  0.00  0.00     0.062 H 
ATOM     25  H   LIG d   1       5.951   1.923  -3.452  0.00  0.00     0.064 H 
ENDBRANCH   8  11
ENDBRANCH   5   8
ENDBRANCH   3   5
BRANCH   1  26
ATOM     26  C   LIG d   1       4.517   2.362  -9.289  0.00  0.00     0.049 C 
ATOM     27  H   LIG d   1       4.001   2.813  -8.441  0.00  0.00     0.041 H 
ATOM     28  H   LIG d   1       4.685   3.120 -10.056  0.00  0.00     0.041 H 
BRANCH  26  29
ATOM     29  C   LIG d   1       3.672   1.251  -9.858  0.00  0.00    -0.038 A 
ATOM     30  C   LIG d   1       2.571   0.794  -9.157  0.00  0.00    -0.055 A 
ATOM     31  C   LIG d   1       1.795  -0.224  -9.676  0.00  0.00    -0.020 A 
ATOM     32  H   LIG d   1       2.318   1.234  -8.203  0.00  0.00     0.062 H 
ATOM     33  C   LIG d   1       2.121  -0.788 -10.901  0.00  0.00     0.120 A 
ATOM     34  H   LIG d   1       0.935  -0.581  -9.129  0.00  0.00     0.065 H 
ATOM     35  C   LIG d   1       3.226  -0.327 -11.602  0.00  0.00    -0.020 A 
ATOM     36  C   LIG d   1       3.995   0.696 -11.082  0.00  0.00    -0.055 A 
ATOM     37  H   LIG d   1       3.482  -0.764 -12.556  0.00  0.00     0.065 H 
ATOM     38  H   LIG d   1       4.853   1.058 -11.629  0.00  0.00     0.062 H 
BRANCH  33  39
ATOM     39  O   LIG d   1       1.360  -1.790 -11.414  0.00  0.00    -0.495 OA
BRANCH  39  40
ATOM     40  C   LIG d   1       1.166  -2.944 -10.594  0.00  0.00     0.079 C 
ATOM     41  H   LIG d   1       0.771  -3.758 -11.201  0.00  0.00     0.066 H 
ATOM     42  H   LIG d   1       2.119  -3.244 -10.158  0.00  0.00     0.066 H 
ATOM     43  H   LIG d   1       0.460  -2.708  -9.798  0.00  0.00     0.066 H 
ENDBRANCH  39  40
ENDBRANCH  33  39
ENDBRANCH  26  29
ENDBRANCH   1  26
TORSDOF 7
ENDMDL
MODEL 2
REMARK VINA RESULT:      -6.5      2.903      7.397
REMARK  7 active torsions:
REMARK  status: ('A' for Active; 'I' for Inactive)
REMARK    1  A    between atoms: C_1  and  O_2 
REMARK    2  A    between atoms: O_2  and  C_3 
REMARK    3  A    between atoms: C_6  and  C_9 
REMARK    4  A    between atoms: C_9  and  C_10 
REMARK       I    between atoms: C_10  and  N_12 
REMARK    5  A    between atoms: N_12  and  C_13 
REMARK    6  A    between atoms: C_13  and  C_14 
REMARK    7  A    between atoms: C_14  and  N_15 
ROOT
ATOM      1  C   LIG d   1       4.737  -4.188  -6.002  0.00  0.00     0.217 C 
ATOM      2  O   LIG d   1       3.780  -4.928  -5.933  0.00  0.00    -0.276 OA
ATOM      3  N   LIG d   1       4.925  -3.430  -7.101  0.00  0.00    -0.313 N 
ATOM      4  H   LIG d   1       5.692  -2.838  -7.156  0.00  0.00     0.149 HD
ENDROOT
BRANCH   3   5
ATOM      5  C   LIG d   1       3.972  -3.500  -8.211  0.00  0.00     0.030 C 
ATOM      6  H   LIG d   1       2.985  -3.196  -7.862  0.00  0.00     0.048 H 
ATOM      7  H   LIG d   1       3.925  -4.523  -8.586  0.00  0.00     0.048 H 
BRANCH   5   8
ATOM      8  C   LIG d   1       4.427  -2.566  -9.334  0.00  0.00     0.039 C 
ATOM      9  H   LIG d   1       5.449  -2.239  -9.143  0.00  0.00     0.051 H 
ATOM     10  H   LIG d   1       4.386  -3.095 -10.286  0.00  0.00     0.051 H 
BRANCH   8  11
ATOM     11  N   LIG d   1       3.543  -1.399  -9.386  0.00  0.00    -0.345 N 
ATOM     12  C   LIG d   1       3.957  -0.088  -9.309  0.00  0.00     0.049 A 
ATOM     13  C   LIG d   1       2.807   0.717  -9.400  0.00  0.00    -0.000 A 
ATOM     14  C   LIG d   1       5.204   0.516  -9.182  0.00  0.00    -0.038 A 
ATOM     15  C   LIG d   1       1.676  -0.206  -9.528  0.00  0.00    -0.036 A 
ATOM     16  C   LIG d   1       2.924   2.107  -9.352  0.00  0.00    -0.053 A 
ATOM     17  C   LIG d   1       2.181  -1.450  -9.514  0.00  0.00     0.006 A 
ATOM     18  H   LIG d   1       0.635   0.063  -9.618  0.00  0.00     0.064 H 
ATOM     19  H   LIG d   1       1.600  -2.355  -9.592  0.00  0.00     0.081 H 
ATOM     20  C   LIG d   1       4.158   2.680  -9.222  0.00  0.00    -0.061 A 
ATOM     21  H   LIG d   1       2.043   2.728  -9.417  0.00  0.00     0.062 H 
ATOM     22  C   LIG d   1       5.297   1.890  -9.137  0.00  0.00    -0.060 A 
ATOM     23  H   LIG d   1       4.248   3.755  -9.186  0.00  0.00     0.062 H 
ATOM     24  H   LIG d   1       6.264   2.357  -9.035  0.00  0.00     0.062 H 
ATOM     25  H   LIG d   1       6.095  -0.089  -9.115  0.00  0.00     0.064 H 
ENDBRANCH   8  11
ENDBRANCH   5   8
ENDBRANCH   3   5
BRANCH   1  26
ATOM     26  C   LIG d   1       5.718  -4.115  -4.860  0.00  0.00     0.049 C 
ATOM     27  H   LIG d   1       5.611  -5.000  -4.233  0.00  0.00     0.041 H 
ATOM     28  H   LIG d   1       6.733  -4.071  -5.255  0.00  0.00     0.041 H 
BRANCH  26  29
ATOM     29  C   LIG d   1       5.444  -2.882  -4.040  0.00  0.00    -0.038 A 
ATOM     30  C   LIG d   1       4.240  -2.749  -3.373  0.00  0.00    -0.055 A 
ATOM     31  C   LIG d   1       3.986  -1.620  -2.620  0.00  0.00    -0.020 A 
ATOM     32  H   LIG d   1       3.496  -3.530  -3.442  0.00  0.00     0.062 H 
ATOM     33  C   LIG d   1       4.941  -0.617  -2.533  0.00  0.00     0.120 A 
ATOM     34  H   LIG d   1       3.045  -1.516  -2.100  0.00  0.00     0.065 H 
ATOM     35  C   LIG d   1       6.149  -0.752  -3.202  0.00  0.00    -0.020 A 
ATOM     36  C   LIG d   1       6.400  -1.887  -3.949  0.00  0.00    -0.055 A 
ATOM     37  H   LIG d   1       6.894   0.027  -3.135  0.00  0.00     0.065 H 
ATOM     38  H   LIG d   1       7.342  -1.995  -4.466  0.00  0.00     0.062 H 
BRANCH  33  39
ATOM     39  O   LIG d   1       4.694   0.496  -1.793  0.00  0.00    -0.495 OA
BRANCH  39  40
ATOM     40  C   LIG d   1       3.689   1.388  -2.277  0.00  0.00     0.079 C 
ATOM     41  H   LIG d   1       2.907   0.817  -2.778  0.00  0.00     0.066 H 
ATOM     42  H   LIG d   1       3.258   1.938  -1.440  0.00  0.00     0.066 H 
ATOM     43  H   LIG d   1       4.135   2.091  -2.981  0.00  0.00     0.066 H 
ENDBRANCH  39  40
ENDBRANCH  33  39
ENDBRANCH  26  29
ENDBRANCH   1  26
TORSDOF 7
ENDMDL
MODEL 3
REMARK VINA RESULT:      -6.3      5.714      8.840
REMARK  7 active torsions:
REMARK  status: ('A' for Active; 'I' for Inactive)
REMARK    1  A    between atoms: C_1  and  O_2 
REMARK    2  A    between atoms: O_2  and  C_3 
REMARK    3  A    between atoms: C_6  and  C_9 
REMARK    4  A    between atoms: C_9  and  C_10 
REMARK       I    between atoms: C_10  and  N_12 
REMARK    5  A    between atoms: N_12  and  C_13 
REMARK    6  A    between atoms: C_13  and  C_14 
REMARK    7  A    between atoms: C_14  and  N_15 
ROOT
ATOM      1  C   LIG d   1      11.131   2.938  -4.041  0.00  0.00     0.217 C 
ATOM      2  O   LIG d   1      11.286   2.823  -5.237  0.00  0.00    -0.276 OA
ATOM      3  N   LIG d   1      10.171   2.230  -3.415  0.00  0.00    -0.313 N 
ATOM      4  H   LIG d   1      10.047   2.323  -2.457  0.00  0.00     0.149 HD
ENDROOT
BRANCH   3   5
ATOM      5  C   LIG d   1       9.314   1.322  -4.179  0.00  0.00     0.030 C 
ATOM      6  H   LIG d   1       9.553   0.291  -3.918  0.00  0.00     0.048 H 
ATOM      7  H   LIG d   1       9.482   1.474  -5.245  0.00  0.00     0.048 H 
BRANCH   5   8
ATOM      8  C   LIG d   1       7.846   1.604  -3.849  0.00  0.00     0.039 C 
ATOM      9  H   LIG d   1       7.787   2.175  -2.922  0.00  0.00     0.051 H 
ATOM     10  H   LIG d   1       7.396   2.177  -4.660  0.00  0.00     0.051 H 
BRANCH   8  11
ATOM     11  N   LIG d   1       7.129   0.337  -3.690  0.00  0.00    -0.345 N 
ATOM     12  C   LIG d   1       5.848   0.209  -3.203  0.00  0.00     0.049 A 
ATOM     13  C   LIG d   1       5.535  -1.163  -3.214  0.00  0.00    -0.000 A 
ATOM     14  C   LIG d   1       4.897   1.121  -2.759  0.00  0.00    -0.038 A 
ATOM     15  C   LIG d   1       6.723  -1.845  -3.734  0.00  0.00    -0.036 A 
ATOM     16  C   LIG d   1       4.283  -1.595  -2.771  0.00  0.00    -0.053 A 
ATOM     17  C   LIG d   1       7.636  -0.897  -3.998  0.00  0.00     0.006 A 
ATOM     18  H   LIG d   1       6.842  -2.908  -3.877  0.00  0.00     0.064 H 
ATOM     19  H   LIG d   1       8.623  -1.080  -4.394  0.00  0.00     0.081 H 
ATOM     20  C   LIG d   1       3.366  -0.682  -2.334  0.00  0.00    -0.061 A 
ATOM     21  H   LIG d   1       4.042  -2.647  -2.774  0.00  0.00     0.062 H 
ATOM     22  C   LIG d   1       3.668   0.673  -2.326  0.00  0.00    -0.060 A 
ATOM     23  H   LIG d   1       2.398  -1.018  -1.992  0.00  0.00     0.062 H 
ATOM     24  H   LIG d   1       2.932   1.382  -1.977  0.00  0.00     0.062 H 
ATOM     25  H   LIG d   1       5.122   2.178  -2.748  0.00  0.00     0.064 H 
ENDBRANCH   8  11
ENDBRANCH   5   8
ENDBRANCH   3   5
BRANCH   1  26
ATOM     26  C   LIG d   1      12.013   3.873  -3.254  0.00  0.00     0.049 C 
ATOM     27  H   LIG d   1      12.534   3.314  -2.477  0.00  0.00     0.041 H 
ATOM     28  H   LIG d   1      12.742   4.333  -3.921  0.00  0.00     0.041 H 
BRANCH  26  29
ATOM     29  C   LIG d   1      11.167   4.946  -2.618  0.00  0.00    -0.038 A 
ATOM     30  C   LIG d   1      11.226   5.153  -1.252  0.00  0.00    -0.055 A 
ATOM     31  C   LIG d   1      10.452   6.136  -0.668  0.00  0.00    -0.020 A 
ATOM     32  H   LIG d   1      11.879   4.546  -0.642  0.00  0.00     0.062 H 
ATOM     33  C   LIG d   1       9.613   6.915  -1.451  0.00  0.00     0.120 A 
ATOM     34  H   LIG d   1      10.498   6.298   0.400  0.00  0.00     0.065 H 
ATOM     35  C   LIG d   1       9.555   6.706  -2.822  0.00  0.00    -0.020 A 
ATOM     36  C   LIG d   1      10.337   5.726  -3.403  0.00  0.00    -0.055 A 
ATOM     37  H   LIG d   1       8.904   7.311  -3.435  0.00  0.00     0.065 H 
ATOM     38  H   LIG d   1      10.296   5.565  -4.470  0.00  0.00     0.062 H 
BRANCH  33  39
ATOM     39  O   LIG d   1       8.849   7.883  -0.879  0.00  0.00    -0.495 OA
BRANCH  39  40
ATOM     40  C   LIG d   1       9.389   9.205  -0.853  0.00  0.00     0.079 C 
ATOM     41  H   LIG d   1       9.557   9.549  -1.873  0.00  0.00     0.066 H 
ATOM     42  H   LIG d   1       8.686   9.874  -0.355  0.00  0.00     0.066 H 
ATOM     43  H   LIG d   1      10.334   9.201  -0.309  0.00  0.00     0.066 H 
ENDBRANCH  39  40
ENDBRANCH  33  39
ENDBRANCH  26  29
ENDBRANCH   1  26
TORSDOF 7
ENDMDL
MODEL 4
REMARK VINA RESULT:      -6.3      2.011      2.724
REMARK  7 active torsions:
REMARK  status: ('A' for Active; 'I' for Inactive)
REMARK    1  A    between atoms: C_1  and  O_2 
REMARK    2  A    between atoms: O_2  and  C_3 
REMARK    3  A    between atoms: C_6  and  C_9 
REMARK    4  A    between atoms: C_9  and  C_10 
REMARK       I    between atoms: C_10  and  N_12 
REMARK    5  A    between atoms: N_12  and  C_13 
REMARK    6  A    between atoms: C_13  and  C_14 
REMARK    7  A    between atoms: C_14  and  N_15 
ROOT
ATOM      1  C   LIG d   1       4.792  -1.122  -7.216  0.00  0.00     0.217 C 
ATOM      2  O   LIG d   1       6.000  -1.081  -7.308  0.00  0.00    -0.276 OA
ATOM      3  N   LIG d   1       4.194  -2.210  -6.691  0.00  0.00    -0.313 N 
ATOM      4  H   LIG d   1       3.227  -2.243  -6.618  0.00  0.00     0.149 HD
ENDROOT
BRANCH   3   5
ATOM      5  C   LIG d   1       5.002  -3.341  -6.231  0.00  0.00     0.030 C 
ATOM      6  H   LIG d   1       6.045  -3.176  -6.501  0.00  0.00     0.048 H 
ATOM      7  H   LIG d   1       4.646  -4.258  -6.702  0.00  0.00     0.048 H 
BRANCH   5   8
ATOM      8  C   LIG d   1       4.882  -3.470  -4.711  0.00  0.00     0.039 C 
ATOM      9  H   LIG d   1       3.830  -3.547  -4.435  0.00  0.00     0.051 H 
ATOM     10  H   LIG d   1       5.412  -4.363  -4.379  0.00  0.00     0.051 H 
BRANCH   8  11
ATOM     11  N   LIG d   1       5.468  -2.288  -4.073  0.00  0.00    -0.345 N 
ATOM     12  C   LIG d   1       4.753  -1.268  -3.488  0.00  0.00     0.049 A 
ATOM     13  C   LIG d   1       5.686  -0.337  -2.995  0.00  0.00    -0.000 A 
ATOM     14  C   LIG d   1       3.394  -1.033  -3.306  0.00  0.00    -0.038 A 
ATOM     15  C   LIG d   1       7.007  -0.869  -3.335  0.00  0.00    -0.036 A 
ATOM     16  C   LIG d   1       5.241   0.814  -2.341  0.00  0.00    -0.053 A 
ATOM     17  C   LIG d   1       6.809  -2.032  -3.975  0.00  0.00     0.006 A 
ATOM     18  H   LIG d   1       7.960  -0.412  -3.113  0.00  0.00     0.064 H 
ATOM     19  H   LIG d   1       7.591  -2.671  -4.356  0.00  0.00     0.081 H 
ATOM     20  C   LIG d   1       3.902   1.027  -2.179  0.00  0.00    -0.061 A 
ATOM     21  H   LIG d   1       5.954   1.533  -1.966  0.00  0.00     0.062 H 
ATOM     22  C   LIG d   1       2.978   0.109  -2.659  0.00  0.00    -0.060 A 
ATOM     23  H   LIG d   1       3.559   1.918  -1.673  0.00  0.00     0.062 H 
ATOM     24  H   LIG d   1       1.922   0.292  -2.522  0.00  0.00     0.062 H 
ATOM     25  H   LIG d   1       2.667  -1.742  -3.676  0.00  0.00     0.064 H 
ENDBRANCH   8  11
ENDBRANCH   5   8
ENDBRANCH   3   5
BRANCH   1  26
ATOM     26  C   LIG d   1       3.961   0.042  -7.689  0.00  0.00     0.049 C 
ATOM     27  H   LIG d   1       3.192   0.264  -6.949  0.00  0.00     0.041 H 
ATOM     28  H   LIG d   1       4.600   0.915  -7.822  0.00  0.00     0.041 H 
BRANCH  26  29
ATOM     29  C   LIG d   1       3.307  -0.308  -9.002  0.00  0.00    -0.038 A 
ATOM     30  C   LIG d   1       4.074  -0.411 -10.148  0.00  0.00    -0.055 A 
ATOM     31  C   LIG d   1       3.477  -0.731 -11.352  0.00  0.00    -0.020 A 
ATOM     32  H   LIG d   1       5.139  -0.241 -10.102  0.00  0.00     0.062 H 
ATOM     33  C   LIG d   1       2.109  -0.949 -11.411  0.00  0.00     0.120 A 
ATOM     34  H   LIG d   1       4.076  -0.812 -12.248  0.00  0.00     0.065 H 
ATOM     35  C   LIG d   1       1.342  -0.846 -10.259  0.00  0.00    -0.020 A 
ATOM     36  C   LIG d   1       1.944  -0.532  -9.056  0.00  0.00    -0.055 A 
ATOM     37  H   LIG d   1       0.276  -1.016 -10.302  0.00  0.00     0.065 H 
ATOM     38  H   LIG d   1       1.349  -0.455  -8.158  0.00  0.00     0.062 H 
BRANCH  33  39
ATOM     39  O   LIG d   1       1.519  -1.264 -12.594  0.00  0.00    -0.495 OA
BRANCH  39  40
ATOM     40  C   LIG d   1       0.503  -2.268 -12.566  0.00  0.00     0.079 C 
ATOM     41  H   LIG d   1      -0.414  -1.869 -13.000  0.00  0.00     0.066 H 
ATOM     42  H   LIG d   1       0.832  -3.134 -13.143  0.00  0.00     0.066 H 
ATOM     43  H   LIG d   1       0.317  -2.568 -11.535  0.00  0.00     0.066 H 
ENDBRANCH  39  40
ENDBRANCH  33  39
ENDBRANCH  26  29
ENDBRANCH   1  26
TORSDOF 7
ENDMDL
MODEL 5
REMARK VINA RESULT:      -6.1      5.078      6.999
REMARK  7 active torsions:
REMARK  status: ('A' for Active; 'I' for Inactive)
REMARK    1  A    between atoms: C_1  and  O_2 
REMARK    2  A    between atoms: O_2  and  C_3 
REMARK    3  A    between atoms: C_6  and  C_9 
REMARK    4  A    between atoms: C_9  and  C_10 
REMARK       I    between atoms: C_10  and  N_12 
REMARK    5  A    between atoms: N_12  and  C_13 
REMARK    6  A    between atoms: C_13  and  C_14 
REMARK    7  A    between atoms: C_14  and  N_15 
ROOT
ATOM      1  C   LIG d   1       8.494   1.898  -4.214  0.00  0.00     0.217 C 
ATOM      2  O   LIG d   1       7.377   2.165  -4.601  0.00  0.00    -0.276 OA
ATOM      3  N   LIG d   1       8.965   0.640  -4.329  0.00  0.00    -0.313 N 
ATOM      4  H   LIG d   1       9.859   0.427  -4.018  0.00  0.00     0.149 HD
ENDROOT
BRANCH   3   5
ATOM      5  C   LIG d   1       8.127  -0.404  -4.922  0.00  0.00     0.030 C 
ATOM      6  H   LIG d   1       8.633  -0.827  -5.790  0.00  0.00     0.048 H 
ATOM      7  H   LIG d   1       7.174   0.026  -5.231  0.00  0.00     0.048 H 
BRANCH   5   8
ATOM      8  C   LIG d   1       7.878  -1.507  -3.890  0.00  0.00     0.039 C 
ATOM      9  H   LIG d   1       8.447  -2.395  -4.163  0.00  0.00     0.051 H 
ATOM     10  H   LIG d   1       8.193  -1.160  -2.905  0.00  0.00     0.051 H 
BRANCH   8  11
ATOM     11  N   LIG d   1       6.450  -1.832  -3.859  0.00  0.00    -0.345 N 
ATOM     12  C   LIG d   1       5.472  -1.050  -3.287  0.00  0.00     0.049 A 
ATOM     13  C   LIG d   1       4.246  -1.715  -3.475  0.00  0.00    -0.000 A 
ATOM     14  C   LIG d   1       5.489   0.176  -2.629  0.00  0.00    -0.038 A 
ATOM     15  C   LIG d   1       4.562  -2.952  -4.192  0.00  0.00    -0.036 A 
ATOM     16  C   LIG d   1       3.065  -1.146  -2.993  0.00  0.00    -0.053 A 
ATOM     17  C   LIG d   1       5.890  -2.963  -4.390  0.00  0.00     0.006 A 
ATOM     18  H   LIG d   1       3.861  -3.712  -4.502  0.00  0.00     0.064 H 
ATOM     19  H   LIG d   1       6.435  -3.746  -4.895  0.00  0.00     0.081 H 
ATOM     20  C   LIG d   1       3.106   0.056  -2.346  0.00  0.00    -0.061 A 
ATOM     21  H   LIG d   1       2.123  -1.655  -3.132  0.00  0.00     0.062 H 
ATOM     22  C   LIG d   1       4.312   0.718  -2.162  0.00  0.00    -0.060 A 
ATOM     23  H   LIG d   1       2.192   0.495  -1.975  0.00  0.00     0.062 H 
ATOM     24  H   LIG d   1       4.328   1.668  -1.649  0.00  0.00     0.062 H 
ATOM     25  H   LIG d   1       6.423   0.698  -2.482  0.00  0.00     0.064 H 
ENDBRANCH   8  11
ENDBRANCH   5   8
ENDBRANCH   3   5
BRANCH   1  26
ATOM     26  C   LIG d   1       9.357   2.972  -3.604  0.00  0.00     0.049 C 
ATOM     27  H   LIG d   1       8.885   3.344  -2.694  0.00  0.00     0.041 H 
ATOM     28  H   LIG d   1      10.336   2.559  -3.361  0.00  0.00     0.041 H 
BRANCH  26  29
ATOM     29  C   LIG d   1       9.518   4.105  -4.584  0.00  0.00    -0.038 A 
ATOM     30  C   LIG d   1       9.270   5.405  -4.184  0.00  0.00    -0.055 A 
ATOM     31  C   LIG d   1       9.418   6.445  -5.081  0.00  0.00    -0.020 A 
ATOM     32  H   LIG d   1       8.961   5.608  -3.169  0.00  0.00     0.062 H 
ATOM     33  C   LIG d   1       9.814   6.184  -6.385  0.00  0.00     0.120 A 
ATOM     34  H   LIG d   1       9.224   7.461  -4.769  0.00  0.00     0.065 H 
ATOM     35  C   LIG d   1      10.062   4.879  -6.784  0.00  0.00    -0.020 A 
ATOM     36  C   LIG d   1       9.920   3.843  -5.881  0.00  0.00    -0.055 A 
ATOM     37  H   LIG d   1      10.371   4.673  -7.798  0.00  0.00     0.065 H 
ATOM     38  H   LIG d   1      10.117   2.827  -6.190  0.00  0.00     0.062 H 
BRANCH  33  39
ATOM     39  O   LIG d   1       9.959   7.205  -7.270  0.00  0.00    -0.495 OA
BRANCH  39  40
ATOM     40  C   LIG d   1       9.269   8.422  -6.978  0.00  0.00     0.079 C 
ATOM     41  H   LIG d   1       9.938   9.099  -6.447  0.00  0.00     0.066 H 
ATOM     42  H   LIG d   1       8.944   8.887  -7.909  0.00  0.00     0.066 H 
ATOM     43  H   LIG d   1       8.401   8.206  -6.356  0.00  0.00     0.066 H 
ENDBRANCH  39  40
ENDBRANCH  33  39
ENDBRANCH  26  29
ENDBRANCH   1  26
TORSDOF 7
ENDMDL
MODEL 6
REMARK VINA RESULT:      -6.1      1.608      1.887
REMARK  7 active torsions:
REMARK  status: ('A' for Active; 'I' for Inactive)
REMARK    1  A    between atoms: C_1  and  O_2 
REMARK    2  A    between atoms: O_2  and  C_3 
REMARK    3  A    between atoms: C_6  and  C_9 
REMARK    4  A    between atoms: C_9  and  C_10 
REMARK       I    between atoms: C_10  and  N_12 
REMARK    5  A    between atoms: N_12  and  C_13 
REMARK    6  A    between atoms: C_13  and  C_14 
REMARK    7  A    between atoms: C_14  and  N_15 
ROOT
ATOM      1  C   LIG d   1       4.552   0.999  -9.393  0.00  0.00     0.217 C 
ATOM      2  O   LIG d   1       4.350   1.991  -8.726  0.00  0.00    -0.276 OA
ATOM      3  N   LIG d   1       4.986  -0.133  -8.803  0.00  0.00    -0.313 N 
ATOM      4  H   LIG d   1       5.147  -0.926  -9.337  0.00  0.00     0.149 HD
ENDROOT
BRANCH   3   5
ATOM      5  C   LIG d   1       5.213  -0.165  -7.357  0.00  0.00     0.030 C 
ATOM      6  H   LIG d   1       5.509   0.827  -7.013  0.00  0.00     0.048 H 
ATOM      7  H   LIG d   1       6.005  -0.879  -7.129  0.00  0.00     0.048 H 
BRANCH   5   8
ATOM      8  C   LIG d   1       3.925  -0.587  -6.646  0.00  0.00     0.039 C 
ATOM      9  H   LIG d   1       3.322   0.295  -6.433  0.00  0.00     0.051 H 
ATOM     10  H   LIG d   1       3.363  -1.267  -7.287  0.00  0.00     0.051 H 
BRANCH   8  11
ATOM     11  N   LIG d   1       4.260  -1.265  -5.391  0.00  0.00    -0.345 N 
ATOM     12  C   LIG d   1       4.239  -0.678  -4.146  0.00  0.00     0.049 A 
ATOM     13  C   LIG d   1       4.620  -1.664  -3.217  0.00  0.00    -0.000 A 
ATOM     14  C   LIG d   1       3.923   0.599  -3.694  0.00  0.00    -0.038 A 
ATOM     15  C   LIG d   1       4.877  -2.877  -3.996  0.00  0.00    -0.036 A 
ATOM     16  C   LIG d   1       4.686  -1.351  -1.858  0.00  0.00    -0.053 A 
ATOM     17  C   LIG d   1       4.644  -2.574  -5.283  0.00  0.00     0.006 A 
ATOM     18  H   LIG d   1       5.193  -3.834  -3.609  0.00  0.00     0.064 H 
ATOM     19  H   LIG d   1       4.745  -3.260  -6.110  0.00  0.00     0.081 H 
ATOM     20  C   LIG d   1       4.375  -0.089  -1.436  0.00  0.00    -0.061 A 
ATOM     21  H   LIG d   1       4.982  -2.104  -1.142  0.00  0.00     0.062 H 
ATOM     22  C   LIG d   1       3.995   0.886  -2.348  0.00  0.00    -0.060 A 
ATOM     23  H   LIG d   1       4.427   0.152  -0.385  0.00  0.00     0.062 H 
ATOM     24  H   LIG d   1       3.752   1.878  -2.000  0.00  0.00     0.062 H 
ATOM     25  H   LIG d   1       3.625   1.364  -4.396  0.00  0.00     0.064 H 
ENDBRANCH   8  11
ENDBRANCH   5   8
ENDBRANCH   3   5
BRANCH   1  26
ATOM     26  C   LIG d   1       4.318   1.032 -10.881  0.00  0.00     0.049 C 
ATOM     27  H   LIG d   1       3.980   2.026 -11.174  0.00  0.00     0.041 H 
ATOM     28  H   LIG d   1       5.248   0.797 -11.400  0.00  0.00     0.041 H 
BRANCH  26  29
ATOM     29  C   LIG d   1       3.267   0.016 -11.247  0.00  0.00    -0.038 A 
ATOM     30  C   LIG d   1       2.143  -0.130 -10.456  0.00  0.00    -0.055 A 
ATOM     31  C   LIG d   1       1.178  -1.060 -10.790  0.00  0.00    -0.020 A 
ATOM     32  H   LIG d   1       2.019   0.485  -9.576  0.00  0.00     0.062 H 
ATOM     33  C   LIG d   1       1.338  -1.849 -11.920  0.00  0.00     0.120 A 
ATOM     34  H   LIG d   1       0.299  -1.174 -10.172  0.00  0.00     0.065 H 
ATOM     35  C   LIG d   1       2.467  -1.701 -12.713  0.00  0.00    -0.020 A 
ATOM     36  C   LIG d   1       3.426  -0.764 -12.378  0.00  0.00    -0.055 A 
ATOM     37  H   LIG d   1       2.594  -2.313 -13.593  0.00  0.00     0.065 H 
ATOM     38  H   LIG d   1       4.303  -0.645 -12.997  0.00  0.00     0.062 H 
BRANCH  33  39
ATOM     39  O   LIG d   1       0.391  -2.766 -12.251  0.00  0.00    -0.495 OA
BRANCH  39  40
ATOM     40  C   LIG d   1       0.231  -3.881 -11.372  0.00  0.00     0.079 C 
ATOM     41  H   LIG d   1       0.643  -4.775 -11.842  0.00  0.00     0.066 H 
ATOM     42  H   LIG d   1       0.757  -3.686 -10.438  0.00  0.00     0.066 H 
ATOM     43  H   LIG d   1      -0.829  -4.033 -11.168  0.00  0.00     0.066 H 
ENDBRANCH  39  40
ENDBRANCH  33  39
ENDBRANCH  26  29
ENDBRANCH   1  26
TORSDOF 7
ENDMDL
MODEL 7
REMARK VINA RESULT:      -6.1      4.663      7.313
REMARK  7 active torsions:
REMARK  status: ('A' for Active; 'I' for Inactive)
REMARK    1  A    between atoms: C_1  and  O_2 
REMARK    2  A    between atoms: O_2  and  C_3 
REMARK    3  A    between atoms: C_6  and  C_9 
REMARK    4  A    between atoms: C_9  and  C_10 
REMARK       I    between atoms: C_10  and  N_12 
REMARK    5  A    between atoms: N_12  and  C_13 
REMARK    6  A    between atoms: C_13  and  C_14 
REMARK    7  A    between atoms: C_14  and  N_15 
ROOT
ATOM      1  C   LIG d   1       8.775   1.323  -6.180  0.00  0.00     0.217 C 
ATOM      2  O   LIG d   1       7.657   1.791  -6.173  0.00  0.00    -0.276 OA
ATOM      3  N   LIG d   1       8.946  -0.012  -6.106  0.00  0.00    -0.313 N 
ATOM      4  H   LIG d   1       9.842  -0.386  -6.110  0.00  0.00     0.149 HD
ENDROOT
BRANCH   3   5
ATOM      5  C   LIG d   1       7.783  -0.897  -6.017  0.00  0.00     0.030 C 
ATOM      6  H   LIG d   1       7.811  -1.617  -6.835  0.00  0.00     0.048 H 
ATOM      7  H   LIG d   1       6.870  -0.305  -6.087  0.00  0.00     0.048 H 
BRANCH   5   8
ATOM      8  C   LIG d   1       7.808  -1.642  -4.681  0.00  0.00     0.039 C 
ATOM      9  H   LIG d   1       8.215  -2.641  -4.830  0.00  0.00     0.051 H 
ATOM     10  H   LIG d   1       8.431  -1.096  -3.973  0.00  0.00     0.051 H 
BRANCH   8  11
ATOM     11  N   LIG d   1       6.445  -1.744  -4.154  0.00  0.00    -0.345 N 
ATOM     12  C   LIG d   1       5.769  -0.734  -3.507  0.00  0.00     0.049 A 
ATOM     13  C   LIG d   1       4.499  -1.236  -3.167  0.00  0.00    -0.000 A 
ATOM     14  C   LIG d   1       6.094   0.578  -3.177  0.00  0.00    -0.038 A 
ATOM     15  C   LIG d   1       4.468  -2.618  -3.650  0.00  0.00    -0.036 A 
ATOM     16  C   LIG d   1       3.585  -0.421  -2.496  0.00  0.00    -0.053 A 
ATOM     17  C   LIG d   1       5.655  -2.859  -4.227  0.00  0.00     0.006 A 
ATOM     18  H   LIG d   1       3.646  -3.312  -3.558  0.00  0.00     0.064 H 
ATOM     19  H   LIG d   1       5.945  -3.794  -4.682  0.00  0.00     0.081 H 
ATOM     20  C   LIG d   1       3.928   0.863  -2.177  0.00  0.00    -0.061 A 
ATOM     21  H   LIG d   1       2.612  -0.804  -2.230  0.00  0.00     0.062 H 
ATOM     22  C   LIG d   1       5.178   1.364  -2.514  0.00  0.00    -0.060 A 
ATOM     23  H   LIG d   1       3.220   1.492  -1.658  0.00  0.00     0.062 H 
ATOM     24  H   LIG d   1       5.433   2.381  -2.255  0.00  0.00     0.062 H 
ATOM     25  H   LIG d   1       7.064   0.977  -3.435  0.00  0.00     0.064 H 
ENDBRANCH   8  11
ENDBRANCH   5   8
ENDBRANCH   3   5
BRANCH   1  26
ATOM     26  C   LIG d   1       9.972   2.233  -6.270  0.00  0.00     0.049 C 
ATOM     27  H   LIG d   1      10.884   1.649  -6.144  0.00  0.00     0.041 H 
ATOM     28  H   LIG d   1       9.985   2.721  -7.245  0.00  0.00     0.041 H 
BRANCH  26  29
ATOM     29  C   LIG d   1       9.892   3.278  -5.187  0.00  0.00    -0.038 A 
ATOM     30  C   LIG d   1       9.659   4.600  -5.520  0.00  0.00    -0.055 A 
ATOM     31  C   LIG d   1       9.585   5.559  -4.529  0.00  0.00    -0.020 A 
ATOM     32  H   LIG d   1       9.534   4.882  -6.555  0.00  0.00     0.062 H 
ATOM     33  C   LIG d   1       9.745   5.197  -3.200  0.00  0.00     0.120 A 
ATOM     34  H   LIG d   1       9.403   6.592  -4.789  0.00  0.00     0.065 H 
ATOM     35  C   LIG d   1       9.978   3.870  -2.868  0.00  0.00    -0.020 A 
ATOM     36  C   LIG d   1      10.045   2.913  -3.863  0.00  0.00    -0.055 A 
ATOM     37  H   LIG d   1      10.103   3.584  -1.834  0.00  0.00     0.065 H 
ATOM     38  H   LIG d   1      10.222   1.879  -3.606  0.00  0.00     0.062 H 
BRANCH  33  39
ATOM     39  O   LIG d   1       9.673   6.139  -2.223  0.00  0.00    -0.495 OA
BRANCH  39  40
ATOM     40  C   LIG d   1      10.496   5.944  -1.071  0.00  0.00     0.079 C 
ATOM     41  H   LIG d   1      10.619   6.893  -0.549  0.00  0.00     0.066 H 
ATOM     42  H   LIG d   1      10.024   5.221  -0.405  0.00  0.00     0.066 H 
ATOM     43  H   LIG d   1      11.471   5.570  -1.381  0.00  0.00     0.066 H 
ENDBRANCH  39  40
ENDBRANCH  33  39
ENDBRANCH  26  29
ENDBRANCH   1  26
TORSDOF 7
ENDMDL
MODEL 8
REMARK VINA RESULT:      -5.9      2.200      3.372
REMARK  7 active torsions:
REMARK  status: ('A' for Active; 'I' for Inactive)
REMARK    1  A    between atoms: C_1  and  O_2 
REMARK    2  A    between atoms: O_2  and  C_3 
REMARK    3  A    between atoms: C_6  and  C_9 
REMARK    4  A    between atoms: C_9  and  C_10 
REMARK       I    between atoms: C_10  and  N_12 
REMARK    5  A    between atoms: N_12  and  C_13 
REMARK    6  A    between atoms: C_13  and  C_14 
REMARK    7  A    between atoms: C_14  and  N_15 
ROOT
ATOM      1  C   LIG d   1       3.198   0.576  -7.303  0.00  0.00     0.217 C 
ATOM      2  O   LIG d   1       2.914   1.754  -7.342  0.00  0.00    -0.276 OA
ATOM      3  N   LIG d   1       2.848  -0.166  -6.234  0.00  0.00    -0.313 N 
ATOM      4  H   LIG d   1       3.077  -1.109  -6.203  0.00  0.00     0.149 HD
ENDROOT
BRANCH   3   5
ATOM      5  C   LIG d   1       2.123   0.448  -5.120  0.00  0.00     0.030 C 
ATOM      6  H   LIG d   1       1.052   0.410  -5.319  0.00  0.00     0.048 H 
ATOM      7  H   LIG d   1       2.435   1.487  -5.012  0.00  0.00     0.048 H 
BRANCH   5   8
ATOM      8  C   LIG d   1       2.430  -0.313  -3.829  0.00  0.00     0.039 C 
ATOM      9  H   LIG d   1       1.819   0.085  -3.019  0.00  0.00     0.051 H 
ATOM     10  H   LIG d   1       2.206  -1.371  -3.969  0.00  0.00     0.051 H 
BRANCH   8  11
ATOM     11  N   LIG d   1       3.847  -0.155  -3.494  0.00  0.00    -0.345 N 
ATOM     12  C   LIG d   1       4.824  -1.099  -3.719  0.00  0.00     0.049 A 
ATOM     13  C   LIG d   1       6.039  -0.557  -3.260  0.00  0.00    -0.000 A 
ATOM     14  C   LIG d   1       4.814  -2.371  -4.282  0.00  0.00    -0.038 A 
ATOM     15  C   LIG d   1       5.716   0.773  -2.738  0.00  0.00    -0.036 A 
ATOM     16  C   LIG d   1       7.216  -1.300  -3.364  0.00  0.00    -0.053 A 
ATOM     17  C   LIG d   1       4.397   0.953  -2.906  0.00  0.00     0.006 A 
ATOM     18  H   LIG d   1       6.409   1.476  -2.300  0.00  0.00     0.064 H 
ATOM     19  H   LIG d   1       3.850   1.838  -2.621  0.00  0.00     0.081 H 
ATOM     20  C   LIG d   1       7.183  -2.549  -3.916  0.00  0.00    -0.061 A 
ATOM     21  H   LIG d   1       8.149  -0.890  -3.008  0.00  0.00     0.062 H 
ATOM     22  C   LIG d   1       5.988  -3.087  -4.375  0.00  0.00    -0.060 A 
ATOM     23  H   LIG d   1       8.094  -3.124  -3.996  0.00  0.00     0.062 H 
ATOM     24  H   LIG d   1       5.978  -4.075  -4.809  0.00  0.00     0.062 H 
ATOM     25  H   LIG d   1       3.890  -2.797  -4.642  0.00  0.00     0.064 H 
ENDBRANCH   8  11
ENDBRANCH   5   8
ENDBRANCH   3   5
BRANCH   1  26
ATOM     26  C   LIG d   1       3.945  -0.056  -8.449  0.00  0.00     0.049 C 
ATOM     27  H   LIG d   1       4.358   0.724  -9.088  0.00  0.00     0.041 H 
ATOM     28  H   LIG d   1       4.755  -0.673  -8.059  0.00  0.00     0.041 H 
BRANCH  26  29
ATOM     29  C   LIG d   1       3.001  -0.915  -9.251  0.00  0.00    -0.038 A 
ATOM     30  C   LIG d   1       2.059  -0.323 -10.073  0.00  0.00    -0.055 A 
ATOM     31  C   LIG d   1       1.193  -1.108 -10.808  0.00  0.00    -0.020 A 
ATOM     32  H   LIG d   1       2.001   0.753 -10.139  0.00  0.00     0.062 H 
ATOM     33  C   LIG d   1       1.268  -2.490 -10.722  0.00  0.00     0.120 A 
ATOM     34  H   LIG d   1       0.457  -0.646 -11.451  0.00  0.00     0.065 H 
ATOM     35  C   LIG d   1       2.213  -3.082  -9.897  0.00  0.00    -0.020 A 
ATOM     36  C   LIG d   1       3.082  -2.292  -9.168  0.00  0.00    -0.055 A 
ATOM     37  H   LIG d   1       2.274  -4.158  -9.828  0.00  0.00     0.065 H 
ATOM     38  H   LIG d   1       3.821  -2.752  -8.529  0.00  0.00     0.062 H 
BRANCH  33  39
ATOM     39  O   LIG d   1       0.416  -3.265 -11.445  0.00  0.00    -0.495 OA
BRANCH  39  40
ATOM     40  C   LIG d   1       0.073  -4.539 -10.896  0.00  0.00     0.079 C 
ATOM     41  H   LIG d   1       0.688  -4.733 -10.017  0.00  0.00     0.066 H 
ATOM     42  H   LIG d   1      -0.980  -4.539 -10.611  0.00  0.00     0.066 H 
ATOM     43  H   LIG d   1       0.248  -5.315 -11.641  0.00  0.00     0.066 H 
ENDBRANCH  39  40
ENDBRANCH  33  39
ENDBRANCH  26  29
ENDBRANCH   1  26
TORSDOF 7
ENDMDL
MODEL 9
REMARK VINA RESULT:      -5.6      2.811      4.016
REMARK  7 active torsions:
REMARK  status: ('A' for Active; 'I' for Inactive)
REMARK    1  A    between atoms: C_1  and  O_2 
REMARK    2  A    between atoms: O_2  and  C_3 
REMARK    3  A    between atoms: C_6  and  C_9 
REMARK    4  A    between atoms: C_9  and  C_10 
REMARK       I    between atoms: C_10  and  N_12 
REMARK    5  A    between atoms: N_12  and  C_13 
REMARK    6  A    between atoms: C_13  and  C_14 
REMARK    7  A    between atoms: C_14  and  N_15 
ROOT
ATOM      1  C   LIG d   1       2.417  -1.492  -9.646  0.00  0.00     0.217 C 
ATOM      2  O   LIG d   1       2.336  -2.683  -9.431  0.00  0.00    -0.276 OA
ATOM      3  N   LIG d   1       3.395  -0.768  -9.068  0.00  0.00    -0.313 N 
ATOM      4  H   LIG d   1       3.459   0.185  -9.240  0.00  0.00     0.149 HD
ENDROOT
BRANCH   3   5
ATOM      5  C   LIG d   1       4.362  -1.419  -8.181  0.00  0.00     0.030 C 
ATOM      6  H   LIG d   1       5.181  -1.828  -8.774  0.00  0.00     0.048 H 
ATOM      7  H   LIG d   1       3.870  -2.225  -7.636  0.00  0.00     0.048 H 
BRANCH   5   8
ATOM      8  C   LIG d   1       4.914  -0.394  -7.188  0.00  0.00     0.039 C 
ATOM      9  H   LIG d   1       5.895  -0.717  -6.841  0.00  0.00     0.051 H 
ATOM     10  H   LIG d   1       5.001   0.576  -7.678  0.00  0.00     0.051 H 
BRANCH   8  11
ATOM     11  N   LIG d   1       4.004  -0.283  -6.045  0.00  0.00    -0.345 N 
ATOM     12  C   LIG d   1       4.147  -0.953  -4.851  0.00  0.00     0.049 A 
ATOM     13  C   LIG d   1       3.073  -0.569  -4.028  0.00  0.00    -0.000 A 
ATOM     14  C   LIG d   1       5.093  -1.850  -4.364  0.00  0.00    -0.038 A 
ATOM     15  C   LIG d   1       2.274   0.372  -4.817  0.00  0.00    -0.036 A 
ATOM     16  C   LIG d   1       2.960  -1.096  -2.740  0.00  0.00    -0.053 A 
ATOM     17  C   LIG d   1       2.881   0.499  -6.008  0.00  0.00     0.006 A 
ATOM     18  H   LIG d   1       1.369   0.868  -4.501  0.00  0.00     0.064 H 
ATOM     19  H   LIG d   1       2.535   1.126  -6.815  0.00  0.00     0.081 H 
ATOM     20  C   LIG d   1       3.898  -1.979  -2.284  0.00  0.00    -0.061 A 
ATOM     21  H   LIG d   1       2.135  -0.806  -2.107  0.00  0.00     0.062 H 
ATOM     22  C   LIG d   1       4.962  -2.357  -3.090  0.00  0.00    -0.060 A 
ATOM     23  H   LIG d   1       3.810  -2.386  -1.287  0.00  0.00     0.062 H 
ATOM     24  H   LIG d   1       5.695  -3.056  -2.715  0.00  0.00     0.062 H 
ATOM     25  H   LIG d   1       5.925  -2.150  -4.985  0.00  0.00     0.064 H 
ENDBRANCH   8  11
ENDBRANCH   5   8
ENDBRANCH   3   5
BRANCH   1  26
ATOM     26  C   LIG d   1       1.422  -0.823 -10.559  0.00  0.00     0.049 C 
ATOM     27  H   LIG d   1       0.411  -1.022 -10.203  0.00  0.00     0.041 H 
ATOM     28  H   LIG d   1       1.599   0.253 -10.563  0.00  0.00     0.041 H 
BRANCH  26  29
ATOM     29  C   LIG d   1       1.578  -1.364 -11.957  0.00  0.00    -0.038 A 
ATOM     30  C   LIG d   1       2.798  -1.268 -12.601  0.00  0.00    -0.055 A 
ATOM     31  C   LIG d   1       2.944  -1.763 -13.882  0.00  0.00    -0.020 A 
ATOM     32  H   LIG d   1       3.637  -0.805 -12.102  0.00  0.00     0.062 H 
ATOM     33  C   LIG d   1       1.866  -2.357 -14.522  0.00  0.00     0.120 A 
ATOM     34  H   LIG d   1       3.896  -1.688 -14.386  0.00  0.00     0.065 H 
ATOM     35  C   LIG d   1       0.643  -2.453 -13.874  0.00  0.00    -0.020 A 
ATOM     36  C   LIG d   1       0.504  -1.962 -12.589  0.00  0.00    -0.055 A 
ATOM     37  H   LIG d   1      -0.198  -2.915 -14.369  0.00  0.00     0.065 H 
ATOM     38  H   LIG d   1      -0.446  -2.040 -12.082  0.00  0.00     0.062 H 
BRANCH  33  39
ATOM     39  O   LIG d   1       2.006  -2.845 -15.783  0.00  0.00    -0.495 OA
BRANCH  39  40
ATOM     40  C   LIG d   1       0.811  -3.036 -16.543  0.00  0.00     0.079 C 
ATOM     41  H   LIG d   1      -0.050  -3.022 -15.874  0.00  0.00     0.066 H 
ATOM     42  H   LIG d   1       0.715  -2.234 -17.276  0.00  0.00     0.066 H 
ATOM     43  H   LIG d   1       0.857  -3.995 -17.057  0.00  0.00     0.066 H 
ENDBRANCH  39  40
ENDBRANCH  33  39
ENDBRANCH  26  29
ENDBRANCH   1  26
TORSDOF 7
ENDMDL
MODEL 10
REMARK VINA RESULT:      -5.6      3.792      6.321
REMARK  7 active torsions:
REMARK  status: ('A' for Active; 'I' for Inactive)
REMARK    1  A    between atoms: C_1  and  O_2 
REMARK    2  A    between atoms: O_2  and  C_3 
REMARK    3  A    between atoms: C_6  and  C_9 
REMARK    4  A    between atoms: C_9  and  C_10 
REMARK       I    between atoms: C_10  and  N_12 
REMARK    5  A    between atoms: N_12  and  C_13 
REMARK    6  A    between atoms: C_13  and  C_14 
REMARK    7  A    between atoms: C_14  and  N_15 
ROOT
ATOM      1  C   LIG d   1       8.055   2.242  -8.798  0.00  0.00     0.217 C 
ATOM      2  O   LIG d   1       6.892   2.499  -9.023  0.00  0.00    -0.276 OA
ATOM      3  N   LIG d   1       8.372   1.304  -7.884  0.00  0.00    -0.313 N 
ATOM      4  H   LIG d   1       9.304   1.099  -7.704  0.00  0.00     0.149 HD
ENDROOT
BRANCH   3   5
ATOM      5  C   LIG d   1       7.314   0.596  -7.162  0.00  0.00     0.030 C 
ATOM      6  H   LIG d   1       7.375  -0.470  -7.382  0.00  0.00     0.048 H 
ATOM      7  H   LIG d   1       6.342   0.976  -7.477  0.00  0.00     0.048 H 
BRANCH   5   8
ATOM      8  C   LIG d   1       7.485   0.817  -5.658  0.00  0.00     0.039 C 
ATOM      9  H   LIG d   1       8.545   0.806  -5.408  0.00  0.00     0.051 H 
ATOM     10  H   LIG d   1       7.054   1.780  -5.381  0.00  0.00     0.051 H 
BRANCH   8  11
ATOM     11  N   LIG d   1       6.800  -0.252  -4.926  0.00  0.00    -0.345 N 
ATOM     12  C   LIG d   1       6.005  -0.069  -3.817  0.00  0.00     0.049 A 
ATOM     13  C   LIG d   1       5.541  -1.338  -3.425  0.00  0.00    -0.000 A 
ATOM     14  C   LIG d   1       5.611   1.054  -3.097  0.00  0.00    -0.038 A 
ATOM     15  C   LIG d   1       6.121  -2.292  -4.374  0.00  0.00    -0.036 A 
ATOM     16  C   LIG d   1       4.701  -1.460  -2.316  0.00  0.00    -0.053 A 
ATOM     17  C   LIG d   1       6.860  -1.583  -5.242  0.00  0.00     0.006 A 
ATOM     18  H   LIG d   1       5.981  -3.362  -4.374  0.00  0.00     0.064 H 
ATOM     19  H   LIG d   1       7.418  -2.000  -6.066  0.00  0.00     0.081 H 
ATOM     20  C   LIG d   1       4.331  -0.345  -1.620  0.00  0.00    -0.061 A 
ATOM     21  H   LIG d   1       4.347  -2.433  -2.010  0.00  0.00     0.062 H 
ATOM     22  C   LIG d   1       4.782   0.910  -2.006  0.00  0.00    -0.060 A 
ATOM     23  H   LIG d   1       3.681  -0.440  -0.763  0.00  0.00     0.062 H 
ATOM     24  H   LIG d   1       4.480   1.782  -1.445  0.00  0.00     0.062 H 
ATOM     25  H   LIG d   1       5.957   2.034  -3.389  0.00  0.00     0.064 H 
ENDBRANCH   8  11
ENDBRANCH   5   8
ENDBRANCH   3   5
BRANCH   1  26
ATOM     26  C   LIG d   1       9.145   2.971  -9.541  0.00  0.00     0.049 C 
ATOM     27  H   LIG d   1      10.090   2.445  -9.408  0.00  0.00     0.041 H 
ATOM     28  H   LIG d   1       8.898   3.011 -10.602  0.00  0.00     0.041 H 
BRANCH  26  29
ATOM     29  C   LIG d   1       9.270   4.373  -9.001  0.00  0.00    -0.038 A 
ATOM     30  C   LIG d   1       8.836   5.445  -9.758  0.00  0.00    -0.055 A 
ATOM     31  C   LIG d   1       8.950   6.730  -9.265  0.00  0.00    -0.020 A 
ATOM     32  H   LIG d   1       8.409   5.278 -10.736  0.00  0.00     0.062 H 
ATOM     33  C   LIG d   1       9.499   6.945  -8.010  0.00  0.00     0.120 A 
ATOM     34  H   LIG d   1       8.611   7.569  -9.857  0.00  0.00     0.065 H 
ATOM     35  C   LIG d   1       9.933   5.868  -7.251  0.00  0.00    -0.020 A 
ATOM     36  C   LIG d   1       9.812   4.583  -7.746  0.00  0.00    -0.055 A 
ATOM     37  H   LIG d   1      10.361   6.031  -6.273  0.00  0.00     0.065 H 
ATOM     38  H   LIG d   1      10.145   3.743  -7.155  0.00  0.00     0.062 H 
BRANCH  33  39
ATOM     39  O   LIG d   1       9.613   8.209  -7.522  0.00  0.00    -0.495 OA
BRANCH  39  40
ATOM     40  C   LIG d   1       9.264   8.410  -6.151  0.00  0.00     0.079 C 
ATOM     41  H   LIG d   1       8.990   9.453  -5.996  0.00  0.00     0.066 H 
ATOM     42  H   LIG d   1       8.420   7.770  -5.894  0.00  0.00     0.066 H 
ATOM     43  H   LIG d   1      10.116   8.159  -5.520  0.00  0.00     0.066 H 
ENDBRANCH  39  40
ENDBRANCH  33  39
ENDBRANCH  26  29
ENDBRANCH   1  26
TORSDOF 7
ENDMDL
