MODEL 1
REMARK VINA RESULT:      -7.4      0.000      0.000
REMARK  8 active torsions:
REMARK  status: ('A' for Active; 'I' for Inactive)
REMARK    1  A    between atoms: C_1  and  N_2 
REMARK    2  A    between atoms: C_11  and  C_14 
REMARK    3  A    between atoms: C_14  and  C_16 
REMARK    4  A    between atoms: C_16  and  C_17 
REMARK    5  A    between atoms: C_17  and  C_19 
REMARK    6  A    between atoms: C_17  and  N_26 
REMARK    7  A    between atoms: N_26  and  C_27 
REMARK    8  A    between atoms: N_26  and  C_33 
ROOT
ATOM      1  C   LIG d   1       7.578  -2.641  -5.114  0.00  0.00     0.060 C 
ATOM      2  H   LIG d   1       7.887  -1.623  -4.833  0.00  0.00     0.056 H 
ENDROOT
BRANCH   1   3
ATOM      3  C   LIG d   1       7.885  -2.919  -6.587  0.00  0.00     0.034 C 
ATOM      4  H   LIG d   1       7.008  -3.383  -7.063  0.00  0.00     0.037 H 
ATOM      5  H   LIG d   1       8.745  -3.601  -6.660  0.00  0.00     0.037 H 
BRANCH   3   6
ATOM      6  C   LIG d   1       8.209  -1.625  -7.287  0.00  0.00     0.170 C 
ATOM      7  O   LIG d   1       9.245  -1.043  -7.036  0.00  0.00    -0.292 OA
BRANCH   6   8
ATOM      8  C   LIG d   1       7.308  -1.090  -8.237  0.00  0.00     0.073 A 
ATOM      9  C   LIG d   1       6.369  -0.024  -7.861  0.00  0.00     0.199 A 
ATOM     10  C   LIG d   1       5.459   0.478  -8.908  0.00  0.00     0.046 A 
ATOM     11  O   LIG d   1       6.334   0.418  -6.726  0.00  0.00    -0.286 OA
ATOM     12  C   LIG d   1       5.540  -0.073 -10.197  0.00  0.00     0.052 A 
ATOM     13  C   LIG d   1       4.526   1.477  -8.630  0.00  0.00    -0.049 A 
ATOM     14  N   LIG d   1       6.458  -1.065 -10.478  0.00  0.00    -0.356 N 
ATOM     15  C   LIG d   1       4.688   0.399 -11.192  0.00  0.00    -0.037 A 
ATOM     16  C   LIG d   1       7.303  -1.556  -9.555  0.00  0.00    -0.022 A 
ATOM     17  O   LIG d   1       8.168  -2.525  -9.909  0.00  0.00    -0.861 OA
ATOM     18  C   LIG d   1       3.771   1.386 -10.904  0.00  0.00    -0.060 A 
ATOM     19  H   LIG d   1       4.742  -0.012 -12.190  0.00  0.00     0.064 H 
ATOM     20  C   LIG d   1       3.688   1.925  -9.628  0.00  0.00    -0.061 A 
ATOM     21  H   LIG d   1       3.110   1.744 -11.679  0.00  0.00     0.062 H 
ATOM     22  H   LIG d   1       2.965   2.698  -9.416  0.00  0.00     0.062 H 
ATOM     23  H   LIG d   1       4.460   1.897  -7.637  0.00  0.00     0.062 H 
BRANCH  14  24
ATOM     24  C   LIG d   1       6.513  -1.606 -11.837  0.00  0.00     0.011 C 
ATOM     25  H   LIG d   1       7.470  -2.127 -11.987  0.00  0.00     0.045 H 
ATOM     26  H   LIG d   1       6.426  -0.784 -12.563  0.00  0.00     0.045 H 
ATOM     27  H   LIG d   1       5.684  -2.315 -11.985  0.00  0.00     0.045 H 
ENDBRANCH  14  24
ENDBRANCH   6   8
ENDBRANCH   3   6
ENDBRANCH   1   3
BRANCH   1  28
ATOM     28  C   LIG d   1       8.293  -3.647  -4.252  0.00  0.00    -0.026 A 
ATOM     29  C   LIG d   1       8.507  -4.931  -4.720  0.00  0.00    -0.055 A 
ATOM     30  C   LIG d   1       9.163  -5.855  -3.928  0.00  0.00    -0.043 A 
ATOM     31  H   LIG d   1       8.163  -5.210  -5.704  0.00  0.00     0.062 H 
ATOM     32  C   LIG d   1       9.605  -5.495  -2.666  0.00  0.00     0.041 A 
ATOM     33  H   LIG d   1       9.331  -6.856  -4.294  0.00  0.00     0.063 H 
ATOM     34  C   LIG d   1       9.389  -4.211  -2.199  0.00  0.00    -0.043 A 
ATOM     35 CL   LIG d   1      10.430  -6.655  -1.673  0.00  0.00    -0.084 Cl
ATOM     36  C   LIG d   1       8.739  -3.287  -2.993  0.00  0.00    -0.055 A 
ATOM     37  H   LIG d   1       9.735  -3.930  -1.215  0.00  0.00     0.063 H 
ATOM     38  H   LIG d   1       8.575  -2.282  -2.630  0.00  0.00     0.062 H 
ENDBRANCH   1  28
BRANCH   1  39
ATOM     39  N   LIG d   1       6.134  -2.741  -4.889  0.00  0.00    -0.292 N 
BRANCH  39  40
ATOM     40  C   LIG d   1       5.356  -3.575  -5.698  0.00  0.00     0.035 A 
ATOM     41  C   LIG d   1       4.714  -3.059  -6.815  0.00  0.00    -0.040 A 
ATOM     42  C   LIG d   1       3.947  -3.886  -7.612  0.00  0.00    -0.060 A 
ATOM     43  H   LIG d   1       4.816  -2.012  -7.063  0.00  0.00     0.064 H 
ATOM     44  C   LIG d   1       3.817  -5.226  -7.297  0.00  0.00    -0.062 A 
ATOM     45  H   LIG d   1       3.447  -3.486  -8.482  0.00  0.00     0.062 H 
ATOM     46  C   LIG d   1       4.455  -5.743  -6.184  0.00  0.00    -0.060 A 
ATOM     47  H   LIG d   1       3.216  -5.871  -7.922  0.00  0.00     0.062 H 
ATOM     48  C   LIG d   1       5.228  -4.923  -5.386  0.00  0.00    -0.040 A 
ATOM     49  H   LIG d   1       4.351  -6.791  -5.941  0.00  0.00     0.062 H 
ATOM     50  H   LIG d   1       5.729  -5.328  -4.520  0.00  0.00     0.064 H 
ENDBRANCH  39  40
BRANCH  39  51
ATOM     51  C   LIG d   1       5.534  -2.002  -3.867  0.00  0.00     0.035 A 
ATOM     52  C   LIG d   1       6.019  -0.742  -3.541  0.00  0.00    -0.040 A 
ATOM     53  C   LIG d   1       5.422  -0.014  -2.530  0.00  0.00    -0.060 A 
ATOM     54  H   LIG d   1       6.863  -0.333  -4.077  0.00  0.00     0.064 H 
ATOM     55  C   LIG d   1       4.342  -0.538  -1.844  0.00  0.00    -0.062 A 
ATOM     56  H   LIG d   1       5.801   0.965  -2.276  0.00  0.00     0.062 H 
ATOM     57  C   LIG d   1       3.856  -1.791  -2.166  0.00  0.00    -0.060 A 
ATOM     58  H   LIG d   1       3.878   0.034  -1.054  0.00  0.00     0.062 H 
ATOM     59  C   LIG d   1       4.445  -2.523  -3.178  0.00  0.00    -0.040 A 
ATOM     60  H   LIG d   1       3.012  -2.197  -1.628  0.00  0.00     0.062 H 
ATOM     61  H   LIG d   1       4.062  -3.500  -3.433  0.00  0.00     0.064 H 
ENDBRANCH  39  51
ENDBRANCH   1  39
TORSDOF 8
ENDMDL
MODEL 2
REMARK VINA RESULT:      -7.4      0.025      3.067
REMARK  8 active torsions:
REMARK  status: ('A' for Active; 'I' for Inactive)
REMARK    1  A    between atoms: C_1  and  N_2 
REMARK    2  A    between atoms: C_11  and  C_14 
REMARK    3  A    between atoms: C_14  and  C_16 
REMARK    4  A    between atoms: C_16  and  C_17 
REMARK    5  A    between atoms: C_17  and  C_19 
REMARK    6  A    between atoms: C_17  and  N_26 
REMARK    7  A    between atoms: N_26  and  C_27 
REMARK    8  A    between atoms: N_26  and  C_33 
ROOT
ATOM      1  C   LIG d   1       7.575  -2.646  -5.109  0.00  0.00     0.060 C 
ATOM      2  H   LIG d   1       7.887  -1.629  -4.828  0.00  0.00     0.056 H 
ENDROOT
BRANCH   1   3
ATOM      3  C   LIG d   1       7.881  -2.926  -6.582  0.00  0.00     0.034 C 
ATOM      4  H   LIG d   1       7.004  -3.392  -7.055  0.00  0.00     0.037 H 
ATOM      5  H   LIG d   1       8.742  -3.607  -6.655  0.00  0.00     0.037 H 
BRANCH   3   6
ATOM      6  C   LIG d   1       8.202  -1.632  -7.284  0.00  0.00     0.170 C 
ATOM      7  O   LIG d   1       9.234  -1.044  -7.031  0.00  0.00    -0.292 OA
BRANCH   6   8
ATOM      8  C   LIG d   1       7.302  -1.103  -8.238  0.00  0.00     0.073 A 
ATOM      9  C   LIG d   1       6.363  -0.034  -7.870  0.00  0.00     0.199 A 
ATOM     10  C   LIG d   1       5.454   0.461  -8.921  0.00  0.00     0.046 A 
ATOM     11  O   LIG d   1       6.328   0.416  -6.738  0.00  0.00    -0.286 OA
ATOM     12  C   LIG d   1       5.535  -0.099 -10.206  0.00  0.00     0.052 A 
ATOM     13  C   LIG d   1       4.522   1.462  -8.651  0.00  0.00    -0.049 A 
ATOM     14  N   LIG d   1       6.452  -1.095 -10.480  0.00  0.00    -0.356 N 
ATOM     15  C   LIG d   1       4.684   0.366 -11.206  0.00  0.00    -0.037 A 
ATOM     16  C   LIG d   1       7.297  -1.579  -9.552  0.00  0.00    -0.022 A 
ATOM     17  O   LIG d   1       8.161  -2.551  -9.899  0.00  0.00    -0.861 OA
ATOM     18  C   LIG d   1       3.768   1.356 -10.925  0.00  0.00    -0.060 A 
ATOM     19  H   LIG d   1       4.738  -0.053 -12.200  0.00  0.00     0.064 H 
ATOM     20  C   LIG d   1       3.685   1.904  -9.652  0.00  0.00    -0.061 A 
ATOM     21  H   LIG d   1       3.107   1.709 -11.703  0.00  0.00     0.062 H 
ATOM     22  H   LIG d   1       2.962   2.679  -9.447  0.00  0.00     0.062 H 
ATOM     23  H   LIG d   1       4.456   1.890  -7.661  0.00  0.00     0.062 H 
BRANCH  14  24
ATOM     24  C   LIG d   1       6.507  -1.646 -11.835  0.00  0.00     0.011 C 
ATOM     25  H   LIG d   1       7.473  -1.390 -12.296  0.00  0.00     0.045 H 
ATOM     26  H   LIG d   1       5.690  -1.221 -12.437  0.00  0.00     0.045 H 
ATOM     27  H   LIG d   1       6.401  -2.740 -11.791  0.00  0.00     0.045 H 
ENDBRANCH  14  24
ENDBRANCH   6   8
ENDBRANCH   3   6
ENDBRANCH   1   3
BRANCH   1  28
ATOM     28  C   LIG d   1       8.288  -3.654  -4.246  0.00  0.00    -0.026 A 
ATOM     29  C   LIG d   1       8.513  -4.933  -4.720  0.00  0.00    -0.055 A 
ATOM     30  C   LIG d   1       9.168  -5.859  -3.928  0.00  0.00    -0.043 A 
ATOM     31  H   LIG d   1       8.179  -5.209  -5.708  0.00  0.00     0.062 H 
ATOM     32  C   LIG d   1       9.597  -5.504  -2.661  0.00  0.00     0.041 A 
ATOM     33  H   LIG d   1       9.344  -6.857  -4.299  0.00  0.00     0.063 H 
ATOM     34  C   LIG d   1       9.372  -4.224  -2.188  0.00  0.00    -0.043 A 
ATOM     35 CL   LIG d   1      10.420  -6.665  -1.667  0.00  0.00    -0.084 Cl
ATOM     36  C   LIG d   1       8.723  -3.298  -2.982  0.00  0.00    -0.055 A 
ATOM     37  H   LIG d   1       9.707  -3.946  -1.199  0.00  0.00     0.063 H 
ATOM     38  H   LIG d   1       8.551  -2.297  -2.615  0.00  0.00     0.062 H 
ENDBRANCH   1  28
BRANCH   1  39
ATOM     39  N   LIG d   1       6.131  -2.743  -4.883  0.00  0.00    -0.292 N 
BRANCH  39  40
ATOM     40  C   LIG d   1       5.531  -1.998  -3.865  0.00  0.00     0.035 A 
ATOM     41  C   LIG d   1       4.423  -2.501  -3.195  0.00  0.00    -0.040 A 
ATOM     42  C   LIG d   1       3.832  -1.761  -2.189  0.00  0.00    -0.060 A 
ATOM     43  H   LIG d   1       4.025  -3.469  -3.458  0.00  0.00     0.064 H 
ATOM     44  C   LIG d   1       4.342  -0.522  -1.849  0.00  0.00    -0.062 A 
ATOM     45  H   LIG d   1       2.971  -2.151  -1.667  0.00  0.00     0.062 H 
ATOM     46  C   LIG d   1       5.445  -0.017  -2.515  0.00  0.00    -0.060 A 
ATOM     47  H   LIG d   1       3.878   0.055  -1.062  0.00  0.00     0.062 H 
ATOM     48  C   LIG d   1       6.043  -0.754  -3.518  0.00  0.00    -0.040 A 
ATOM     49  H   LIG d   1       5.840   0.951  -2.247  0.00  0.00     0.062 H 
ATOM     50  H   LIG d   1       6.907  -0.362  -4.035  0.00  0.00     0.064 H 
ENDBRANCH  39  40
BRANCH  39  51
ATOM     51  C   LIG d   1       5.355  -3.583  -5.685  0.00  0.00     0.035 A 
ATOM     52  C   LIG d   1       5.209  -4.925  -5.353  0.00  0.00    -0.040 A 
ATOM     53  C   LIG d   1       4.440  -5.751  -6.148  0.00  0.00    -0.060 A 
ATOM     54  H   LIG d   1       5.698  -5.320  -4.475  0.00  0.00     0.064 H 
ATOM     55  C   LIG d   1       3.814  -5.246  -7.272  0.00  0.00    -0.062 A 
ATOM     56  H   LIG d   1       4.328  -6.795  -5.890  0.00  0.00     0.062 H 
ATOM     57  C   LIG d   1       3.955  -3.911  -7.605  0.00  0.00    -0.060 A 
ATOM     58  H   LIG d   1       3.212  -5.895  -7.892  0.00  0.00     0.062 H 
ATOM     59  C   LIG d   1       4.720  -3.077  -6.812  0.00  0.00    -0.040 A 
ATOM     60  H   LIG d   1       3.465  -3.520  -8.484  0.00  0.00     0.062 H 
ATOM     61  H   LIG d   1       4.827  -2.034  -7.070  0.00  0.00     0.064 H 
ENDBRANCH  39  51
ENDBRANCH   1  39
TORSDOF 8
ENDMDL
MODEL 3
REMARK VINA RESULT:      -7.4      2.755      4.658
REMARK  8 active torsions:
REMARK  status: ('A' for Active; 'I' for Inactive)
REMARK    1  A    between atoms: C_1  and  N_2 
REMARK    2  A    between atoms: C_11  and  C_14 
REMARK    3  A    between atoms: C_14  and  C_16 
REMARK    4  A    between atoms: C_16  and  C_17 
REMARK    5  A    between atoms: C_17  and  C_19 
REMARK    6  A    between atoms: C_17  and  N_26 
REMARK    7  A    between atoms: N_26  and  C_27 
REMARK    8  A    between atoms: N_26  and  C_33 
ROOT
ATOM      1  C   LIG d   1       7.033  -0.646  -5.895  0.00  0.00     0.060 C 
ATOM      2  H   LIG d   1       6.180  -0.086  -6.305  0.00  0.00     0.056 H 
ENDROOT
BRANCH   1   3
ATOM      3  C   LIG d   1       7.812  -1.351  -7.007  0.00  0.00     0.034 C 
ATOM      4  H   LIG d   1       7.560  -2.422  -7.009  0.00  0.00     0.037 H 
ATOM      5  H   LIG d   1       8.891  -1.228  -6.834  0.00  0.00     0.037 H 
BRANCH   3   6
ATOM      6  C   LIG d   1       7.445  -0.748  -8.339  0.00  0.00     0.170 C 
ATOM      7  O   LIG d   1       8.317  -0.420  -9.117  0.00  0.00    -0.292 OA
BRANCH   6   8
ATOM      8  C   LIG d   1       6.085  -0.566  -8.682  0.00  0.00     0.073 A 
ATOM      9  C   LIG d   1       5.245  -1.715  -9.050  0.00  0.00     0.199 A 
ATOM     10  C   LIG d   1       3.838  -1.441  -9.399  0.00  0.00     0.046 A 
ATOM     11  O   LIG d   1       5.698  -2.846  -9.080  0.00  0.00    -0.286 OA
ATOM     12  C   LIG d   1       3.374  -0.117  -9.354  0.00  0.00     0.052 A 
ATOM     13  C   LIG d   1       2.979  -2.473  -9.776  0.00  0.00    -0.049 A 
ATOM     14  N   LIG d   1       4.221   0.910  -8.987  0.00  0.00    -0.356 N 
ATOM     15  C   LIG d   1       2.046   0.149  -9.677  0.00  0.00    -0.037 A 
ATOM     16  C   LIG d   1       5.511   0.708  -8.665  0.00  0.00    -0.022 A 
ATOM     17  O   LIG d   1       6.271   1.764  -8.318  0.00  0.00    -0.861 OA
ATOM     18  C   LIG d   1       1.208  -0.880 -10.047  0.00  0.00    -0.060 A 
ATOM     19  H   LIG d   1       1.674   1.162  -9.642  0.00  0.00     0.064 H 
ATOM     20  C   LIG d   1       1.670  -2.187 -10.097  0.00  0.00    -0.061 A 
ATOM     21  H   LIG d   1       0.180  -0.667 -10.301  0.00  0.00     0.062 H 
ATOM     22  H   LIG d   1       1.001  -2.983 -10.389  0.00  0.00     0.062 H 
ATOM     23  H   LIG d   1       3.337  -3.491  -9.816  0.00  0.00     0.062 H 
BRANCH  14  24
ATOM     24  C   LIG d   1       3.693   2.275  -8.946  0.00  0.00     0.011 C 
ATOM     25  H   LIG d   1       2.772   2.294  -8.345  0.00  0.00     0.045 H 
ATOM     26  H   LIG d   1       3.470   2.612  -9.969  0.00  0.00     0.045 H 
ATOM     27  H   LIG d   1       4.440   2.944  -8.493  0.00  0.00     0.045 H 
ENDBRANCH  14  24
ENDBRANCH   6   8
ENDBRANCH   3   6
ENDBRANCH   1   3
BRANCH   1  28
ATOM     28  C   LIG d   1       7.950   0.292  -5.155  0.00  0.00    -0.026 A 
ATOM     29  C   LIG d   1       7.424   1.240  -4.297  0.00  0.00    -0.055 A 
ATOM     30  C   LIG d   1       8.266   2.101  -3.617  0.00  0.00    -0.043 A 
ATOM     31  H   LIG d   1       6.356   1.307  -4.156  0.00  0.00     0.062 H 
ATOM     32  C   LIG d   1       9.636   2.014  -3.797  0.00  0.00     0.041 A 
ATOM     33  H   LIG d   1       7.855   2.840  -2.947  0.00  0.00     0.063 H 
ATOM     34  C   LIG d   1      10.161   1.066  -4.656  0.00  0.00    -0.043 A 
ATOM     35 CL   LIG d   1      10.693   3.094  -2.944  0.00  0.00    -0.084 Cl
ATOM     36  C   LIG d   1       9.319   0.202  -5.330  0.00  0.00    -0.055 A 
ATOM     37  H   LIG d   1      11.230   0.997  -4.796  0.00  0.00     0.063 H 
ATOM     38  H   LIG d   1       9.730  -0.542  -5.997  0.00  0.00     0.062 H 
ENDBRANCH   1  28
BRANCH   1  39
ATOM     39  N   LIG d   1       6.499  -1.643  -4.965  0.00  0.00    -0.292 N 
BRANCH  39  40
ATOM     40  C   LIG d   1       5.305  -1.396  -4.284  0.00  0.00     0.035 A 
ATOM     41  C   LIG d   1       5.131  -1.868  -2.989  0.00  0.00    -0.040 A 
ATOM     42  C   LIG d   1       3.949  -1.622  -2.319  0.00  0.00    -0.060 A 
ATOM     43  H   LIG d   1       5.920  -2.426  -2.506  0.00  0.00     0.064 H 
ATOM     44  C   LIG d   1       2.939  -0.907  -2.936  0.00  0.00    -0.062 A 
ATOM     45  H   LIG d   1       3.813  -1.988  -1.312  0.00  0.00     0.062 H 
ATOM     46  C   LIG d   1       3.108  -0.436  -4.225  0.00  0.00    -0.060 A 
ATOM     47  H   LIG d   1       2.015  -0.715  -2.409  0.00  0.00     0.062 H 
ATOM     48  C   LIG d   1       4.289  -0.674  -4.899  0.00  0.00    -0.040 A 
ATOM     49  H   LIG d   1       2.317   0.122  -4.704  0.00  0.00     0.062 H 
ATOM     50  H   LIG d   1       4.423  -0.303  -5.904  0.00  0.00     0.064 H 
ENDBRANCH  39  40
BRANCH  39  51
ATOM     51  C   LIG d   1       7.186  -2.842  -4.758  0.00  0.00     0.035 A 
ATOM     52  C   LIG d   1       8.243  -2.893  -3.856  0.00  0.00    -0.040 A 
ATOM     53  C   LIG d   1       8.919  -4.081  -3.654  0.00  0.00    -0.060 A 
ATOM     54  H   LIG d   1       8.534  -2.005  -3.316  0.00  0.00     0.064 H 
ATOM     55  C   LIG d   1       8.545  -5.218  -4.346  0.00  0.00    -0.062 A 
ATOM     56  H   LIG d   1       9.740  -4.120  -2.954  0.00  0.00     0.062 H 
ATOM     57  C   LIG d   1       7.494  -5.170  -5.243  0.00  0.00    -0.060 A 
ATOM     58  H   LIG d   1       9.076  -6.145  -4.185  0.00  0.00     0.062 H 
ATOM     59  C   LIG d   1       6.810  -3.988  -5.448  0.00  0.00    -0.040 A 
ATOM     60  H   LIG d   1       7.205  -6.061  -5.782  0.00  0.00     0.062 H 
ATOM     61  H   LIG d   1       5.987  -3.953  -6.145  0.00  0.00     0.064 H 
ENDBRANCH  39  51
ENDBRANCH   1  39
TORSDOF 8
ENDMDL
MODEL 4
REMARK VINA RESULT:      -7.4      2.754      4.160
REMARK  8 active torsions:
REMARK  status: ('A' for Active; 'I' for Inactive)
REMARK    1  A    between atoms: C_1  and  N_2 
REMARK    2  A    between atoms: C_11  and  C_14 
REMARK    3  A    between atoms: C_14  and  C_16 
REMARK    4  A    between atoms: C_16  and  C_17 
REMARK    5  A    between atoms: C_17  and  C_19 
REMARK    6  A    between atoms: C_17  and  N_26 
REMARK    7  A    between atoms: N_26  and  C_27 
REMARK    8  A    between atoms: N_26  and  C_33 
ROOT
ATOM      1  C   LIG d   1       7.028  -0.649  -5.894  0.00  0.00     0.060 C 
ATOM      2  H   LIG d   1       6.176  -0.087  -6.304  0.00  0.00     0.056 H 
ENDROOT
BRANCH   1   3
ATOM      3  C   LIG d   1       7.807  -1.354  -7.007  0.00  0.00     0.034 C 
ATOM      4  H   LIG d   1       7.555  -2.424  -7.008  0.00  0.00     0.037 H 
ATOM      5  H   LIG d   1       8.886  -1.231  -6.834  0.00  0.00     0.037 H 
BRANCH   3   6
ATOM      6  C   LIG d   1       7.439  -0.750  -8.338  0.00  0.00     0.170 C 
ATOM      7  O   LIG d   1       8.311  -0.422  -9.117  0.00  0.00    -0.292 OA
BRANCH   6   8
ATOM      8  C   LIG d   1       6.079  -0.568  -8.680  0.00  0.00     0.073 A 
ATOM      9  C   LIG d   1       5.239  -1.717  -9.049  0.00  0.00     0.199 A 
ATOM     10  C   LIG d   1       3.832  -1.443  -9.397  0.00  0.00     0.046 A 
ATOM     11  O   LIG d   1       5.691  -2.848  -9.080  0.00  0.00    -0.286 OA
ATOM     12  C   LIG d   1       3.367  -0.119  -9.349  0.00  0.00     0.052 A 
ATOM     13  C   LIG d   1       2.972  -2.474  -9.774  0.00  0.00    -0.049 A 
ATOM     14  N   LIG d   1       4.214   0.908  -8.982  0.00  0.00    -0.356 N 
ATOM     15  C   LIG d   1       2.039   0.147  -9.671  0.00  0.00    -0.037 A 
ATOM     16  C   LIG d   1       5.505   0.706  -8.661  0.00  0.00    -0.022 A 
ATOM     17  O   LIG d   1       6.265   1.761  -8.314  0.00  0.00    -0.861 OA
ATOM     18  C   LIG d   1       1.200  -0.882 -10.042  0.00  0.00    -0.060 A 
ATOM     19  H   LIG d   1       1.667   1.160  -9.635  0.00  0.00     0.064 H 
ATOM     20  C   LIG d   1       1.663  -2.189 -10.094  0.00  0.00    -0.061 A 
ATOM     21  H   LIG d   1       0.172  -0.668 -10.296  0.00  0.00     0.062 H 
ATOM     22  H   LIG d   1       0.994  -2.985 -10.386  0.00  0.00     0.062 H 
ATOM     23  H   LIG d   1       3.330  -3.493  -9.815  0.00  0.00     0.062 H 
BRANCH  14  24
ATOM     24  C   LIG d   1       3.686   2.272  -8.940  0.00  0.00     0.011 C 
ATOM     25  H   LIG d   1       4.389   2.921  -8.396  0.00  0.00     0.045 H 
ATOM     26  H   LIG d   1       2.713   2.274  -8.426  0.00  0.00     0.045 H 
ATOM     27  H   LIG d   1       3.560   2.650  -9.966  0.00  0.00     0.045 H 
ENDBRANCH  14  24
ENDBRANCH   6   8
ENDBRANCH   3   6
ENDBRANCH   1   3
BRANCH   1  28
ATOM     28  C   LIG d   1       7.947   0.287  -5.152  0.00  0.00    -0.026 A 
ATOM     29  C   LIG d   1       9.315   0.194  -5.325  0.00  0.00    -0.055 A 
ATOM     30  C   LIG d   1      10.158   1.052  -4.644  0.00  0.00    -0.043 A 
ATOM     31  H   LIG d   1       9.726  -0.549  -5.992  0.00  0.00     0.062 H 
ATOM     32  C   LIG d   1       9.632   2.004  -3.789  0.00  0.00     0.041 A 
ATOM     33  H   LIG d   1      11.227   0.980  -4.780  0.00  0.00     0.063 H 
ATOM     34  C   LIG d   1       8.262   2.097  -3.616  0.00  0.00    -0.043 A 
ATOM     35 CL   LIG d   1      10.690   3.083  -2.935  0.00  0.00    -0.084 Cl
ATOM     36  C   LIG d   1       7.421   1.242  -4.301  0.00  0.00    -0.055 A 
ATOM     37  H   LIG d   1       7.851   2.840  -2.949  0.00  0.00     0.063 H 
ATOM     38  H   LIG d   1       6.351   1.317  -4.170  0.00  0.00     0.062 H 
ENDBRANCH   1  28
BRANCH   1  39
ATOM     39  N   LIG d   1       6.493  -1.647  -4.965  0.00  0.00    -0.292 N 
BRANCH  39  40
ATOM     40  C   LIG d   1       7.176  -2.849  -4.760  0.00  0.00     0.035 A 
ATOM     41  C   LIG d   1       8.234  -2.904  -3.862  0.00  0.00    -0.040 A 
ATOM     42  C   LIG d   1       8.907  -4.093  -3.662  0.00  0.00    -0.060 A 
ATOM     43  H   LIG d   1       8.530  -2.018  -3.320  0.00  0.00     0.064 H 
ATOM     44  C   LIG d   1       8.527  -5.229  -4.354  0.00  0.00    -0.062 A 
ATOM     45  H   LIG d   1       9.729  -4.137  -2.963  0.00  0.00     0.062 H 
ATOM     46  C   LIG d   1       7.474  -5.178  -5.249  0.00  0.00    -0.060 A 
ATOM     47  H   LIG d   1       9.055  -6.158  -4.195  0.00  0.00     0.062 H 
ATOM     48  C   LIG d   1       6.794  -3.993  -5.450  0.00  0.00    -0.040 A 
ATOM     49  H   LIG d   1       7.181  -6.067  -5.788  0.00  0.00     0.062 H 
ATOM     50  H   LIG d   1       5.970  -3.954  -6.146  0.00  0.00     0.064 H 
ENDBRANCH  39  40
BRANCH  39  51
ATOM     51  C   LIG d   1       5.298  -1.399  -4.286  0.00  0.00     0.035 A 
ATOM     52  C   LIG d   1       5.124  -1.864  -2.988  0.00  0.00    -0.040 A 
ATOM     53  C   LIG d   1       3.941  -1.615  -2.320  0.00  0.00    -0.060 A 
ATOM     54  H   LIG d   1       5.913  -2.420  -2.504  0.00  0.00     0.064 H 
ATOM     55  C   LIG d   1       2.932  -0.903  -2.940  0.00  0.00    -0.062 A 
ATOM     56  H   LIG d   1       3.806  -1.979  -1.312  0.00  0.00     0.062 H 
ATOM     57  C   LIG d   1       3.102  -0.437  -4.231  0.00  0.00    -0.060 A 
ATOM     58  H   LIG d   1       2.008  -0.710  -2.414  0.00  0.00     0.062 H 
ATOM     59  C   LIG d   1       4.283  -0.679  -4.904  0.00  0.00    -0.040 A 
ATOM     60  H   LIG d   1       2.310   0.118  -4.712  0.00  0.00     0.062 H 
ATOM     61  H   LIG d   1       4.417  -0.311  -5.910  0.00  0.00     0.064 H 
ENDBRANCH  39  51
ENDBRANCH   1  39
TORSDOF 8
ENDMDL
MODEL 5
REMARK VINA RESULT:      -7.4      2.785      3.900
REMARK  8 active torsions:
REMARK  status: ('A' for Active; 'I' for Inactive)
REMARK    1  A    between atoms: C_1  and  N_2 
REMARK    2  A    between atoms: C_11  and  C_14 
REMARK    3  A    between atoms: C_14  and  C_16 
REMARK    4  A    between atoms: C_16  and  C_17 
REMARK    5  A    between atoms: C_17  and  C_19 
REMARK    6  A    between atoms: C_17  and  N_26 
REMARK    7  A    between atoms: N_26  and  C_27 
REMARK    8  A    between atoms: N_26  and  C_33 
ROOT
ATOM      1  C   LIG d   1       7.087   0.550  -5.690  0.00  0.00     0.060 C 
ATOM      2  H   LIG d   1       6.441   1.440  -5.703  0.00  0.00     0.056 H 
ENDROOT
BRANCH   1   3
ATOM      3  C   LIG d   1       7.233  -0.042  -7.093  0.00  0.00     0.034 C 
ATOM      4  H   LIG d   1       6.705  -1.006  -7.140  0.00  0.00     0.037 H 
ATOM      5  H   LIG d   1       8.299  -0.197  -7.317  0.00  0.00     0.037 H 
BRANCH   3   6
ATOM      6  C   LIG d   1       6.638   0.904  -8.103  0.00  0.00     0.170 C 
ATOM      7  O   LIG d   1       6.981   2.069  -8.118  0.00  0.00    -0.292 OA
BRANCH   6   8
ATOM      8  C   LIG d   1       5.683   0.436  -9.035  0.00  0.00     0.073 A 
ATOM      9  C   LIG d   1       4.256   0.390  -8.686  0.00  0.00     0.199 A 
ATOM     10  C   LIG d   1       3.323  -0.115  -9.711  0.00  0.00     0.046 A 
ATOM     11  O   LIG d   1       3.861   0.743  -7.588  0.00  0.00    -0.286 OA
ATOM     12  C   LIG d   1       3.835  -0.513 -10.956  0.00  0.00     0.052 A 
ATOM     13  C   LIG d   1       1.955  -0.206  -9.454  0.00  0.00    -0.049 A 
ATOM     14  N   LIG d   1       5.189  -0.430 -11.215  0.00  0.00    -0.356 N 
ATOM     15  C   LIG d   1       2.961  -0.986 -11.931  0.00  0.00    -0.037 A 
ATOM     16  C   LIG d   1       6.076   0.019 -10.310  0.00  0.00    -0.022 A 
ATOM     17  O   LIG d   1       7.380   0.069 -10.641  0.00  0.00    -0.861 OA
ATOM     18  C   LIG d   1       1.612  -1.071 -11.664  0.00  0.00    -0.060 A 
ATOM     19  H   LIG d   1       3.341  -1.292 -12.895  0.00  0.00     0.064 H 
ATOM     20  C   LIG d   1       1.108  -0.683 -10.430  0.00  0.00    -0.061 A 
ATOM     21  H   LIG d   1       0.940  -1.444 -12.422  0.00  0.00     0.062 H 
ATOM     22  H   LIG d   1       0.049  -0.755 -10.235  0.00  0.00     0.062 H 
ATOM     23  H   LIG d   1       1.562   0.095  -8.494  0.00  0.00     0.062 H 
BRANCH  14  24
ATOM     24  C   LIG d   1       5.679  -0.850 -12.529  0.00  0.00     0.011 C 
ATOM     25  H   LIG d   1       5.092  -1.711 -12.882  0.00  0.00     0.045 H 
ATOM     26  H   LIG d   1       6.739  -1.135 -12.451  0.00  0.00     0.045 H 
ATOM     27  H   LIG d   1       5.575  -0.018 -13.243  0.00  0.00     0.045 H 
ENDBRANCH  14  24
ENDBRANCH   6   8
ENDBRANCH   3   6
ENDBRANCH   1   3
BRANCH   1  28
ATOM     28  C   LIG d   1       8.446   0.915  -5.153  0.00  0.00    -0.026 A 
ATOM     29  C   LIG d   1       9.581   0.341  -5.697  0.00  0.00    -0.055 A 
ATOM     30  C   LIG d   1      10.829   0.675  -5.205  0.00  0.00    -0.043 A 
ATOM     31  H   LIG d   1       9.492  -0.368  -6.507  0.00  0.00     0.062 H 
ATOM     32  C   LIG d   1      10.942   1.584  -4.167  0.00  0.00     0.041 A 
ATOM     33  H   LIG d   1      11.714   0.228  -5.630  0.00  0.00     0.063 H 
ATOM     34  C   LIG d   1       9.806   2.158  -3.624  0.00  0.00    -0.043 A 
ATOM     35 CL   LIG d   1      12.508   2.006  -3.550  0.00  0.00    -0.084 Cl
ATOM     36  C   LIG d   1       8.560   1.827  -4.121  0.00  0.00    -0.055 A 
ATOM     37  H   LIG d   1       9.894   2.868  -2.815  0.00  0.00     0.063 H 
ATOM     38  H   LIG d   1       7.673   2.279  -3.699  0.00  0.00     0.062 H 
ENDBRANCH   1  28
BRANCH   1  39
ATOM     39  N   LIG d   1       6.461  -0.436  -4.806  0.00  0.00    -0.292 N 
BRANCH  39  40
ATOM     40  C   LIG d   1       6.915  -1.758  -4.800  0.00  0.00     0.035 A 
ATOM     41  C   LIG d   1       7.821  -2.178  -3.837  0.00  0.00    -0.040 A 
ATOM     42  C   LIG d   1       8.267  -3.486  -3.834  0.00  0.00    -0.060 A 
ATOM     43  H   LIG d   1       8.177  -1.485  -3.089  0.00  0.00     0.064 H 
ATOM     44  C   LIG d   1       7.812  -4.375  -4.790  0.00  0.00    -0.062 A 
ATOM     45  H   LIG d   1       8.972  -3.814  -3.084  0.00  0.00     0.062 H 
ATOM     46  C   LIG d   1       6.909  -3.959  -5.752  0.00  0.00    -0.060 A 
ATOM     47  H   LIG d   1       8.162  -5.397  -4.785  0.00  0.00     0.062 H 
ATOM     48  C   LIG d   1       6.455  -2.656  -5.757  0.00  0.00    -0.040 A 
ATOM     49  H   LIG d   1       6.556  -4.657  -6.497  0.00  0.00     0.062 H 
ATOM     50  H   LIG d   1       5.747  -2.333  -6.505  0.00  0.00     0.064 H 
ENDBRANCH  39  40
BRANCH  39  51
ATOM     51  C   LIG d   1       5.408  -0.056  -3.970  0.00  0.00     0.035 A 
ATOM     52  C   LIG d   1       5.672   0.573  -2.760  0.00  0.00    -0.040 A 
ATOM     53  C   LIG d   1       4.629   0.948  -1.936  0.00  0.00    -0.060 A 
ATOM     54  H   LIG d   1       6.692   0.768  -2.463  0.00  0.00     0.064 H 
ATOM     55  C   LIG d   1       3.323   0.700  -2.316  0.00  0.00    -0.062 A 
ATOM     56  H   LIG d   1       4.834   1.436  -0.995  0.00  0.00     0.062 H 
ATOM     57  C   LIG d   1       3.056   0.075  -3.520  0.00  0.00    -0.060 A 
ATOM     58  H   LIG d   1       2.509   0.995  -1.670  0.00  0.00     0.062 H 
ATOM     59  C   LIG d   1       4.094  -0.300  -4.350  0.00  0.00    -0.040 A 
ATOM     60  H   LIG d   1       2.035  -0.118  -3.813  0.00  0.00     0.062 H 
ATOM     61  H   LIG d   1       3.886  -0.784  -5.293  0.00  0.00     0.064 H 
ENDBRANCH  39  51
ENDBRANCH   1  39
TORSDOF 8
ENDMDL
MODEL 6
REMARK VINA RESULT:      -7.3      2.287      3.904
REMARK  8 active torsions:
REMARK  status: ('A' for Active; 'I' for Inactive)
REMARK    1  A    between atoms: C_1  and  N_2 
REMARK    2  A    between atoms: C_11  and  C_14 
REMARK    3  A    between atoms: C_14  and  C_16 
REMARK    4  A    between atoms: C_16  and  C_17 
REMARK    5  A    between atoms: C_17  and  C_19 
REMARK    6  A    between atoms: C_17  and  N_26 
REMARK    7  A    between atoms: N_26  and  C_27 
REMARK    8  A    between atoms: N_26  and  C_33 
ROOT
ATOM      1  C   LIG d   1       6.161  -2.251  -5.904  0.00  0.00     0.060 C 
ATOM      2  H   LIG d   1       6.899  -1.946  -6.662  0.00  0.00     0.056 H 
ENDROOT
BRANCH   1   3
ATOM      3  C   LIG d   1       4.863  -1.454  -6.052  0.00  0.00     0.034 C 
ATOM      4  H   LIG d   1       4.664  -0.903  -5.121  0.00  0.00     0.037 H 
ATOM      5  H   LIG d   1       4.030  -2.144  -6.254  0.00  0.00     0.037 H 
BRANCH   3   6
ATOM      6  C   LIG d   1       4.997  -0.480  -7.193  0.00  0.00     0.170 C 
ATOM      7  O   LIG d   1       5.537   0.593  -7.014  0.00  0.00    -0.292 OA
BRANCH   6   8
ATOM      8  C   LIG d   1       4.496  -0.816  -8.473  0.00  0.00     0.073 A 
ATOM      9  C   LIG d   1       3.074  -0.630  -8.792  0.00  0.00     0.199 A 
ATOM     10  C   LIG d   1       2.628  -1.008 -10.147  0.00  0.00     0.046 A 
ATOM     11  O   LIG d   1       2.291  -0.193  -7.966  0.00  0.00    -0.286 OA
ATOM     12  C   LIG d   1       3.574  -1.511 -11.055  0.00  0.00     0.052 A 
ATOM     13  C   LIG d   1       1.293  -0.877 -10.526  0.00  0.00    -0.049 A 
ATOM     14  N   LIG d   1       4.897  -1.647 -10.685  0.00  0.00    -0.356 N 
ATOM     15  C   LIG d   1       3.162  -1.865 -12.337  0.00  0.00    -0.037 A 
ATOM     16  C   LIG d   1       5.347  -1.320  -9.460  0.00  0.00    -0.022 A 
ATOM     17  O   LIG d   1       6.653  -1.483  -9.178  0.00  0.00    -0.861 OA
ATOM     18  C   LIG d   1       1.840  -1.731 -12.698  0.00  0.00    -0.060 A 
ATOM     19  H   LIG d   1       3.880  -2.250 -13.047  0.00  0.00     0.064 H 
ATOM     20  C   LIG d   1       0.906  -1.240 -11.797  0.00  0.00    -0.061 A 
ATOM     21  H   LIG d   1       1.526  -2.013 -13.693  0.00  0.00     0.062 H 
ATOM     22  H   LIG d   1      -0.127  -1.140 -12.095  0.00  0.00     0.062 H 
ATOM     23  H   LIG d   1       0.564  -0.495  -9.826  0.00  0.00     0.062 H 
BRANCH  14  24
ATOM     24  C   LIG d   1       5.850  -2.170 -11.665  0.00  0.00     0.011 C 
ATOM     25  H   LIG d   1       5.522  -3.165 -12.002  0.00  0.00     0.045 H 
ATOM     26  H   LIG d   1       6.845  -2.249 -11.204  0.00  0.00     0.045 H 
ATOM     27  H   LIG d   1       5.899  -1.490 -12.529  0.00  0.00     0.045 H 
ENDBRANCH  14  24
ENDBRANCH   6   8
ENDBRANCH   3   6
ENDBRANCH   1   3
BRANCH   1  28
ATOM     28  C   LIG d   1       5.867  -3.722  -6.042  0.00  0.00    -0.026 A 
ATOM     29  C   LIG d   1       6.605  -4.496  -6.919  0.00  0.00    -0.055 A 
ATOM     30  C   LIG d   1       6.336  -5.845  -7.045  0.00  0.00    -0.043 A 
ATOM     31  H   LIG d   1       7.393  -4.045  -7.503  0.00  0.00     0.062 H 
ATOM     32  C   LIG d   1       5.326  -6.422  -6.295  0.00  0.00     0.041 A 
ATOM     33  H   LIG d   1       6.913  -6.449  -7.729  0.00  0.00     0.063 H 
ATOM     34  C   LIG d   1       4.588  -5.647  -5.418  0.00  0.00    -0.043 A 
ATOM     35 CL   LIG d   1       4.988  -8.117  -6.452  0.00  0.00    -0.084 Cl
ATOM     36  C   LIG d   1       4.862  -4.300  -5.288  0.00  0.00    -0.055 A 
ATOM     37  H   LIG d   1       3.800  -6.098  -4.832  0.00  0.00     0.063 H 
ATOM     38  H   LIG d   1       4.289  -3.695  -4.600  0.00  0.00     0.062 H 
ENDBRANCH   1  28
BRANCH   1  39
ATOM     39  N   LIG d   1       6.747  -1.990  -4.588  0.00  0.00    -0.292 N 
BRANCH  39  40
ATOM     40  C   LIG d   1       8.008  -2.502  -4.269  0.00  0.00     0.035 A 
ATOM     41  C   LIG d   1       9.116  -2.142  -5.024  0.00  0.00    -0.040 A 
ATOM     42  C   LIG d   1      10.360  -2.649  -4.706  0.00  0.00    -0.060 A 
ATOM     43  H   LIG d   1       9.005  -1.465  -5.859  0.00  0.00     0.064 H 
ATOM     44  C   LIG d   1      10.503  -3.514  -3.637  0.00  0.00    -0.062 A 
ATOM     45  H   LIG d   1      11.223  -2.370  -5.293  0.00  0.00     0.062 H 
ATOM     46  C   LIG d   1       9.402  -3.875  -2.883  0.00  0.00    -0.060 A 
ATOM     47  H   LIG d   1      11.479  -3.909  -3.390  0.00  0.00     0.062 H 
ATOM     48  C   LIG d   1       8.156  -3.368  -3.192  0.00  0.00    -0.040 A 
ATOM     49  H   LIG d   1       9.517  -4.551  -2.049  0.00  0.00     0.062 H 
ATOM     50  H   LIG d   1       7.296  -3.646  -2.601  0.00  0.00     0.064 H 
ENDBRANCH  39  40
BRANCH  39  51
ATOM     51  C   LIG d   1       6.044  -1.232  -3.649  0.00  0.00     0.035 A 
ATOM     52  C   LIG d   1       6.280   0.133  -3.538  0.00  0.00    -0.040 A 
ATOM     53  C   LIG d   1       5.582   0.880  -2.609  0.00  0.00    -0.060 A 
ATOM     54  H   LIG d   1       7.008   0.609  -4.178  0.00  0.00     0.064 H 
ATOM     55  C   LIG d   1       4.648   0.272  -1.791  0.00  0.00    -0.062 A 
ATOM     56  H   LIG d   1       5.766   1.941  -2.523  0.00  0.00     0.062 H 
ATOM     57  C   LIG d   1       4.411  -1.086  -1.899  0.00  0.00    -0.060 A 
ATOM     58  H   LIG d   1       4.104   0.859  -1.065  0.00  0.00     0.062 H 
ATOM     59  C   LIG d   1       5.101  -1.839  -2.828  0.00  0.00    -0.040 A 
ATOM     60  H   LIG d   1       3.681  -1.558  -1.257  0.00  0.00     0.062 H 
ATOM     61  H   LIG d   1       4.912  -2.898  -2.915  0.00  0.00     0.064 H 
ENDBRANCH  39  51
ENDBRANCH   1  39
TORSDOF 8
ENDMDL
MODEL 7
REMARK VINA RESULT:      -7.3      2.791      4.619
REMARK  8 active torsions:
REMARK  status: ('A' for Active; 'I' for Inactive)
REMARK    1  A    between atoms: C_1  and  N_2 
REMARK    2  A    between atoms: C_11  and  C_14 
REMARK    3  A    between atoms: C_14  and  C_16 
REMARK    4  A    between atoms: C_16  and  C_17 
REMARK    5  A    between atoms: C_17  and  C_19 
REMARK    6  A    between atoms: C_17  and  N_26 
REMARK    7  A    between atoms: N_26  and  C_27 
REMARK    8  A    between atoms: N_26  and  C_33 
ROOT
ATOM      1  C   LIG d   1       7.043   0.547  -5.632  0.00  0.00     0.060 C 
ATOM      2  H   LIG d   1       6.371   1.418  -5.650  0.00  0.00     0.056 H 
ENDROOT
BRANCH   1   3
ATOM      3  C   LIG d   1       7.213  -0.044  -7.033  0.00  0.00     0.034 C 
ATOM      4  H   LIG d   1       6.686  -1.008  -7.090  0.00  0.00     0.037 H 
ATOM      5  H   LIG d   1       8.282  -0.198  -7.239  0.00  0.00     0.037 H 
BRANCH   3   6
ATOM      6  C   LIG d   1       6.635   0.904  -8.052  0.00  0.00     0.170 C 
ATOM      7  O   LIG d   1       6.986   2.067  -8.066  0.00  0.00    -0.292 OA
BRANCH   6   8
ATOM      8  C   LIG d   1       5.686   0.439  -8.993  0.00  0.00     0.073 A 
ATOM      9  C   LIG d   1       4.256   0.399  -8.657  0.00  0.00     0.199 A 
ATOM     10  C   LIG d   1       3.331  -0.103  -9.690  0.00  0.00     0.046 A 
ATOM     11  O   LIG d   1       3.853   0.753  -7.562  0.00  0.00    -0.286 OA
ATOM     12  C   LIG d   1       3.854  -0.502 -10.931  0.00  0.00     0.052 A 
ATOM     13  C   LIG d   1       1.961  -0.188  -9.447  0.00  0.00    -0.049 A 
ATOM     14  N   LIG d   1       5.210  -0.425 -11.177  0.00  0.00    -0.356 N 
ATOM     15  C   LIG d   1       2.986  -0.972 -11.914  0.00  0.00    -0.037 A 
ATOM     16  C   LIG d   1       6.090   0.021 -10.264  0.00  0.00    -0.022 A 
ATOM     17  O   LIG d   1       7.398   0.065 -10.582  0.00  0.00    -0.861 OA
ATOM     18  C   LIG d   1       1.635  -1.052 -11.659  0.00  0.00    -0.060 A 
ATOM     19  H   LIG d   1       3.374  -1.279 -12.874  0.00  0.00     0.064 H 
ATOM     20  C   LIG d   1       1.121  -0.662 -10.431  0.00  0.00    -0.061 A 
ATOM     21  H   LIG d   1       0.968  -1.422 -12.424  0.00  0.00     0.062 H 
ATOM     22  H   LIG d   1       0.059  -0.729 -10.246  0.00  0.00     0.062 H 
ATOM     23  H   LIG d   1       1.559   0.115  -8.491  0.00  0.00     0.062 H 
BRANCH  14  24
ATOM     24  C   LIG d   1       5.711  -0.846 -12.487  0.00  0.00     0.011 C 
ATOM     25  H   LIG d   1       4.877  -1.236 -13.090  0.00  0.00     0.045 H 
ATOM     26  H   LIG d   1       6.467  -1.634 -12.354  0.00  0.00     0.045 H 
ATOM     27  H   LIG d   1       6.164   0.015 -13.001  0.00  0.00     0.045 H 
ENDBRANCH  14  24
ENDBRANCH   6   8
ENDBRANCH   3   6
ENDBRANCH   1   3
BRANCH   1  28
ATOM     28  C   LIG d   1       8.388   0.952  -5.090  0.00  0.00    -0.026 A 
ATOM     29  C   LIG d   1       8.471   1.867  -4.057  0.00  0.00    -0.055 A 
ATOM     30  C   LIG d   1       9.706   2.239  -3.559  0.00  0.00    -0.043 A 
ATOM     31  H   LIG d   1       7.571   2.290  -3.637  0.00  0.00     0.062 H 
ATOM     32  C   LIG d   1      10.860   1.696  -4.097  0.00  0.00     0.041 A 
ATOM     33  H   LIG d   1       9.770   2.953  -2.752  0.00  0.00     0.063 H 
ATOM     34  C   LIG d   1      10.777   0.781  -5.131  0.00  0.00    -0.043 A 
ATOM     35 CL   LIG d   1      12.411   2.162  -3.472  0.00  0.00    -0.084 Cl
ATOM     36  C   LIG d   1       9.541   0.405  -5.623  0.00  0.00    -0.055 A 
ATOM     37  H   LIG d   1      11.677   0.356  -5.550  0.00  0.00     0.063 H 
ATOM     38  H   LIG d   1       9.476  -0.313  -6.427  0.00  0.00     0.062 H 
ENDBRANCH   1  28
BRANCH   1  39
ATOM     39  N   LIG d   1       6.442  -0.456  -4.749  0.00  0.00    -0.292 N 
BRANCH  39  40
ATOM     40  C   LIG d   1       5.373  -0.107  -3.919  0.00  0.00     0.035 A 
ATOM     41  C   LIG d   1       4.074  -0.438  -4.280  0.00  0.00    -0.040 A 
ATOM     42  C   LIG d   1       3.021  -0.092  -3.457  0.00  0.00    -0.060 A 
ATOM     43  H   LIG d   1       3.887  -0.968  -5.203  0.00  0.00     0.064 H 
ATOM     44  C   LIG d   1       3.258   0.585  -2.275  0.00  0.00    -0.062 A 
ATOM     45  H   LIG d   1       2.010  -0.350  -3.736  0.00  0.00     0.062 H 
ATOM     46  C   LIG d   1       4.551   0.917  -1.912  0.00  0.00    -0.060 A 
ATOM     47  H   LIG d   1       2.432   0.854  -1.632  0.00  0.00     0.062 H 
ATOM     48  C   LIG d   1       5.609   0.570  -2.728  0.00  0.00    -0.040 A 
ATOM     49  H   LIG d   1       4.733   1.446  -0.988  0.00  0.00     0.062 H 
ATOM     50  H   LIG d   1       6.619   0.826  -2.443  0.00  0.00     0.064 H 
ENDBRANCH  39  40
BRANCH  39  51
ATOM     51  C   LIG d   1       6.938  -1.761  -4.736  0.00  0.00     0.035 A 
ATOM     52  C   LIG d   1       7.814  -2.164  -3.735  0.00  0.00    -0.040 A 
ATOM     53  C   LIG d   1       8.302  -3.456  -3.725  0.00  0.00    -0.060 A 
ATOM     54  H   LIG d   1       8.113  -1.467  -2.966  0.00  0.00     0.064 H 
ATOM     55  C   LIG d   1       7.920  -4.349  -4.709  0.00  0.00    -0.062 A 
ATOM     56  H   LIG d   1       8.984  -3.768  -2.947  0.00  0.00     0.062 H 
ATOM     57  C   LIG d   1       7.048  -3.952  -5.706  0.00  0.00    -0.060 A 
ATOM     58  H   LIG d   1       8.304  -5.359  -4.698  0.00  0.00     0.062 H 
ATOM     59  C   LIG d   1       6.553  -2.663  -5.720  0.00  0.00    -0.040 A 
ATOM     60  H   LIG d   1       6.752  -4.652  -6.473  0.00  0.00     0.062 H 
ATOM     61  H   LIG d   1       5.868  -2.355  -6.496  0.00  0.00     0.064 H 
ENDBRANCH  39  51
ENDBRANCH   1  39
TORSDOF 8
ENDMDL
MODEL 8
REMARK VINA RESULT:      -7.3      2.100      3.652
REMARK  8 active torsions:
REMARK  status: ('A' for Active; 'I' for Inactive)
REMARK    1  A    between atoms: C_1  and  N_2 
REMARK    2  A    between atoms: C_11  and  C_14 
REMARK    3  A    between atoms: C_14  and  C_16 
REMARK    4  A    between atoms: C_16  and  C_17 
REMARK    5  A    between atoms: C_17  and  C_19 
REMARK    6  A    between atoms: C_17  and  N_26 
REMARK    7  A    between atoms: N_26  and  C_27 
REMARK    8  A    between atoms: N_26  and  C_33 
ROOT
ATOM      1  C   LIG d   1       5.541  -2.549  -6.468  0.00  0.00     0.060 C 
ATOM      2  H   LIG d   1       5.750  -2.404  -7.538  0.00  0.00     0.056 H 
ENDROOT
BRANCH   1   3
ATOM      3  C   LIG d   1       4.583  -3.723  -6.252  0.00  0.00     0.034 C 
ATOM      4  H   LIG d   1       3.697  -3.375  -5.699  0.00  0.00     0.037 H 
ATOM      5  H   LIG d   1       5.090  -4.509  -5.673  0.00  0.00     0.037 H 
BRANCH   3   6
ATOM      6  C   LIG d   1       4.155  -4.276  -7.586  0.00  0.00     0.170 C 
ATOM      7  O   LIG d   1       3.470  -5.277  -7.636  0.00  0.00    -0.292 OA
BRANCH   6   8
ATOM      8  C   LIG d   1       4.552  -3.629  -8.780  0.00  0.00     0.073 A 
ATOM      9  C   LIG d   1       3.683  -2.628  -9.413  0.00  0.00     0.199 A 
ATOM     10  C   LIG d   1       4.167  -2.002 -10.659  0.00  0.00     0.046 A 
ATOM     11  O   LIG d   1       2.600  -2.336  -8.936  0.00  0.00    -0.286 OA
ATOM     12  C   LIG d   1       5.420  -2.381 -11.165  0.00  0.00     0.052 A 
ATOM     13  C   LIG d   1       3.397  -1.053 -11.331  0.00  0.00    -0.049 A 
ATOM     14  N   LIG d   1       6.186  -3.323 -10.507  0.00  0.00    -0.356 N 
ATOM     15  C   LIG d   1       5.886  -1.791 -12.338  0.00  0.00    -0.037 A 
ATOM     16  C   LIG d   1       5.784  -3.923  -9.373  0.00  0.00    -0.022 A 
ATOM     17  O   LIG d   1       6.589  -4.832  -8.792  0.00  0.00    -0.861 OA
ATOM     18  C   LIG d   1       5.115  -0.855 -12.992  0.00  0.00    -0.060 A 
ATOM     19  H   LIG d   1       6.850  -2.070 -12.737  0.00  0.00     0.064 H 
ATOM     20  C   LIG d   1       3.874  -0.486 -12.493  0.00  0.00    -0.061 A 
ATOM     21  H   LIG d   1       5.479  -0.405 -13.903  0.00  0.00     0.062 H 
ATOM     22  H   LIG d   1       3.280   0.248 -13.016  0.00  0.00     0.062 H 
ATOM     23  H   LIG d   1       2.430  -0.765 -10.944  0.00  0.00     0.062 H 
BRANCH  14  24
ATOM     24  C   LIG d   1       7.489  -3.684 -11.067  0.00  0.00     0.011 C 
ATOM     25  H   LIG d   1       7.426  -4.680 -11.531  0.00  0.00     0.045 H 
ATOM     26  H   LIG d   1       8.242  -3.700 -10.265  0.00  0.00     0.045 H 
ATOM     27  H   LIG d   1       7.780  -2.944 -11.829  0.00  0.00     0.045 H 
ENDBRANCH  14  24
ENDBRANCH   6   8
ENDBRANCH   3   6
ENDBRANCH   1   3
BRANCH   1  28
ATOM     28  C   LIG d   1       6.827  -2.807  -5.728  0.00  0.00    -0.026 A 
ATOM     29  C   LIG d   1       6.954  -3.931  -4.932  0.00  0.00    -0.055 A 
ATOM     30  C   LIG d   1       8.135  -4.168  -4.253  0.00  0.00    -0.043 A 
ATOM     31  H   LIG d   1       6.131  -4.624  -4.843  0.00  0.00     0.062 H 
ATOM     32  C   LIG d   1       9.189  -3.279  -4.369  0.00  0.00     0.041 A 
ATOM     33  H   LIG d   1       8.233  -5.045  -3.632  0.00  0.00     0.063 H 
ATOM     34  C   LIG d   1       9.062  -2.155  -5.165  0.00  0.00    -0.043 A 
ATOM     35 CL   LIG d   1      10.672  -3.576  -3.517  0.00  0.00    -0.084 Cl
ATOM     36  C   LIG d   1       7.883  -1.922  -5.848  0.00  0.00    -0.055 A 
ATOM     37  H   LIG d   1       9.885  -1.461  -5.256  0.00  0.00     0.063 H 
ATOM     38  H   LIG d   1       7.785  -1.047  -6.474  0.00  0.00     0.062 H 
ENDBRANCH   1  28
BRANCH   1  39
ATOM     39  N   LIG d   1       4.926  -1.318  -5.966  0.00  0.00    -0.292 N 
BRANCH  39  40
ATOM     40  C   LIG d   1       4.503  -0.332  -6.862  0.00  0.00     0.035 A 
ATOM     41  C   LIG d   1       5.383   0.170  -7.811  0.00  0.00    -0.040 A 
ATOM     42  C   LIG d   1       4.961   1.144  -8.694  0.00  0.00    -0.060 A 
ATOM     43  H   LIG d   1       6.396  -0.201  -7.860  0.00  0.00     0.064 H 
ATOM     44  C   LIG d   1       3.664   1.619  -8.634  0.00  0.00    -0.062 A 
ATOM     45  H   LIG d   1       5.644   1.535  -9.434  0.00  0.00     0.062 H 
ATOM     46  C   LIG d   1       2.784   1.121  -7.689  0.00  0.00    -0.060 A 
ATOM     47  H   LIG d   1       3.336   2.381  -9.327  0.00  0.00     0.062 H 
ATOM     48  C   LIG d   1       3.198   0.144  -6.806  0.00  0.00    -0.040 A 
ATOM     49  H   LIG d   1       1.772   1.495  -7.645  0.00  0.00     0.062 H 
ATOM     50  H   LIG d   1       2.511  -0.248  -6.072  0.00  0.00     0.064 H 
ENDBRANCH  39  40
BRANCH  39  51
ATOM     51  C   LIG d   1       4.765  -1.129  -4.592  0.00  0.00     0.035 A 
ATOM     52  C   LIG d   1       5.421  -0.085  -3.951  0.00  0.00    -0.040 A 
ATOM     53  C   LIG d   1       5.258   0.099  -2.591  0.00  0.00    -0.060 A 
ATOM     54  H   LIG d   1       6.057   0.581  -4.514  0.00  0.00     0.064 H 
ATOM     55  C   LIG d   1       4.442  -0.752  -1.869  0.00  0.00    -0.062 A 
ATOM     56  H   LIG d   1       5.768   0.910  -2.093  0.00  0.00     0.062 H 
ATOM     57  C   LIG d   1       3.788  -1.792  -2.504  0.00  0.00    -0.060 A 
ATOM     58  H   LIG d   1       4.317  -0.605  -0.806  0.00  0.00     0.062 H 
ATOM     59  C   LIG d   1       3.943  -1.980  -3.863  0.00  0.00    -0.040 A 
ATOM     60  H   LIG d   1       3.152  -2.455  -1.937  0.00  0.00     0.062 H 
ATOM     61  H   LIG d   1       3.428  -2.789  -4.360  0.00  0.00     0.064 H 
ENDBRANCH  39  51
ENDBRANCH   1  39
TORSDOF 8
ENDMDL
MODEL 9
REMARK VINA RESULT:      -7.3      2.103      4.201
REMARK  8 active torsions:
REMARK  status: ('A' for Active; 'I' for Inactive)
REMARK    1  A    between atoms: C_1  and  N_2 
REMARK    2  A    between atoms: C_11  and  C_14 
REMARK    3  A    between atoms: C_14  and  C_16 
REMARK    4  A    between atoms: C_16  and  C_17 
REMARK    5  A    between atoms: C_17  and  C_19 
REMARK    6  A    between atoms: C_17  and  N_26 
REMARK    7  A    between atoms: N_26  and  C_27 
REMARK    8  A    between atoms: N_26  and  C_33 
ROOT
ATOM      1  C   LIG d   1       5.538  -2.547  -6.474  0.00  0.00     0.060 C 
ATOM      2  H   LIG d   1       5.747  -2.407  -7.545  0.00  0.00     0.056 H 
ENDROOT
BRANCH   1   3
ATOM      3  C   LIG d   1       4.576  -3.715  -6.250  0.00  0.00     0.034 C 
ATOM      4  H   LIG d   1       3.692  -3.361  -5.700  0.00  0.00     0.037 H 
ATOM      5  H   LIG d   1       5.081  -4.500  -5.667  0.00  0.00     0.037 H 
BRANCH   3   6
ATOM      6  C   LIG d   1       4.147  -4.276  -7.582  0.00  0.00     0.170 C 
ATOM      7  O   LIG d   1       3.464  -5.279  -7.626  0.00  0.00    -0.292 OA
BRANCH   6   8
ATOM      8  C   LIG d   1       4.538  -3.632  -8.779  0.00  0.00     0.073 A 
ATOM      9  C   LIG d   1       3.667  -2.632  -9.411  0.00  0.00     0.199 A 
ATOM     10  C   LIG d   1       4.144  -2.009 -10.660  0.00  0.00     0.046 A 
ATOM     11  O   LIG d   1       2.586  -2.338  -8.929  0.00  0.00    -0.286 OA
ATOM     12  C   LIG d   1       5.395  -2.391 -11.172  0.00  0.00     0.052 A 
ATOM     13  C   LIG d   1       3.371  -1.063 -11.332  0.00  0.00    -0.049 A 
ATOM     14  N   LIG d   1       6.163  -3.331 -10.515  0.00  0.00    -0.356 N 
ATOM     15  C   LIG d   1       5.855  -1.804 -12.348  0.00  0.00    -0.037 A 
ATOM     16  C   LIG d   1       5.766  -3.928  -9.377  0.00  0.00    -0.022 A 
ATOM     17  O   LIG d   1       6.575  -4.835  -8.798  0.00  0.00    -0.861 OA
ATOM     18  C   LIG d   1       5.081  -0.870 -13.001  0.00  0.00    -0.060 A 
ATOM     19  H   LIG d   1       6.817  -2.085 -12.751  0.00  0.00     0.064 H 
ATOM     20  C   LIG d   1       3.843  -0.499 -12.497  0.00  0.00    -0.061 A 
ATOM     21  H   LIG d   1       5.442  -0.423 -13.916  0.00  0.00     0.062 H 
ATOM     22  H   LIG d   1       3.247   0.234 -13.020  0.00  0.00     0.062 H 
ATOM     23  H   LIG d   1       2.407  -0.773 -10.941  0.00  0.00     0.062 H 
BRANCH  14  24
ATOM     24  C   LIG d   1       7.464  -3.694 -11.081  0.00  0.00     0.011 C 
ATOM     25  H   LIG d   1       7.398  -4.692 -11.541  0.00  0.00     0.045 H 
ATOM     26  H   LIG d   1       8.220  -3.708 -10.282  0.00  0.00     0.045 H 
ATOM     27  H   LIG d   1       7.751  -2.957 -11.845  0.00  0.00     0.045 H 
ENDBRANCH  14  24
ENDBRANCH   6   8
ENDBRANCH   3   6
ENDBRANCH   1   3
BRANCH   1  28
ATOM     28  C   LIG d   1       6.824  -2.805  -5.734  0.00  0.00    -0.026 A 
ATOM     29  C   LIG d   1       6.947  -3.922  -4.929  0.00  0.00    -0.055 A 
ATOM     30  C   LIG d   1       8.127  -4.159  -4.249  0.00  0.00    -0.043 A 
ATOM     31  H   LIG d   1       6.121  -4.611  -4.833  0.00  0.00     0.062 H 
ATOM     32  C   LIG d   1       9.186  -3.277  -4.373  0.00  0.00     0.041 A 
ATOM     33  H   LIG d   1       8.222  -5.033  -3.622  0.00  0.00     0.063 H 
ATOM     34  C   LIG d   1       9.062  -2.158  -5.178  0.00  0.00    -0.043 A 
ATOM     35 CL   LIG d   1      10.668  -3.574  -3.521  0.00  0.00    -0.084 Cl
ATOM     36  C   LIG d   1       7.884  -1.926  -5.862  0.00  0.00    -0.055 A 
ATOM     37  H   LIG d   1       9.889  -1.470  -5.276  0.00  0.00     0.063 H 
ATOM     38  H   LIG d   1       7.790  -1.055  -6.494  0.00  0.00     0.062 H 
ENDBRANCH   1  28
BRANCH   1  39
ATOM     39  N   LIG d   1       4.929  -1.310  -5.979  0.00  0.00    -0.292 N 
BRANCH  39  40
ATOM     40  C   LIG d   1       4.760  -1.114  -4.606  0.00  0.00     0.035 A 
ATOM     41  C   LIG d   1       5.416  -0.070  -3.967  0.00  0.00    -0.040 A 
ATOM     42  C   LIG d   1       5.248   0.120  -2.609  0.00  0.00    -0.060 A 
ATOM     43  H   LIG d   1       6.057   0.592  -4.530  0.00  0.00     0.064 H 
ATOM     44  C   LIG d   1       4.427  -0.726  -1.887  0.00  0.00    -0.062 A 
ATOM     45  H   LIG d   1       5.757   0.932  -2.111  0.00  0.00     0.062 H 
ATOM     46  C   LIG d   1       3.772  -1.767  -2.521  0.00  0.00    -0.060 A 
ATOM     47  H   LIG d   1       4.296  -0.574  -0.825  0.00  0.00     0.062 H 
ATOM     48  C   LIG d   1       3.933  -1.961  -3.878  0.00  0.00    -0.040 A 
ATOM     49  H   LIG d   1       3.132  -2.427  -1.953  0.00  0.00     0.062 H 
ATOM     50  H   LIG d   1       3.418  -2.771  -4.374  0.00  0.00     0.064 H 
ENDBRANCH  39  40
BRANCH  39  51
ATOM     51  C   LIG d   1       4.513  -0.328  -6.881  0.00  0.00     0.035 A 
ATOM     52  C   LIG d   1       5.400   0.169  -7.828  0.00  0.00    -0.040 A 
ATOM     53  C   LIG d   1       4.985   1.140  -8.718  0.00  0.00    -0.060 A 
ATOM     54  H   LIG d   1       6.413  -0.204  -7.868  0.00  0.00     0.064 H 
ATOM     55  C   LIG d   1       3.688   1.617  -8.669  0.00  0.00    -0.062 A 
ATOM     56  H   LIG d   1       5.675   1.527  -9.454  0.00  0.00     0.062 H 
ATOM     57  C   LIG d   1       2.803   1.125  -7.728  0.00  0.00    -0.060 A 
ATOM     58  H   LIG d   1       3.367   2.377  -9.367  0.00  0.00     0.062 H 
ATOM     59  C   LIG d   1       3.209   0.151  -6.837  0.00  0.00    -0.040 A 
ATOM     60  H   LIG d   1       1.791   1.500  -7.692  0.00  0.00     0.062 H 
ATOM     61  H   LIG d   1       2.516  -0.237  -6.106  0.00  0.00     0.064 H 
ENDBRANCH  39  51
ENDBRANCH   1  39
TORSDOF 8
ENDMDL
