MODEL 1
REMARK VINA RESULT:      -5.5      0.000      0.000
REMARK  20 active torsions:
REMARK  status: ('A' for Active; 'I' for Inactive)
REMARK    1  A    between atoms: C_1  and  C_2 
REMARK    2  A    between atoms: C_2  and  C_3 
REMARK    3  A    between atoms: C_3  and  C_4 
REMARK    4  A    between atoms: C_4  and  C_5 
REMARK    5  A    between atoms: C_5  and  C_7 
REMARK    6  A    between atoms: C_5  and  C_9 
REMARK    7  A    between atoms: C_7  and  C_8 
REMARK    8  A    between atoms: C_9  and  O_10 
REMARK    9  A    between atoms: O_10  and  C_11 
REMARK   10  A    between atoms: C_11  and  C_13 
REMARK   11  A    between atoms: C_17  and  C_19 
REMARK   12  A    between atoms: C_19  and  O_21 
REMARK   13  A    between atoms: O_21  and  C_22 
REMARK   14  A    between atoms: C_22  and  C_23 
REMARK   15  A    between atoms: C_23  and  C_25 
REMARK   16  A    between atoms: C_23  and  C_27 
REMARK   17  A    between atoms: C_25  and  C_26 
REMARK   18  A    between atoms: C_27  and  C_28 
REMARK   19  A    between atoms: C_28  and  C_29 
REMARK   20  A    between atoms: C_29  and  C_30 
ROOT
ATOM      1  C   LIG d   1       6.675  -0.210  -4.189  0.00  0.00     0.060 A 
ATOM      2  C   LIG d   1       7.111  -1.365  -3.536  0.00  0.00    -0.048 A 
ATOM      3  C   LIG d   1       7.160  -2.568  -4.212  0.00  0.00    -0.060 A 
ATOM      4  C   LIG d   1       6.784  -2.637  -5.539  0.00  0.00    -0.048 A 
ATOM      5  C   LIG d   1       6.341  -1.490  -6.203  0.00  0.00     0.060 A 
ATOM      6  C   LIG d   1       6.289  -0.273  -5.526  0.00  0.00    -0.034 A 
ATOM      7  H   LIG d   1       7.412  -1.317  -2.499  0.00  0.00     0.063 H 
ATOM      8  H   LIG d   1       7.499  -3.458  -3.702  0.00  0.00     0.062 H 
ATOM      9  H   LIG d   1       6.830  -3.581  -6.064  0.00  0.00     0.063 H 
ATOM     10  H   LIG d   1       5.951   0.617  -6.037  0.00  0.00     0.063 H 
ENDROOT
BRANCH   1  11
ATOM     11  C   LIG d   1       6.624   1.077  -3.463  0.00  0.00     0.339 C 
ATOM     12  O   LIG d   1       7.636   1.732  -3.317  0.00  0.00    -0.245 OA
BRANCH  11  13
ATOM     13  O   LIG d   1       5.454   1.522  -2.964  0.00  0.00    -0.461 OA
BRANCH  13  14
ATOM     14  C   LIG d   1       4.756   0.645  -2.041  0.00  0.00     0.096 C 
ATOM     15  H   LIG d   1       5.270  -0.315  -1.992  0.00  0.00     0.070 H 
ATOM     16  H   LIG d   1       4.739   1.100  -1.051  0.00  0.00     0.070 H 
BRANCH  14  17
ATOM     17  C   LIG d   1       3.321   0.431  -2.528  0.00  0.00    -0.007 C 
ATOM     18  H   LIG d   1       2.624   0.734  -1.747  0.00  0.00     0.033 H 
BRANCH  17  19
ATOM     19  C   LIG d   1       3.079   1.272  -3.783  0.00  0.00    -0.047 C 
ATOM     20  H   LIG d   1       2.388   2.083  -3.549  0.00  0.00     0.027 H 
ATOM     21  H   LIG d   1       4.024   1.689  -4.130  0.00  0.00     0.027 H 
BRANCH  19  22
ATOM     22  C   LIG d   1       2.476   0.390  -4.879  0.00  0.00    -0.053 C 
ATOM     23  H   LIG d   1       2.783  -0.644  -4.722  0.00  0.00     0.026 H 
ATOM     24  H   LIG d   1       1.389   0.457  -4.843  0.00  0.00     0.026 H 
BRANCH  22  25
ATOM     25  C   LIG d   1       2.971   0.868  -6.246  0.00  0.00    -0.056 C 
ATOM     26  H   LIG d   1       2.540   1.842  -6.470  0.00  0.00     0.026 H 
ATOM     27  H   LIG d   1       4.059   0.946  -6.232  0.00  0.00     0.026 H 
BRANCH  25  28
ATOM     28  C   LIG d   1       2.548  -0.136  -7.321  0.00  0.00    -0.065 C 
ATOM     29  H   LIG d   1       2.100  -1.009  -6.846  0.00  0.00     0.023 H 
ATOM     30  H   LIG d   1       1.820   0.329  -7.986  0.00  0.00     0.023 H 
ATOM     31  H   LIG d   1       3.421  -0.444  -7.896  0.00  0.00     0.023 H 
ENDBRANCH  25  28
ENDBRANCH  22  25
ENDBRANCH  19  22
ENDBRANCH  17  19
BRANCH  17  32
ATOM     32  C   LIG d   1       3.109  -1.048  -2.857  0.00  0.00    -0.050 C 
ATOM     33  H   LIG d   1       2.088  -1.333  -2.605  0.00  0.00     0.027 H 
ATOM     34  H   LIG d   1       3.280  -1.212  -3.921  0.00  0.00     0.027 H 
BRANCH  32  35
ATOM     35  C   LIG d   1       4.090  -1.896  -2.045  0.00  0.00    -0.065 C 
ATOM     36  H   LIG d   1       5.057  -1.394  -2.004  0.00  0.00     0.023 H 
ATOM     37  H   LIG d   1       3.706  -2.030  -1.034  0.00  0.00     0.023 H 
ATOM     38  H   LIG d   1       4.207  -2.871  -2.520  0.00  0.00     0.023 H 
ENDBRANCH  32  35
ENDBRANCH  17  32
ENDBRANCH  14  17
ENDBRANCH  13  14
ENDBRANCH  11  13
ENDBRANCH   1  11
BRANCH   5  39
ATOM     39  C   LIG d   1       5.934  -1.567  -7.621  0.00  0.00     0.339 C 
ATOM     40  O   LIG d   1       5.762  -2.648  -8.146  0.00  0.00    -0.245 OA
BRANCH  39  41
ATOM     41  O   LIG d   1       5.752  -0.436  -8.332  0.00  0.00    -0.461 OA
BRANCH  41  42
ATOM     42  C   LIG d   1       5.388  -0.587  -9.729  0.00  0.00     0.096 C 
ATOM     43  H   LIG d   1       6.203  -1.068 -10.267  0.00  0.00     0.070 H 
ATOM     44  H   LIG d   1       4.490  -1.201  -9.805  0.00  0.00     0.070 H 
BRANCH  42  45
ATOM     45  C   LIG d   1       5.118   0.791 -10.337  0.00  0.00    -0.007 C 
ATOM     46  H   LIG d   1       5.842   0.988 -11.127  0.00  0.00     0.033 H 
BRANCH  45  47
ATOM     47  C   LIG d   1       5.243   1.861  -9.250  0.00  0.00    -0.050 C 
ATOM     48  H   LIG d   1       5.367   1.380  -8.280  0.00  0.00     0.027 H 
ATOM     49  H   LIG d   1       6.110   2.490  -9.457  0.00  0.00     0.027 H 
BRANCH  47  50
ATOM     50  C   LIG d   1       3.980   2.723  -9.236  0.00  0.00    -0.065 C 
ATOM     51  H   LIG d   1       3.380   2.475  -8.360  0.00  0.00     0.023 H 
ATOM     52  H   LIG d   1       4.259   3.776  -9.199  0.00  0.00     0.023 H 
ATOM     53  H   LIG d   1       3.400   2.532 -10.139  0.00  0.00     0.023 H 
ENDBRANCH  47  50
ENDBRANCH  45  47
BRANCH  45  54
ATOM     54  C   LIG d   1       3.703   0.821 -10.922  0.00  0.00    -0.047 C 
ATOM     55  H   LIG d   1       3.015   1.237 -10.186  0.00  0.00     0.027 H 
ATOM     56  H   LIG d   1       3.695   1.440 -11.819  0.00  0.00     0.027 H 
BRANCH  54  57
ATOM     57  C   LIG d   1       3.270  -0.602 -11.280  0.00  0.00    -0.053 C 
ATOM     58  H   LIG d   1       3.457  -0.784 -12.338  0.00  0.00     0.026 H 
ATOM     59  H   LIG d   1       3.837  -1.315 -10.682  0.00  0.00     0.026 H 
BRANCH  57  60
ATOM     60  C   LIG d   1       1.777  -0.768 -10.990  0.00  0.00    -0.056 C 
ATOM     61  H   LIG d   1       1.431   0.064 -10.377  0.00  0.00     0.026 H 
ATOM     62  H   LIG d   1       1.223  -0.781 -11.929  0.00  0.00     0.026 H 
BRANCH  60  63
ATOM     63  C   LIG d   1       1.545  -2.083 -10.243  0.00  0.00    -0.065 C 
ATOM     64  H   LIG d   1       2.292  -2.192  -9.458  0.00  0.00     0.023 H 
ATOM     65  H   LIG d   1       0.549  -2.077  -9.800  0.00  0.00     0.023 H 
ATOM     66  H   LIG d   1       1.626  -2.916 -10.941  0.00  0.00     0.023 H 
ENDBRANCH  60  63
ENDBRANCH  57  60
ENDBRANCH  54  57
ENDBRANCH  45  54
ENDBRANCH  42  45
ENDBRANCH  41  42
ENDBRANCH  39  41
ENDBRANCH   5  39
TORSDOF 20
ENDMDL
MODEL 2
REMARK VINA RESULT:      -5.4      1.813      3.743
REMARK  20 active torsions:
REMARK  status: ('A' for Active; 'I' for Inactive)
REMARK    1  A    between atoms: C_1  and  C_2 
REMARK    2  A    between atoms: C_2  and  C_3 
REMARK    3  A    between atoms: C_3  and  C_4 
REMARK    4  A    between atoms: C_4  and  C_5 
REMARK    5  A    between atoms: C_5  and  C_7 
REMARK    6  A    between atoms: C_5  and  C_9 
REMARK    7  A    between atoms: C_7  and  C_8 
REMARK    8  A    between atoms: C_9  and  O_10 
REMARK    9  A    between atoms: O_10  and  C_11 
REMARK   10  A    between atoms: C_11  and  C_13 
REMARK   11  A    between atoms: C_17  and  C_19 
REMARK   12  A    between atoms: C_19  and  O_21 
REMARK   13  A    between atoms: O_21  and  C_22 
REMARK   14  A    between atoms: C_22  and  C_23 
REMARK   15  A    between atoms: C_23  and  C_25 
REMARK   16  A    between atoms: C_23  and  C_27 
REMARK   17  A    between atoms: C_25  and  C_26 
REMARK   18  A    between atoms: C_27  and  C_28 
REMARK   19  A    between atoms: C_28  and  C_29 
REMARK   20  A    between atoms: C_29  and  C_30 
ROOT
ATOM      1  C   LIG d   1       4.256  -0.537  -6.713  0.00  0.00     0.060 A 
ATOM      2  C   LIG d   1       5.597  -0.162  -6.602  0.00  0.00    -0.048 A 
ATOM      3  C   LIG d   1       6.542  -0.709  -7.448  0.00  0.00    -0.060 A 
ATOM      4  C   LIG d   1       6.168  -1.623  -8.412  0.00  0.00    -0.048 A 
ATOM      5  C   LIG d   1       4.831  -2.010  -8.531  0.00  0.00     0.060 A 
ATOM      6  C   LIG d   1       3.872  -1.463  -7.680  0.00  0.00    -0.034 A 
ATOM      7  H   LIG d   1       5.896   0.556  -5.853  0.00  0.00     0.063 H 
ATOM      8  H   LIG d   1       7.578  -0.415  -7.358  0.00  0.00     0.062 H 
ATOM      9  H   LIG d   1       6.912  -2.043  -9.074  0.00  0.00     0.063 H 
ATOM     10  H   LIG d   1       2.836  -1.756  -7.771  0.00  0.00     0.063 H 
ENDROOT
BRANCH   1  11
ATOM     11  C   LIG d   1       3.246   0.049  -5.807  0.00  0.00     0.339 C 
ATOM     12  O   LIG d   1       2.131   0.295  -6.219  0.00  0.00    -0.245 OA
BRANCH  11  13
ATOM     13  O   LIG d   1       3.563   0.310  -4.524  0.00  0.00    -0.461 OA
BRANCH  13  14
ATOM     14  C   LIG d   1       2.858  -0.447  -3.504  0.00  0.00     0.096 C 
ATOM     15  H   LIG d   1       2.249   0.231  -2.906  0.00  0.00     0.070 H 
ATOM     16  H   LIG d   1       2.218  -1.188  -3.981  0.00  0.00     0.070 H 
BRANCH  14  17
ATOM     17  C   LIG d   1       3.872  -1.153  -2.602  0.00  0.00    -0.007 C 
ATOM     18  H   LIG d   1       3.396  -1.414  -1.656  0.00  0.00     0.033 H 
BRANCH  17  19
ATOM     19  C   LIG d   1       4.367  -2.425  -3.291  0.00  0.00    -0.047 C 
ATOM     20  H   LIG d   1       4.222  -3.279  -2.628  0.00  0.00     0.027 H 
ATOM     21  H   LIG d   1       3.807  -2.582  -4.212  0.00  0.00     0.027 H 
BRANCH  19  22
ATOM     22  C   LIG d   1       5.856  -2.282  -3.616  0.00  0.00    -0.053 C 
ATOM     23  H   LIG d   1       6.050  -1.278  -3.995  0.00  0.00     0.026 H 
ATOM     24  H   LIG d   1       6.443  -2.450  -2.714  0.00  0.00     0.026 H 
BRANCH  22  25
ATOM     25  C   LIG d   1       6.247  -3.312  -4.678  0.00  0.00    -0.056 C 
ATOM     26  H   LIG d   1       6.746  -2.810  -5.506  0.00  0.00     0.026 H 
ATOM     27  H   LIG d   1       6.921  -4.049  -4.240  0.00  0.00     0.026 H 
BRANCH  25  28
ATOM     28  C   LIG d   1       4.989  -4.016  -5.192  0.00  0.00    -0.065 C 
ATOM     29  H   LIG d   1       5.211  -4.510  -6.138  0.00  0.00     0.023 H 
ATOM     30  H   LIG d   1       4.663  -4.758  -4.463  0.00  0.00     0.023 H 
ATOM     31  H   LIG d   1       4.198  -3.282  -5.343  0.00  0.00     0.023 H 
ENDBRANCH  25  28
ENDBRANCH  22  25
ENDBRANCH  19  22
ENDBRANCH  17  19
BRANCH  17  32
ATOM     32  C   LIG d   1       5.056  -0.221  -2.337  0.00  0.00    -0.050 C 
ATOM     33  H   LIG d   1       5.808  -0.748  -1.749  0.00  0.00     0.027 H 
ATOM     34  H   LIG d   1       5.491   0.092  -3.287  0.00  0.00     0.027 H 
BRANCH  32  35
ATOM     35  C   LIG d   1       4.574   1.010  -1.566  0.00  0.00    -0.065 C 
ATOM     36  H   LIG d   1       4.167   1.739  -2.265  0.00  0.00     0.023 H 
ATOM     37  H   LIG d   1       3.802   0.715  -0.856  0.00  0.00     0.023 H 
ATOM     38  H   LIG d   1       5.413   1.451  -1.027  0.00  0.00     0.023 H 
ENDBRANCH  32  35
ENDBRANCH  17  32
ENDBRANCH  14  17
ENDBRANCH  13  14
ENDBRANCH  11  13
ENDBRANCH   1  11
BRANCH   5  39
ATOM     39  C   LIG d   1       4.433  -2.993  -9.560  0.00  0.00     0.339 C 
ATOM     40  O   LIG d   1       4.248  -4.153  -9.252  0.00  0.00    -0.245 OA
BRANCH  39  41
ATOM     41  O   LIG d   1       4.275  -2.602 -10.840  0.00  0.00    -0.461 OA
BRANCH  41  42
ATOM     42  C   LIG d   1       2.991  -2.026 -11.199  0.00  0.00     0.096 C 
ATOM     43  H   LIG d   1       2.501  -2.663 -11.934  0.00  0.00     0.070 H 
ATOM     44  H   LIG d   1       2.367  -1.950 -10.309  0.00  0.00     0.070 H 
BRANCH  42  45
ATOM     45  C   LIG d   1       3.207  -0.633 -11.793  0.00  0.00    -0.007 C 
ATOM     46  H   LIG d   1       2.431  -0.428 -12.531  0.00  0.00     0.033 H 
BRANCH  45  47
ATOM     47  C   LIG d   1       4.580  -0.572 -12.466  0.00  0.00    -0.050 C 
ATOM     48  H   LIG d   1       5.083   0.353 -12.181  0.00  0.00     0.027 H 
ATOM     49  H   LIG d   1       5.179  -1.425 -12.147  0.00  0.00     0.027 H 
BRANCH  47  50
ATOM     50  C   LIG d   1       4.405  -0.610 -13.985  0.00  0.00    -0.065 C 
ATOM     51  H   LIG d   1       3.386  -0.320 -14.241  0.00  0.00     0.023 H 
ATOM     52  H   LIG d   1       5.108   0.082 -14.449  0.00  0.00     0.023 H 
ATOM     53  H   LIG d   1       4.597  -1.621 -14.347  0.00  0.00     0.023 H 
ENDBRANCH  47  50
ENDBRANCH  45  47
BRANCH  45  54
ATOM     54  C   LIG d   1       3.138   0.413 -10.677  0.00  0.00    -0.047 C 
ATOM     55  H   LIG d   1       2.359   1.139 -10.908  0.00  0.00     0.027 H 
ATOM     56  H   LIG d   1       2.908  -0.079  -9.732  0.00  0.00     0.027 H 
BRANCH  54  57
ATOM     57  C   LIG d   1       4.487   1.128 -10.566  0.00  0.00    -0.053 C 
ATOM     58  H   LIG d   1       5.276   0.393 -10.411  0.00  0.00     0.026 H 
ATOM     59  H   LIG d   1       4.680   1.682 -11.483  0.00  0.00     0.026 H 
BRANCH  57  60
ATOM     60  C   LIG d   1       4.452   2.096  -9.382  0.00  0.00    -0.056 C 
ATOM     61  H   LIG d   1       5.079   1.711  -8.578  0.00  0.00     0.026 H 
ATOM     62  H   LIG d   1       4.827   3.071  -9.698  0.00  0.00     0.026 H 
BRANCH  60  63
ATOM     63  C   LIG d   1       3.013   2.242  -8.884  0.00  0.00    -0.065 C 
ATOM     64  H   LIG d   1       2.784   3.297  -8.735  0.00  0.00     0.023 H 
ATOM     65  H   LIG d   1       2.329   1.822  -9.622  0.00  0.00     0.023 H 
ATOM     66  H   LIG d   1       2.899   1.709  -7.940  0.00  0.00     0.023 H 
ENDBRANCH  60  63
ENDBRANCH  57  60
ENDBRANCH  54  57
ENDBRANCH  45  54
ENDBRANCH  42  45
ENDBRANCH  41  42
ENDBRANCH  39  41
ENDBRANCH   5  39
TORSDOF 20
ENDMDL
MODEL 3
REMARK VINA RESULT:      -5.3      1.993      6.088
REMARK  20 active torsions:
REMARK  status: ('A' for Active; 'I' for Inactive)
REMARK    1  A    between atoms: C_1  and  C_2 
REMARK    2  A    between atoms: C_2  and  C_3 
REMARK    3  A    between atoms: C_3  and  C_4 
REMARK    4  A    between atoms: C_4  and  C_5 
REMARK    5  A    between atoms: C_5  and  C_7 
REMARK    6  A    between atoms: C_5  and  C_9 
REMARK    7  A    between atoms: C_7  and  C_8 
REMARK    8  A    between atoms: C_9  and  O_10 
REMARK    9  A    between atoms: O_10  and  C_11 
REMARK   10  A    between atoms: C_11  and  C_13 
REMARK   11  A    between atoms: C_17  and  C_19 
REMARK   12  A    between atoms: C_19  and  O_21 
REMARK   13  A    between atoms: O_21  and  C_22 
REMARK   14  A    between atoms: C_22  and  C_23 
REMARK   15  A    between atoms: C_23  and  C_25 
REMARK   16  A    between atoms: C_23  and  C_27 
REMARK   17  A    between atoms: C_25  and  C_26 
REMARK   18  A    between atoms: C_27  and  C_28 
REMARK   19  A    between atoms: C_28  and  C_29 
REMARK   20  A    between atoms: C_29  and  C_30 
ROOT
ATOM      1  C   LIG d   1       3.364  -0.337  -4.566  0.00  0.00     0.060 A 
ATOM      2  C   LIG d   1       3.218  -0.276  -3.178  0.00  0.00    -0.048 A 
ATOM      3  C   LIG d   1       3.628  -1.334  -2.391  0.00  0.00    -0.060 A 
ATOM      4  C   LIG d   1       4.190  -2.456  -2.969  0.00  0.00    -0.048 A 
ATOM      5  C   LIG d   1       4.337  -2.531  -4.356  0.00  0.00     0.060 A 
ATOM      6  C   LIG d   1       3.925  -1.467  -5.157  0.00  0.00    -0.034 A 
ATOM      7  H   LIG d   1       2.784   0.600  -2.719  0.00  0.00     0.063 H 
ATOM      8  H   LIG d   1       3.513  -1.283  -1.318  0.00  0.00     0.062 H 
ATOM      9  H   LIG d   1       4.513  -3.278  -2.347  0.00  0.00     0.063 H 
ATOM     10  H   LIG d   1       4.040  -1.519  -6.229  0.00  0.00     0.063 H 
ENDROOT
BRANCH   1  11
ATOM     11  C   LIG d   1       2.925   0.797  -5.407  0.00  0.00     0.339 C 
ATOM     12  O   LIG d   1       2.541   1.825  -4.887  0.00  0.00    -0.245 OA
BRANCH  11  13
ATOM     13  O   LIG d   1       2.952   0.690  -6.749  0.00  0.00    -0.461 OA
BRANCH  13  14
ATOM     14  C   LIG d   1       2.674   1.894  -7.512  0.00  0.00     0.096 C 
ATOM     15  H   LIG d   1       1.710   2.302  -7.208  0.00  0.00     0.070 H 
ATOM     16  H   LIG d   1       3.456   2.629  -7.327  0.00  0.00     0.070 H 
BRANCH  14  17
ATOM     17  C   LIG d   1       2.635   1.555  -9.003  0.00  0.00    -0.007 C 
ATOM     18  H   LIG d   1       1.676   1.862  -9.421  0.00  0.00     0.033 H 
BRANCH  17  19
ATOM     19  C   LIG d   1       3.765   2.293  -9.723  0.00  0.00    -0.047 C 
ATOM     20  H   LIG d   1       3.415   2.633 -10.698  0.00  0.00     0.027 H 
ATOM     21  H   LIG d   1       4.074   3.154  -9.129  0.00  0.00     0.027 H 
BRANCH  19  22
ATOM     22  C   LIG d   1       4.955   1.349  -9.910  0.00  0.00    -0.053 C 
ATOM     23  H   LIG d   1       4.650   0.330  -9.670  0.00  0.00     0.026 H 
ATOM     24  H   LIG d   1       5.294   1.393 -10.944  0.00  0.00     0.026 H 
BRANCH  22  25
ATOM     25  C   LIG d   1       6.094   1.773  -8.980  0.00  0.00    -0.056 C 
ATOM     26  H   LIG d   1       7.006   1.908  -9.560  0.00  0.00     0.026 H 
ATOM     27  H   LIG d   1       5.832   2.711  -8.489  0.00  0.00     0.026 H 
BRANCH  25  28
ATOM     28  C   LIG d   1       6.317   0.690  -7.922  0.00  0.00    -0.065 C 
ATOM     29  H   LIG d   1       6.167  -0.292  -8.370  0.00  0.00     0.023 H 
ATOM     30  H   LIG d   1       7.335   0.762  -7.538  0.00  0.00     0.023 H 
ATOM     31  H   LIG d   1       5.609   0.828  -7.105  0.00  0.00     0.023 H 
ENDBRANCH  25  28
ENDBRANCH  22  25
ENDBRANCH  19  22
ENDBRANCH  17  19
BRANCH  17  32
ATOM     32  C   LIG d   1       2.813   0.047  -9.188  0.00  0.00    -0.050 C 
ATOM     33  H   LIG d   1       3.721  -0.144  -9.761  0.00  0.00     0.027 H 
ATOM     34  H   LIG d   1       2.892  -0.433  -8.212  0.00  0.00     0.027 H 
BRANCH  32  35
ATOM     35  C   LIG d   1       1.607  -0.521  -9.940  0.00  0.00    -0.065 C 
ATOM     36  H   LIG d   1       1.216   0.235 -10.622  0.00  0.00     0.023 H 
ATOM     37  H   LIG d   1       1.912  -1.400 -10.507  0.00  0.00     0.023 H 
ATOM     38  H   LIG d   1       0.833  -0.801  -9.225  0.00  0.00     0.023 H 
ENDBRANCH  32  35
ENDBRANCH  17  32
ENDBRANCH  14  17
ENDBRANCH  13  14
ENDBRANCH  11  13
ENDBRANCH   1  11
BRANCH   5  39
ATOM     39  C   LIG d   1       4.932  -3.734  -4.974  0.00  0.00     0.339 C 
ATOM     40  O   LIG d   1       4.227  -4.524  -5.569  0.00  0.00    -0.245 OA
BRANCH  39  41
ATOM     41  O   LIG d   1       6.259  -3.954  -4.877  0.00  0.00    -0.461 OA
BRANCH  41  42
ATOM     42  C   LIG d   1       7.122  -3.162  -5.733  0.00  0.00     0.096 C 
ATOM     43  H   LIG d   1       7.685  -3.822  -6.392  0.00  0.00     0.070 H 
ATOM     44  H   LIG d   1       6.515  -2.483  -6.332  0.00  0.00     0.070 H 
BRANCH  42  45
ATOM     45  C   LIG d   1       8.092  -2.353  -4.870  0.00  0.00    -0.007 C 
ATOM     46  H   LIG d   1       9.102  -2.451  -5.267  0.00  0.00     0.033 H 
BRANCH  45  47
ATOM     47  C   LIG d   1       8.056  -2.879  -3.433  0.00  0.00    -0.050 C 
ATOM     48  H   LIG d   1       8.126  -2.041  -2.738  0.00  0.00     0.027 H 
ATOM     49  H   LIG d   1       7.122  -3.414  -3.265  0.00  0.00     0.027 H 
BRANCH  47  50
ATOM     50  C   LIG d   1       9.235  -3.827  -3.208  0.00  0.00    -0.065 C 
ATOM     51  H   LIG d   1       8.885  -4.729  -2.706  0.00  0.00     0.023 H 
ATOM     52  H   LIG d   1       9.676  -4.093  -4.169  0.00  0.00     0.023 H 
ATOM     53  H   LIG d   1       9.984  -3.334  -2.588  0.00  0.00     0.023 H 
ENDBRANCH  47  50
ENDBRANCH  45  47
BRANCH  45  54
ATOM     54  C   LIG d   1       7.679  -0.879  -4.884  0.00  0.00    -0.047 C 
ATOM     55  H   LIG d   1       8.538  -0.264  -5.154  0.00  0.00     0.027 H 
ATOM     56  H   LIG d   1       6.884  -0.732  -5.615  0.00  0.00     0.027 H 
BRANCH  54  57
ATOM     57  C   LIG d   1       7.178  -0.477  -3.496  0.00  0.00    -0.053 C 
ATOM     58  H   LIG d   1       6.349  -1.122  -3.208  0.00  0.00     0.026 H 
ATOM     59  H   LIG d   1       7.987  -0.579  -2.774  0.00  0.00     0.026 H 
BRANCH  57  60
ATOM     60  C   LIG d   1       6.705   0.978  -3.527  0.00  0.00    -0.056 C 
ATOM     61  H   LIG d   1       5.842   1.066  -4.187  0.00  0.00     0.026 H 
ATOM     62  H   LIG d   1       6.425   1.292  -2.521  0.00  0.00     0.026 H 
BRANCH  60  63
ATOM     63  C   LIG d   1       7.835   1.871  -4.043  0.00  0.00    -0.065 C 
ATOM     64  H   LIG d   1       8.070   1.603  -5.072  0.00  0.00     0.023 H 
ATOM     65  H   LIG d   1       7.520   2.914  -4.001  0.00  0.00     0.023 H 
ATOM     66  H   LIG d   1       8.719   1.734  -3.421  0.00  0.00     0.023 H 
ENDBRANCH  60  63
ENDBRANCH  57  60
ENDBRANCH  54  57
ENDBRANCH  45  54
ENDBRANCH  42  45
ENDBRANCH  41  42
ENDBRANCH  39  41
ENDBRANCH   5  39
TORSDOF 20
ENDMDL
MODEL 4
REMARK VINA RESULT:      -5.3      1.007      6.141
REMARK  20 active torsions:
REMARK  status: ('A' for Active; 'I' for Inactive)
REMARK    1  A    between atoms: C_1  and  C_2 
REMARK    2  A    between atoms: C_2  and  C_3 
REMARK    3  A    between atoms: C_3  and  C_4 
REMARK    4  A    between atoms: C_4  and  C_5 
REMARK    5  A    between atoms: C_5  and  C_7 
REMARK    6  A    between atoms: C_5  and  C_9 
REMARK    7  A    between atoms: C_7  and  C_8 
REMARK    8  A    between atoms: C_9  and  O_10 
REMARK    9  A    between atoms: O_10  and  C_11 
REMARK   10  A    between atoms: C_11  and  C_13 
REMARK   11  A    between atoms: C_17  and  C_19 
REMARK   12  A    between atoms: C_19  and  O_21 
REMARK   13  A    between atoms: O_21  and  C_22 
REMARK   14  A    between atoms: C_22  and  C_23 
REMARK   15  A    between atoms: C_23  and  C_25 
REMARK   16  A    between atoms: C_23  and  C_27 
REMARK   17  A    between atoms: C_25  and  C_26 
REMARK   18  A    between atoms: C_27  and  C_28 
REMARK   19  A    between atoms: C_28  and  C_29 
REMARK   20  A    between atoms: C_29  and  C_30 
ROOT
ATOM      1  C   LIG d   1       6.954  -0.824  -6.957  0.00  0.00     0.060 A 
ATOM      2  C   LIG d   1       6.798  -2.149  -6.546  0.00  0.00    -0.048 A 
ATOM      3  C   LIG d   1       6.666  -2.448  -5.204  0.00  0.00    -0.060 A 
ATOM      4  C   LIG d   1       6.681  -1.440  -4.261  0.00  0.00    -0.048 A 
ATOM      5  C   LIG d   1       6.841  -0.110  -4.658  0.00  0.00     0.060 A 
ATOM      6  C   LIG d   1       6.975   0.199  -6.011  0.00  0.00    -0.034 A 
ATOM      7  H   LIG d   1       6.781  -2.943  -7.279  0.00  0.00     0.063 H 
ATOM      8  H   LIG d   1       6.546  -3.475  -4.891  0.00  0.00     0.062 H 
ATOM      9  H   LIG d   1       6.573  -1.681  -3.213  0.00  0.00     0.063 H 
ATOM     10  H   LIG d   1       7.094   1.226  -6.323  0.00  0.00     0.063 H 
ENDROOT
BRANCH   1  11
ATOM     11  C   LIG d   1       7.094  -0.505  -8.394  0.00  0.00     0.339 C 
ATOM     12  O   LIG d   1       8.198  -0.376  -8.882  0.00  0.00    -0.245 OA
BRANCH  11  13
ATOM     13  O   LIG d   1       5.996  -0.359  -9.161  0.00  0.00    -0.461 OA
BRANCH  13  14
ATOM     14  C   LIG d   1       5.749   0.962  -9.711  0.00  0.00     0.096 C 
ATOM     15  H   LIG d   1       5.525   1.656  -8.901  0.00  0.00     0.070 H 
ATOM     16  H   LIG d   1       6.633   1.303 -10.249  0.00  0.00     0.070 H 
BRANCH  14  17
ATOM     17  C   LIG d   1       4.560   0.899 -10.672  0.00  0.00    -0.007 C 
ATOM     18  H   LIG d   1       4.911   1.049 -11.694  0.00  0.00     0.033 H 
BRANCH  17  19
ATOM     19  C   LIG d   1       3.886  -0.469 -10.560  0.00  0.00    -0.047 C 
ATOM     20  H   LIG d   1       4.644  -1.236 -10.396  0.00  0.00     0.027 H 
ATOM     21  H   LIG d   1       3.189  -0.465  -9.723  0.00  0.00     0.027 H 
BRANCH  19  22
ATOM     22  C   LIG d   1       3.128  -0.772 -11.855  0.00  0.00    -0.053 C 
ATOM     23  H   LIG d   1       3.240   0.064 -12.545  0.00  0.00     0.026 H 
ATOM     24  H   LIG d   1       3.532  -1.676 -12.310  0.00  0.00     0.026 H 
BRANCH  22  25
ATOM     25  C   LIG d   1       1.645  -0.979 -11.540  0.00  0.00    -0.056 C 
ATOM     26  H   LIG d   1       1.068  -0.145 -11.938  0.00  0.00     0.026 H 
ATOM     27  H   LIG d   1       1.302  -1.908 -11.996  0.00  0.00     0.026 H 
BRANCH  25  28
ATOM     28  C   LIG d   1       1.452  -1.055 -10.024  0.00  0.00    -0.065 C 
ATOM     29  H   LIG d   1       0.666  -0.363  -9.723  0.00  0.00     0.023 H 
ATOM     30  H   LIG d   1       1.168  -2.070  -9.744  0.00  0.00     0.023 H 
ATOM     31  H   LIG d   1       2.383  -0.787  -9.525  0.00  0.00     0.023 H 
ENDBRANCH  25  28
ENDBRANCH  22  25
ENDBRANCH  19  22
ENDBRANCH  17  19
BRANCH  17  32
ATOM     32  C   LIG d   1       3.554   1.994 -10.312  0.00  0.00    -0.050 C 
ATOM     33  H   LIG d   1       3.364   2.614 -11.188  0.00  0.00     0.027 H 
ATOM     34  H   LIG d   1       2.621   1.536  -9.982  0.00  0.00     0.027 H 
BRANCH  32  35
ATOM     35  C   LIG d   1       4.124   2.860  -9.187  0.00  0.00    -0.065 C 
ATOM     36  H   LIG d   1       4.809   2.266  -8.583  0.00  0.00     0.023 H 
ATOM     37  H   LIG d   1       4.658   3.708  -9.616  0.00  0.00     0.023 H 
ATOM     38  H   LIG d   1       3.309   3.225  -8.561  0.00  0.00     0.023 H 
ENDBRANCH  32  35
ENDBRANCH  17  32
ENDBRANCH  14  17
ENDBRANCH  13  14
ENDBRANCH  11  13
ENDBRANCH   1  11
BRANCH   5  39
ATOM     39  C   LIG d   1       6.862   0.968  -3.647  0.00  0.00     0.339 C 
ATOM     40  O   LIG d   1       7.641   1.892  -3.762  0.00  0.00    -0.245 OA
BRANCH  39  41
ATOM     41  O   LIG d   1       6.017   0.924  -2.599  0.00  0.00    -0.461 OA
BRANCH  41  42
ATOM     42  C   LIG d   1       4.652   1.358  -2.835  0.00  0.00     0.096 C 
ATOM     43  H   LIG d   1       4.498   2.336  -2.380  0.00  0.00     0.070 H 
ATOM     44  H   LIG d   1       4.473   1.424  -3.908  0.00  0.00     0.070 H 
BRANCH  42  45
ATOM     45  C   LIG d   1       3.683   0.349  -2.216  0.00  0.00    -0.007 C 
ATOM     46  H   LIG d   1       3.139   0.820  -1.398  0.00  0.00     0.033 H 
BRANCH  45  47
ATOM     47  C   LIG d   1       4.468  -0.852  -1.683  0.00  0.00    -0.050 C 
ATOM     48  H   LIG d   1       5.508  -0.775  -2.000  0.00  0.00     0.027 H 
ATOM     49  H   LIG d   1       4.420  -0.862  -0.594  0.00  0.00     0.027 H 
BRANCH  47  50
ATOM     50  C   LIG d   1       3.860  -2.143  -2.232  0.00  0.00    -0.065 C 
ATOM     51  H   LIG d   1       4.558  -2.605  -2.931  0.00  0.00     0.023 H 
ATOM     52  H   LIG d   1       3.660  -2.830  -1.409  0.00  0.00     0.023 H 
ATOM     53  H   LIG d   1       2.927  -1.914  -2.749  0.00  0.00     0.023 H 
ENDBRANCH  47  50
ENDBRANCH  45  47
BRANCH  45  54
ATOM     54  C   LIG d   1       2.690  -0.124  -3.282  0.00  0.00    -0.047 C 
ATOM     55  H   LIG d   1       2.781  -1.202  -3.411  0.00  0.00     0.027 H 
ATOM     56  H   LIG d   1       1.676   0.120  -2.968  0.00  0.00     0.027 H 
BRANCH  54  57
ATOM     57  C   LIG d   1       2.996   0.577  -4.608  0.00  0.00    -0.053 C 
ATOM     58  H   LIG d   1       2.120   1.136  -4.934  0.00  0.00     0.026 H 
ATOM     59  H   LIG d   1       3.835   1.258  -4.474  0.00  0.00     0.026 H 
BRANCH  57  60
ATOM     60  C   LIG d   1       3.355  -0.470  -5.665  0.00  0.00    -0.056 C 
ATOM     61  H   LIG d   1       4.395  -0.769  -5.543  0.00  0.00     0.026 H 
ATOM     62  H   LIG d   1       2.710  -1.342  -5.548  0.00  0.00     0.026 H 
BRANCH  60  63
ATOM     63  C   LIG d   1       3.155   0.125  -7.060  0.00  0.00    -0.065 C 
ATOM     64  H   LIG d   1       2.937  -0.673  -7.769  0.00  0.00     0.023 H 
ATOM     65  H   LIG d   1       2.322   0.829  -7.039  0.00  0.00     0.023 H 
ATOM     66  H   LIG d   1       4.061   0.647  -7.367  0.00  0.00     0.023 H 
ENDBRANCH  60  63
ENDBRANCH  57  60
ENDBRANCH  54  57
ENDBRANCH  45  54
ENDBRANCH  42  45
ENDBRANCH  41  42
ENDBRANCH  39  41
ENDBRANCH   5  39
TORSDOF 20
ENDMDL
MODEL 5
REMARK VINA RESULT:      -5.3      1.982      4.804
REMARK  20 active torsions:
REMARK  status: ('A' for Active; 'I' for Inactive)
REMARK    1  A    between atoms: C_1  and  C_2 
REMARK    2  A    between atoms: C_2  and  C_3 
REMARK    3  A    between atoms: C_3  and  C_4 
REMARK    4  A    between atoms: C_4  and  C_5 
REMARK    5  A    between atoms: C_5  and  C_7 
REMARK    6  A    between atoms: C_5  and  C_9 
REMARK    7  A    between atoms: C_7  and  C_8 
REMARK    8  A    between atoms: C_9  and  O_10 
REMARK    9  A    between atoms: O_10  and  C_11 
REMARK   10  A    between atoms: C_11  and  C_13 
REMARK   11  A    between atoms: C_17  and  C_19 
REMARK   12  A    between atoms: C_19  and  O_21 
REMARK   13  A    between atoms: O_21  and  C_22 
REMARK   14  A    between atoms: C_22  and  C_23 
REMARK   15  A    between atoms: C_23  and  C_25 
REMARK   16  A    between atoms: C_23  and  C_27 
REMARK   17  A    between atoms: C_25  and  C_26 
REMARK   18  A    between atoms: C_27  and  C_28 
REMARK   19  A    between atoms: C_28  and  C_29 
REMARK   20  A    between atoms: C_29  and  C_30 
ROOT
ATOM      1  C   LIG d   1       4.326  -2.535  -4.361  0.00  0.00     0.060 A 
ATOM      2  C   LIG d   1       4.161  -2.425  -2.979  0.00  0.00    -0.048 A 
ATOM      3  C   LIG d   1       3.600  -1.286  -2.436  0.00  0.00    -0.060 A 
ATOM      4  C   LIG d   1       3.193  -0.252  -3.255  0.00  0.00    -0.048 A 
ATOM      5  C   LIG d   1       3.356  -0.347  -4.639  0.00  0.00     0.060 A 
ATOM      6  C   LIG d   1       3.922  -1.493  -5.194  0.00  0.00    -0.034 A 
ATOM      7  H   LIG d   1       4.473  -3.233  -2.333  0.00  0.00     0.063 H 
ATOM      8  H   LIG d   1       3.475  -1.206  -1.366  0.00  0.00     0.062 H 
ATOM      9  H   LIG d   1       2.750   0.635  -2.823  0.00  0.00     0.063 H 
ATOM     10  H   LIG d   1       4.046  -1.573  -6.263  0.00  0.00     0.063 H 
ENDROOT
BRANCH   1  11
ATOM     11  C   LIG d   1       4.926  -3.755  -4.941  0.00  0.00     0.339 C 
ATOM     12  O   LIG d   1       4.222  -4.571  -5.501  0.00  0.00    -0.245 OA
BRANCH  11  13
ATOM     13  O   LIG d   1       6.254  -3.962  -4.847  0.00  0.00    -0.461 OA
BRANCH  13  14
ATOM     14  C   LIG d   1       7.105  -3.183  -5.729  0.00  0.00     0.096 C 
ATOM     15  H   LIG d   1       7.663  -3.854  -6.382  0.00  0.00     0.070 H 
ATOM     16  H   LIG d   1       6.489  -2.517  -6.333  0.00  0.00     0.070 H 
BRANCH  14  17
ATOM     17  C   LIG d   1       8.083  -2.355  -4.894  0.00  0.00    -0.007 C 
ATOM     18  H   LIG d   1       9.085  -2.442  -5.315  0.00  0.00     0.033 H 
BRANCH  17  19
ATOM     19  C   LIG d   1       7.650  -0.888  -4.908  0.00  0.00    -0.047 C 
ATOM     20  H   LIG d   1       8.497  -0.261  -5.189  0.00  0.00     0.027 H 
ATOM     21  H   LIG d   1       6.844  -0.753  -5.629  0.00  0.00     0.027 H 
BRANCH  19  22
ATOM     22  C   LIG d   1       7.161  -0.487  -3.514  0.00  0.00    -0.053 C 
ATOM     23  H   LIG d   1       6.325  -1.125  -3.225  0.00  0.00     0.026 H 
ATOM     24  H   LIG d   1       7.972  -0.604  -2.796  0.00  0.00     0.026 H 
BRANCH  22  25
ATOM     25  C   LIG d   1       6.704   0.974  -3.535  0.00  0.00    -0.056 C 
ATOM     26  H   LIG d   1       5.902   1.093  -4.261  0.00  0.00     0.026 H 
ATOM     27  H   LIG d   1       6.344   1.256  -2.545  0.00  0.00     0.026 H 
BRANCH  25  28
ATOM     28  C   LIG d   1       7.882   1.870  -3.923  0.00  0.00    -0.065 C 
ATOM     29  H   LIG d   1       8.813   1.314  -3.812  0.00  0.00     0.023 H 
ATOM     30  H   LIG d   1       7.770   2.189  -4.959  0.00  0.00     0.023 H 
ATOM     31  H   LIG d   1       7.902   2.745  -3.273  0.00  0.00     0.023 H 
ENDBRANCH  25  28
ENDBRANCH  22  25
ENDBRANCH  19  22
ENDBRANCH  17  19
BRANCH  17  32
ATOM     32  C   LIG d   1       8.088  -2.871  -3.454  0.00  0.00    -0.050 C 
ATOM     33  H   LIG d   1       8.187  -2.031  -2.767  0.00  0.00     0.027 H 
ATOM     34  H   LIG d   1       7.154  -3.396  -3.253  0.00  0.00     0.027 H 
BRANCH  32  35
ATOM     35  C   LIG d   1       9.264  -3.830  -3.260  0.00  0.00    -0.065 C 
ATOM     36  H   LIG d   1      10.201  -3.283  -3.368  0.00  0.00     0.023 H 
ATOM     37  H   LIG d   1       9.213  -4.272  -2.265  0.00  0.00     0.023 H 
ATOM     38  H   LIG d   1       9.216  -4.620  -4.009  0.00  0.00     0.023 H 
ENDBRANCH  32  35
ENDBRANCH  17  32
ENDBRANCH  14  17
ENDBRANCH  13  14
ENDBRANCH  11  13
ENDBRANCH   1  11
BRANCH   5  39
ATOM     39  C   LIG d   1       2.925   0.764  -5.513  0.00  0.00     0.339 C 
ATOM     40  O   LIG d   1       2.541   1.807  -5.025  0.00  0.00    -0.245 OA
BRANCH  39  41
ATOM     41  O   LIG d   1       2.959   0.618  -6.853  0.00  0.00    -0.461 OA
BRANCH  41  42
ATOM     42  C   LIG d   1       2.841   1.826  -7.650  0.00  0.00     0.096 C 
ATOM     43  H   LIG d   1       2.025   2.436  -7.265  0.00  0.00     0.070 H 
ATOM     44  H   LIG d   1       3.773   2.389  -7.596  0.00  0.00     0.070 H 
BRANCH  42  45
ATOM     45  C   LIG d   1       2.555   1.449  -9.105  0.00  0.00    -0.007 C 
ATOM     46  H   LIG d   1       1.601   1.878  -9.411  0.00  0.00     0.033 H 
BRANCH  45  47
ATOM     47  C   LIG d   1       2.495  -0.074  -9.236  0.00  0.00    -0.050 C 
ATOM     48  H   LIG d   1       3.317  -0.519  -8.674  0.00  0.00     0.027 H 
ATOM     49  H   LIG d   1       1.546  -0.436  -8.840  0.00  0.00     0.027 H 
BRANCH  47  50
ATOM     50  C   LIG d   1       2.615  -0.464 -10.710  0.00  0.00    -0.065 C 
ATOM     51  H   LIG d   1       1.678  -0.909 -11.046  0.00  0.00     0.023 H 
ATOM     52  H   LIG d   1       2.829   0.425 -11.305  0.00  0.00     0.023 H 
ATOM     53  H   LIG d   1       3.423  -1.186 -10.830  0.00  0.00     0.023 H 
ENDBRANCH  47  50
ENDBRANCH  45  47
BRANCH  45  54
ATOM     54  C   LIG d   1       3.671   1.995 -10.001  0.00  0.00    -0.047 C 
ATOM     55  H   LIG d   1       3.944   1.242 -10.740  0.00  0.00     0.027 H 
ATOM     56  H   LIG d   1       3.321   2.893 -10.509  0.00  0.00     0.027 H 
BRANCH  54  57
ATOM     57  C   LIG d   1       4.891   2.336  -9.143  0.00  0.00    -0.053 C 
ATOM     58  H   LIG d   1       5.269   3.318  -9.423  0.00  0.00     0.026 H 
ATOM     59  H   LIG d   1       4.606   2.341  -8.091  0.00  0.00     0.026 H 
BRANCH  57  60
ATOM     60  C   LIG d   1       5.981   1.286  -9.370  0.00  0.00    -0.056 C 
ATOM     61  H   LIG d   1       5.626   0.539 -10.079  0.00  0.00     0.026 H 
ATOM     62  H   LIG d   1       6.874   1.769  -9.768  0.00  0.00     0.026 H 
BRANCH  60  63
ATOM     63  C   LIG d   1       6.321   0.608  -8.041  0.00  0.00    -0.065 C 
ATOM     64  H   LIG d   1       7.149   1.132  -7.566  0.00  0.00     0.023 H 
ATOM     65  H   LIG d   1       5.449   0.636  -7.386  0.00  0.00     0.023 H 
ATOM     66  H   LIG d   1       6.603  -0.428  -8.223  0.00  0.00     0.023 H 
ENDBRANCH  60  63
ENDBRANCH  57  60
ENDBRANCH  54  57
ENDBRANCH  45  54
ENDBRANCH  42  45
ENDBRANCH  41  42
ENDBRANCH  39  41
ENDBRANCH   5  39
TORSDOF 20
ENDMDL
MODEL 6
REMARK VINA RESULT:      -5.3      2.208      5.056
REMARK  20 active torsions:
REMARK  status: ('A' for Active; 'I' for Inactive)
REMARK    1  A    between atoms: C_1  and  C_2 
REMARK    2  A    between atoms: C_2  and  C_3 
REMARK    3  A    between atoms: C_3  and  C_4 
REMARK    4  A    between atoms: C_4  and  C_5 
REMARK    5  A    between atoms: C_5  and  C_7 
REMARK    6  A    between atoms: C_5  and  C_9 
REMARK    7  A    between atoms: C_7  and  C_8 
REMARK    8  A    between atoms: C_9  and  O_10 
REMARK    9  A    between atoms: O_10  and  C_11 
REMARK   10  A    between atoms: C_11  and  C_13 
REMARK   11  A    between atoms: C_17  and  C_19 
REMARK   12  A    between atoms: C_19  and  O_21 
REMARK   13  A    between atoms: O_21  and  C_22 
REMARK   14  A    between atoms: C_22  and  C_23 
REMARK   15  A    between atoms: C_23  and  C_25 
REMARK   16  A    between atoms: C_23  and  C_27 
REMARK   17  A    between atoms: C_25  and  C_26 
REMARK   18  A    between atoms: C_27  and  C_28 
REMARK   19  A    between atoms: C_28  and  C_29 
REMARK   20  A    between atoms: C_29  and  C_30 
ROOT
ATOM      1  C   LIG d   1       2.797   0.665  -7.185  0.00  0.00     0.060 A 
ATOM      2  C   LIG d   1       3.113   1.817  -7.908  0.00  0.00    -0.048 A 
ATOM      3  C   LIG d   1       3.061   1.807  -9.287  0.00  0.00    -0.060 A 
ATOM      4  C   LIG d   1       2.690   0.660  -9.962  0.00  0.00    -0.048 A 
ATOM      5  C   LIG d   1       2.376  -0.501  -9.251  0.00  0.00     0.060 A 
ATOM      6  C   LIG d   1       2.427  -0.498  -7.858  0.00  0.00    -0.034 A 
ATOM      7  H   LIG d   1       3.399   2.719  -7.386  0.00  0.00     0.063 H 
ATOM      8  H   LIG d   1       3.306   2.701  -9.842  0.00  0.00     0.062 H 
ATOM      9  H   LIG d   1       2.647   0.660 -11.042  0.00  0.00     0.063 H 
ATOM     10  H   LIG d   1       2.181  -1.391  -7.304  0.00  0.00     0.063 H 
ENDROOT
BRANCH   1  11
ATOM     11  C   LIG d   1       2.853   0.678  -5.708  0.00  0.00     0.339 C 
ATOM     12  O   LIG d   1       2.544   1.682  -5.098  0.00  0.00    -0.245 OA
BRANCH  11  13
ATOM     13  O   LIG d   1       3.248  -0.423  -5.039  0.00  0.00    -0.461 OA
BRANCH  13  14
ATOM     14  C   LIG d   1       2.773  -0.571  -3.675  0.00  0.00     0.096 C 
ATOM     15  H   LIG d   1       2.798   0.397  -3.174  0.00  0.00     0.070 H 
ATOM     16  H   LIG d   1       1.750  -0.948  -3.687  0.00  0.00     0.070 H 
BRANCH  14  17
ATOM     17  C   LIG d   1       3.672  -1.556  -2.926  0.00  0.00    -0.007 C 
ATOM     18  H   LIG d   1       3.060  -2.345  -2.488  0.00  0.00     0.033 H 
BRANCH  17  19
ATOM     19  C   LIG d   1       4.675  -2.173  -3.902  0.00  0.00    -0.047 C 
ATOM     20  H   LIG d   1       4.556  -3.257  -3.910  0.00  0.00     0.027 H 
ATOM     21  H   LIG d   1       4.497  -1.781  -4.903  0.00  0.00     0.027 H 
BRANCH  19  22
ATOM     22  C   LIG d   1       6.098  -1.820  -3.461  0.00  0.00    -0.053 C 
ATOM     23  H   LIG d   1       6.312  -0.784  -3.722  0.00  0.00     0.026 H 
ATOM     24  H   LIG d   1       6.187  -1.949  -2.383  0.00  0.00     0.026 H 
BRANCH  22  25
ATOM     25  C   LIG d   1       7.094  -2.741  -4.170  0.00  0.00    -0.056 C 
ATOM     26  H   LIG d   1       7.633  -2.177  -4.930  0.00  0.00     0.026 H 
ATOM     27  H   LIG d   1       7.802  -3.140  -3.442  0.00  0.00     0.026 H 
BRANCH  25  28
ATOM     28  C   LIG d   1       6.339  -3.895  -4.831  0.00  0.00    -0.065 C 
ATOM     29  H   LIG d   1       6.660  -4.839  -4.390  0.00  0.00     0.023 H 
ATOM     30  H   LIG d   1       5.268  -3.767  -4.673  0.00  0.00     0.023 H 
ATOM     31  H   LIG d   1       6.551  -3.903  -5.900  0.00  0.00     0.023 H 
ENDBRANCH  25  28
ENDBRANCH  22  25
ENDBRANCH  19  22
ENDBRANCH  17  19
BRANCH  17  32
ATOM     32  C   LIG d   1       4.425  -0.819  -1.818  0.00  0.00    -0.050 C 
ATOM     33  H   LIG d   1       4.097  -1.190  -0.847  0.00  0.00     0.027 H 
ATOM     34  H   LIG d   1       5.496  -0.991  -1.929  0.00  0.00     0.027 H 
BRANCH  32  35
ATOM     35  C   LIG d   1       4.137   0.681  -1.915  0.00  0.00    -0.065 C 
ATOM     36  H   LIG d   1       5.078   1.230  -1.944  0.00  0.00     0.023 H 
ATOM     37  H   LIG d   1       3.568   0.883  -2.823  0.00  0.00     0.023 H 
ATOM     38  H   LIG d   1       3.557   0.996  -1.047  0.00  0.00     0.023 H 
ENDBRANCH  32  35
ENDBRANCH  17  32
ENDBRANCH  14  17
ENDBRANCH  13  14
ENDBRANCH  11  13
ENDBRANCH   1  11
BRANCH   5  39
ATOM     39  C   LIG d   1       1.985  -1.729  -9.974  0.00  0.00     0.339 C 
ATOM     40  O   LIG d   1       1.239  -1.659 -10.930  0.00  0.00    -0.245 OA
BRANCH  39  41
ATOM     41  O   LIG d   1       2.458  -2.926  -9.574  0.00  0.00    -0.461 OA
BRANCH  41  42
ATOM     42  C   LIG d   1       3.719  -3.361 -10.147  0.00  0.00     0.096 C 
ATOM     43  H   LIG d   1       3.574  -4.307 -10.667  0.00  0.00     0.070 H 
ATOM     44  H   LIG d   1       4.076  -2.610 -10.851  0.00  0.00     0.070 H 
BRANCH  42  45
ATOM     45  C   LIG d   1       4.749  -3.545  -9.030  0.00  0.00    -0.007 C 
ATOM     46  H   LIG d   1       5.359  -4.423  -9.239  0.00  0.00     0.033 H 
BRANCH  45  47
ATOM     47  C   LIG d   1       4.026  -3.731  -7.694  0.00  0.00    -0.050 C 
ATOM     48  H   LIG d   1       4.584  -3.226  -6.906  0.00  0.00     0.027 H 
ATOM     49  H   LIG d   1       3.024  -3.307  -7.761  0.00  0.00     0.027 H 
BRANCH  47  50
ATOM     50  C   LIG d   1       3.927  -5.223  -7.373  0.00  0.00    -0.065 C 
ATOM     51  H   LIG d   1       3.048  -5.644  -7.862  0.00  0.00     0.023 H 
ATOM     52  H   LIG d   1       4.822  -5.732  -7.733  0.00  0.00     0.023 H 
ATOM     53  H   LIG d   1       3.842  -5.357  -6.294  0.00  0.00     0.023 H 
ENDBRANCH  47  50
ENDBRANCH  45  47
BRANCH  45  54
ATOM     54  C   LIG d   1       5.646  -2.306  -8.956  0.00  0.00    -0.047 C 
ATOM     55  H   LIG d   1       6.661  -2.575  -9.248  0.00  0.00     0.027 H 
ATOM     56  H   LIG d   1       5.264  -1.541  -9.632  0.00  0.00     0.027 H 
BRANCH  54  57
ATOM     57  C   LIG d   1       5.652  -1.766  -7.524  0.00  0.00    -0.053 C 
ATOM     58  H   LIG d   1       4.626  -1.669  -7.169  0.00  0.00     0.026 H 
ATOM     59  H   LIG d   1       6.197  -2.454  -6.879  0.00  0.00     0.026 H 
BRANCH  57  60
ATOM     60  C   LIG d   1       6.332  -0.396  -7.500  0.00  0.00    -0.056 C 
ATOM     61  H   LIG d   1       5.780   0.273  -6.840  0.00  0.00     0.026 H 
ATOM     62  H   LIG d   1       7.354  -0.503  -7.136  0.00  0.00     0.026 H 
BRANCH  60  63
ATOM     63  C   LIG d   1       6.354   0.187  -8.914  0.00  0.00    -0.065 C 
ATOM     64  H   LIG d   1       7.104  -0.332  -9.510  0.00  0.00     0.023 H 
ATOM     65  H   LIG d   1       5.373   0.062  -9.374  0.00  0.00     0.023 H 
ATOM     66  H   LIG d   1       6.598   1.248  -8.866  0.00  0.00     0.023 H 
ENDBRANCH  60  63
ENDBRANCH  57  60
ENDBRANCH  54  57
ENDBRANCH  45  54
ENDBRANCH  42  45
ENDBRANCH  41  42
ENDBRANCH  39  41
ENDBRANCH   5  39
TORSDOF 20
ENDMDL
MODEL 7
REMARK VINA RESULT:      -5.2      2.249      6.981
REMARK  20 active torsions:
REMARK  status: ('A' for Active; 'I' for Inactive)
REMARK    1  A    between atoms: C_1  and  C_2 
REMARK    2  A    between atoms: C_2  and  C_3 
REMARK    3  A    between atoms: C_3  and  C_4 
REMARK    4  A    between atoms: C_4  and  C_5 
REMARK    5  A    between atoms: C_5  and  C_7 
REMARK    6  A    between atoms: C_5  and  C_9 
REMARK    7  A    between atoms: C_7  and  C_8 
REMARK    8  A    between atoms: C_9  and  O_10 
REMARK    9  A    between atoms: O_10  and  C_11 
REMARK   10  A    between atoms: C_11  and  C_13 
REMARK   11  A    between atoms: C_17  and  C_19 
REMARK   12  A    between atoms: C_19  and  O_21 
REMARK   13  A    between atoms: O_21  and  C_22 
REMARK   14  A    between atoms: C_22  and  C_23 
REMARK   15  A    between atoms: C_23  and  C_25 
REMARK   16  A    between atoms: C_23  and  C_27 
REMARK   17  A    between atoms: C_25  and  C_26 
REMARK   18  A    between atoms: C_27  and  C_28 
REMARK   19  A    between atoms: C_28  and  C_29 
REMARK   20  A    between atoms: C_29  and  C_30 
ROOT
ATOM      1  C   LIG d   1       2.490  -0.488  -9.321  0.00  0.00     0.060 A 
ATOM      2  C   LIG d   1       2.779   0.689 -10.015  0.00  0.00    -0.048 A 
ATOM      3  C   LIG d   1       3.086   1.844  -9.324  0.00  0.00    -0.060 A 
ATOM      4  C   LIG d   1       3.116   1.843  -7.944  0.00  0.00    -0.048 A 
ATOM      5  C   LIG d   1       2.824   0.674  -7.237  0.00  0.00     0.060 A 
ATOM      6  C   LIG d   1       2.512  -0.495  -7.928  0.00  0.00    -0.034 A 
ATOM      7  H   LIG d   1       2.762   0.696 -11.096  0.00  0.00     0.063 H 
ATOM      8  H   LIG d   1       3.309   2.752  -9.866  0.00  0.00     0.062 H 
ATOM      9  H   LIG d   1       3.362   2.750  -7.409  0.00  0.00     0.063 H 
ATOM     10  H   LIG d   1       2.290  -1.403  -7.386  0.00  0.00     0.063 H 
ENDROOT
BRANCH   1  11
ATOM     11  C   LIG d   1       2.161  -1.724 -10.063  0.00  0.00     0.339 C 
ATOM     12  O   LIG d   1       1.337  -1.695 -10.954  0.00  0.00    -0.245 OA
BRANCH  11  13
ATOM     13  O   LIG d   1       2.776  -2.881  -9.749  0.00  0.00    -0.461 OA
BRANCH  13  14
ATOM     14  C   LIG d   1       4.204  -2.957 -10.001  0.00  0.00     0.096 C 
ATOM     15  H   LIG d   1       4.391  -3.650 -10.822  0.00  0.00     0.070 H 
ATOM     16  H   LIG d   1       4.579  -1.969 -10.266  0.00  0.00     0.070 H 
BRANCH  14  17
ATOM     17  C   LIG d   1       4.918  -3.454  -8.743  0.00  0.00    -0.007 C 
ATOM     18  H   LIG d   1       5.613  -4.251  -9.010  0.00  0.00     0.033 H 
BRANCH  17  19
ATOM     19  C   LIG d   1       5.690  -2.298  -8.105  0.00  0.00    -0.047 C 
ATOM     20  H   LIG d   1       5.075  -1.831  -7.335  0.00  0.00     0.027 H 
ATOM     21  H   LIG d   1       6.608  -2.676  -7.656  0.00  0.00     0.027 H 
BRANCH  19  22
ATOM     22  C   LIG d   1       6.035  -1.261  -9.178  0.00  0.00    -0.053 C 
ATOM     23  H   LIG d   1       6.893  -1.608  -9.754  0.00  0.00     0.026 H 
ATOM     24  H   LIG d   1       5.182  -1.128  -9.842  0.00  0.00     0.026 H 
BRANCH  22  25
ATOM     25  C   LIG d   1       6.375   0.072  -8.508  0.00  0.00    -0.056 C 
ATOM     26  H   LIG d   1       7.358   0.404  -8.838  0.00  0.00     0.026 H 
ATOM     27  H   LIG d   1       5.628   0.817  -8.782  0.00  0.00     0.026 H 
BRANCH  25  28
ATOM     28  C   LIG d   1       6.381  -0.108  -6.989  0.00  0.00    -0.065 C 
ATOM     29  H   LIG d   1       6.704   0.818  -6.514  0.00  0.00     0.023 H 
ATOM     30  H   LIG d   1       5.376  -0.359  -6.648  0.00  0.00     0.023 H 
ATOM     31  H   LIG d   1       7.067  -0.912  -6.720  0.00  0.00     0.023 H 
ENDBRANCH  25  28
ENDBRANCH  22  25
ENDBRANCH  19  22
ENDBRANCH  17  19
BRANCH  17  32
ATOM     32  C   LIG d   1       3.886  -3.989  -7.748  0.00  0.00    -0.050 C 
ATOM     33  H   LIG d   1       3.948  -3.420  -6.820  0.00  0.00     0.027 H 
ATOM     34  H   LIG d   1       2.887  -3.886  -8.171  0.00  0.00     0.027 H 
BRANCH  32  35
ATOM     35  C   LIG d   1       4.171  -5.465  -7.462  0.00  0.00    -0.065 C 
ATOM     36  H   LIG d   1       3.328  -6.069  -7.798  0.00  0.00     0.023 H 
ATOM     37  H   LIG d   1       5.073  -5.771  -7.993  0.00  0.00     0.023 H 
ATOM     38  H   LIG d   1       4.315  -5.606  -6.391  0.00  0.00     0.023 H 
ENDBRANCH  32  35
ENDBRANCH  17  32
ENDBRANCH  14  17
ENDBRANCH  13  14
ENDBRANCH  11  13
ENDBRANCH   1  11
BRANCH   5  39
ATOM     39  C   LIG d   1       2.850   0.676  -5.759  0.00  0.00     0.339 C 
ATOM     40  O   LIG d   1       2.524   1.673  -5.147  0.00  0.00    -0.245 OA
BRANCH  39  41
ATOM     41  O   LIG d   1       3.235  -0.429  -5.091  0.00  0.00    -0.461 OA
BRANCH  41  42
ATOM     42  C   LIG d   1       2.891  -0.501  -3.683  0.00  0.00     0.096 C 
ATOM     43  H   LIG d   1       2.956   0.492  -3.241  0.00  0.00     0.070 H 
ATOM     44  H   LIG d   1       1.874  -0.880  -3.577  0.00  0.00     0.070 H 
BRANCH  42  45
ATOM     45  C   LIG d   1       3.863  -1.443  -2.968  0.00  0.00    -0.007 C 
ATOM     46  H   LIG d   1       3.342  -2.358  -2.688  0.00  0.00     0.033 H 
BRANCH  45  47
ATOM     47  C   LIG d   1       4.405  -0.759  -1.711  0.00  0.00    -0.050 C 
ATOM     48  H   LIG d   1       3.779  -1.020  -0.858  0.00  0.00     0.027 H 
ATOM     49  H   LIG d   1       5.426  -1.092  -1.528  0.00  0.00     0.027 H 
BRANCH  47  50
ATOM     50  C   LIG d   1       4.390   0.757  -1.910  0.00  0.00    -0.065 C 
ATOM     51  H   LIG d   1       4.911   1.009  -2.834  0.00  0.00     0.023 H 
ATOM     52  H   LIG d   1       3.358   1.106  -1.967  0.00  0.00     0.023 H 
ATOM     53  H   LIG d   1       4.890   1.239  -1.069  0.00  0.00     0.023 H 
ENDBRANCH  47  50
ENDBRANCH  45  47
BRANCH  45  54
ATOM     54  C   LIG d   1       5.024  -1.782  -3.906  0.00  0.00    -0.047 C 
ATOM     55  H   LIG d   1       4.975  -1.146  -4.790  0.00  0.00     0.027 H 
ATOM     56  H   LIG d   1       5.969  -1.614  -3.389  0.00  0.00     0.027 H 
BRANCH  54  57
ATOM     57  C   LIG d   1       4.926  -3.250  -4.326  0.00  0.00    -0.053 C 
ATOM     58  H   LIG d   1       4.620  -3.853  -3.472  0.00  0.00     0.026 H 
ATOM     59  H   LIG d   1       4.192  -3.351  -5.125  0.00  0.00     0.026 H 
BRANCH  57  60
ATOM     60  C   LIG d   1       6.291  -3.729  -4.825  0.00  0.00    -0.056 C 
ATOM     61  H   LIG d   1       6.518  -4.701  -4.388  0.00  0.00     0.026 H 
ATOM     62  H   LIG d   1       6.272  -3.815  -5.912  0.00  0.00     0.026 H 
BRANCH  60  63
ATOM     63  C   LIG d   1       7.366  -2.721  -4.414  0.00  0.00    -0.065 C 
ATOM     64  H   LIG d   1       8.338  -3.213  -4.396  0.00  0.00     0.023 H 
ATOM     65  H   LIG d   1       7.388  -1.901  -5.133  0.00  0.00     0.023 H 
ATOM     66  H   LIG d   1       7.138  -2.329  -3.424  0.00  0.00     0.023 H 
ENDBRANCH  60  63
ENDBRANCH  57  60
ENDBRANCH  54  57
ENDBRANCH  45  54
ENDBRANCH  42  45
ENDBRANCH  41  42
ENDBRANCH  39  41
ENDBRANCH   5  39
TORSDOF 20
ENDMDL
MODEL 8
REMARK VINA RESULT:      -5.2      2.272      7.083
REMARK  20 active torsions:
REMARK  status: ('A' for Active; 'I' for Inactive)
REMARK    1  A    between atoms: C_1  and  C_2 
REMARK    2  A    between atoms: C_2  and  C_3 
REMARK    3  A    between atoms: C_3  and  C_4 
REMARK    4  A    between atoms: C_4  and  C_5 
REMARK    5  A    between atoms: C_5  and  C_7 
REMARK    6  A    between atoms: C_5  and  C_9 
REMARK    7  A    between atoms: C_7  and  C_8 
REMARK    8  A    between atoms: C_9  and  O_10 
REMARK    9  A    between atoms: O_10  and  C_11 
REMARK   10  A    between atoms: C_11  and  C_13 
REMARK   11  A    between atoms: C_17  and  C_19 
REMARK   12  A    between atoms: C_19  and  O_21 
REMARK   13  A    between atoms: O_21  and  C_22 
REMARK   14  A    between atoms: C_22  and  C_23 
REMARK   15  A    between atoms: C_23  and  C_25 
REMARK   16  A    between atoms: C_23  and  C_27 
REMARK   17  A    between atoms: C_25  and  C_26 
REMARK   18  A    between atoms: C_27  and  C_28 
REMARK   19  A    between atoms: C_28  and  C_29 
REMARK   20  A    between atoms: C_29  and  C_30 
ROOT
ATOM      1  C   LIG d   1       2.756  -2.528  -9.323  0.00  0.00     0.060 A 
ATOM      2  C   LIG d   1       1.945  -2.120 -10.385  0.00  0.00    -0.048 A 
ATOM      3  C   LIG d   1       1.528  -0.807 -10.473  0.00  0.00    -0.060 A 
ATOM      4  C   LIG d   1       1.912   0.112  -9.516  0.00  0.00    -0.048 A 
ATOM      5  C   LIG d   1       2.719  -0.284  -8.447  0.00  0.00     0.060 A 
ATOM      6  C   LIG d   1       3.144  -1.608  -8.352  0.00  0.00    -0.034 A 
ATOM      7  H   LIG d   1       1.645  -2.832 -11.139  0.00  0.00     0.063 H 
ATOM      8  H   LIG d   1       0.901  -0.495 -11.296  0.00  0.00     0.062 H 
ATOM      9  H   LIG d   1       1.586   1.139  -9.594  0.00  0.00     0.063 H 
ATOM     10  H   LIG d   1       3.771  -1.919  -7.529  0.00  0.00     0.063 H 
ENDROOT
BRANCH   1  11
ATOM     11  C   LIG d   1       3.202  -3.935  -9.231  0.00  0.00     0.339 C 
ATOM     12  O   LIG d   1       2.689  -4.782  -9.934  0.00  0.00    -0.245 OA
BRANCH  11  13
ATOM     13  O   LIG d   1       4.179  -4.276  -8.368  0.00  0.00    -0.461 OA
BRANCH  13  14
ATOM     14  C   LIG d   1       3.772  -4.941  -7.143  0.00  0.00     0.096 C 
ATOM     15  H   LIG d   1       3.076  -4.303  -6.598  0.00  0.00     0.070 H 
ATOM     16  H   LIG d   1       3.286  -5.885  -7.387  0.00  0.00     0.070 H 
BRANCH  14  17
ATOM     17  C   LIG d   1       5.003  -5.210  -6.276  0.00  0.00    -0.007 C 
ATOM     18  H   LIG d   1       5.904  -5.091  -6.878  0.00  0.00     0.033 H 
BRANCH  17  19
ATOM     19  C   LIG d   1       5.033  -4.218  -5.112  0.00  0.00    -0.047 C 
ATOM     20  H   LIG d   1       4.102  -4.289  -4.548  0.00  0.00     0.027 H 
ATOM     21  H   LIG d   1       5.872  -4.451  -4.456  0.00  0.00     0.027 H 
BRANCH  19  22
ATOM     22  C   LIG d   1       5.191  -2.796  -5.657  0.00  0.00    -0.053 C 
ATOM     23  H   LIG d   1       4.948  -2.786  -6.720  0.00  0.00     0.026 H 
ATOM     24  H   LIG d   1       4.518  -2.126  -5.124  0.00  0.00     0.026 H 
BRANCH  22  25
ATOM     25  C   LIG d   1       6.636  -2.332  -5.460  0.00  0.00    -0.056 C 
ATOM     26  H   LIG d   1       7.242  -2.661  -6.303  0.00  0.00     0.026 H 
ATOM     27  H   LIG d   1       6.663  -1.244  -5.395  0.00  0.00     0.026 H 
BRANCH  25  28
ATOM     28  C   LIG d   1       7.191  -2.932  -4.167  0.00  0.00    -0.065 C 
ATOM     29  H   LIG d   1       7.836  -3.777  -4.406  0.00  0.00     0.023 H 
ATOM     30  H   LIG d   1       7.768  -2.175  -3.633  0.00  0.00     0.023 H 
ATOM     31  H   LIG d   1       6.367  -3.270  -3.539  0.00  0.00     0.023 H 
ENDBRANCH  25  28
ENDBRANCH  22  25
ENDBRANCH  19  22
ENDBRANCH  17  19
BRANCH  17  32
ATOM     32  C   LIG d   1       4.940  -6.637  -5.728  0.00  0.00    -0.050 C 
ATOM     33  H   LIG d   1       4.357  -6.646  -4.807  0.00  0.00     0.027 H 
ATOM     34  H   LIG d   1       4.467  -7.288  -6.463  0.00  0.00     0.027 H 
BRANCH  32  35
ATOM     35  C   LIG d   1       6.357  -7.136  -5.441  0.00  0.00    -0.065 C 
ATOM     36  H   LIG d   1       6.879  -6.409  -4.818  0.00  0.00     0.023 H 
ATOM     37  H   LIG d   1       6.307  -8.092  -4.920  0.00  0.00     0.023 H 
ATOM     38  H   LIG d   1       6.895  -7.262  -6.380  0.00  0.00     0.023 H 
ENDBRANCH  32  35
ENDBRANCH  17  32
ENDBRANCH  14  17
ENDBRANCH  13  14
ENDBRANCH  11  13
ENDBRANCH   1  11
BRANCH   5  39
ATOM     39  C   LIG d   1       3.125   0.699  -7.421  0.00  0.00     0.339 C 
ATOM     40  O   LIG d   1       3.007   1.887  -7.639  0.00  0.00    -0.245 OA
BRANCH  39  41
ATOM     41  O   LIG d   1       3.626   0.276  -6.244  0.00  0.00    -0.461 OA
BRANCH  41  42
ATOM     42  C   LIG d   1       2.738   0.320  -5.096  0.00  0.00     0.096 C 
ATOM     43  H   LIG d   1       2.302   1.315  -5.013  0.00  0.00     0.070 H 
ATOM     44  H   LIG d   1       1.944  -0.416  -5.223  0.00  0.00     0.070 H 
BRANCH  42  45
ATOM     45  C   LIG d   1       3.531   0.002  -3.827  0.00  0.00    -0.007 C 
ATOM     46  H   LIG d   1       4.492  -0.432  -4.098  0.00  0.00     0.033 H 
BRANCH  45  47
ATOM     47  C   LIG d   1       2.745  -0.992  -2.969  0.00  0.00    -0.050 C 
ATOM     48  H   LIG d   1       2.263  -0.461  -2.148  0.00  0.00     0.027 H 
ATOM     49  H   LIG d   1       1.986  -1.479  -3.582  0.00  0.00     0.027 H 
BRANCH  47  50
ATOM     50  C   LIG d   1       3.699  -2.045  -2.406  0.00  0.00    -0.065 C 
ATOM     51  H   LIG d   1       4.611  -1.560  -2.057  0.00  0.00     0.023 H 
ATOM     52  H   LIG d   1       3.221  -2.562  -1.574  0.00  0.00     0.023 H 
ATOM     53  H   LIG d   1       3.947  -2.765  -3.187  0.00  0.00     0.023 H 
ENDBRANCH  47  50
ENDBRANCH  45  47
BRANCH  45  54
ATOM     54  C   LIG d   1       3.760   1.291  -3.033  0.00  0.00    -0.047 C 
ATOM     55  H   LIG d   1       3.744   2.144  -3.712  0.00  0.00     0.027 H 
ATOM     56  H   LIG d   1       2.971   1.405  -2.289  0.00  0.00     0.027 H 
BRANCH  54  57
ATOM     57  C   LIG d   1       5.118   1.223  -2.331  0.00  0.00    -0.053 C 
ATOM     58  H   LIG d   1       5.469   2.232  -2.120  0.00  0.00     0.026 H 
ATOM     59  H   LIG d   1       5.016   0.670  -1.398  0.00  0.00     0.026 H 
BRANCH  57  60
ATOM     60  C   LIG d   1       6.124   0.511  -3.238  0.00  0.00    -0.056 C 
ATOM     61  H   LIG d   1       6.596  -0.304  -2.690  0.00  0.00     0.026 H 
ATOM     62  H   LIG d   1       5.607   0.109  -4.110  0.00  0.00     0.026 H 
BRANCH  60  63
ATOM     63  C   LIG d   1       7.192   1.507  -3.694  0.00  0.00    -0.065 C 
ATOM     64  H   LIG d   1       8.180   1.074  -3.544  0.00  0.00     0.023 H 
ATOM     65  H   LIG d   1       7.050   1.732  -4.752  0.00  0.00     0.023 H 
ATOM     66  H   LIG d   1       7.105   2.425  -3.114  0.00  0.00     0.023 H 
ENDBRANCH  60  63
ENDBRANCH  57  60
ENDBRANCH  54  57
ENDBRANCH  45  54
ENDBRANCH  42  45
ENDBRANCH  41  42
ENDBRANCH  39  41
ENDBRANCH   5  39
TORSDOF 20
ENDMDL
MODEL 9
REMARK VINA RESULT:      -5.0      2.148      5.753
REMARK  20 active torsions:
REMARK  status: ('A' for Active; 'I' for Inactive)
REMARK    1  A    between atoms: C_1  and  C_2 
REMARK    2  A    between atoms: C_2  and  C_3 
REMARK    3  A    between atoms: C_3  and  C_4 
REMARK    4  A    between atoms: C_4  and  C_5 
REMARK    5  A    between atoms: C_5  and  C_7 
REMARK    6  A    between atoms: C_5  and  C_9 
REMARK    7  A    between atoms: C_7  and  C_8 
REMARK    8  A    between atoms: C_9  and  O_10 
REMARK    9  A    between atoms: O_10  and  C_11 
REMARK   10  A    between atoms: C_11  and  C_13 
REMARK   11  A    between atoms: C_17  and  C_19 
REMARK   12  A    between atoms: C_19  and  O_21 
REMARK   13  A    between atoms: O_21  and  C_22 
REMARK   14  A    between atoms: C_22  and  C_23 
REMARK   15  A    between atoms: C_23  and  C_25 
REMARK   16  A    between atoms: C_23  and  C_27 
REMARK   17  A    between atoms: C_25  and  C_26 
REMARK   18  A    between atoms: C_27  and  C_28 
REMARK   19  A    between atoms: C_28  and  C_29 
REMARK   20  A    between atoms: C_29  and  C_30 
ROOT
ATOM      1  C   LIG d   1       3.470  -0.239  -4.212  0.00  0.00     0.060 A 
ATOM      2  C   LIG d   1       2.813  -1.001  -3.242  0.00  0.00    -0.048 A 
ATOM      3  C   LIG d   1       3.539  -1.799  -2.380  0.00  0.00    -0.060 A 
ATOM      4  C   LIG d   1       4.916  -1.846  -2.466  0.00  0.00    -0.048 A 
ATOM      5  C   LIG d   1       5.584  -1.093  -3.434  0.00  0.00     0.060 A 
ATOM      6  C   LIG d   1       4.859  -0.285  -4.308  0.00  0.00    -0.034 A 
ATOM      7  H   LIG d   1       1.736  -0.966  -3.166  0.00  0.00     0.063 H 
ATOM      8  H   LIG d   1       3.026  -2.387  -1.632  0.00  0.00     0.062 H 
ATOM      9  H   LIG d   1       5.478  -2.469  -1.784  0.00  0.00     0.063 H 
ATOM     10  H   LIG d   1       5.371   0.302  -5.055  0.00  0.00     0.063 H 
ENDROOT
BRANCH   1  11
ATOM     11  C   LIG d   1       2.692   0.615  -5.134  0.00  0.00     0.339 C 
ATOM     12  O   LIG d   1       2.512   1.786  -4.869  0.00  0.00    -0.245 OA
BRANCH  11  13
ATOM     13  O   LIG d   1       2.182   0.093  -6.267  0.00  0.00    -0.461 OA
BRANCH  13  14
ATOM     14  C   LIG d   1       3.114  -0.163  -7.351  0.00  0.00     0.096 C 
ATOM     15  H   LIG d   1       3.610   0.766  -7.631  0.00  0.00     0.070 H 
ATOM     16  H   LIG d   1       3.859  -0.889  -7.025  0.00  0.00     0.070 H 
BRANCH  14  17
ATOM     17  C   LIG d   1       2.354  -0.719  -8.556  0.00  0.00    -0.007 C 
ATOM     18  H   LIG d   1       1.335  -0.969  -8.258  0.00  0.00     0.033 H 
BRANCH  17  19
ATOM     19  C   LIG d   1       2.317   0.334  -9.665  0.00  0.00    -0.047 C 
ATOM     20  H   LIG d   1       3.039   0.073 -10.439  0.00  0.00     0.027 H 
ATOM     21  H   LIG d   1       1.317   0.371 -10.099  0.00  0.00     0.027 H 
BRANCH  19  22
ATOM     22  C   LIG d   1       2.670   1.704  -9.080  0.00  0.00    -0.053 C 
ATOM     23  H   LIG d   1       1.781   2.334  -9.068  0.00  0.00     0.026 H 
ATOM     24  H   LIG d   1       3.042   1.580  -8.063  0.00  0.00     0.026 H 
BRANCH  22  25
ATOM     25  C   LIG d   1       3.750   2.362  -9.941  0.00  0.00    -0.056 C 
ATOM     26  H   LIG d   1       3.846   1.821 -10.881  0.00  0.00     0.026 H 
ATOM     27  H   LIG d   1       3.473   3.397 -10.144  0.00  0.00     0.026 H 
BRANCH  25  28
ATOM     28  C   LIG d   1       5.086   2.331  -9.196  0.00  0.00    -0.065 C 
ATOM     29  H   LIG d   1       5.225   1.350  -8.742  0.00  0.00     0.023 H 
ATOM     30  H   LIG d   1       5.898   2.526  -9.896  0.00  0.00     0.023 H 
ATOM     31  H   LIG d   1       5.086   3.094  -8.417  0.00  0.00     0.023 H 
ENDBRANCH  25  28
ENDBRANCH  22  25
ENDBRANCH  19  22
ENDBRANCH  17  19
BRANCH  17  32
ATOM     32  C   LIG d   1       3.059  -1.975  -9.069  0.00  0.00    -0.050 C 
ATOM     33  H   LIG d   1       3.207  -2.671  -8.243  0.00  0.00     0.027 H 
ATOM     34  H   LIG d   1       2.445  -2.448  -9.836  0.00  0.00     0.027 H 
BRANCH  32  35
ATOM     35  C   LIG d   1       4.415  -1.592  -9.664  0.00  0.00    -0.065 C 
ATOM     36  H   LIG d   1       4.426  -1.833 -10.727  0.00  0.00     0.023 H 
ATOM     37  H   LIG d   1       4.582  -0.523  -9.531  0.00  0.00     0.023 H 
ATOM     38  H   LIG d   1       5.204  -2.148  -9.157  0.00  0.00     0.023 H 
ENDBRANCH  32  35
ENDBRANCH  17  32
ENDBRANCH  14  17
ENDBRANCH  13  14
ENDBRANCH  11  13
ENDBRANCH   1  11
BRANCH   5  39
ATOM     39  C   LIG d   1       7.058  -1.148  -3.528  0.00  0.00     0.339 C 
ATOM     40  O   LIG d   1       7.694  -0.128  -3.704  0.00  0.00    -0.245 OA
BRANCH  39  41
ATOM     41  O   LIG d   1       7.696  -2.330  -3.418  0.00  0.00    -0.461 OA
BRANCH  41  42
ATOM     42  C   LIG d   1       8.208  -2.919  -4.643  0.00  0.00     0.096 C 
ATOM     43  H   LIG d   1       8.153  -2.188  -5.448  0.00  0.00     0.070 H 
ATOM     44  H   LIG d   1       9.245  -3.220  -4.495  0.00  0.00     0.070 H 
BRANCH  42  45
ATOM     45  C   LIG d   1       7.367  -4.144  -5.008  0.00  0.00    -0.007 C 
ATOM     46  H   LIG d   1       6.500  -4.199  -4.351  0.00  0.00     0.033 H 
BRANCH  45  47
ATOM     47  C   LIG d   1       8.212  -5.410  -4.843  0.00  0.00    -0.050 C 
ATOM     48  H   LIG d   1       9.150  -5.293  -5.386  0.00  0.00     0.027 H 
ATOM     49  H   LIG d   1       8.422  -5.572  -3.786  0.00  0.00     0.027 H 
BRANCH  47  50
ATOM     50  C   LIG d   1       7.446  -6.610  -5.402  0.00  0.00    -0.065 C 
ATOM     51  H   LIG d   1       8.053  -7.110  -6.156  0.00  0.00     0.023 H 
ATOM     52  H   LIG d   1       7.223  -7.307  -4.593  0.00  0.00     0.023 H 
ATOM     53  H   LIG d   1       6.514  -6.267  -5.853  0.00  0.00     0.023 H 
ENDBRANCH  47  50
ENDBRANCH  45  47
BRANCH  45  54
ATOM     54  C   LIG d   1       6.901  -4.027  -6.461  0.00  0.00    -0.047 C 
ATOM     55  H   LIG d   1       7.725  -3.672  -7.080  0.00  0.00     0.027 H 
ATOM     56  H   LIG d   1       6.575  -5.004  -6.817  0.00  0.00     0.027 H 
BRANCH  54  57
ATOM     57  C   LIG d   1       5.736  -3.038  -6.543  0.00  0.00    -0.053 C 
ATOM     58  H   LIG d   1       6.011  -2.111  -6.042  0.00  0.00     0.026 H 
ATOM     59  H   LIG d   1       5.507  -2.834  -7.588  0.00  0.00     0.026 H 
BRANCH  57  60
ATOM     60  C   LIG d   1       4.507  -3.642  -5.861  0.00  0.00    -0.056 C 
ATOM     61  H   LIG d   1       4.763  -3.935  -4.843  0.00  0.00     0.026 H 
ATOM     62  H   LIG d   1       3.705  -2.903  -5.835  0.00  0.00     0.026 H 
BRANCH  60  63
ATOM     63  C   LIG d   1       4.040  -4.870  -6.644  0.00  0.00    -0.065 C 
ATOM     64  H   LIG d   1       4.262  -4.733  -7.702  0.00  0.00     0.023 H 
ATOM     65  H   LIG d   1       4.561  -5.755  -6.276  0.00  0.00     0.023 H 
ATOM     66  H   LIG d   1       2.967  -5.001  -6.511  0.00  0.00     0.023 H 
ENDBRANCH  60  63
ENDBRANCH  57  60
ENDBRANCH  54  57
ENDBRANCH  45  54
ENDBRANCH  42  45
ENDBRANCH  41  42
ENDBRANCH  39  41
ENDBRANCH   5  39
TORSDOF 20
ENDMDL
