MODEL 1
REMARK VINA RESULT:      -4.4      0.000      0.000
REMARK  9 active torsions:
REMARK  status: ('A' for Active; 'I' for Inactive)
REMARK    1  A    between atoms: C_3  and  N_14 
REMARK    2  A    between atoms: C_4  and  O_10 
REMARK    3  A    between atoms: C_6  and  N_7 
REMARK    4  A    between atoms: O_10  and  C_11 
REMARK    5  A    between atoms: C_11  and  C_12 
REMARK    6  A    between atoms: C_12  and  O_13 
REMARK    7  A    between atoms: N_14  and  C_15 
REMARK    8  A    between atoms: C_15  and  C_16 
REMARK    9  A    between atoms: C_16  and  O_17 
ROOT
ATOM      1  C   LIG d   1       4.055  -1.502  -2.297  0.00  0.00     0.018 A 
ATOM      2  C   LIG d   1       4.135  -2.621  -3.105  0.00  0.00    -0.031 A 
ATOM      3  C   LIG d   1       4.339  -2.477  -4.470  0.00  0.00     0.070 A 
ATOM      4  C   LIG d   1       4.463  -1.203  -5.021  0.00  0.00     0.148 A 
ATOM      5  C   LIG d   1       4.382  -0.088  -4.205  0.00  0.00     0.059 A 
ATOM      6  C   LIG d   1       4.178  -0.239  -2.845  0.00  0.00     0.277 A 
ATOM      7  H   LIG d   1       3.892  -1.615  -1.235  0.00  0.00     0.069 H 
ATOM      8  H   LIG d   1       4.039  -3.607  -2.675  0.00  0.00     0.064 H 
ATOM      9  H   LIG d   1       4.477   0.901  -4.629  0.00  0.00     0.072 H 
ENDROOT
BRANCH   3  10
ATOM     10  N   LIG d   1       4.421  -3.608  -5.290  0.00  0.00    -0.339 N 
ATOM     11  H   LIG d   1       3.656  -3.876  -5.823  0.00  0.00     0.146 HD
BRANCH  10  12
ATOM     12  C   LIG d   1       5.662  -4.384  -5.346  0.00  0.00     0.032 C 
ATOM     13  H   LIG d   1       6.439  -3.868  -4.783  0.00  0.00     0.048 H 
ATOM     14  H   LIG d   1       5.492  -5.370  -4.910  0.00  0.00     0.048 H 
BRANCH  12  15
ATOM     15  C   LIG d   1       6.103  -4.539  -6.803  0.00  0.00     0.060 C 
ATOM     16  H   LIG d   1       7.067  -5.044  -6.838  0.00  0.00     0.057 H 
ATOM     17  H   LIG d   1       5.363  -5.128  -7.345  0.00  0.00     0.057 H 
BRANCH  15  18
ATOM     18  O   LIG d   1       6.218  -3.248  -7.404  0.00  0.00    -0.394 OA
ATOM     19  H   LIG d   1       5.508  -2.637  -7.163  0.00  0.00     0.209 HD
ENDBRANCH  15  18
ENDBRANCH  12  15
ENDBRANCH  10  12
ENDBRANCH   3  10
BRANCH   4  20
ATOM     20  O   LIG d   1       4.663  -1.056  -6.359  0.00  0.00    -0.488 OA
BRANCH  20  21
ATOM     21  C   LIG d   1       3.607  -0.452  -7.109  0.00  0.00     0.113 C 
ATOM     22  H   LIG d   1       2.704  -0.414  -6.501  0.00  0.00     0.072 H 
ATOM     23  H   LIG d   1       3.896   0.559  -7.394  0.00  0.00     0.072 H 
BRANCH  21  24
ATOM     24  C   LIG d   1       3.340  -1.280  -8.368  0.00  0.00     0.078 C 
ATOM     25  H   LIG d   1       2.345  -1.050  -8.749  0.00  0.00     0.059 H 
ATOM     26  H   LIG d   1       4.084  -1.039  -9.127  0.00  0.00     0.059 H 
BRANCH  24  27
ATOM     27  O   LIG d   1       3.418  -2.671  -8.050  0.00  0.00    -0.392 OA
ATOM     28  H   LIG d   1       3.275  -3.256  -8.806  0.00  0.00     0.209 HD
ENDBRANCH  24  27
ENDBRANCH  21  24
ENDBRANCH  20  21
ENDBRANCH   4  20
BRANCH   6  29
ATOM     29  N   LIG d   1       4.091   0.954  -1.974  0.00  0.00     0.080 N 
ATOM     30  O   LIG d   1       4.957   1.174  -1.159  0.00  0.00     0.041 OA
ATOM     31  O   LIG d   1       3.154   1.711  -2.078  0.00  0.00    -0.576 OA
ENDBRANCH   6  29
TORSDOF 9
ENDMDL
MODEL 2
REMARK VINA RESULT:      -4.3      1.878      3.273
REMARK  9 active torsions:
REMARK  status: ('A' for Active; 'I' for Inactive)
REMARK    1  A    between atoms: C_3  and  N_14 
REMARK    2  A    between atoms: C_4  and  O_10 
REMARK    3  A    between atoms: C_6  and  N_7 
REMARK    4  A    between atoms: O_10  and  C_11 
REMARK    5  A    between atoms: C_11  and  C_12 
REMARK    6  A    between atoms: C_12  and  O_13 
REMARK    7  A    between atoms: N_14  and  C_15 
REMARK    8  A    between atoms: C_15  and  C_16 
REMARK    9  A    between atoms: C_16  and  O_17 
ROOT
ATOM      1  C   LIG d   1       3.019   0.766  -3.849  0.00  0.00     0.018 A 
ATOM      2  C   LIG d   1       2.564   0.689  -5.153  0.00  0.00    -0.031 A 
ATOM      3  C   LIG d   1       3.126  -0.227  -6.029  0.00  0.00     0.070 A 
ATOM      4  C   LIG d   1       4.148  -1.069  -5.592  0.00  0.00     0.148 A 
ATOM      5  C   LIG d   1       4.597  -0.984  -4.285  0.00  0.00     0.059 A 
ATOM      6  C   LIG d   1       4.032  -0.068  -3.417  0.00  0.00     0.277 A 
ATOM      7  H   LIG d   1       2.583   1.483  -3.169  0.00  0.00     0.069 H 
ATOM      8  H   LIG d   1       1.772   1.341  -5.489  0.00  0.00     0.064 H 
ATOM      9  H   LIG d   1       5.389  -1.635  -3.944  0.00  0.00     0.072 H 
ENDROOT
BRANCH   3  10
ATOM     10  N   LIG d   1       2.668  -0.308  -7.350  0.00  0.00    -0.339 N 
ATOM     11  H   LIG d   1       2.029  -0.994  -7.600  0.00  0.00     0.146 HD
BRANCH  10  12
ATOM     12  C   LIG d   1       3.152   0.644  -8.352  0.00  0.00     0.032 C 
ATOM     13  H   LIG d   1       2.350   1.335  -8.614  0.00  0.00     0.048 H 
ATOM     14  H   LIG d   1       3.995   1.203  -7.944  0.00  0.00     0.048 H 
BRANCH  12  15
ATOM     15  C   LIG d   1       3.600  -0.115  -9.603  0.00  0.00     0.060 C 
ATOM     16  H   LIG d   1       2.760  -0.211 -10.289  0.00  0.00     0.057 H 
ATOM     17  H   LIG d   1       4.407   0.432 -10.090  0.00  0.00     0.057 H 
BRANCH  15  18
ATOM     18  O   LIG d   1       4.063  -1.415  -9.230  0.00  0.00    -0.394 OA
ATOM     19  H   LIG d   1       3.653  -1.762  -8.425  0.00  0.00     0.209 HD
ENDBRANCH  15  18
ENDBRANCH  12  15
ENDBRANCH  10  12
ENDBRANCH   3  10
BRANCH   4  20
ATOM     20  O   LIG d   1       4.702  -1.969  -6.448  0.00  0.00    -0.488 OA
BRANCH  20  21
ATOM     21  C   LIG d   1       4.805  -3.319  -5.990  0.00  0.00     0.113 C 
ATOM     22  H   LIG d   1       5.855  -3.595  -5.903  0.00  0.00     0.072 H 
ATOM     23  H   LIG d   1       4.323  -3.411  -5.017  0.00  0.00     0.072 H 
BRANCH  21  24
ATOM     24  C   LIG d   1       4.115  -4.249  -6.991  0.00  0.00     0.078 C 
ATOM     25  H   LIG d   1       3.599  -3.653  -7.744  0.00  0.00     0.059 H 
ATOM     26  H   LIG d   1       4.860  -4.879  -7.476  0.00  0.00     0.059 H 
BRANCH  24  27
ATOM     27  O   LIG d   1       3.169  -5.072  -6.305  0.00  0.00    -0.392 OA
ATOM     28  H   LIG d   1       3.460  -5.358  -5.429  0.00  0.00     0.209 HD
ENDBRANCH  24  27
ENDBRANCH  21  24
ENDBRANCH  20  21
ENDBRANCH   4  20
BRANCH   6  29
ATOM     29  N   LIG d   1       4.514   0.020  -2.020  0.00  0.00     0.080 N 
ATOM     30  O   LIG d   1       4.565  -0.973  -1.333  0.00  0.00     0.041 OA
ATOM     31  O   LIG d   1       4.859   1.087  -1.567  0.00  0.00    -0.576 OA
ENDBRANCH   6  29
TORSDOF 9
ENDMDL
MODEL 3
REMARK VINA RESULT:      -4.3      1.351      1.572
REMARK  9 active torsions:
REMARK  status: ('A' for Active; 'I' for Inactive)
REMARK    1  A    between atoms: C_3  and  N_14 
REMARK    2  A    between atoms: C_4  and  O_10 
REMARK    3  A    between atoms: C_6  and  N_7 
REMARK    4  A    between atoms: O_10  and  C_11 
REMARK    5  A    between atoms: C_11  and  C_12 
REMARK    6  A    between atoms: C_12  and  O_13 
REMARK    7  A    between atoms: N_14  and  C_15 
REMARK    8  A    between atoms: C_15  and  C_16 
REMARK    9  A    between atoms: C_16  and  O_17 
ROOT
ATOM      1  C   LIG d   1       4.572  -1.392  -2.487  0.00  0.00     0.018 A 
ATOM      2  C   LIG d   1       4.235  -2.520  -3.212  0.00  0.00    -0.031 A 
ATOM      3  C   LIG d   1       4.307  -2.500  -4.597  0.00  0.00     0.070 A 
ATOM      4  C   LIG d   1       4.720  -1.342  -5.253  0.00  0.00     0.148 A 
ATOM      5  C   LIG d   1       5.055  -0.217  -4.519  0.00  0.00     0.059 A 
ATOM      6  C   LIG d   1       4.981  -0.244  -3.138  0.00  0.00     0.277 A 
ATOM      7  H   LIG d   1       4.512  -1.408  -1.408  0.00  0.00     0.069 H 
ATOM      8  H   LIG d   1       3.916  -3.417  -2.701  0.00  0.00     0.064 H 
ATOM      9  H   LIG d   1       5.375   0.682  -5.025  0.00  0.00     0.072 H 
ENDROOT
BRANCH   3  10
ATOM     10  N   LIG d   1       3.966  -3.640  -5.334  0.00  0.00    -0.339 N 
ATOM     11  H   LIG d   1       3.071  -3.736  -5.694  0.00  0.00     0.146 HD
BRANCH  10  12
ATOM     12  C   LIG d   1       4.963  -4.689  -5.563  0.00  0.00     0.032 C 
ATOM     13  H   LIG d   1       5.809  -4.274  -6.111  0.00  0.00     0.048 H 
ATOM     14  H   LIG d   1       5.308  -5.077  -4.604  0.00  0.00     0.048 H 
BRANCH  12  15
ATOM     15  C   LIG d   1       4.334  -5.823  -6.376  0.00  0.00     0.060 C 
ATOM     16  H   LIG d   1       5.077  -6.236  -7.057  0.00  0.00     0.057 H 
ATOM     17  H   LIG d   1       3.986  -6.604  -5.701  0.00  0.00     0.057 H 
BRANCH  15  18
ATOM     18  O   LIG d   1       3.229  -5.314  -7.125  0.00  0.00    -0.394 OA
ATOM     19  H   LIG d   1       3.377  -4.431  -7.493  0.00  0.00     0.209 HD
ENDBRANCH  15  18
ENDBRANCH  12  15
ENDBRANCH  10  12
ENDBRANCH   3  10
BRANCH   4  20
ATOM     20  O   LIG d   1       4.792  -1.317  -6.611  0.00  0.00    -0.488 OA
BRANCH  20  21
ATOM     21  C   LIG d   1       4.340  -0.127  -7.263  0.00  0.00     0.113 C 
ATOM     22  H   LIG d   1       4.674   0.744  -6.700  0.00  0.00     0.072 H 
ATOM     23  H   LIG d   1       4.751  -0.087  -8.271  0.00  0.00     0.072 H 
BRANCH  21  24
ATOM     24  C   LIG d   1       2.812  -0.135  -7.333  0.00  0.00     0.078 C 
ATOM     25  H   LIG d   1       2.430  -1.025  -6.834  0.00  0.00     0.059 H 
ATOM     26  H   LIG d   1       2.420   0.754  -6.839  0.00  0.00     0.059 H 
BRANCH  24  27
ATOM     27  O   LIG d   1       2.397  -0.141  -8.700  0.00  0.00    -0.392 OA
ATOM     28  H   LIG d   1       1.896   0.643  -8.963  0.00  0.00     0.209 HD
ENDBRANCH  24  27
ENDBRANCH  21  24
ENDBRANCH  20  21
ENDBRANCH   4  20
BRANCH   6  29
ATOM     29  N   LIG d   1       5.340   0.960  -2.356  0.00  0.00     0.080 N 
ATOM     30  O   LIG d   1       6.158   1.739  -2.785  0.00  0.00     0.041 OA
ATOM     31  O   LIG d   1       4.813   1.164  -1.287  0.00  0.00    -0.576 OA
ENDBRANCH   6  29
TORSDOF 9
ENDMDL
MODEL 4
REMARK VINA RESULT:      -4.2     10.315     12.226
REMARK  9 active torsions:
REMARK  status: ('A' for Active; 'I' for Inactive)
REMARK    1  A    between atoms: C_3  and  N_14 
REMARK    2  A    between atoms: C_4  and  O_10 
REMARK    3  A    between atoms: C_6  and  N_7 
REMARK    4  A    between atoms: O_10  and  C_11 
REMARK    5  A    between atoms: C_11  and  C_12 
REMARK    6  A    between atoms: C_12  and  O_13 
REMARK    7  A    between atoms: N_14  and  C_15 
REMARK    8  A    between atoms: C_15  and  C_16 
REMARK    9  A    between atoms: C_16  and  O_17 
ROOT
ATOM      1  C   LIG d   1      10.867   8.770   0.312  0.00  0.00     0.018 A 
ATOM      2  C   LIG d   1      10.474   9.480  -0.808  0.00  0.00    -0.031 A 
ATOM      3  C   LIG d   1       9.923   8.814  -1.893  0.00  0.00     0.070 A 
ATOM      4  C   LIG d   1       9.768   7.430  -1.850  0.00  0.00     0.148 A 
ATOM      5  C   LIG d   1      10.164   6.726  -0.725  0.00  0.00     0.059 A 
ATOM      6  C   LIG d   1      10.713   7.397   0.353  0.00  0.00     0.277 A 
ATOM      7  H   LIG d   1      11.300   9.289   1.154  0.00  0.00     0.069 H 
ATOM      8  H   LIG d   1      10.595  10.553  -0.838  0.00  0.00     0.064 H 
ATOM      9  H   LIG d   1      10.045   5.654  -0.690  0.00  0.00     0.072 H 
ENDROOT
BRANCH   3  10
ATOM     10  N   LIG d   1       9.524   9.530  -3.027  0.00  0.00    -0.339 N 
ATOM     11  H   LIG d   1       9.005   9.092  -3.719  0.00  0.00     0.146 HD
BRANCH  10  12
ATOM     12  C   LIG d   1       9.891  10.942  -3.169  0.00  0.00     0.032 C 
ATOM     13  H   LIG d   1      10.095  11.365  -2.185  0.00  0.00     0.048 H 
ATOM     14  H   LIG d   1      10.782  11.024  -3.791  0.00  0.00     0.048 H 
BRANCH  12  15
ATOM     15  C   LIG d   1       8.738  11.705  -3.824  0.00  0.00     0.060 C 
ATOM     16  H   LIG d   1       9.004  12.757  -3.914  0.00  0.00     0.057 H 
ATOM     17  H   LIG d   1       8.545  11.292  -4.813  0.00  0.00     0.057 H 
BRANCH  15  18
ATOM     18  O   LIG d   1       7.565  11.578  -3.018  0.00  0.00    -0.394 OA
ATOM     19  H   LIG d   1       7.705  11.787  -2.083  0.00  0.00     0.209 HD
ENDBRANCH  15  18
ENDBRANCH  12  15
ENDBRANCH  10  12
ENDBRANCH   3  10
BRANCH   4  20
ATOM     20  O   LIG d   1       9.228   6.772  -2.911  0.00  0.00    -0.488 OA
BRANCH  20  21
ATOM     21  C   LIG d   1      10.141   6.165  -3.829  0.00  0.00     0.113 C 
ATOM     22  H   LIG d   1      11.152   6.514  -3.622  0.00  0.00     0.072 H 
ATOM     23  H   LIG d   1      10.101   5.082  -3.718  0.00  0.00     0.072 H 
BRANCH  21  24
ATOM     24  C   LIG d   1       9.753   6.546  -5.260  0.00  0.00     0.078 C 
ATOM     25  H   LIG d   1      10.651   6.795  -5.825  0.00  0.00     0.059 H 
ATOM     26  H   LIG d   1       9.246   5.707  -5.735  0.00  0.00     0.059 H 
BRANCH  24  27
ATOM     27  O   LIG d   1       8.879   7.676  -5.232  0.00  0.00    -0.392 OA
ATOM     28  H   LIG d   1       9.288   8.480  -4.883  0.00  0.00     0.209 HD
ENDBRANCH  24  27
ENDBRANCH  21  24
ENDBRANCH  20  21
ENDBRANCH   4  20
BRANCH   6  29
ATOM     29  N   LIG d   1      11.136   6.643   1.554  0.00  0.00     0.080 N 
ATOM     30  O   LIG d   1      11.141   5.435   1.539  0.00  0.00     0.041 OA
ATOM     31  O   LIG d   1      11.479   7.237   2.550  0.00  0.00    -0.576 OA
ENDBRANCH   6  29
TORSDOF 9
ENDMDL
MODEL 5
REMARK VINA RESULT:      -4.2     10.640     12.000
REMARK  9 active torsions:
REMARK  status: ('A' for Active; 'I' for Inactive)
REMARK    1  A    between atoms: C_3  and  N_14 
REMARK    2  A    between atoms: C_4  and  O_10 
REMARK    3  A    between atoms: C_6  and  N_7 
REMARK    4  A    between atoms: O_10  and  C_11 
REMARK    5  A    between atoms: C_11  and  C_12 
REMARK    6  A    between atoms: C_12  and  O_13 
REMARK    7  A    between atoms: N_14  and  C_15 
REMARK    8  A    between atoms: C_15  and  C_16 
REMARK    9  A    between atoms: C_16  and  O_17 
ROOT
ATOM      1  C   LIG d   1      10.522   5.969  -0.649  0.00  0.00     0.018 A 
ATOM      2  C   LIG d   1      10.017   5.925  -1.935  0.00  0.00    -0.031 A 
ATOM      3  C   LIG d   1       9.733   7.103  -2.609  0.00  0.00     0.070 A 
ATOM      4  C   LIG d   1       9.959   8.330  -1.986  0.00  0.00     0.148 A 
ATOM      5  C   LIG d   1      10.465   8.365  -0.698  0.00  0.00     0.059 A 
ATOM      6  C   LIG d   1      10.746   7.186  -0.032  0.00  0.00     0.277 A 
ATOM      7  H   LIG d   1      10.738   5.051  -0.123  0.00  0.00     0.069 H 
ATOM      8  H   LIG d   1       9.842   4.973  -2.415  0.00  0.00     0.064 H 
ATOM      9  H   LIG d   1      10.641   9.314  -0.214  0.00  0.00     0.072 H 
ENDROOT
BRANCH   3  10
ATOM     10  N   LIG d   1       9.221   7.061  -3.911  0.00  0.00    -0.339 N 
ATOM     11  H   LIG d   1       8.263   7.010  -4.055  0.00  0.00     0.146 HD
BRANCH  10  12
ATOM     12  C   LIG d   1      10.133   7.096  -5.058  0.00  0.00     0.032 C 
ATOM     13  H   LIG d   1      11.135   7.355  -4.717  0.00  0.00     0.048 H 
ATOM     14  H   LIG d   1      10.153   6.115  -5.534  0.00  0.00     0.048 H 
BRANCH  12  15
ATOM     15  C   LIG d   1       9.648   8.142  -6.064  0.00  0.00     0.060 C 
ATOM     16  H   LIG d   1      10.486   8.470  -6.677  0.00  0.00     0.057 H 
ATOM     17  H   LIG d   1       8.880   7.705  -6.701  0.00  0.00     0.057 H 
BRANCH  15  18
ATOM     18  O   LIG d   1       9.104   9.261  -5.361  0.00  0.00    -0.394 OA
ATOM     19  H   LIG d   1       9.319   9.276  -4.418  0.00  0.00     0.209 HD
ENDBRANCH  15  18
ENDBRANCH  12  15
ENDBRANCH  10  12
ENDBRANCH   3  10
BRANCH   4  20
ATOM     20  O   LIG d   1       9.682   9.488  -2.643  0.00  0.00    -0.488 OA
BRANCH  20  21
ATOM     21  C   LIG d   1       9.478  10.654  -1.842  0.00  0.00     0.113 C 
ATOM     22  H   LIG d   1       8.761  10.431  -1.052  0.00  0.00     0.072 H 
ATOM     23  H   LIG d   1      10.424  10.960  -1.398  0.00  0.00     0.072 H 
BRANCH  21  24
ATOM     24  C   LIG d   1       8.935  11.785  -2.718  0.00  0.00     0.078 C 
ATOM     25  H   LIG d   1       9.008  12.729  -2.179  0.00  0.00     0.059 H 
ATOM     26  H   LIG d   1       9.519  11.846  -3.636  0.00  0.00     0.059 H 
BRANCH  24  27
ATOM     27  O   LIG d   1       7.567  11.525  -3.040  0.00  0.00    -0.392 OA
ATOM     28  H   LIG d   1       7.211  12.095  -3.735  0.00  0.00     0.209 HD
ENDBRANCH  24  27
ENDBRANCH  21  24
ENDBRANCH  20  21
ENDBRANCH   4  20
BRANCH   6  29
ATOM     29  N   LIG d   1      11.286   7.226   1.345  0.00  0.00     0.080 N 
ATOM     30  O   LIG d   1      11.796   8.238   1.765  0.00  0.00     0.041 OA
ATOM     31  O   LIG d   1      11.217   6.246   2.050  0.00  0.00    -0.576 OA
ENDBRANCH   6  29
TORSDOF 9
ENDMDL
MODEL 6
REMARK VINA RESULT:      -4.1      2.593      5.374
REMARK  9 active torsions:
REMARK  status: ('A' for Active; 'I' for Inactive)
REMARK    1  A    between atoms: C_3  and  N_14 
REMARK    2  A    between atoms: C_4  and  O_10 
REMARK    3  A    between atoms: C_6  and  N_7 
REMARK    4  A    between atoms: O_10  and  C_11 
REMARK    5  A    between atoms: C_11  and  C_12 
REMARK    6  A    between atoms: C_12  and  O_13 
REMARK    7  A    between atoms: N_14  and  C_15 
REMARK    8  A    between atoms: C_15  and  C_16 
REMARK    9  A    between atoms: C_16  and  O_17 
ROOT
ATOM      1  C   LIG d   1       6.397  -3.787  -4.930  0.00  0.00     0.018 A 
ATOM      2  C   LIG d   1       7.213  -2.825  -4.363  0.00  0.00    -0.031 A 
ATOM      3  C   LIG d   1       6.756  -1.523  -4.225  0.00  0.00     0.070 A 
ATOM      4  C   LIG d   1       5.473  -1.189  -4.657  0.00  0.00     0.148 A 
ATOM      5  C   LIG d   1       4.663  -2.158  -5.222  0.00  0.00     0.059 A 
ATOM      6  C   LIG d   1       5.125  -3.455  -5.357  0.00  0.00     0.277 A 
ATOM      7  H   LIG d   1       6.756  -4.800  -5.041  0.00  0.00     0.069 H 
ATOM      8  H   LIG d   1       8.206  -3.086  -4.029  0.00  0.00     0.064 H 
ATOM      9  H   LIG d   1       3.669  -1.902  -5.558  0.00  0.00     0.072 H 
ENDROOT
BRANCH   3  10
ATOM     10  N   LIG d   1       7.579  -0.547  -3.652  0.00  0.00    -0.339 N 
ATOM     11  H   LIG d   1       7.518  -0.356  -2.703  0.00  0.00     0.146 HD
BRANCH  10  12
ATOM     12  C   LIG d   1       8.535   0.187  -4.486  0.00  0.00     0.032 C 
ATOM     13  H   LIG d   1       9.541  -0.190  -4.303  0.00  0.00     0.048 H 
ATOM     14  H   LIG d   1       8.280   0.047  -5.537  0.00  0.00     0.048 H 
BRANCH  12  15
ATOM     15  C   LIG d   1       8.477   1.676  -4.140  0.00  0.00     0.060 C 
ATOM     16  H   LIG d   1       8.728   1.814  -3.089  0.00  0.00     0.057 H 
ATOM     17  H   LIG d   1       9.189   2.221  -4.759  0.00  0.00     0.057 H 
BRANCH  15  18
ATOM     18  O   LIG d   1       7.158   2.170  -4.384  0.00  0.00    -0.394 OA
ATOM     19  H   LIG d   1       6.470   1.490  -4.348  0.00  0.00     0.209 HD
ENDBRANCH  15  18
ENDBRANCH  12  15
ENDBRANCH  10  12
ENDBRANCH   3  10
BRANCH   4  20
ATOM     20  O   LIG d   1       5.020   0.087  -4.523  0.00  0.00    -0.488 OA
BRANCH  20  21
ATOM     21  C   LIG d   1       3.881   0.285  -3.681  0.00  0.00     0.113 C 
ATOM     22  H   LIG d   1       3.327   1.160  -4.020  0.00  0.00     0.072 H 
ATOM     23  H   LIG d   1       3.238  -0.593  -3.728  0.00  0.00     0.072 H 
BRANCH  21  24
ATOM     24  C   LIG d   1       4.346   0.502  -2.240  0.00  0.00     0.078 C 
ATOM     25  H   LIG d   1       3.539   0.954  -1.662  0.00  0.00     0.059 H 
ATOM     26  H   LIG d   1       4.617  -0.456  -1.796  0.00  0.00     0.059 H 
BRANCH  24  27
ATOM     27  O   LIG d   1       5.482   1.369  -2.230  0.00  0.00    -0.392 OA
ATOM     28  H   LIG d   1       6.188   1.086  -1.634  0.00  0.00     0.209 HD
ENDBRANCH  24  27
ENDBRANCH  21  24
ENDBRANCH  20  21
ENDBRANCH   4  20
BRANCH   6  29
ATOM     29  N   LIG d   1       4.257  -4.489  -5.963  0.00  0.00     0.080 N 
ATOM     30  O   LIG d   1       3.875  -4.367  -7.103  0.00  0.00     0.041 OA
ATOM     31  O   LIG d   1       3.932  -5.458  -5.317  0.00  0.00    -0.576 OA
ENDBRANCH   6  29
TORSDOF 9
ENDMDL
MODEL 7
REMARK VINA RESULT:      -4.1     10.777     12.663
REMARK  9 active torsions:
REMARK  status: ('A' for Active; 'I' for Inactive)
REMARK    1  A    between atoms: C_3  and  N_14 
REMARK    2  A    between atoms: C_4  and  O_10 
REMARK    3  A    between atoms: C_6  and  N_7 
REMARK    4  A    between atoms: O_10  and  C_11 
REMARK    5  A    between atoms: C_11  and  C_12 
REMARK    6  A    between atoms: C_12  and  O_13 
REMARK    7  A    between atoms: N_14  and  C_15 
REMARK    8  A    between atoms: C_15  and  C_16 
REMARK    9  A    between atoms: C_16  and  O_17 
ROOT
ATOM      1  C   LIG d   1      11.050   7.345   0.676  0.00  0.00     0.018 A 
ATOM      2  C   LIG d   1      10.409   6.817  -0.430  0.00  0.00    -0.031 A 
ATOM      3  C   LIG d   1       9.810   7.661  -1.352  0.00  0.00     0.070 A 
ATOM      4  C   LIG d   1       9.857   9.042  -1.162  0.00  0.00     0.148 A 
ATOM      5  C   LIG d   1      10.501   9.562  -0.052  0.00  0.00     0.059 A 
ATOM      6  C   LIG d   1      11.096   8.713   0.864  0.00  0.00     0.277 A 
ATOM      7  H   LIG d   1      11.513   6.686   1.396  0.00  0.00     0.069 H 
ATOM      8  H   LIG d   1      10.375   5.747  -0.575  0.00  0.00     0.064 H 
ATOM      9  H   LIG d   1      10.538  10.631   0.098  0.00  0.00     0.072 H 
ENDROOT
BRANCH   3  10
ATOM     10  N   LIG d   1       9.160   7.130  -2.473  0.00  0.00    -0.339 N 
ATOM     11  H   LIG d   1       8.192   7.147  -2.525  0.00  0.00     0.146 HD
BRANCH  10  12
ATOM     12  C   LIG d   1       9.944   6.548  -3.566  0.00  0.00     0.032 C 
ATOM     13  H   LIG d   1      11.003   6.741  -3.396  0.00  0.00     0.048 H 
ATOM     14  H   LIG d   1       9.771   5.472  -3.603  0.00  0.00     0.048 H 
BRANCH  12  15
ATOM     15  C   LIG d   1       9.515   7.180  -4.892  0.00  0.00     0.060 C 
ATOM     16  H   LIG d   1      10.319   7.075  -5.620  0.00  0.00     0.057 H 
ATOM     17  H   LIG d   1       8.622   6.678  -5.262  0.00  0.00     0.057 H 
BRANCH  15  18
ATOM     18  O   LIG d   1       9.234   8.566  -4.690  0.00  0.00    -0.394 OA
ATOM     19  H   LIG d   1      10.013   9.138  -4.742  0.00  0.00     0.209 HD
ENDBRANCH  15  18
ENDBRANCH  12  15
ENDBRANCH  10  12
ENDBRANCH   3  10
BRANCH   4  20
ATOM     20  O   LIG d   1       9.271   9.874  -2.064  0.00  0.00    -0.488 OA
BRANCH  20  21
ATOM     21  C   LIG d   1       9.759  11.216  -2.119  0.00  0.00     0.113 C 
ATOM     22  H   LIG d   1       9.737  11.653  -1.120  0.00  0.00     0.072 H 
ATOM     23  H   LIG d   1      10.783  11.215  -2.492  0.00  0.00     0.072 H 
BRANCH  21  24
ATOM     24  C   LIG d   1       8.874  12.042  -3.055  0.00  0.00     0.078 C 
ATOM     25  H   LIG d   1       8.875  13.083  -2.732  0.00  0.00     0.059 H 
ATOM     26  H   LIG d   1       9.262  11.978  -4.072  0.00  0.00     0.059 H 
BRANCH  24  27
ATOM     27  O   LIG d   1       7.540  11.534  -3.022  0.00  0.00    -0.392 OA
ATOM     28  H   LIG d   1       7.287  11.148  -2.172  0.00  0.00     0.209 HD
ENDBRANCH  24  27
ENDBRANCH  21  24
ENDBRANCH  20  21
ENDBRANCH   4  20
BRANCH   6  29
ATOM     29  N   LIG d   1      11.783   9.272   2.050  0.00  0.00     0.080 N 
ATOM     30  O   LIG d   1      12.036   8.561   2.994  0.00  0.00     0.041 OA
ATOM     31  O   LIG d   1      12.094  10.440   2.073  0.00  0.00    -0.576 OA
ENDBRANCH   6  29
TORSDOF 9
ENDMDL
MODEL 8
REMARK VINA RESULT:      -4.0     10.366     12.575
REMARK  9 active torsions:
REMARK  status: ('A' for Active; 'I' for Inactive)
REMARK    1  A    between atoms: C_3  and  N_14 
REMARK    2  A    between atoms: C_4  and  O_10 
REMARK    3  A    between atoms: C_6  and  N_7 
REMARK    4  A    between atoms: O_10  and  C_11 
REMARK    5  A    between atoms: C_11  and  C_12 
REMARK    6  A    between atoms: C_12  and  O_13 
REMARK    7  A    between atoms: N_14  and  C_15 
REMARK    8  A    between atoms: C_15  and  C_16 
REMARK    9  A    between atoms: C_16  and  O_17 
ROOT
ATOM      1  C   LIG d   1       9.771   6.598  -5.669  0.00  0.00     0.018 A 
ATOM      2  C   LIG d   1      10.072   6.663  -4.320  0.00  0.00    -0.031 A 
ATOM      3  C   LIG d   1      10.130   7.893  -3.682  0.00  0.00     0.070 A 
ATOM      4  C   LIG d   1       9.884   9.061  -4.403  0.00  0.00     0.148 A 
ATOM      5  C   LIG d   1       9.583   8.986  -5.753  0.00  0.00     0.059 A 
ATOM      6  C   LIG d   1       9.527   7.756  -6.383  0.00  0.00     0.277 A 
ATOM      7  H   LIG d   1       9.731   5.640  -6.165  0.00  0.00     0.069 H 
ATOM      8  H   LIG d   1      10.262   5.757  -3.764  0.00  0.00     0.064 H 
ATOM      9  H   LIG d   1       9.392   9.889  -6.314  0.00  0.00     0.072 H 
ENDROOT
BRANCH   3  10
ATOM     10  N   LIG d   1      10.434   7.963  -2.318  0.00  0.00    -0.339 N 
ATOM     11  H   LIG d   1      11.350   8.106  -2.031  0.00  0.00     0.146 HD
BRANCH  10  12
ATOM     12  C   LIG d   1       9.369   7.820  -1.322  0.00  0.00     0.032 C 
ATOM     13  H   LIG d   1       8.443   7.529  -1.819  0.00  0.00     0.048 H 
ATOM     14  H   LIG d   1       9.649   7.053  -0.599  0.00  0.00     0.048 H 
BRANCH  12  15
ATOM     15  C   LIG d   1       9.164   9.153  -0.599  0.00  0.00     0.060 C 
ATOM     16  H   LIG d   1       8.956   8.966   0.454  0.00  0.00     0.057 H 
ATOM     17  H   LIG d   1      10.065   9.758  -0.690  0.00  0.00     0.057 H 
BRANCH  15  18
ATOM     18  O   LIG d   1       8.062   9.848  -1.186  0.00  0.00    -0.394 OA
ATOM     19  H   LIG d   1       8.291  10.718  -1.543  0.00  0.00     0.209 HD
ENDBRANCH  15  18
ENDBRANCH  12  15
ENDBRANCH  10  12
ENDBRANCH   3  10
BRANCH   4  20
ATOM     20  O   LIG d   1       9.939  10.270  -3.782  0.00  0.00    -0.488 OA
BRANCH  20  21
ATOM     21  C   LIG d   1       9.399  11.388  -4.491  0.00  0.00     0.113 C 
ATOM     22  H   LIG d   1      10.206  11.929  -4.984  0.00  0.00     0.072 H 
ATOM     23  H   LIG d   1       8.689  11.035  -5.238  0.00  0.00     0.072 H 
BRANCH  21  24
ATOM     24  C   LIG d   1       8.688  12.319  -3.507  0.00  0.00     0.078 C 
ATOM     25  H   LIG d   1       9.335  12.504  -2.649  0.00  0.00     0.059 H 
ATOM     26  H   LIG d   1       8.460  13.264  -4.000  0.00  0.00     0.059 H 
BRANCH  24  27
ATOM     27  O   LIG d   1       7.474  11.708  -3.065  0.00  0.00    -0.392 OA
ATOM     28  H   LIG d   1       6.932  12.273  -2.499  0.00  0.00     0.209 HD
ENDBRANCH  24  27
ENDBRANCH  21  24
ENDBRANCH  20  21
ENDBRANCH   4  20
BRANCH   6  29
ATOM     29  N   LIG d   1       9.207   7.679  -7.825  0.00  0.00     0.080 N 
ATOM     30  O   LIG d   1       9.603   6.747  -8.484  0.00  0.00     0.041 OA
ATOM     31  O   LIG d   1       8.547   8.549  -8.345  0.00  0.00    -0.576 OA
ENDBRANCH   6  29
TORSDOF 9
ENDMDL
MODEL 9
REMARK VINA RESULT:      -3.9      2.968      5.665
REMARK  9 active torsions:
REMARK  status: ('A' for Active; 'I' for Inactive)
REMARK    1  A    between atoms: C_3  and  N_14 
REMARK    2  A    between atoms: C_4  and  O_10 
REMARK    3  A    between atoms: C_6  and  N_7 
REMARK    4  A    between atoms: O_10  and  C_11 
REMARK    5  A    between atoms: C_11  and  C_12 
REMARK    6  A    between atoms: C_12  and  O_13 
REMARK    7  A    between atoms: N_14  and  C_15 
REMARK    8  A    between atoms: C_15  and  C_16 
REMARK    9  A    between atoms: C_16  and  O_17 
ROOT
ATOM      1  C   LIG d   1       3.148   0.890  -7.873  0.00  0.00     0.018 A 
ATOM      2  C   LIG d   1       2.793   0.290  -6.679  0.00  0.00    -0.031 A 
ATOM      3  C   LIG d   1       3.746  -0.388  -5.934  0.00  0.00     0.070 A 
ATOM      4  C   LIG d   1       5.061  -0.460  -6.391  0.00  0.00     0.148 A 
ATOM      5  C   LIG d   1       5.408   0.144  -7.588  0.00  0.00     0.059 A 
ATOM      6  C   LIG d   1       4.452   0.817  -8.326  0.00  0.00     0.277 A 
ATOM      7  H   LIG d   1       2.404   1.413  -8.455  0.00  0.00     0.069 H 
ATOM      8  H   LIG d   1       1.774   0.348  -6.327  0.00  0.00     0.064 H 
ATOM      9  H   LIG d   1       6.426   0.089  -7.945  0.00  0.00     0.072 H 
ENDROOT
BRANCH   3  10
ATOM     10  N   LIG d   1       3.390  -0.996  -4.725  0.00  0.00    -0.339 N 
ATOM     11  H   LIG d   1       3.653  -1.913  -4.547  0.00  0.00     0.146 HD
BRANCH  10  12
ATOM     12  C   LIG d   1       2.621  -0.248  -3.727  0.00  0.00     0.032 C 
ATOM     13  H   LIG d   1       1.820   0.301  -4.223  0.00  0.00     0.048 H 
ATOM     14  H   LIG d   1       2.192  -0.943  -3.004  0.00  0.00     0.048 H 
BRANCH  12  15
ATOM     15  C   LIG d   1       3.543   0.736  -3.004  0.00  0.00     0.060 C 
ATOM     16  H   LIG d   1       4.341   1.047  -3.677  0.00  0.00     0.057 H 
ATOM     17  H   LIG d   1       2.970   1.608  -2.692  0.00  0.00     0.057 H 
BRANCH  15  18
ATOM     18  O   LIG d   1       4.108   0.101  -1.855  0.00  0.00    -0.394 OA
ATOM     19  H   LIG d   1       3.638  -0.697  -1.576  0.00  0.00     0.209 HD
ENDBRANCH  15  18
ENDBRANCH  12  15
ENDBRANCH  10  12
ENDBRANCH   3  10
BRANCH   4  20
ATOM     20  O   LIG d   1       6.000  -1.123  -5.664  0.00  0.00    -0.488 OA
BRANCH  20  21
ATOM     21  C   LIG d   1       6.884  -0.329  -4.869  0.00  0.00     0.113 C 
ATOM     22  H   LIG d   1       7.885  -0.358  -5.298  0.00  0.00     0.072 H 
ATOM     23  H   LIG d   1       6.527   0.701  -4.848  0.00  0.00     0.072 H 
BRANCH  21  24
ATOM     24  C   LIG d   1       6.924  -0.884  -3.443  0.00  0.00     0.078 C 
ATOM     25  H   LIG d   1       7.900  -1.330  -3.255  0.00  0.00     0.059 H 
ATOM     26  H   LIG d   1       6.751  -0.076  -2.733  0.00  0.00     0.059 H 
BRANCH  24  27
ATOM     27  O   LIG d   1       5.909  -1.878  -3.290  0.00  0.00    -0.392 OA
ATOM     28  H   LIG d   1       6.204  -2.776  -3.491  0.00  0.00     0.209 HD
ENDBRANCH  24  27
ENDBRANCH  21  24
ENDBRANCH  20  21
ENDBRANCH   4  20
BRANCH   6  29
ATOM     29  N   LIG d   1       4.825   1.462  -9.605  0.00  0.00     0.080 N 
ATOM     30  O   LIG d   1       3.981   1.679 -10.442  0.00  0.00     0.041 OA
ATOM     31  O   LIG d   1       5.975   1.772  -9.812  0.00  0.00    -0.576 OA
ENDBRANCH   6  29
TORSDOF 9
ENDMDL
