MODEL 1
REMARK VINA RESULT:      -6.1      0.000      0.000
REMARK  5 active torsions:
REMARK  status: ('A' for Active; 'I' for Inactive)
REMARK    1  A    between atoms: C_1  and  C_2 
REMARK    2  A    between atoms: C_5  and  O_29 
REMARK    3  A    between atoms: C_19  and  C_28 
REMARK    4  A    between atoms: C_24  and  C_25 
REMARK    5  A    between atoms: C_24  and  O_27 
ROOT
ATOM      1  C   LIG d   1       5.421   0.377  -2.476  0.00  0.00    -0.070 C 
ATOM      2  C   LIG d   1       4.666   0.889  -1.736  0.00  0.00    -0.116 C 
ATOM      3  H   LIG d   1       3.991   1.347  -1.075  0.00  0.00     0.123 H 
ENDROOT
BRANCH   1   4
ATOM      4  C   LIG d   1       6.367  -0.265  -3.403  0.00  0.00     0.132 C 
ATOM      5  C   LIG d   1       5.594  -0.971  -4.548  0.00  0.00     0.011 C 
ATOM      6  C   LIG d   1       4.289  -0.192  -4.743  0.00  0.00    -0.043 C 
ATOM      7  C   LIG d   1       6.501  -0.779  -5.771  0.00  0.00    -0.029 C 
ATOM      8  C   LIG d   1       3.615  -0.642  -6.035  0.00  0.00    -0.049 C 
ATOM      9  H   LIG d   1       3.623  -0.381  -3.902  0.00  0.00     0.027 H 
ATOM     10  H   LIG d   1       4.507   0.875  -4.801  0.00  0.00     0.027 H 
ATOM     11  C   LIG d   1       4.491  -0.277  -7.227  0.00  0.00    -0.030 C 
ATOM     12  H   LIG d   1       3.465  -1.721  -6.008  0.00  0.00     0.027 H 
ATOM     13  H   LIG d   1       2.651  -0.144  -6.133  0.00  0.00     0.027 H 
ATOM     14  C   LIG d   1       3.776  -0.795  -8.476  0.00  0.00     0.003 C 
ATOM     15  C   LIG d   1       5.834  -1.004  -7.108  0.00  0.00    -0.032 C 
ATOM     16  H   LIG d   1       4.647   0.799  -7.300  0.00  0.00     0.031 H 
ATOM     17  C   LIG d   1       4.624  -0.572  -9.722  0.00  0.00     0.104 A 
ATOM     18  C   LIG d   1       2.418  -0.126  -8.673  0.00  0.00    -0.042 C 
ATOM     19  C   LIG d   1       3.986  -1.116 -11.008  0.00  0.00     0.005 C 
ATOM     20  O   LIG d   1       5.339   0.655  -9.866  0.00  0.00    -0.364 OA
ATOM     21  C   LIG d   1       6.130  -0.514  -9.579  0.00  0.00     0.089 A 
ATOM     22  C   LIG d   1       2.607  -0.460 -11.160  0.00  0.00     0.058 C 
ATOM     23  H   LIG d   1       4.610  -0.866 -11.865  0.00  0.00     0.032 H 
ATOM     24  H   LIG d   1       3.875  -2.199 -10.935  0.00  0.00     0.032 H 
ATOM     25  C   LIG d   1       1.756  -0.725  -9.919  0.00  0.00    -0.026 C 
ATOM     26  H   LIG d   1       2.732   0.615 -11.285  0.00  0.00     0.059 H 
ATOM     27  H   LIG d   1       0.772  -0.275 -10.055  0.00  0.00     0.029 H 
ATOM     28  H   LIG d   1       1.643  -1.801  -9.783  0.00  0.00     0.029 H 
ATOM     29  H   LIG d   1       6.731  -0.931 -10.387  0.00  0.00     0.062 H 
ATOM     30  C   LIG d   1       6.785  -0.498  -8.201  0.00  0.00    -0.021 C 
ATOM     31  H   LIG d   1       7.087   0.521  -7.963  0.00  0.00     0.029 H 
ATOM     32  H   LIG d   1       7.670  -1.134  -8.220  0.00  0.00     0.029 H 
ATOM     33  H   LIG d   1       1.790  -0.307  -7.801  0.00  0.00     0.027 H 
ATOM     34  H   LIG d   1       2.556   0.946  -8.812  0.00  0.00     0.027 H 
ATOM     35  H   LIG d   1       5.678  -2.072  -7.256  0.00  0.00     0.031 H 
ATOM     36  H   LIG d   1       7.348  -1.460  -5.685  0.00  0.00     0.031 H 
ATOM     37  C   LIG d   1       7.016   0.665  -5.619  0.00  0.00    -0.046 C 
ATOM     38  C   LIG d   1       7.260   0.802  -4.098  0.00  0.00    -0.012 C 
ATOM     39  H   LIG d   1       7.946   0.800  -6.171  0.00  0.00     0.027 H 
ATOM     40  H   LIG d   1       6.263   1.378  -5.953  0.00  0.00     0.027 H 
ATOM     41  H   LIG d   1       8.310   0.615  -3.870  0.00  0.00     0.030 H 
ATOM     42  H   LIG d   1       6.978   1.800  -3.764  0.00  0.00     0.030 H 
BRANCH   5  43
ATOM     43  C   LIG d   1       5.340  -2.450  -4.247  0.00  0.00    -0.056 C 
ATOM     44  H   LIG d   1       6.293  -2.974  -4.175  0.00  0.00     0.024 H 
ATOM     45  H   LIG d   1       4.803  -2.541  -3.303  0.00  0.00     0.024 H 
ATOM     46  H   LIG d   1       4.744  -2.886  -5.049  0.00  0.00     0.024 H 
ENDBRANCH   5  43
BRANCH  14  47
ATOM     47  C   LIG d   1       3.543  -2.298  -8.312  0.00  0.00    -0.057 C 
ATOM     48  H   LIG d   1       2.473  -2.506  -8.344  0.00  0.00     0.024 H 
ATOM     49  H   LIG d   1       4.042  -2.833  -9.120  0.00  0.00     0.024 H 
ATOM     50  H   LIG d   1       3.947  -2.627  -7.354  0.00  0.00     0.024 H 
ENDBRANCH  14  47
BRANCH  22  51
ATOM     51  O   LIG d   1       1.950  -0.998 -12.308  0.00  0.00    -0.392 OA
ATOM     52  H   LIG d   1       2.346  -1.815 -12.641  0.00  0.00     0.210 HD
ENDBRANCH  22  51
BRANCH   4  53
ATOM     53  O   LIG d   1       7.177  -1.209  -2.701  0.00  0.00    -0.376 OA
ATOM     54  H   LIG d   1       6.940  -1.317  -1.770  0.00  0.00     0.211 HD
ENDBRANCH   4  53
ENDBRANCH   1   4
TORSDOF 5
ENDMDL
MODEL 2
REMARK VINA RESULT:      -5.9      3.349      5.903
REMARK  5 active torsions:
REMARK  status: ('A' for Active; 'I' for Inactive)
REMARK    1  A    between atoms: C_1  and  C_2 
REMARK    2  A    between atoms: C_5  and  O_29 
REMARK    3  A    between atoms: C_19  and  C_28 
REMARK    4  A    between atoms: C_24  and  C_25 
REMARK    5  A    between atoms: C_24  and  O_27 
ROOT
ATOM      1  C   LIG d   1       3.543   0.775  -2.991  0.00  0.00    -0.070 C 
ATOM      2  C   LIG d   1       3.748   1.790  -2.437  0.00  0.00    -0.116 C 
ATOM      3  H   LIG d   1       3.932   2.697  -1.943  0.00  0.00     0.123 H 
ENDROOT
BRANCH   1   4
ATOM      4  C   LIG d   1       3.285  -0.498  -3.685  0.00  0.00     0.132 C 
ATOM      5  C   LIG d   1       4.397  -0.766  -4.734  0.00  0.00     0.011 C 
ATOM      6  C   LIG d   1       5.667  -0.085  -4.214  0.00  0.00    -0.043 C 
ATOM      7  C   LIG d   1       4.571  -2.290  -4.698  0.00  0.00    -0.029 C 
ATOM      8  C   LIG d   1       6.865  -0.547  -5.036  0.00  0.00    -0.049 C 
ATOM      9  H   LIG d   1       5.562   0.996  -4.300  0.00  0.00     0.027 H 
ATOM     10  H   LIG d   1       5.820  -0.352  -3.168  0.00  0.00     0.027 H 
ATOM     11  C   LIG d   1       7.088  -2.039  -4.830  0.00  0.00    -0.030 C 
ATOM     12  H   LIG d   1       6.679  -0.347  -6.091  0.00  0.00     0.027 H 
ATOM     13  H   LIG d   1       7.755  -0.004  -4.716  0.00  0.00     0.027 H 
ATOM     14  C   LIG d   1       8.271  -2.436  -5.714  0.00  0.00     0.003 C 
ATOM     15  C   LIG d   1       5.853  -2.805  -5.312  0.00  0.00    -0.032 C 
ATOM     16  H   LIG d   1       7.298  -2.277  -3.787  0.00  0.00     0.031 H 
ATOM     17  C   LIG d   1       8.512  -3.940  -5.660  0.00  0.00     0.104 A 
ATOM     18  C   LIG d   1       9.553  -1.714  -5.306  0.00  0.00    -0.042 C 
ATOM     19  C   LIG d   1       9.656  -4.414  -6.567  0.00  0.00     0.005 C 
ATOM     20  O   LIG d   1       8.402  -4.618  -4.408  0.00  0.00    -0.364 OA
ATOM     21  C   LIG d   1       7.345  -4.855  -5.358  0.00  0.00     0.089 A 
ATOM     22  C   LIG d   1      10.921  -3.643  -6.165  0.00  0.00     0.058 C 
ATOM     23  H   LIG d   1       9.817  -5.483  -6.430  0.00  0.00     0.032 H 
ATOM     24  H   LIG d   1       9.412  -4.207  -7.609  0.00  0.00     0.032 H 
ATOM     25  C   LIG d   1      10.676  -2.138  -6.260  0.00  0.00    -0.026 C 
ATOM     26  H   LIG d   1      11.188  -3.898  -5.140  0.00  0.00     0.059 H 
ATOM     27  H   LIG d   1      11.591  -1.607  -5.998  0.00  0.00     0.029 H 
ATOM     28  H   LIG d   1      10.393  -1.884  -7.282  0.00  0.00     0.029 H 
ATOM     29  H   LIG d   1       7.319  -5.824  -5.857  0.00  0.00     0.062 H 
ATOM     30  C   LIG d   1       5.992  -4.286  -4.937  0.00  0.00    -0.021 C 
ATOM     31  H   LIG d   1       5.884  -4.391  -3.858  0.00  0.00     0.029 H 
ATOM     32  H   LIG d   1       5.200  -4.852  -5.428  0.00  0.00     0.029 H 
ATOM     33  H   LIG d   1       9.403  -0.637  -5.373  0.00  0.00     0.027 H 
ATOM     34  H   LIG d   1       9.818  -1.987  -4.286  0.00  0.00     0.027 H 
ATOM     35  H   LIG d   1       5.785  -2.731  -6.397  0.00  0.00     0.031 H 
ATOM     36  H   LIG d   1       3.728  -2.749  -5.213  0.00  0.00     0.031 H 
ATOM     37  C   LIG d   1       4.473  -2.631  -3.199  0.00  0.00    -0.046 C 
ATOM     38  C   LIG d   1       3.359  -1.689  -2.687  0.00  0.00    -0.012 C 
ATOM     39  H   LIG d   1       4.187  -3.674  -3.061  0.00  0.00     0.027 H 
ATOM     40  H   LIG d   1       5.416  -2.420  -2.694  0.00  0.00     0.027 H 
ATOM     41  H   LIG d   1       2.404  -2.216  -2.666  0.00  0.00     0.030 H 
ATOM     42  H   LIG d   1       3.606  -1.326  -1.690  0.00  0.00     0.030 H 
BRANCH   5  43
ATOM     43  C   LIG d   1       4.007  -0.265  -6.128  0.00  0.00    -0.056 C 
ATOM     44  H   LIG d   1       3.120   0.364  -6.052  0.00  0.00     0.024 H 
ATOM     45  H   LIG d   1       4.829   0.315  -6.548  0.00  0.00     0.024 H 
ATOM     46  H   LIG d   1       3.795  -1.117  -6.774  0.00  0.00     0.024 H 
ENDBRANCH   5  43
BRANCH  14  47
ATOM     47  C   LIG d   1       7.948  -2.049  -7.158  0.00  0.00    -0.057 C 
ATOM     48  H   LIG d   1       8.500  -1.148  -7.425  0.00  0.00     0.024 H 
ATOM     49  H   LIG d   1       8.235  -2.862  -7.825  0.00  0.00     0.024 H 
ATOM     50  H   LIG d   1       6.879  -1.861  -7.254  0.00  0.00     0.024 H 
ENDBRANCH  14  47
BRANCH  22  51
ATOM     51  O   LIG d   1      11.993  -4.004  -7.037  0.00  0.00    -0.392 OA
ATOM     52  H   LIG d   1      12.179  -4.953  -7.061  0.00  0.00     0.210 HD
ENDBRANCH  22  51
BRANCH   4  53
ATOM     53  O   LIG d   1       2.007  -0.460  -4.321  0.00  0.00    -0.376 OA
ATOM     54  H   LIG d   1       1.512   0.355  -4.162  0.00  0.00     0.211 HD
ENDBRANCH   4  53
ENDBRANCH   1   4
TORSDOF 5
ENDMDL
MODEL 3
REMARK VINA RESULT:      -5.8      3.837      6.593
REMARK  5 active torsions:
REMARK  status: ('A' for Active; 'I' for Inactive)
REMARK    1  A    between atoms: C_1  and  C_2 
REMARK    2  A    between atoms: C_5  and  O_29 
REMARK    3  A    between atoms: C_19  and  C_28 
REMARK    4  A    between atoms: C_24  and  C_25 
REMARK    5  A    between atoms: C_24  and  O_27 
ROOT
ATOM      1  C   LIG d   1       5.986  -7.720  -6.229  0.00  0.00    -0.070 C 
ATOM      2  C   LIG d   1       5.310  -8.624  -5.907  0.00  0.00    -0.116 C 
ATOM      3  H   LIG d   1       4.704  -9.432  -5.618  0.00  0.00     0.123 H 
ENDROOT
BRANCH   1   4
ATOM      4  C   LIG d   1       6.835  -6.588  -6.634  0.00  0.00     0.132 C 
ATOM      5  C   LIG d   1       6.052  -5.256  -6.486  0.00  0.00     0.011 C 
ATOM      6  C   LIG d   1       5.038  -5.465  -5.356  0.00  0.00    -0.043 C 
ATOM      7  C   LIG d   1       7.123  -4.251  -6.043  0.00  0.00    -0.029 C 
ATOM      8  C   LIG d   1       4.436  -4.123  -4.957  0.00  0.00    -0.049 C 
ATOM      9  H   LIG d   1       4.246  -6.131  -5.697  0.00  0.00     0.027 H 
ATOM     10  H   LIG d   1       5.539  -5.909  -4.495  0.00  0.00     0.027 H 
ATOM     11  C   LIG d   1       5.520  -3.226  -4.372  0.00  0.00    -0.030 C 
ATOM     12  H   LIG d   1       4.001  -3.646  -5.834  0.00  0.00     0.027 H 
ATOM     13  H   LIG d   1       3.660  -4.282  -4.208  0.00  0.00     0.027 H 
ATOM     14  C   LIG d   1       4.855  -1.890  -4.037  0.00  0.00     0.003 C 
ATOM     15  C   LIG d   1       6.593  -2.973  -5.435  0.00  0.00    -0.032 C 
ATOM     16  H   LIG d   1       5.967  -3.661  -3.478  0.00  0.00     0.031 H 
ATOM     17  C   LIG d   1       5.882  -0.880  -3.540  0.00  0.00     0.104 A 
ATOM     18  C   LIG d   1       3.763  -2.047  -2.983  0.00  0.00    -0.042 C 
ATOM     19  C   LIG d   1       5.288   0.503  -3.232  0.00  0.00     0.005 C 
ATOM     20  O   LIG d   1       6.912  -1.314  -2.651  0.00  0.00    -0.364 OA
ATOM     21  C   LIG d   1       7.318  -1.012  -4.000  0.00  0.00     0.089 A 
ATOM     22  C   LIG d   1       4.166   0.311  -2.204  0.00  0.00     0.058 C 
ATOM     23  H   LIG d   1       6.060   1.153  -2.820  0.00  0.00     0.032 H 
ATOM     24  H   LIG d   1       4.884   0.942  -4.145  0.00  0.00     0.032 H 
ATOM     25  C   LIG d   1       3.126  -0.675  -2.732  0.00  0.00    -0.026 C 
ATOM     26  H   LIG d   1       4.589  -0.077  -1.277  0.00  0.00     0.059 H 
ATOM     27  H   LIG d   1       2.324  -0.778  -2.002  0.00  0.00     0.029 H 
ATOM     28  H   LIG d   1       2.713  -0.295  -3.667  0.00  0.00     0.029 H 
ATOM     29  H   LIG d   1       7.882  -0.094  -4.166  0.00  0.00     0.062 H 
ATOM     30  C   LIG d   1       7.775  -2.229  -4.799  0.00  0.00    -0.021 C 
ATOM     31  H   LIG d   1       8.307  -2.910  -4.135  0.00  0.00     0.029 H 
ATOM     32  H   LIG d   1       8.453  -1.902  -5.588  0.00  0.00     0.029 H 
ATOM     33  H   LIG d   1       3.005  -2.742  -3.342  0.00  0.00     0.027 H 
ATOM     34  H   LIG d   1       4.198  -2.422  -2.057  0.00  0.00     0.027 H 
ATOM     35  H   LIG d   1       6.177  -2.346  -6.223  0.00  0.00     0.031 H 
ATOM     36  H   LIG d   1       7.740  -3.998  -6.906  0.00  0.00     0.031 H 
ATOM     37  C   LIG d   1       7.982  -5.051  -5.046  0.00  0.00    -0.046 C 
ATOM     38  C   LIG d   1       8.061  -6.457  -5.685  0.00  0.00    -0.012 C 
ATOM     39  H   LIG d   1       8.977  -4.613  -4.959  0.00  0.00     0.027 H 
ATOM     40  H   LIG d   1       7.496  -5.099  -4.072  0.00  0.00     0.027 H 
ATOM     41  H   LIG d   1       8.985  -6.556  -6.256  0.00  0.00     0.030 H 
ATOM     42  H   LIG d   1       8.017  -7.222  -4.910  0.00  0.00     0.030 H 
BRANCH   5  43
ATOM     43  C   LIG d   1       5.375  -4.837  -7.793  0.00  0.00    -0.056 C 
ATOM     44  H   LIG d   1       6.012  -4.125  -8.319  0.00  0.00     0.024 H 
ATOM     45  H   LIG d   1       5.218  -5.715  -8.420  0.00  0.00     0.024 H 
ATOM     46  H   LIG d   1       4.414  -4.371  -7.572  0.00  0.00     0.024 H 
ENDBRANCH   5  43
BRANCH  14  47
ATOM     47  C   LIG d   1       4.210  -1.337  -5.309  0.00  0.00    -0.057 C 
ATOM     48  H   LIG d   1       3.275  -1.864  -5.500  0.00  0.00     0.024 H 
ATOM     49  H   LIG d   1       4.009  -0.274  -5.182  0.00  0.00     0.024 H 
ATOM     50  H   LIG d   1       4.886  -1.482  -6.152  0.00  0.00     0.024 H 
ENDBRANCH  14  47
BRANCH  22  51
ATOM     51  O   LIG d   1       3.538   1.569  -1.947  0.00  0.00    -0.392 OA
ATOM     52  H   LIG d   1       3.834   2.282  -2.529  0.00  0.00     0.210 HD
ENDBRANCH  22  51
BRANCH   4  53
ATOM     53  O   LIG d   1       7.268  -6.756  -7.985  0.00  0.00    -0.376 OA
ATOM     54  H   LIG d   1       6.546  -6.819  -8.624  0.00  0.00     0.211 HD
ENDBRANCH   4  53
ENDBRANCH   1   4
TORSDOF 5
ENDMDL
MODEL 4
REMARK VINA RESULT:      -5.7      3.682      4.553
REMARK  5 active torsions:
REMARK  status: ('A' for Active; 'I' for Inactive)
REMARK    1  A    between atoms: C_1  and  C_2 
REMARK    2  A    between atoms: C_5  and  O_29 
REMARK    3  A    between atoms: C_19  and  C_28 
REMARK    4  A    between atoms: C_24  and  C_25 
REMARK    5  A    between atoms: C_24  and  O_27 
ROOT
ATOM      1  C   LIG d   1       3.778   1.239  -3.283  0.00  0.00    -0.070 C 
ATOM      2  C   LIG d   1       2.950   1.892  -3.799  0.00  0.00    -0.116 C 
ATOM      3  H   LIG d   1       2.209   2.475  -4.260  0.00  0.00     0.123 H 
ENDROOT
BRANCH   1   4
ATOM      4  C   LIG d   1       4.818   0.421  -2.637  0.00  0.00     0.132 C 
ATOM      5  C   LIG d   1       4.772  -1.030  -3.187  0.00  0.00     0.011 C 
ATOM      6  C   LIG d   1       4.238  -0.940  -4.620  0.00  0.00    -0.043 C 
ATOM      7  C   LIG d   1       6.245  -1.458  -3.206  0.00  0.00    -0.029 C 
ATOM      8  C   LIG d   1       4.438  -2.278  -5.323  0.00  0.00    -0.049 C 
ATOM      9  H   LIG d   1       3.176  -0.696  -4.599  0.00  0.00     0.027 H 
ATOM     10  H   LIG d   1       4.778  -0.162  -5.161  0.00  0.00     0.027 H 
ATOM     11  C   LIG d   1       5.926  -2.571  -5.459  0.00  0.00    -0.030 C 
ATOM     12  H   LIG d   1       3.961  -3.067  -4.742  0.00  0.00     0.027 H 
ATOM     13  H   LIG d   1       3.989  -2.237  -6.315  0.00  0.00     0.027 H 
ATOM     14  C   LIG d   1       6.048  -3.941  -6.129  0.00  0.00     0.003 C 
ATOM     15  C   LIG d   1       6.552  -2.664  -4.064  0.00  0.00    -0.032 C 
ATOM     16  H   LIG d   1       6.436  -1.813  -6.053  0.00  0.00     0.031 H 
ATOM     17  C   LIG d   1       7.505  -4.377  -6.218  0.00  0.00     0.104 A 
ATOM     18  C   LIG d   1       5.443  -3.943  -7.531  0.00  0.00    -0.042 C 
ATOM     19  C   LIG d   1       7.696  -5.770  -6.836  0.00  0.00     0.005 C 
ATOM     20  O   LIG d   1       8.501  -3.413  -6.563  0.00  0.00    -0.364 OA
ATOM     21  C   LIG d   1       8.487  -3.854  -5.191  0.00  0.00     0.089 A 
ATOM     22  C   LIG d   1       7.043  -5.758  -8.224  0.00  0.00     0.058 C 
ATOM     23  H   LIG d   1       8.759  -5.990  -6.930  0.00  0.00     0.032 H 
ATOM     24  H   LIG d   1       7.216  -6.521  -6.208  0.00  0.00     0.032 H 
ATOM     25  C   LIG d   1       5.573  -5.355  -8.115  0.00  0.00    -0.026 C 
ATOM     26  H   LIG d   1       7.564  -5.042  -8.861  0.00  0.00     0.059 H 
ATOM     27  H   LIG d   1       5.119  -5.378  -9.105  0.00  0.00     0.029 H 
ATOM     28  H   LIG d   1       5.054  -6.061  -7.466  0.00  0.00     0.029 H 
ATOM     29  H   LIG d   1       9.283  -4.524  -4.866  0.00  0.00     0.062 H 
ATOM     30  C   LIG d   1       8.077  -2.773  -4.195  0.00  0.00    -0.021 C 
ATOM     31  H   LIG d   1       8.473  -1.814  -4.529  0.00  0.00     0.029 H 
ATOM     32  H   LIG d   1       8.500  -3.010  -3.219  0.00  0.00     0.029 H 
ATOM     33  H   LIG d   1       4.392  -3.665  -7.476  0.00  0.00     0.027 H 
ATOM     34  H   LIG d   1       5.980  -3.236  -8.162  0.00  0.00     0.027 H 
ATOM     35  H   LIG d   1       6.186  -3.561  -3.566  0.00  0.00     0.031 H 
ATOM     36  H   LIG d   1       6.559  -1.668  -2.184  0.00  0.00     0.031 H 
ATOM     37  C   LIG d   1       6.983  -0.198  -3.697  0.00  0.00    -0.046 C 
ATOM     38  C   LIG d   1       6.235   0.956  -2.992  0.00  0.00    -0.012 C 
ATOM     39  H   LIG d   1       8.029  -0.223  -3.390  0.00  0.00     0.027 H 
ATOM     40  H   LIG d   1       6.903  -0.104  -4.780  0.00  0.00     0.027 H 
ATOM     41  H   LIG d   1       6.763   1.243  -2.082  0.00  0.00     0.030 H 
ATOM     42  H   LIG d   1       6.153   1.812  -3.662  0.00  0.00     0.030 H 
BRANCH   5  43
ATOM     43  C   LIG d   1       3.916  -1.951  -2.313  0.00  0.00    -0.056 C 
ATOM     44  H   LIG d   1       4.064  -2.985  -2.625  0.00  0.00     0.024 H 
ATOM     45  H   LIG d   1       4.212  -1.841  -1.270  0.00  0.00     0.024 H 
ATOM     46  H   LIG d   1       2.865  -1.684  -2.424  0.00  0.00     0.024 H 
ENDBRANCH   5  43
BRANCH  14  47
ATOM     47  C   LIG d   1       5.287  -4.963  -5.283  0.00  0.00    -0.057 C 
ATOM     48  H   LIG d   1       4.941  -5.777  -5.921  0.00  0.00     0.024 H 
ATOM     49  H   LIG d   1       5.947  -5.361  -4.513  0.00  0.00     0.024 H 
ATOM     50  H   LIG d   1       4.430  -4.481  -4.814  0.00  0.00     0.024 H 
ENDBRANCH  14  47
BRANCH  22  51
ATOM     51  O   LIG d   1       7.135  -7.061  -8.803  0.00  0.00    -0.392 OA
ATOM     52  H   LIG d   1       6.617  -7.734  -8.340  0.00  0.00     0.210 HD
ENDBRANCH  22  51
BRANCH   4  53
ATOM     53  O   LIG d   1       4.629   0.416  -1.221  0.00  0.00    -0.376 OA
ATOM     54  H   LIG d   1       4.941  -0.388  -0.785  0.00  0.00     0.211 HD
ENDBRANCH   4  53
ENDBRANCH   1   4
TORSDOF 5
ENDMDL
MODEL 5
REMARK VINA RESULT:      -5.7      1.798      6.688
REMARK  5 active torsions:
REMARK  status: ('A' for Active; 'I' for Inactive)
REMARK    1  A    between atoms: C_1  and  C_2 
REMARK    2  A    between atoms: C_5  and  O_29 
REMARK    3  A    between atoms: C_19  and  C_28 
REMARK    4  A    between atoms: C_24  and  C_25 
REMARK    5  A    between atoms: C_24  and  O_27 
ROOT
ATOM      1  C   LIG d   1       3.333  -0.116 -11.578  0.00  0.00    -0.070 C 
ATOM      2  C   LIG d   1       4.002  -0.085 -12.543  0.00  0.00    -0.116 C 
ATOM      3  H   LIG d   1       4.601  -0.058 -13.405  0.00  0.00     0.123 H 
ENDROOT
BRANCH   1   4
ATOM      4  C   LIG d   1       2.495  -0.155 -10.369  0.00  0.00     0.132 C 
ATOM      5  C   LIG d   1       3.110  -1.125  -9.325  0.00  0.00     0.011 C 
ATOM      6  C   LIG d   1       4.624  -1.121  -9.560  0.00  0.00    -0.043 C 
ATOM      7  C   LIG d   1       2.791  -0.460  -7.979  0.00  0.00    -0.029 C 
ATOM      8  C   LIG d   1       5.322  -1.816  -8.397  0.00  0.00    -0.049 C 
ATOM      9  H   LIG d   1       4.850  -1.648 -10.486  0.00  0.00     0.027 H 
ATOM     10  H   LIG d   1       4.978  -0.092  -9.633  0.00  0.00     0.027 H 
ATOM     11  C   LIG d   1       5.105  -1.020  -7.116  0.00  0.00    -0.030 C 
ATOM     12  H   LIG d   1       4.914  -2.820  -8.277  0.00  0.00     0.027 H 
ATOM     13  H   LIG d   1       6.390  -1.881  -8.601  0.00  0.00     0.027 H 
ATOM     14  C   LIG d   1       5.792  -1.796  -5.991  0.00  0.00     0.003 C 
ATOM     15  C   LIG d   1       3.606  -0.958  -6.808  0.00  0.00    -0.032 C 
ATOM     16  H   LIG d   1       5.519  -0.015  -7.189  0.00  0.00     0.031 H 
ATOM     17  C   LIG d   1       5.544  -1.134  -4.642  0.00  0.00     0.104 A 
ATOM     18  C   LIG d   1       7.297  -1.913  -6.217  0.00  0.00    -0.042 C 
ATOM     19  C   LIG d   1       6.165  -1.892  -3.459  0.00  0.00     0.005 C 
ATOM     20  O   LIG d   1       5.588   0.290  -4.546  0.00  0.00    -0.364 OA
ATOM     21  C   LIG d   1       4.285  -0.316  -4.450  0.00  0.00     0.089 A 
ATOM     22  C   LIG d   1       7.668  -2.032  -3.732  0.00  0.00     0.058 C 
ATOM     23  H   LIG d   1       6.008  -1.332  -2.538  0.00  0.00     0.032 H 
ATOM     24  H   LIG d   1       5.710  -2.880  -3.374  0.00  0.00     0.032 H 
ATOM     25  C   LIG d   1       7.901  -2.731  -5.070  0.00  0.00    -0.026 C 
ATOM     26  H   LIG d   1       8.123  -1.042  -3.761  0.00  0.00     0.059 H 
ATOM     27  H   LIG d   1       8.972  -2.846  -5.235  0.00  0.00     0.029 H 
ATOM     28  H   LIG d   1       7.433  -3.716  -5.048  0.00  0.00     0.029 H 
ATOM     29  H   LIG d   1       3.808  -0.343  -3.470  0.00  0.00     0.062 H 
ATOM     30  C   LIG d   1       3.367  -0.005  -5.629  0.00  0.00    -0.021 C 
ATOM     31  H   LIG d   1       3.546   1.018  -5.958  0.00  0.00     0.029 H 
ATOM     32  H   LIG d   1       2.330  -0.096  -5.306  0.00  0.00     0.029 H 
ATOM     33  H   LIG d   1       7.487  -2.415  -7.165  0.00  0.00     0.027 H 
ATOM     34  H   LIG d   1       7.743  -0.919  -6.231  0.00  0.00     0.027 H 
ATOM     35  H   LIG d   1       3.257  -1.950  -6.523  0.00  0.00     0.031 H 
ATOM     36  H   LIG d   1       1.734  -0.612  -7.759  0.00  0.00     0.031 H 
ATOM     37  C   LIG d   1       3.024   1.038  -8.250  0.00  0.00    -0.046 C 
ATOM     38  C   LIG d   1       2.467   1.238  -9.678  0.00  0.00    -0.012 C 
ATOM     39  H   LIG d   1       2.473   1.647  -7.533  0.00  0.00     0.027 H 
ATOM     40  H   LIG d   1       4.089   1.273  -8.216  0.00  0.00     0.027 H 
ATOM     41  H   LIG d   1       1.443   1.610  -9.630  0.00  0.00     0.030 H 
ATOM     42  H   LIG d   1       3.094   1.940 -10.227  0.00  0.00     0.030 H 
BRANCH   5  43
ATOM     43  C   LIG d   1       2.518  -2.533  -9.426  0.00  0.00    -0.056 C 
ATOM     44  H   LIG d   1       1.540  -2.550  -8.944  0.00  0.00     0.024 H 
ATOM     45  H   LIG d   1       2.410  -2.807 -10.475  0.00  0.00     0.024 H 
ATOM     46  H   LIG d   1       3.181  -3.242  -8.930  0.00  0.00     0.024 H 
ENDBRANCH   5  43
BRANCH  14  47
ATOM     47  C   LIG d   1       5.208  -3.210  -5.951  0.00  0.00    -0.057 C 
ATOM     48  H   LIG d   1       4.238  -3.216  -6.448  0.00  0.00     0.024 H 
ATOM     49  H   LIG d   1       5.883  -3.896  -6.462  0.00  0.00     0.024 H 
ATOM     50  H   LIG d   1       5.087  -3.523  -4.914  0.00  0.00     0.024 H 
ENDBRANCH  14  47
BRANCH  22  51
ATOM     51  O   LIG d   1       8.270  -2.799  -2.687  0.00  0.00    -0.392 OA
ATOM     52  H   LIG d   1       7.891  -3.682  -2.579  0.00  0.00     0.210 HD
ENDBRANCH  22  51
BRANCH   4  53
ATOM     53  O   LIG d   1       1.169  -0.569 -10.704  0.00  0.00    -0.376 OA
ATOM     54  H   LIG d   1       0.785  -1.200 -10.081  0.00  0.00     0.211 HD
ENDBRANCH   4  53
ENDBRANCH   1   4
TORSDOF 5
ENDMDL
MODEL 6
REMARK VINA RESULT:      -5.6      1.819      2.999
REMARK  5 active torsions:
REMARK  status: ('A' for Active; 'I' for Inactive)
REMARK    1  A    between atoms: C_1  and  C_2 
REMARK    2  A    between atoms: C_5  and  O_29 
REMARK    3  A    between atoms: C_19  and  C_28 
REMARK    4  A    between atoms: C_24  and  C_25 
REMARK    5  A    between atoms: C_24  and  O_27 
ROOT
ATOM      1  C   LIG d   1       4.085  -1.273  -3.041  0.00  0.00    -0.070 C 
ATOM      2  C   LIG d   1       4.070  -2.194  -2.312  0.00  0.00    -0.116 C 
ATOM      3  H   LIG d   1       4.056  -3.016  -1.660  0.00  0.00     0.123 H 
ENDROOT
BRANCH   1   4
ATOM      4  C   LIG d   1       4.104  -0.120  -3.955  0.00  0.00     0.132 C 
ATOM      5  C   LIG d   1       4.650  -0.549  -5.343  0.00  0.00     0.011 C 
ATOM      6  C   LIG d   1       4.292  -2.029  -5.518  0.00  0.00    -0.043 C 
ATOM      7  C   LIG d   1       3.840   0.302  -6.331  0.00  0.00    -0.029 C 
ATOM      8  C   LIG d   1       4.533  -2.443  -6.965  0.00  0.00    -0.049 C 
ATOM      9  H   LIG d   1       4.914  -2.633  -4.858  0.00  0.00     0.027 H 
ATOM     10  H   LIG d   1       3.242  -2.181  -5.267  0.00  0.00     0.027 H 
ATOM     11  C   LIG d   1       3.586  -1.683  -7.884  0.00  0.00    -0.030 C 
ATOM     12  H   LIG d   1       5.565  -2.221  -7.238  0.00  0.00     0.027 H 
ATOM     13  H   LIG d   1       4.353  -3.513  -7.070  0.00  0.00     0.027 H 
ATOM     14  C   LIG d   1       3.914  -2.116  -9.313  0.00  0.00     0.003 C 
ATOM     15  C   LIG d   1       3.862  -0.181  -7.763  0.00  0.00    -0.032 C 
ATOM     16  H   LIG d   1       2.542  -1.896  -7.654  0.00  0.00     0.031 H 
ATOM     17  C   LIG d   1       3.087  -1.330 -10.324  0.00  0.00     0.104 A 
ATOM     18  C   LIG d   1       3.671  -3.608  -9.526  0.00  0.00    -0.042 C 
ATOM     19  C   LIG d   1       3.405  -1.680 -11.785  0.00  0.00     0.005 C 
ATOM     20  O   LIG d   1       1.713  -1.065 -10.043  0.00  0.00    -0.364 OA
ATOM     21  C   LIG d   1       2.610   0.058  -9.955  0.00  0.00     0.089 A 
ATOM     22  C   LIG d   1       3.193  -3.189 -11.961  0.00  0.00     0.058 C 
ATOM     23  H   LIG d   1       2.735  -1.134 -12.450  0.00  0.00     0.032 H 
ATOM     24  H   LIG d   1       4.440  -1.422 -12.010  0.00  0.00     0.032 H 
ATOM     25  C   LIG d   1       4.057  -3.964 -10.966  0.00  0.00    -0.026 C 
ATOM     26  H   LIG d   1       2.144  -3.429 -11.786  0.00  0.00     0.059 H 
ATOM     27  H   LIG d   1       3.915  -5.033 -11.123  0.00  0.00     0.029 H 
ATOM     28  H   LIG d   1       5.105  -3.713 -11.129  0.00  0.00     0.029 H 
ATOM     29  H   LIG d   1       2.567   0.805 -10.748  0.00  0.00     0.062 H 
ATOM     30  C   LIG d   1       2.793   0.598  -8.540  0.00  0.00    -0.021 C 
ATOM     31  H   LIG d   1       1.845   0.526  -8.007  0.00  0.00     0.029 H 
ATOM     32  H   LIG d   1       3.089   1.646  -8.594  0.00  0.00     0.029 H 
ATOM     33  H   LIG d   1       4.283  -4.181  -8.831  0.00  0.00     0.027 H 
ATOM     34  H   LIG d   1       2.618  -3.833  -9.363  0.00  0.00     0.027 H 
ATOM     35  H   LIG d   1       4.835   0.040  -8.202  0.00  0.00     0.031 H 
ATOM     36  H   LIG d   1       4.219   1.323  -6.301  0.00  0.00     0.031 H 
ATOM     37  C   LIG d   1       2.418   0.290  -5.740  0.00  0.00    -0.046 C 
ATOM     38  C   LIG d   1       2.659   0.395  -4.217  0.00  0.00    -0.012 C 
ATOM     39  H   LIG d   1       1.847   1.147  -6.098  0.00  0.00     0.027 H 
ATOM     40  H   LIG d   1       1.908  -0.642  -5.985  0.00  0.00     0.027 H 
ATOM     41  H   LIG d   1       2.570   1.433  -3.895  0.00  0.00     0.030 H 
ATOM     42  H   LIG d   1       1.940  -0.225  -3.682  0.00  0.00     0.030 H 
BRANCH   5  43
ATOM     43  C   LIG d   1       6.155  -0.304  -5.472  0.00  0.00    -0.056 C 
ATOM     44  H   LIG d   1       6.333   0.748  -5.700  0.00  0.00     0.024 H 
ATOM     45  H   LIG d   1       6.647  -0.559  -4.534  0.00  0.00     0.024 H 
ATOM     46  H   LIG d   1       6.557  -0.923  -6.274  0.00  0.00     0.024 H 
ENDBRANCH   5  43
BRANCH  14  47
ATOM     47  C   LIG d   1       5.394  -1.835  -9.577  0.00  0.00    -0.057 C 
ATOM     48  H   LIG d   1       5.774  -1.146  -8.822  0.00  0.00     0.024 H 
ATOM     49  H   LIG d   1       5.955  -2.768  -9.532  0.00  0.00     0.024 H 
ATOM     50  H   LIG d   1       5.510  -1.389 -10.565  0.00  0.00     0.024 H 
ENDBRANCH  14  47
BRANCH  22  51
ATOM     51  O   LIG d   1       3.551  -3.567 -13.292  0.00  0.00    -0.392 OA
ATOM     52  H   LIG d   1       3.503  -4.518 -13.457  0.00  0.00     0.210 HD
ENDBRANCH  22  51
BRANCH   4  53
ATOM     53  O   LIG d   1       4.912   0.925  -3.410  0.00  0.00    -0.376 OA
ATOM     54  H   LIG d   1       4.470   1.784  -3.370  0.00  0.00     0.211 HD
ENDBRANCH   4  53
ENDBRANCH   1   4
TORSDOF 5
ENDMDL
MODEL 7
REMARK VINA RESULT:      -5.6      3.604      4.953
REMARK  5 active torsions:
REMARK  status: ('A' for Active; 'I' for Inactive)
REMARK    1  A    between atoms: C_1  and  C_2 
REMARK    2  A    between atoms: C_5  and  O_29 
REMARK    3  A    between atoms: C_19  and  C_28 
REMARK    4  A    between atoms: C_24  and  C_25 
REMARK    5  A    between atoms: C_24  and  O_27 
ROOT
ATOM      1  C   LIG d   1       2.906  -0.587  -3.296  0.00  0.00    -0.070 C 
ATOM      2  C   LIG d   1       1.853  -0.648  -3.813  0.00  0.00    -0.116 C 
ATOM      3  H   LIG d   1       0.912  -0.702  -4.274  0.00  0.00     0.123 H 
ENDROOT
BRANCH   1   4
ATOM      4  C   LIG d   1       4.226  -0.510  -2.648  0.00  0.00     0.132 C 
ATOM      5  C   LIG d   1       5.343  -0.816  -3.680  0.00  0.00     0.011 C 
ATOM      6  C   LIG d   1       4.811  -0.377  -5.049  0.00  0.00    -0.043 C 
ATOM      7  C   LIG d   1       6.496   0.102  -3.252  0.00  0.00    -0.029 C 
ATOM      8  C   LIG d   1       5.951  -0.374  -6.061  0.00  0.00    -0.049 C 
ATOM      9  H   LIG d   1       4.036  -1.069  -5.376  0.00  0.00     0.027 H 
ATOM     10  H   LIG d   1       4.393   0.627  -4.971  0.00  0.00     0.027 H 
ATOM     11  C   LIG d   1       6.986   0.673  -5.670  0.00  0.00    -0.030 C 
ATOM     12  H   LIG d   1       6.417  -1.359  -6.084  0.00  0.00     0.027 H 
ATOM     13  H   LIG d   1       5.557  -0.137  -7.050  0.00  0.00     0.027 H 
ATOM     14  C   LIG d   1       8.113   0.588  -6.700  0.00  0.00     0.003 C 
ATOM     15  C   LIG d   1       7.566   0.321  -4.297  0.00  0.00    -0.032 C 
ATOM     16  H   LIG d   1       6.560   1.676  -5.656  0.00  0.00     0.031 H 
ATOM     17  C   LIG d   1       9.255   1.529  -6.338  0.00  0.00     0.104 A 
ATOM     18  C   LIG d   1       7.623   0.921  -8.108  0.00  0.00    -0.042 C 
ATOM     19  C   LIG d   1      10.444   1.456  -7.306  0.00  0.00     0.005 C 
ATOM     20  O   LIG d   1       8.951   2.832  -5.839  0.00  0.00    -0.364 OA
ATOM     21  C   LIG d   1       9.471   1.887  -4.884  0.00  0.00     0.089 A 
ATOM     22  C   LIG d   1       9.918   1.752  -8.716  0.00  0.00     0.058 C 
ATOM     23  H   LIG d   1      11.193   2.198  -7.028  0.00  0.00     0.032 H 
ATOM     24  H   LIG d   1      10.884   0.459  -7.277  0.00  0.00     0.032 H 
ATOM     25  C   LIG d   1       8.800   0.777  -9.080  0.00  0.00    -0.026 C 
ATOM     26  H   LIG d   1       9.530   2.770  -8.750  0.00  0.00     0.059 H 
ATOM     27  H   LIG d   1       8.456   0.984 -10.093  0.00  0.00     0.029 H 
ATOM     28  H   LIG d   1       9.182  -0.243  -9.032  0.00  0.00     0.029 H 
ATOM     29  H   LIG d   1      10.499   2.023  -4.544  0.00  0.00     0.062 H 
ATOM     30  C   LIG d   1       8.466   1.466  -3.815  0.00  0.00    -0.021 C 
ATOM     31  H   LIG d   1       7.844   2.322  -3.557  0.00  0.00     0.029 H 
ATOM     32  H   LIG d   1       9.007   1.140  -2.927  0.00  0.00     0.029 H 
ATOM     33  H   LIG d   1       6.828   0.232  -8.391  0.00  0.00     0.027 H 
ATOM     34  H   LIG d   1       7.251   1.944  -8.133  0.00  0.00     0.027 H 
ATOM     35  H   LIG d   1       8.172  -0.580  -4.384  0.00  0.00     0.031 H 
ATOM     36  H   LIG d   1       6.961  -0.318  -2.359  0.00  0.00     0.031 H 
ATOM     37  C   LIG d   1       5.790   1.415  -2.865  0.00  0.00    -0.046 C 
ATOM     38  C   LIG d   1       4.506   0.936  -2.148  0.00  0.00    -0.012 C 
ATOM     39  H   LIG d   1       6.412   1.999  -2.187  0.00  0.00     0.027 H 
ATOM     40  H   LIG d   1       5.540   1.993  -3.754  0.00  0.00     0.027 H 
ATOM     41  H   LIG d   1       4.660   0.933  -1.069  0.00  0.00     0.030 H 
ATOM     42  H   LIG d   1       3.671   1.588  -2.404  0.00  0.00     0.030 H 
BRANCH   5  43
ATOM     43  C   LIG d   1       5.749  -2.293  -3.670  0.00  0.00    -0.056 C 
ATOM     44  H   LIG d   1       5.686  -2.679  -2.652  0.00  0.00     0.024 H 
ATOM     45  H   LIG d   1       5.078  -2.859  -4.315  0.00  0.00     0.024 H 
ATOM     46  H   LIG d   1       6.773  -2.390  -4.033  0.00  0.00     0.024 H 
ENDBRANCH   5  43
BRANCH  14  47
ATOM     47  C   LIG d   1       8.651  -0.844  -6.713  0.00  0.00    -0.057 C 
ATOM     48  H   LIG d   1       9.066  -1.068  -7.696  0.00  0.00     0.024 H 
ATOM     49  H   LIG d   1       9.430  -0.946  -5.958  0.00  0.00     0.024 H 
ATOM     50  H   LIG d   1       7.840  -1.539  -6.495  0.00  0.00     0.024 H 
ENDBRANCH  14  47
BRANCH  22  51
ATOM     51  O   LIG d   1      10.985   1.621  -9.658  0.00  0.00    -0.392 OA
ATOM     52  H   LIG d   1      11.318   0.718  -9.751  0.00  0.00     0.210 HD
ENDBRANCH  22  51
BRANCH   4  53
ATOM     53  O   LIG d   1       4.293  -1.434  -1.561  0.00  0.00    -0.376 OA
ATOM     54  H   LIG d   1       3.894  -1.109  -0.743  0.00  0.00     0.211 HD
ENDBRANCH   4  53
ENDBRANCH   1   4
TORSDOF 5
ENDMDL
MODEL 8
REMARK VINA RESULT:      -5.5      3.415      6.129
REMARK  5 active torsions:
REMARK  status: ('A' for Active; 'I' for Inactive)
REMARK    1  A    between atoms: C_1  and  C_2 
REMARK    2  A    between atoms: C_5  and  O_29 
REMARK    3  A    between atoms: C_19  and  C_28 
REMARK    4  A    between atoms: C_24  and  C_25 
REMARK    5  A    between atoms: C_24  and  O_27 
ROOT
ATOM      1  C   LIG d   1       9.346  -5.582  -6.813  0.00  0.00    -0.070 C 
ATOM      2  C   LIG d   1      10.413  -5.734  -6.347  0.00  0.00    -0.116 C 
ATOM      3  H   LIG d   1      11.367  -5.870  -5.930  0.00  0.00     0.123 H 
ENDROOT
BRANCH   1   4
ATOM      4  C   LIG d   1       8.009  -5.391  -7.398  0.00  0.00     0.132 C 
ATOM      5  C   LIG d   1       7.028  -4.857  -6.321  0.00  0.00     0.011 C 
ATOM      6  C   LIG d   1       7.867  -4.056  -5.320  0.00  0.00    -0.043 C 
ATOM      7  C   LIG d   1       6.107  -3.911  -7.103  0.00  0.00    -0.029 C 
ATOM      8  C   LIG d   1       6.945  -3.262  -4.402  0.00  0.00    -0.049 C 
ATOM      9  H   LIG d   1       8.473  -4.738  -4.725  0.00  0.00     0.027 H 
ATOM     10  H   LIG d   1       8.519  -3.369  -5.860  0.00  0.00     0.027 H 
ATOM     11  C   LIG d   1       6.176  -2.226  -5.213  0.00  0.00    -0.030 C 
ATOM     12  H   LIG d   1       6.243  -3.942  -3.918  0.00  0.00     0.027 H 
ATOM     13  H   LIG d   1       7.539  -2.753  -3.642  0.00  0.00     0.027 H 
ATOM     14  C   LIG d   1       5.245  -1.503  -4.239  0.00  0.00     0.003 C 
ATOM     15  C   LIG d   1       5.314  -2.941  -6.257  0.00  0.00    -0.032 C 
ATOM     16  H   LIG d   1       6.845  -1.514  -5.697  0.00  0.00     0.031 H 
ATOM     17  C   LIG d   1       4.351  -0.512  -4.973  0.00  0.00     0.104 A 
ATOM     18  C   LIG d   1       6.022  -0.761  -3.154  0.00  0.00    -0.042 C 
ATOM     19  C   LIG d   1       3.354   0.214  -4.059  0.00  0.00     0.005 C 
ATOM     20  O   LIG d   1       4.906   0.281  -6.023  0.00  0.00    -0.364 OA
ATOM     21  C   LIG d   1       4.010  -0.773  -6.425  0.00  0.00     0.089 A 
ATOM     22  C   LIG d   1       4.156   0.915  -2.955  0.00  0.00     0.058 C 
ATOM     23  H   LIG d   1       2.795   0.952  -4.634  0.00  0.00     0.032 H 
ATOM     24  H   LIG d   1       2.667  -0.507  -3.616  0.00  0.00     0.032 H 
ATOM     25  C   LIG d   1       5.019  -0.098  -2.203  0.00  0.00    -0.026 C 
ATOM     26  H   LIG d   1       4.801   1.671  -3.403  0.00  0.00     0.059 H 
ATOM     27  H   LIG d   1       5.561   0.412  -1.407  0.00  0.00     0.029 H 
ATOM     28  H   LIG d   1       4.377  -0.864  -1.768  0.00  0.00     0.029 H 
ATOM     29  H   LIG d   1       3.015  -0.489  -6.769  0.00  0.00     0.062 H 
ATOM     30  C   LIG d   1       4.685  -1.904  -7.196  0.00  0.00    -0.021 C 
ATOM     31  H   LIG d   1       5.463  -1.483  -7.833  0.00  0.00     0.029 H 
ATOM     32  H   LIG d   1       3.943  -2.398  -7.824  0.00  0.00     0.029 H 
ATOM     33  H   LIG d   1       6.640  -1.467  -2.600  0.00  0.00     0.027 H 
ATOM     34  H   LIG d   1       6.652   0.001  -3.611  0.00  0.00     0.027 H 
ATOM     35  H   LIG d   1       4.512  -3.478  -5.753  0.00  0.00     0.031 H 
ATOM     36  H   LIG d   1       5.413  -4.510  -7.692  0.00  0.00     0.031 H 
ATOM     37  C   LIG d   1       7.066  -3.185  -8.066  0.00  0.00    -0.046 C 
ATOM     38  C   LIG d   1       8.046  -4.298  -8.505  0.00  0.00    -0.012 C 
ATOM     39  H   LIG d   1       6.522  -2.793  -8.925  0.00  0.00     0.027 H 
ATOM     40  H   LIG d   1       7.598  -2.387  -7.549  0.00  0.00     0.027 H 
ATOM     41  H   LIG d   1       7.728  -4.722  -9.457  0.00  0.00     0.030 H 
ATOM     42  H   LIG d   1       9.054  -3.892  -8.594  0.00  0.00     0.030 H 
BRANCH   5  43
ATOM     43  C   LIG d   1       6.248  -5.986  -5.640  0.00  0.00    -0.056 C 
ATOM     44  H   LIG d   1       6.940  -6.624  -5.091  0.00  0.00     0.024 H 
ATOM     45  H   LIG d   1       5.521  -5.560  -4.950  0.00  0.00     0.024 H 
ATOM     46  H   LIG d   1       5.730  -6.576  -6.396  0.00  0.00     0.024 H 
ENDBRANCH   5  43
BRANCH  14  47
ATOM     47  C   LIG d   1       4.355  -2.543  -3.557  0.00  0.00    -0.057 C 
ATOM     48  H   LIG d   1       4.747  -3.542  -3.753  0.00  0.00     0.024 H 
ATOM     49  H   LIG d   1       4.343  -2.362  -2.482  0.00  0.00     0.024 H 
ATOM     50  H   LIG d   1       3.341  -2.468  -3.950  0.00  0.00     0.024 H 
ENDBRANCH  14  47
BRANCH  22  51
ATOM     51  O   LIG d   1       3.256   1.542  -2.039  0.00  0.00    -0.392 OA
ATOM     52  H   LIG d   1       3.412   1.309  -1.114  0.00  0.00     0.210 HD
ENDBRANCH  22  51
BRANCH   4  53
ATOM     53  O   LIG d   1       7.527  -6.624  -7.935  0.00  0.00    -0.376 OA
ATOM     54  H   LIG d   1       6.614  -6.828  -7.693  0.00  0.00     0.211 HD
ENDBRANCH   4  53
ENDBRANCH   1   4
TORSDOF 5
ENDMDL
MODEL 9
REMARK VINA RESULT:      -5.5      3.861      6.880
REMARK  5 active torsions:
REMARK  status: ('A' for Active; 'I' for Inactive)
REMARK    1  A    between atoms: C_1  and  C_2 
REMARK    2  A    between atoms: C_5  and  O_29 
REMARK    3  A    between atoms: C_19  and  C_28 
REMARK    4  A    between atoms: C_24  and  C_25 
REMARK    5  A    between atoms: C_24  and  O_27 
ROOT
ATOM      1  C   LIG d   1       4.576   0.238  -2.684  0.00  0.00    -0.070 C 
ATOM      2  C   LIG d   1       4.700   0.849  -1.689  0.00  0.00    -0.116 C 
ATOM      3  H   LIG d   1       4.811   1.396  -0.800  0.00  0.00     0.123 H 
ENDROOT
BRANCH   1   4
ATOM      4  C   LIG d   1       4.421  -0.529  -3.931  0.00  0.00     0.132 C 
ATOM      5  C   LIG d   1       5.809  -0.982  -4.455  0.00  0.00     0.011 C 
ATOM      6  C   LIG d   1       6.714  -1.134  -3.227  0.00  0.00    -0.043 C 
ATOM      7  C   LIG d   1       5.535  -2.359  -5.072  0.00  0.00    -0.029 C 
ATOM      8  C   LIG d   1       7.998  -1.852  -3.626  0.00  0.00    -0.049 C 
ATOM      9  H   LIG d   1       6.957  -0.149  -2.829  0.00  0.00     0.027 H 
ATOM     10  H   LIG d   1       6.196  -1.716  -2.464  0.00  0.00     0.027 H 
ATOM     11  C   LIG d   1       7.677  -3.271  -4.076  0.00  0.00    -0.030 C 
ATOM     12  H   LIG d   1       8.477  -1.309  -4.441  0.00  0.00     0.027 H 
ATOM     13  H   LIG d   1       8.673  -1.891  -2.771  0.00  0.00     0.027 H 
ATOM     14  C   LIG d   1       9.000  -3.911  -4.501  0.00  0.00     0.003 C 
ATOM     15  C   LIG d   1       6.758  -3.217  -5.300  0.00  0.00    -0.032 C 
ATOM     16  H   LIG d   1       7.214  -3.853  -3.280  0.00  0.00     0.031 H 
ATOM     17  C   LIG d   1       8.773  -5.306  -5.069  0.00  0.00     0.104 A 
ATOM     18  C   LIG d   1       9.986  -4.003  -3.338  0.00  0.00    -0.042 C 
ATOM     19  C   LIG d   1      10.058  -5.987  -5.563  0.00  0.00     0.005 C 
ATOM     20  O   LIG d   1       7.827  -6.170  -4.439  0.00  0.00    -0.364 OA
ATOM     21  C   LIG d   1       7.442  -5.623  -5.715  0.00  0.00     0.089 A 
ATOM     22  C   LIG d   1      11.045  -6.028  -4.389  0.00  0.00     0.058 C 
ATOM     23  H   LIG d   1       9.835  -7.001  -5.893  0.00  0.00     0.032 H 
ATOM     24  H   LIG d   1      10.486  -5.415  -6.387  0.00  0.00     0.032 H 
ATOM     25  C   LIG d   1      11.292  -4.618  -3.855  0.00  0.00    -0.026 C 
ATOM     26  H   LIG d   1      10.632  -6.646  -3.592  0.00  0.00     0.059 H 
ATOM     27  H   LIG d   1      12.014  -4.663  -3.040  0.00  0.00     0.029 H 
ATOM     28  H   LIG d   1      11.690  -3.995  -4.655  0.00  0.00     0.029 H 
ATOM     29  H   LIG d   1       7.444  -6.294  -6.575  0.00  0.00     0.062 H 
ATOM     30  C   LIG d   1       6.282  -4.635  -5.643  0.00  0.00    -0.021 C 
ATOM     31  H   LIG d   1       5.579  -4.967  -4.879  0.00  0.00     0.029 H 
ATOM     32  H   LIG d   1       5.772  -4.613  -6.607  0.00  0.00     0.029 H 
ATOM     33  H   LIG d   1      10.181  -3.006  -2.945  0.00  0.00     0.027 H 
ATOM     34  H   LIG d   1       9.569  -4.634  -2.554  0.00  0.00     0.027 H 
ATOM     35  H   LIG d   1       7.316  -2.828  -6.151  0.00  0.00     0.031 H 
ATOM     36  H   LIG d   1       5.025  -2.217  -6.025  0.00  0.00     0.031 H 
ATOM     37  C   LIG d   1       4.549  -3.010  -4.083  0.00  0.00    -0.046 C 
ATOM     38  C   LIG d   1       3.626  -1.841  -3.671  0.00  0.00    -0.012 C 
ATOM     39  H   LIG d   1       3.977  -3.797  -4.575  0.00  0.00     0.027 H 
ATOM     40  H   LIG d   1       5.080  -3.405  -3.216  0.00  0.00     0.027 H 
ATOM     41  H   LIG d   1       2.718  -1.852  -4.275  0.00  0.00     0.030 H 
ATOM     42  H   LIG d   1       3.373  -1.921  -2.614  0.00  0.00     0.030 H 
BRANCH   5  43
ATOM     43  C   LIG d   1       6.390   0.001  -5.475  0.00  0.00    -0.056 C 
ATOM     44  H   LIG d   1       7.444  -0.225  -5.637  0.00  0.00     0.024 H 
ATOM     45  H   LIG d   1       5.850  -0.093  -6.417  0.00  0.00     0.024 H 
ATOM     46  H   LIG d   1       6.289   1.019  -5.097  0.00  0.00     0.024 H 
ENDBRANCH   5  43
BRANCH  14  47
ATOM     47  C   LIG d   1       9.631  -3.041  -5.589  0.00  0.00    -0.057 C 
ATOM     48  H   LIG d   1       9.417  -3.471  -6.568  0.00  0.00     0.024 H 
ATOM     49  H   LIG d   1       9.218  -2.035  -5.536  0.00  0.00     0.024 H 
ATOM     50  H   LIG d   1      10.710  -2.999  -5.440  0.00  0.00     0.024 H 
ENDBRANCH  14  47
BRANCH  22  51
ATOM     51  O   LIG d   1      12.283  -6.589  -4.830  0.00  0.00    -0.392 OA
ATOM     52  H   LIG d   1      12.348  -7.546  -4.707  0.00  0.00     0.210 HD
ENDBRANCH  22  51
BRANCH   4  53
ATOM     53  O   LIG d   1       3.759   0.265  -4.917  0.00  0.00    -0.376 OA
ATOM     54  H   LIG d   1       2.801   0.319  -4.800  0.00  0.00     0.211 HD
ENDBRANCH   4  53
ENDBRANCH   1   4
TORSDOF 5
ENDMDL
MODEL 10
REMARK VINA RESULT:      -5.3      8.214     10.044
REMARK  5 active torsions:
REMARK  status: ('A' for Active; 'I' for Inactive)
REMARK    1  A    between atoms: C_1  and  C_2 
REMARK    2  A    between atoms: C_5  and  O_29 
REMARK    3  A    between atoms: C_19  and  C_28 
REMARK    4  A    between atoms: C_24  and  C_25 
REMARK    5  A    between atoms: C_24  and  O_27 
ROOT
ATOM      1  C   LIG d   1      12.280   7.253  -0.260  0.00  0.00    -0.070 C 
ATOM      2  C   LIG d   1      13.081   8.004   0.156  0.00  0.00    -0.116 C 
ATOM      3  H   LIG d   1      13.797   8.676   0.527  0.00  0.00     0.123 H 
ENDROOT
BRANCH   1   4
ATOM      4  C   LIG d   1      11.275   6.311  -0.781  0.00  0.00     0.132 C 
ATOM      5  C   LIG d   1      10.524   6.945  -1.982  0.00  0.00     0.011 C 
ATOM      6  C   LIG d   1      11.500   7.922  -2.646  0.00  0.00    -0.043 C 
ATOM      7  C   LIG d   1      10.262   5.756  -2.916  0.00  0.00    -0.029 C 
ATOM      8  C   LIG d   1      10.941   8.362  -3.994  0.00  0.00    -0.049 C 
ATOM      9  H   LIG d   1      11.633   8.794  -2.006  0.00  0.00     0.027 H 
ATOM     10  H   LIG d   1      12.462   7.431  -2.795  0.00  0.00     0.027 H 
ATOM     11  C   LIG d   1      10.858   7.166  -4.933  0.00  0.00    -0.030 C 
ATOM     12  H   LIG d   1       9.946   8.786  -3.853  0.00  0.00     0.027 H 
ATOM     13  H   LIG d   1      11.597   9.115  -4.430  0.00  0.00     0.027 H 
ATOM     14  C   LIG d   1      10.252   7.672  -6.243  0.00  0.00     0.003 C 
ATOM     15  C   LIG d   1       9.908   6.122  -4.339  0.00  0.00    -0.032 C 
ATOM     16  H   LIG d   1      11.838   6.726  -5.116  0.00  0.00     0.031 H 
ATOM     17  C   LIG d   1      10.028   6.525  -7.220  0.00  0.00     0.104 A 
ATOM     18  C   LIG d   1      11.134   8.726  -6.908  0.00  0.00    -0.042 C 
ATOM     19  C   LIG d   1       9.373   6.957  -8.540  0.00  0.00     0.005 C 
ATOM     20  O   LIG d   1      11.022   5.506  -7.336  0.00  0.00    -0.364 OA
ATOM     21  C   LIG d   1       9.799   5.133  -6.671  0.00  0.00     0.089 A 
ATOM     22  C   LIG d   1      10.256   8.045  -9.166  0.00  0.00     0.058 C 
ATOM     23  H   LIG d   1       9.304   6.105  -9.215  0.00  0.00     0.032 H 
ATOM     24  H   LIG d   1       8.377   7.356  -8.344  0.00  0.00     0.032 H 
ATOM     25  C   LIG d   1      10.440   9.205  -8.189  0.00  0.00    -0.026 C 
ATOM     26  H   LIG d   1      11.232   7.622  -9.407  0.00  0.00     0.059 H 
ATOM     27  H   LIG d   1      11.046   9.979  -8.658  0.00  0.00     0.029 H 
ATOM     28  H   LIG d   1       9.464   9.619  -7.934  0.00  0.00     0.029 H 
ATOM     29  H   LIG d   1       9.107   4.485  -7.209  0.00  0.00     0.062 H 
ATOM     30  C   LIG d   1       9.965   4.842  -5.183  0.00  0.00    -0.021 C 
ATOM     31  H   LIG d   1      10.925   4.353  -5.021  0.00  0.00     0.029 H 
ATOM     32  H   LIG d   1       9.169   4.170  -4.861  0.00  0.00     0.029 H 
ATOM     33  H   LIG d   1      11.273   9.567  -6.230  0.00  0.00     0.027 H 
ATOM     34  H   LIG d   1      12.100   8.289  -7.158  0.00  0.00     0.027 H 
ATOM     35  H   LIG d   1       8.890   6.507  -4.367  0.00  0.00     0.031 H 
ATOM     36  H   LIG d   1       9.453   5.157  -2.498  0.00  0.00     0.031 H 
ATOM     37  C   LIG d   1      11.566   4.939  -2.838  0.00  0.00    -0.046 C 
ATOM     38  C   LIG d   1      11.964   5.036  -1.347  0.00  0.00    -0.012 C 
ATOM     39  H   LIG d   1      11.387   3.902  -3.121  0.00  0.00     0.027 H 
ATOM     40  H   LIG d   1      12.336   5.383  -3.470  0.00  0.00     0.027 H 
ATOM     41  H   LIG d   1      11.613   4.155  -0.809  0.00  0.00     0.030 H 
ATOM     42  H   LIG d   1      13.046   5.124  -1.255  0.00  0.00     0.030 H 
BRANCH   5  43
ATOM     43  C   LIG d   1       9.226   7.634  -1.551  0.00  0.00    -0.056 C 
ATOM     44  H   LIG d   1       8.420   6.901  -1.518  0.00  0.00     0.024 H 
ATOM     45  H   LIG d   1       9.358   8.073  -0.562  0.00  0.00     0.024 H 
ATOM     46  H   LIG d   1       8.977   8.418  -2.267  0.00  0.00     0.024 H 
ENDBRANCH   5  43
BRANCH  14  47
ATOM     47  C   LIG d   1       8.898   8.315  -5.934  0.00  0.00    -0.057 C 
ATOM     48  H   LIG d   1       9.049   9.198  -5.312  0.00  0.00     0.024 H 
ATOM     49  H   LIG d   1       8.412   8.604  -6.865  0.00  0.00     0.024 H 
ATOM     50  H   LIG d   1       8.270   7.600  -5.402  0.00  0.00     0.024 H 
ENDBRANCH  14  47
BRANCH  22  51
ATOM     51  O   LIG d   1       9.640   8.526 -10.361  0.00  0.00    -0.392 OA
ATOM     52  H   LIG d   1       9.171   9.365 -10.251  0.00  0.00     0.210 HD
ENDBRANCH  22  51
BRANCH   4  53
ATOM     53  O   LIG d   1      10.350   5.961   0.249  0.00  0.00    -0.376 OA
ATOM     54  H   LIG d   1       9.427   5.958  -0.036  0.00  0.00     0.211 HD
ENDBRANCH   4  53
ENDBRANCH   1   4
TORSDOF 5
ENDMDL
