MODEL 1
REMARK VINA RESULT:      -5.9      0.000      0.000
REMARK  17 active torsions:
REMARK  status: ('A' for Active; 'I' for Inactive)
REMARK    1  A    between atoms: C_1  and  C_2 
REMARK    2  A    between atoms: C_2  and  C_33 
REMARK    3  A    between atoms: C_4  and  O_23 
REMARK    4  A    between atoms: C_6  and  C_17 
REMARK    5  A    between atoms: C_8  and  O_16 
REMARK    6  A    between atoms: C_10  and  C_12 
REMARK    7  A    between atoms: C_12  and  C_14 
REMARK    8  A    between atoms: C_14  and  O_15 
REMARK    9  A    between atoms: C_17  and  C_19 
REMARK   10  A    between atoms: C_19  and  O_21 
REMARK   11  A    between atoms: O_21  and  C_22 
REMARK   12  A    between atoms: O_23  and  C_24 
REMARK   13  A    between atoms: C_24  and  C_26 
REMARK   14  A    between atoms: C_26  and  C_28 
REMARK   15  A    between atoms: C_28  and  C_30 
REMARK   16  A    between atoms: C_28  and  O_32 
REMARK   17  A    between atoms: C_30  and  O_31 
ROOT
ATOM      1  C   LIG d   1       3.563   0.351  -8.631  0.00  0.00    -0.002 C 
ATOM      2  C   LIG d   1       3.521  -0.055  -7.157  0.00  0.00    -0.005 C 
ATOM      3  C   LIG d   1       4.296  -1.361  -6.965  0.00  0.00     0.114 C 
ATOM      4  H   LIG d   1       5.331  -1.217  -7.273  0.00  0.00     0.074 H 
ATOM      5  C   LIG d   1       3.658  -2.461  -7.816  0.00  0.00     0.054 C 
ATOM      6  H   LIG d   1       2.622  -2.605  -7.508  0.00  0.00     0.041 H 
ATOM      7  C   LIG d   1       3.700  -2.055  -9.290  0.00  0.00     0.073 C 
ATOM      8  H   LIG d   1       3.246  -2.839  -9.896  0.00  0.00     0.061 H 
ATOM      9  C   LIG d   1       2.926  -0.749  -9.482  0.00  0.00     0.018 C 
ATOM     10  H   LIG d   1       1.890  -0.893  -9.173  0.00  0.00     0.038 H 
ATOM     11  H   LIG d   1       3.975   0.729  -6.550  0.00  0.00     0.031 H 
ATOM     12  H   LIG d   1       2.486  -0.199  -6.849  0.00  0.00     0.031 H 
ENDROOT
BRANCH   3  13
ATOM     13  O   LIG d   1       4.256  -1.740  -5.588  0.00  0.00    -0.457 OA
BRANCH  13  14
ATOM     14  C   LIG d   1       4.602  -0.802  -4.685  0.00  0.00     0.337 C 
ATOM     15  O   LIG d   1       5.465   0.011  -4.953  0.00  0.00    -0.245 OA
BRANCH  14  16
ATOM     16  C   LIG d   1       3.935  -0.759  -3.376  0.00  0.00     0.060 C 
ATOM     17  C   LIG d   1       3.757  -1.881  -2.683  0.00  0.00    -0.086 C 
ATOM     18  H   LIG d   1       3.265  -1.850  -1.721  0.00  0.00     0.054 H 
ATOM     19  H   LIG d   1       4.102  -2.823  -3.083  0.00  0.00     0.054 H 
BRANCH  16  20
ATOM     20  C   LIG d   1       3.453   0.556  -2.819  0.00  0.00     0.109 C 
ATOM     21  H   LIG d   1       2.464   0.423  -2.378  0.00  0.00     0.067 H 
BRANCH  20  22
ATOM     22  C   LIG d   1       4.428   1.045  -1.748  0.00  0.00     0.074 C 
ATOM     23  H   LIG d   1       3.981   1.875  -1.201  0.00  0.00     0.059 H 
ATOM     24  H   LIG d   1       4.647   0.231  -1.057  0.00  0.00     0.059 H 
BRANCH  22  25
ATOM     25  O   LIG d   1       5.639   1.482  -2.368  0.00  0.00    -0.392 OA
ATOM     26  H   LIG d   1       6.424   1.381  -1.814  0.00  0.00     0.209 HD
ENDBRANCH  22  25
ENDBRANCH  20  22
BRANCH  20  27
ATOM     27  O   LIG d   1       3.379   1.520  -3.871  0.00  0.00    -0.385 OA
ATOM     28  H   LIG d   1       4.055   1.410  -4.553  0.00  0.00     0.210 HD
ENDBRANCH  20  27
ENDBRANCH  16  20
ENDBRANCH  14  16
ENDBRANCH  13  14
ENDBRANCH   3  13
BRANCH   5  29
ATOM     29  C   LIG d   1       4.421  -3.748  -7.627  0.00  0.00     0.038 C 
ATOM     30  C   LIG d   1       5.747  -3.757  -7.738  0.00  0.00    -0.088 C 
ATOM     31  H   LIG d   1       6.294  -4.678  -7.603  0.00  0.00     0.054 H 
ATOM     32  H   LIG d   1       6.276  -2.843  -7.963  0.00  0.00     0.054 H 
BRANCH  29  33
ATOM     33  C   LIG d   1       3.700  -4.991  -7.321  0.00  0.00     0.335 C 
ATOM     34  O   LIG d   1       3.490  -5.302  -6.164  0.00  0.00    -0.245 OA
BRANCH  33  35
ATOM     35  O   LIG d   1       3.272  -5.785  -8.321  0.00  0.00    -0.465 OA
BRANCH  35  36
ATOM     36  C   LIG d   1       4.013  -6.984  -8.560  0.00  0.00     0.082 C 
ATOM     37  H   LIG d   1       3.402  -7.848  -8.298  0.00  0.00     0.066 H 
ATOM     38  H   LIG d   1       4.287  -7.039  -9.613  0.00  0.00     0.066 H 
ATOM     39  H   LIG d   1       4.916  -6.979  -7.949  0.00  0.00     0.066 H 
ENDBRANCH  35  36
ENDBRANCH  33  35
ENDBRANCH  29  33
ENDBRANCH   5  29
BRANCH   1  40
ATOM     40  C   LIG d   1       2.790   1.657  -8.823  0.00  0.00    -0.055 C 
ATOM     41  H   LIG d   1       2.302   1.931  -7.887  0.00  0.00     0.024 H 
ATOM     42  H   LIG d   1       3.479   2.447  -9.118  0.00  0.00     0.024 H 
ATOM     43  H   LIG d   1       2.036   1.523  -9.599  0.00  0.00     0.024 H 
ENDBRANCH   1  40
BRANCH   1  44
ATOM     44  C   LIG d   1       4.995   0.549  -9.057  0.00  0.00    -0.084 C 
ATOM     45  C   LIG d   1       5.657   1.608  -8.660  0.00  0.00    -0.102 C 
ATOM     46  H   LIG d   1       5.176   2.339  -8.028  0.00  0.00     0.053 H 
ATOM     47  H   LIG d   1       6.683   1.750  -8.965  0.00  0.00     0.053 H 
ATOM     48  H   LIG d   1       5.476  -0.182  -9.689  0.00  0.00     0.057 H 
ENDBRANCH   1  44
BRANCH   7  49
ATOM     49  O   LIG d   1       5.058  -1.867  -9.694  0.00  0.00    -0.390 OA
ATOM     50  H   LIG d   1       5.409  -0.988  -9.498  0.00  0.00     0.210 HD
ENDBRANCH   7  49
BRANCH   9  51
ATOM     51  C   LIG d   1       2.968  -0.349 -10.934  0.00  0.00    -0.045 C 
ATOM     52  C   LIG d   1       2.071  -0.814 -11.768  0.00  0.00    -0.097 C 
ATOM     53  H   LIG d   1       2.101  -0.528 -12.809  0.00  0.00     0.053 H 
ATOM     54  H   LIG d   1       1.301  -1.485 -11.414  0.00  0.00     0.053 H 
BRANCH  51  55
ATOM     55  C   LIG d   1       4.042   0.586 -11.427  0.00  0.00     0.065 C 
ATOM     56  H   LIG d   1       3.580   1.458 -11.889  0.00  0.00     0.060 H 
ATOM     57  H   LIG d   1       4.660   0.903 -10.588  0.00  0.00     0.060 H 
BRANCH  55  58
ATOM     58  O   LIG d   1       4.855  -0.088 -12.390  0.00  0.00    -0.391 OA
ATOM     59  H   LIG d   1       4.488  -0.087 -13.285  0.00  0.00     0.210 HD
ENDBRANCH  55  58
ENDBRANCH  51  55
ENDBRANCH   9  51
TORSDOF 17
ENDMDL
MODEL 2
REMARK VINA RESULT:      -5.8      1.502      1.865
REMARK  17 active torsions:
REMARK  status: ('A' for Active; 'I' for Inactive)
REMARK    1  A    between atoms: C_1  and  C_2 
REMARK    2  A    between atoms: C_2  and  C_33 
REMARK    3  A    between atoms: C_4  and  O_23 
REMARK    4  A    between atoms: C_6  and  C_17 
REMARK    5  A    between atoms: C_8  and  O_16 
REMARK    6  A    between atoms: C_10  and  C_12 
REMARK    7  A    between atoms: C_12  and  C_14 
REMARK    8  A    between atoms: C_14  and  O_15 
REMARK    9  A    between atoms: C_17  and  C_19 
REMARK   10  A    between atoms: C_19  and  O_21 
REMARK   11  A    between atoms: O_21  and  C_22 
REMARK   12  A    between atoms: O_23  and  C_24 
REMARK   13  A    between atoms: C_24  and  C_26 
REMARK   14  A    between atoms: C_26  and  C_28 
REMARK   15  A    between atoms: C_28  and  C_30 
REMARK   16  A    between atoms: C_28  and  O_32 
REMARK   17  A    between atoms: C_30  and  O_31 
ROOT
ATOM      1  C   LIG d   1       3.460   0.570  -8.739  0.00  0.00    -0.002 C 
ATOM      2  C   LIG d   1       3.407   0.446  -7.215  0.00  0.00    -0.005 C 
ATOM      3  C   LIG d   1       4.368  -0.655  -6.760  0.00  0.00     0.114 C 
ATOM      4  H   LIG d   1       5.382  -0.402  -7.069  0.00  0.00     0.074 H 
ATOM      5  C   LIG d   1       3.957  -1.985  -7.394  0.00  0.00     0.054 C 
ATOM      6  H   LIG d   1       2.943  -2.238  -7.085  0.00  0.00     0.041 H 
ATOM      7  C   LIG d   1       4.010  -1.861  -8.918  0.00  0.00     0.073 C 
ATOM      8  H   LIG d   1       3.717  -2.808  -9.370  0.00  0.00     0.061 H 
ATOM      9  C   LIG d   1       3.050  -0.761  -9.374  0.00  0.00     0.018 C 
ATOM     10  H   LIG d   1       2.035  -1.013  -9.064  0.00  0.00     0.038 H 
ATOM     11  H   LIG d   1       3.700   1.393  -6.762  0.00  0.00     0.031 H 
ATOM     12  H   LIG d   1       2.393   0.193  -6.906  0.00  0.00     0.031 H 
ENDROOT
BRANCH   3  13
ATOM     13  O   LIG d   1       4.318  -0.771  -5.336  0.00  0.00    -0.457 OA
BRANCH  13  14
ATOM     14  C   LIG d   1       5.462  -0.537  -4.663  0.00  0.00     0.337 C 
ATOM     15  O   LIG d   1       6.202   0.360  -5.015  0.00  0.00    -0.245 OA
BRANCH  14  16
ATOM     16  C   LIG d   1       5.814  -1.367  -3.502  0.00  0.00     0.060 C 
ATOM     17  C   LIG d   1       7.028  -1.905  -3.412  0.00  0.00    -0.086 C 
ATOM     18  H   LIG d   1       7.287  -2.515  -2.559  0.00  0.00     0.054 H 
ATOM     19  H   LIG d   1       7.754  -1.732  -4.193  0.00  0.00     0.054 H 
BRANCH  16  20
ATOM     20  C   LIG d   1       4.800  -1.607  -2.413  0.00  0.00     0.109 C 
ATOM     21  H   LIG d   1       5.270  -2.151  -1.593  0.00  0.00     0.067 H 
BRANCH  20  22
ATOM     22  C   LIG d   1       4.274  -0.266  -1.901  0.00  0.00     0.074 C 
ATOM     23  H   LIG d   1       4.118  -0.324  -0.824  0.00  0.00     0.059 H 
ATOM     24  H   LIG d   1       4.999   0.517  -2.121  0.00  0.00     0.059 H 
BRANCH  22  25
ATOM     25  O   LIG d   1       3.034   0.037  -2.545  0.00  0.00    -0.392 OA
ATOM     26  H   LIG d   1       2.960  -0.316  -3.441  0.00  0.00     0.209 HD
ENDBRANCH  22  25
ENDBRANCH  20  22
BRANCH  20  27
ATOM     27  O   LIG d   1       3.716  -2.377  -2.935  0.00  0.00    -0.385 OA
ATOM     28  H   LIG d   1       3.963  -2.961  -3.665  0.00  0.00     0.210 HD
ENDBRANCH  20  27
ENDBRANCH  16  20
ENDBRANCH  14  16
ENDBRANCH  13  14
ENDBRANCH   3  13
BRANCH   5  29
ATOM     29  C   LIG d   1       4.903  -3.069  -6.945  0.00  0.00     0.038 C 
ATOM     30  C   LIG d   1       6.205  -2.966  -7.206  0.00  0.00    -0.088 C 
ATOM     31  H   LIG d   1       6.883  -3.742  -6.884  0.00  0.00     0.054 H 
ATOM     32  H   LIG d   1       6.582  -2.105  -7.738  0.00  0.00     0.054 H 
BRANCH  29  33
ATOM     33  C   LIG d   1       4.388  -4.240  -6.222  0.00  0.00     0.335 C 
ATOM     34  O   LIG d   1       4.424  -4.267  -5.007  0.00  0.00    -0.245 OA
BRANCH  33  35
ATOM     35  O   LIG d   1       3.878  -5.283  -6.905  0.00  0.00    -0.465 OA
BRANCH  35  36
ATOM     36  C   LIG d   1       4.470  -6.563  -6.672  0.00  0.00     0.082 C 
ATOM     37  H   LIG d   1       3.763  -7.347  -6.947  0.00  0.00     0.066 H 
ATOM     38  H   LIG d   1       5.373  -6.661  -7.274  0.00  0.00     0.066 H 
ATOM     39  H   LIG d   1       4.724  -6.658  -5.616  0.00  0.00     0.066 H 
ENDBRANCH  35  36
ENDBRANCH  33  35
ENDBRANCH  29  33
ENDBRANCH   5  29
BRANCH   1  40
ATOM     40  C   LIG d   1       2.500   1.670  -9.195  0.00  0.00    -0.055 C 
ATOM     41  H   LIG d   1       2.834   2.068 -10.154  0.00  0.00     0.024 H 
ATOM     42  H   LIG d   1       1.498   1.255  -9.304  0.00  0.00     0.024 H 
ATOM     43  H   LIG d   1       2.484   2.469  -8.455  0.00  0.00     0.024 H 
ENDBRANCH   1  40
BRANCH   1  44
ATOM     44  C   LIG d   1       4.862   0.918  -9.166  0.00  0.00    -0.084 C 
ATOM     45  C   LIG d   1       5.276   2.160  -9.106  0.00  0.00    -0.102 C 
ATOM     46  H   LIG d   1       4.613   2.933  -8.750  0.00  0.00     0.053 H 
ATOM     47  H   LIG d   1       6.282   2.410  -9.412  0.00  0.00     0.053 H 
ATOM     48  H   LIG d   1       5.526   0.145  -9.522  0.00  0.00     0.057 H 
ENDBRANCH   1  44
BRANCH   7  49
ATOM     49  O   LIG d   1       5.340  -1.531  -9.324  0.00  0.00    -0.390 OA
ATOM     50  H   LIG d   1       5.391  -1.091 -10.183  0.00  0.00     0.210 HD
ENDBRANCH   7  49
BRANCH   9  51
ATOM     51  C   LIG d   1       3.102  -0.638 -10.875  0.00  0.00    -0.045 C 
ATOM     52  C   LIG d   1       4.222  -0.301 -11.466  0.00  0.00    -0.097 C 
ATOM     53  H   LIG d   1       4.259  -0.212 -12.542  0.00  0.00     0.053 H 
ATOM     54  H   LIG d   1       5.107  -0.111 -10.877  0.00  0.00     0.053 H 
BRANCH  51  55
ATOM     55  C   LIG d   1       1.867  -0.903 -11.696  0.00  0.00     0.065 C 
ATOM     56  H   LIG d   1       1.737  -0.104 -12.426  0.00  0.00     0.060 H 
ATOM     57  H   LIG d   1       1.973  -1.855 -12.214  0.00  0.00     0.060 H 
BRANCH  55  58
ATOM     58  O   LIG d   1       0.725  -0.953 -10.837  0.00  0.00    -0.391 OA
ATOM     59  H   LIG d   1       0.328  -0.089 -10.660  0.00  0.00     0.210 HD
ENDBRANCH  55  58
ENDBRANCH  51  55
ENDBRANCH   9  51
TORSDOF 17
ENDMDL
MODEL 3
REMARK VINA RESULT:      -5.6      2.362      3.538
REMARK  17 active torsions:
REMARK  status: ('A' for Active; 'I' for Inactive)
REMARK    1  A    between atoms: C_1  and  C_2 
REMARK    2  A    between atoms: C_2  and  C_33 
REMARK    3  A    between atoms: C_4  and  O_23 
REMARK    4  A    between atoms: C_6  and  C_17 
REMARK    5  A    between atoms: C_8  and  O_16 
REMARK    6  A    between atoms: C_10  and  C_12 
REMARK    7  A    between atoms: C_12  and  C_14 
REMARK    8  A    between atoms: C_14  and  O_15 
REMARK    9  A    between atoms: C_17  and  C_19 
REMARK   10  A    between atoms: C_19  and  O_21 
REMARK   11  A    between atoms: O_21  and  C_22 
REMARK   12  A    between atoms: O_23  and  C_24 
REMARK   13  A    between atoms: C_24  and  C_26 
REMARK   14  A    between atoms: C_26  and  C_28 
REMARK   15  A    between atoms: C_28  and  C_30 
REMARK   16  A    between atoms: C_28  and  O_32 
REMARK   17  A    between atoms: C_30  and  O_31 
ROOT
ATOM      1  C   LIG d   1       2.833  -0.312  -9.278  0.00  0.00    -0.002 C 
ATOM      2  C   LIG d   1       2.769  -0.581  -7.774  0.00  0.00    -0.005 C 
ATOM      3  C   LIG d   1       4.134  -0.289  -7.146  0.00  0.00     0.114 C 
ATOM      4  H   LIG d   1       4.398   0.754  -7.319  0.00  0.00     0.074 H 
ATOM      5  C   LIG d   1       5.191  -1.195  -7.782  0.00  0.00     0.054 C 
ATOM      6  H   LIG d   1       4.927  -2.238  -7.610  0.00  0.00     0.041 H 
ATOM      7  C   LIG d   1       5.254  -0.927  -9.286  0.00  0.00     0.073 C 
ATOM      8  H   LIG d   1       6.007  -1.572  -9.739  0.00  0.00     0.061 H 
ATOM      9  C   LIG d   1       3.890  -1.217  -9.914  0.00  0.00     0.018 C 
ATOM     10  H   LIG d   1       3.625  -2.261  -9.741  0.00  0.00     0.038 H 
ATOM     11  H   LIG d   1       2.016   0.064  -7.320  0.00  0.00     0.031 H 
ATOM     12  H   LIG d   1       2.506  -1.624  -7.602  0.00  0.00     0.031 H 
ENDROOT
BRANCH   3  13
ATOM     13  O   LIG d   1       4.075  -0.540  -5.740  0.00  0.00    -0.457 OA
BRANCH  13  14
ATOM     14  C   LIG d   1       3.293   0.275  -5.006  0.00  0.00     0.337 C 
ATOM     15  O   LIG d   1       2.692   1.186  -5.542  0.00  0.00    -0.245 OA
BRANCH  14  16
ATOM     16  C   LIG d   1       3.165   0.063  -3.558  0.00  0.00     0.060 C 
ATOM     17  C   LIG d   1       2.818  -1.133  -3.089  0.00  0.00    -0.086 C 
ATOM     18  H   LIG d   1       2.723  -1.290  -2.024  0.00  0.00     0.054 H 
ATOM     19  H   LIG d   1       2.631  -1.948  -3.773  0.00  0.00     0.054 H 
BRANCH  16  20
ATOM     20  C   LIG d   1       3.426   1.200  -2.603  0.00  0.00     0.109 C 
ATOM     21  H   LIG d   1       2.554   1.346  -1.965  0.00  0.00     0.067 H 
BRANCH  20  22
ATOM     22  C   LIG d   1       4.642   0.869  -1.737  0.00  0.00     0.074 C 
ATOM     23  H   LIG d   1       4.591   1.436  -0.807  0.00  0.00     0.059 H 
ATOM     24  H   LIG d   1       4.650  -0.197  -1.512  0.00  0.00     0.059 H 
BRANCH  22  25
ATOM     25  O   LIG d   1       5.837   1.217  -2.440  0.00  0.00    -0.392 OA
ATOM     26  H   LIG d   1       6.288   1.995  -2.087  0.00  0.00     0.209 HD
ENDBRANCH  22  25
ENDBRANCH  20  22
BRANCH  20  27
ATOM     27  O   LIG d   1       3.680   2.394  -3.345  0.00  0.00    -0.385 OA
ATOM     28  H   LIG d   1       2.982   3.059  -3.270  0.00  0.00     0.210 HD
ENDBRANCH  20  27
ENDBRANCH  16  20
ENDBRANCH  14  16
ENDBRANCH  13  14
ENDBRANCH   3  13
BRANCH   5  29
ATOM     29  C   LIG d   1       6.536  -0.909  -7.163  0.00  0.00     0.038 C 
ATOM     30  C   LIG d   1       7.462  -1.864  -7.115  0.00  0.00    -0.088 C 
ATOM     31  H   LIG d   1       8.425  -1.659  -6.672  0.00  0.00     0.054 H 
ATOM     32  H   LIG d   1       7.249  -2.843  -7.518  0.00  0.00     0.054 H 
BRANCH  29  33
ATOM     33  C   LIG d   1       6.823   0.424  -6.615  0.00  0.00     0.335 C 
ATOM     34  O   LIG d   1       6.936   1.376  -7.362  0.00  0.00    -0.245 OA
BRANCH  33  35
ATOM     35  O   LIG d   1       6.963   0.589  -5.285  0.00  0.00    -0.465 OA
BRANCH  35  36
ATOM     36  C   LIG d   1       8.172   1.202  -4.831  0.00  0.00     0.082 C 
ATOM     37  H   LIG d   1       8.977   0.982  -5.532  0.00  0.00     0.066 H 
ATOM     38  H   LIG d   1       8.031   2.280  -4.765  0.00  0.00     0.066 H 
ATOM     39  H   LIG d   1       8.430   0.808  -3.847  0.00  0.00     0.066 H 
ENDBRANCH  35  36
ENDBRANCH  33  35
ENDBRANCH  29  33
ENDBRANCH   5  29
BRANCH   1  40
ATOM     40  C   LIG d   1       1.468  -0.603  -9.906  0.00  0.00    -0.055 C 
ATOM     41  H   LIG d   1       1.597  -0.827 -10.966  0.00  0.00     0.024 H 
ATOM     42  H   LIG d   1       1.013  -1.459  -9.407  0.00  0.00     0.024 H 
ATOM     43  H   LIG d   1       0.823   0.268  -9.795  0.00  0.00     0.024 H 
ENDBRANCH   1  40
BRANCH   1  44
ATOM     44  C   LIG d   1       3.198   1.130  -9.517  0.00  0.00    -0.084 C 
ATOM     45  C   LIG d   1       2.557   2.082  -8.884  0.00  0.00    -0.102 C 
ATOM     46  H   LIG d   1       1.768   1.833  -8.191  0.00  0.00     0.053 H 
ATOM     47  H   LIG d   1       2.820   3.116  -9.054  0.00  0.00     0.053 H 
ATOM     48  H   LIG d   1       3.988   1.379 -10.209  0.00  0.00     0.057 H 
ENDBRANCH   1  44
BRANCH   7  49
ATOM     49  O   LIG d   1       5.601   0.441  -9.513  0.00  0.00    -0.390 OA
ATOM     50  H   LIG d   1       5.232   1.053  -8.862  0.00  0.00     0.210 HD
ENDBRANCH   7  49
BRANCH   9  51
ATOM     51  C   LIG d   1       3.952  -0.953 -11.396  0.00  0.00    -0.045 C 
ATOM     52  C   LIG d   1       4.283   0.236 -11.836  0.00  0.00    -0.097 C 
ATOM     53  H   LIG d   1       4.327   0.426 -12.898  0.00  0.00     0.053 H 
ATOM     54  H   LIG d   1       4.512   1.026 -11.137  0.00  0.00     0.053 H 
BRANCH  51  55
ATOM     55  C   LIG d   1       3.633  -2.055 -12.373  0.00  0.00     0.065 C 
ATOM     56  H   LIG d   1       2.588  -2.345 -12.264  0.00  0.00     0.060 H 
ATOM     57  H   LIG d   1       3.809  -1.702 -13.388  0.00  0.00     0.060 H 
BRANCH  55  58
ATOM     58  O   LIG d   1       4.470  -3.183 -12.108  0.00  0.00    -0.391 OA
ATOM     59  H   LIG d   1       5.395  -3.053 -12.359  0.00  0.00     0.210 HD
ENDBRANCH  55  58
ENDBRANCH  51  55
ENDBRANCH   9  51
TORSDOF 17
ENDMDL
MODEL 4
REMARK VINA RESULT:      -5.5      3.642      5.728
REMARK  17 active torsions:
REMARK  status: ('A' for Active; 'I' for Inactive)
REMARK    1  A    between atoms: C_1  and  C_2 
REMARK    2  A    between atoms: C_2  and  C_33 
REMARK    3  A    between atoms: C_4  and  O_23 
REMARK    4  A    between atoms: C_6  and  C_17 
REMARK    5  A    between atoms: C_8  and  O_16 
REMARK    6  A    between atoms: C_10  and  C_12 
REMARK    7  A    between atoms: C_12  and  C_14 
REMARK    8  A    between atoms: C_14  and  O_15 
REMARK    9  A    between atoms: C_17  and  C_19 
REMARK   10  A    between atoms: C_19  and  O_21 
REMARK   11  A    between atoms: O_21  and  C_22 
REMARK   12  A    between atoms: O_23  and  C_24 
REMARK   13  A    between atoms: C_24  and  C_26 
REMARK   14  A    between atoms: C_26  and  C_28 
REMARK   15  A    between atoms: C_28  and  C_30 
REMARK   16  A    between atoms: C_28  and  O_32 
REMARK   17  A    between atoms: C_30  and  O_31 
ROOT
ATOM      1  C   LIG d   1       5.212  -0.579  -3.232  0.00  0.00    -0.002 C 
ATOM      2  C   LIG d   1       5.969  -1.900  -3.083  0.00  0.00    -0.005 C 
ATOM      3  C   LIG d   1       6.159  -2.536  -4.461  0.00  0.00     0.114 C 
ATOM      4  H   LIG d   1       6.729  -1.860  -5.098  0.00  0.00     0.074 H 
ATOM      5  C   LIG d   1       4.791  -2.801  -5.094  0.00  0.00     0.054 C 
ATOM      6  H   LIG d   1       4.220  -3.477  -4.457  0.00  0.00     0.041 H 
ATOM      7  C   LIG d   1       4.034  -1.480  -5.242  0.00  0.00     0.073 C 
ATOM      8  H   LIG d   1       3.060  -1.668  -5.693  0.00  0.00     0.061 H 
ATOM      9  C   LIG d   1       3.844  -0.843  -3.864  0.00  0.00     0.018 C 
ATOM     10  H   LIG d   1       3.274  -1.519  -3.227  0.00  0.00     0.038 H 
ATOM     11  H   LIG d   1       6.944  -1.712  -2.633  0.00  0.00     0.031 H 
ATOM     12  H   LIG d   1       5.399  -2.576  -2.446  0.00  0.00     0.031 H 
ENDROOT
BRANCH   3  13
ATOM     13  O   LIG d   1       6.866  -3.771  -4.323  0.00  0.00    -0.457 OA
BRANCH  13  14
ATOM     14  C   LIG d   1       8.211  -3.702  -4.267  0.00  0.00     0.337 C 
ATOM     15  O   LIG d   1       8.786  -2.708  -4.665  0.00  0.00    -0.245 OA
BRANCH  14  16
ATOM     16  C   LIG d   1       8.982  -4.829  -3.724  0.00  0.00     0.060 C 
ATOM     17  C   LIG d   1       9.002  -5.994  -4.367  0.00  0.00    -0.086 C 
ATOM     18  H   LIG d   1       9.568  -6.823  -3.967  0.00  0.00     0.054 H 
ATOM     19  H   LIG d   1       8.449  -6.112  -5.288  0.00  0.00     0.054 H 
BRANCH  16  20
ATOM     20  C   LIG d   1       9.752  -4.664  -2.439  0.00  0.00     0.109 C 
ATOM     21  H   LIG d   1       9.091  -4.268  -1.667  0.00  0.00     0.067 H 
BRANCH  20  22
ATOM     22  C   LIG d   1      10.300  -6.021  -1.994  0.00  0.00     0.074 C 
ATOM     23  H   LIG d   1      10.008  -6.785  -2.716  0.00  0.00     0.059 H 
ATOM     24  H   LIG d   1      11.386  -5.973  -1.935  0.00  0.00     0.059 H 
BRANCH  22  25
ATOM     25  O   LIG d   1       9.766  -6.353  -0.711  0.00  0.00    -0.392 OA
ATOM     26  H   LIG d   1       8.802  -6.332  -0.668  0.00  0.00     0.209 HD
ENDBRANCH  22  25
ENDBRANCH  20  22
BRANCH  20  27
ATOM     27  O   LIG d   1      10.837  -3.758  -2.647  0.00  0.00    -0.385 OA
ATOM     28  H   LIG d   1      11.660  -4.023  -2.214  0.00  0.00     0.210 HD
ENDBRANCH  20  27
ENDBRANCH  16  20
ENDBRANCH  14  16
ENDBRANCH  13  14
ENDBRANCH   3  13
BRANCH   5  29
ATOM     29  C   LIG d   1       4.978  -3.428  -6.451  0.00  0.00     0.038 C 
ATOM     30  C   LIG d   1       6.004  -3.064  -7.217  0.00  0.00    -0.088 C 
ATOM     31  H   LIG d   1       6.138  -3.513  -8.190  0.00  0.00     0.054 H 
ATOM     32  H   LIG d   1       6.702  -2.319  -6.865  0.00  0.00     0.054 H 
BRANCH  29  33
ATOM     33  C   LIG d   1       4.027  -4.441  -6.929  0.00  0.00     0.335 C 
ATOM     34  O   LIG d   1       3.590  -4.378  -8.062  0.00  0.00    -0.245 OA
BRANCH  33  35
ATOM     35  O   LIG d   1       3.639  -5.440  -6.112  0.00  0.00    -0.465 OA
BRANCH  35  36
ATOM     36  C   LIG d   1       4.629  -6.407  -5.755  0.00  0.00     0.082 C 
ATOM     37  H   LIG d   1       4.377  -7.369  -6.202  0.00  0.00     0.066 H 
ATOM     38  H   LIG d   1       5.604  -6.082  -6.119  0.00  0.00     0.066 H 
ATOM     39  H   LIG d   1       4.662  -6.509  -4.670  0.00  0.00     0.066 H 
ENDBRANCH  35  36
ENDBRANCH  33  35
ENDBRANCH  29  33
ENDBRANCH   5  29
BRANCH   1  40
ATOM     40  C   LIG d   1       5.023   0.058  -1.854  0.00  0.00    -0.055 C 
ATOM     41  H   LIG d   1       5.005   1.144  -1.956  0.00  0.00     0.024 H 
ATOM     42  H   LIG d   1       4.080  -0.281  -1.423  0.00  0.00     0.024 H 
ATOM     43  H   LIG d   1       5.846  -0.232  -1.201  0.00  0.00     0.024 H 
ENDBRANCH   1  40
BRANCH   1  44
ATOM     44  C   LIG d   1       6.001   0.356  -4.112  0.00  0.00    -0.084 C 
ATOM     45  C   LIG d   1       6.972   1.073  -3.604  0.00  0.00    -0.102 C 
ATOM     46  H   LIG d   1       7.209   0.993  -2.553  0.00  0.00     0.053 H 
ATOM     47  H   LIG d   1       7.538   1.742  -4.236  0.00  0.00     0.053 H 
ATOM     48  H   LIG d   1       5.765   0.435  -5.163  0.00  0.00     0.057 H 
ENDBRANCH   1  44
BRANCH   7  49
ATOM     49  O   LIG d   1       4.782  -0.593  -6.078  0.00  0.00    -0.390 OA
ATOM     50  H   LIG d   1       4.305   0.210  -6.325  0.00  0.00     0.210 HD
ENDBRANCH   7  49
BRANCH   9  51
ATOM     51  C   LIG d   1       3.099   0.459  -4.010  0.00  0.00    -0.045 C 
ATOM     52  C   LIG d   1       3.290   1.424  -3.144  0.00  0.00    -0.097 C 
ATOM     53  H   LIG d   1       2.755   2.356  -3.248  0.00  0.00     0.053 H 
ATOM     54  H   LIG d   1       3.980   1.286  -2.325  0.00  0.00     0.053 H 
BRANCH  51  55
ATOM     55  C   LIG d   1       2.135   0.651  -5.152  0.00  0.00     0.065 C 
ATOM     56  H   LIG d   1       1.884  -0.318  -5.583  0.00  0.00     0.060 H 
ATOM     57  H   LIG d   1       1.229   1.132  -4.785  0.00  0.00     0.060 H 
BRANCH  55  58
ATOM     58  O   LIG d   1       2.740   1.475  -6.152  0.00  0.00    -0.391 OA
ATOM     59  H   LIG d   1       3.424   1.027  -6.669  0.00  0.00     0.210 HD
ENDBRANCH  55  58
ENDBRANCH  51  55
ENDBRANCH   9  51
TORSDOF 17
ENDMDL
MODEL 5
REMARK VINA RESULT:      -5.5      1.606      2.473
REMARK  17 active torsions:
REMARK  status: ('A' for Active; 'I' for Inactive)
REMARK    1  A    between atoms: C_1  and  C_2 
REMARK    2  A    between atoms: C_2  and  C_33 
REMARK    3  A    between atoms: C_4  and  O_23 
REMARK    4  A    between atoms: C_6  and  C_17 
REMARK    5  A    between atoms: C_8  and  O_16 
REMARK    6  A    between atoms: C_10  and  C_12 
REMARK    7  A    between atoms: C_12  and  C_14 
REMARK    8  A    between atoms: C_14  and  O_15 
REMARK    9  A    between atoms: C_17  and  C_19 
REMARK   10  A    between atoms: C_19  and  O_21 
REMARK   11  A    between atoms: O_21  and  C_22 
REMARK   12  A    between atoms: O_23  and  C_24 
REMARK   13  A    between atoms: C_24  and  C_26 
REMARK   14  A    between atoms: C_26  and  C_28 
REMARK   15  A    between atoms: C_28  and  C_30 
REMARK   16  A    between atoms: C_28  and  O_32 
REMARK   17  A    between atoms: C_30  and  O_31 
ROOT
ATOM      1  C   LIG d   1       3.366   0.669  -8.892  0.00  0.00    -0.002 C 
ATOM      2  C   LIG d   1       3.209   0.489  -7.381  0.00  0.00    -0.005 C 
ATOM      3  C   LIG d   1       4.111  -0.653  -6.908  0.00  0.00     0.114 C 
ATOM      4  H   LIG d   1       5.149  -0.416  -7.140  0.00  0.00     0.074 H 
ATOM      5  C   LIG d   1       3.711  -1.947  -7.620  0.00  0.00     0.054 C 
ATOM      6  H   LIG d   1       2.673  -2.184  -7.389  0.00  0.00     0.041 H 
ATOM      7  C   LIG d   1       3.868  -1.767  -9.131  0.00  0.00     0.073 C 
ATOM      8  H   LIG d   1       3.584  -2.688  -9.639  0.00  0.00     0.061 H 
ATOM      9  C   LIG d   1       2.967  -0.625  -9.605  0.00  0.00     0.018 C 
ATOM     10  H   LIG d   1       1.928  -0.862  -9.373  0.00  0.00     0.038 H 
ATOM     11  H   LIG d   1       3.493   1.410  -6.873  0.00  0.00     0.031 H 
ATOM     12  H   LIG d   1       2.171   0.251  -7.150  0.00  0.00     0.031 H 
ENDROOT
BRANCH   3  13
ATOM     13  O   LIG d   1       3.964  -0.822  -5.496  0.00  0.00    -0.457 OA
BRANCH  13  14
ATOM     14  C   LIG d   1       4.778  -0.095  -4.705  0.00  0.00     0.337 C 
ATOM     15  O   LIG d   1       5.725   0.494  -5.187  0.00  0.00    -0.245 OA
BRANCH  14  16
ATOM     16  C   LIG d   1       4.518  -0.013  -3.261  0.00  0.00     0.060 C 
ATOM     17  C   LIG d   1       3.912   1.057  -2.754  0.00  0.00    -0.086 C 
ATOM     18  H   LIG d   1       3.722   1.118  -1.692  0.00  0.00     0.054 H 
ATOM     19  H   LIG d   1       3.612   1.866  -3.404  0.00  0.00     0.054 H 
BRANCH  16  20
ATOM     20  C   LIG d   1       4.939  -1.142  -2.355  0.00  0.00     0.109 C 
ATOM     21  H   LIG d   1       5.080  -0.762  -1.343  0.00  0.00     0.067 H 
BRANCH  20  22
ATOM     22  C   LIG d   1       3.855  -2.221  -2.348  0.00  0.00     0.074 C 
ATOM     23  H   LIG d   1       3.905  -2.779  -1.413  0.00  0.00     0.059 H 
ATOM     24  H   LIG d   1       2.876  -1.753  -2.441  0.00  0.00     0.059 H 
BRANCH  22  25
ATOM     25  O   LIG d   1       4.063  -3.113  -3.446  0.00  0.00    -0.392 OA
ATOM     26  H   LIG d   1       4.396  -2.683  -4.244  0.00  0.00     0.209 HD
ENDBRANCH  22  25
ENDBRANCH  20  22
BRANCH  20  27
ATOM     27  O   LIG d   1       6.165  -1.701  -2.830  0.00  0.00    -0.385 OA
ATOM     28  H   LIG d   1       6.316  -2.613  -2.548  0.00  0.00     0.210 HD
ENDBRANCH  20  27
ENDBRANCH  16  20
ENDBRANCH  14  16
ENDBRANCH  13  14
ENDBRANCH   3  13
BRANCH   5  29
ATOM     29  C   LIG d   1       4.599  -3.072  -7.154  0.00  0.00     0.038 C 
ATOM     30  C   LIG d   1       4.169  -4.330  -7.222  0.00  0.00    -0.088 C 
ATOM     31  H   LIG d   1       4.805  -5.137  -6.888  0.00  0.00     0.054 H 
ATOM     32  H   LIG d   1       3.185  -4.544  -7.611  0.00  0.00     0.054 H 
BRANCH  29  33
ATOM     33  C   LIG d   1       5.938  -2.780  -6.625  0.00  0.00     0.335 C 
ATOM     34  O   LIG d   1       6.213  -3.069  -5.476  0.00  0.00    -0.245 OA
BRANCH  33  35
ATOM     35  O   LIG d   1       6.861  -2.193  -7.411  0.00  0.00    -0.465 OA
BRANCH  35  36
ATOM     36  C   LIG d   1       8.034  -1.687  -6.770  0.00  0.00     0.082 C 
ATOM     37  H   LIG d   1       8.679  -1.215  -7.511  0.00  0.00     0.066 H 
ATOM     38  H   LIG d   1       7.749  -0.955  -6.015  0.00  0.00     0.066 H 
ATOM     39  H   LIG d   1       8.569  -2.510  -6.294  0.00  0.00     0.066 H 
ENDBRANCH  35  36
ENDBRANCH  33  35
ENDBRANCH  29  33
ENDBRANCH   5  29
BRANCH   1  40
ATOM     40  C   LIG d   1       2.465   1.811  -9.366  0.00  0.00    -0.055 C 
ATOM     41  H   LIG d   1       2.752   2.734  -8.861  0.00  0.00     0.024 H 
ATOM     42  H   LIG d   1       2.575   1.938 -10.443  0.00  0.00     0.024 H 
ATOM     43  H   LIG d   1       1.426   1.577  -9.133  0.00  0.00     0.024 H 
ENDBRANCH   1  40
BRANCH   1  44
ATOM     44  C   LIG d   1       4.801   0.997  -9.213  0.00  0.00    -0.084 C 
ATOM     45  C   LIG d   1       5.232   2.229  -9.107  0.00  0.00    -0.102 C 
ATOM     46  H   LIG d   1       4.558   3.011  -8.789  0.00  0.00     0.053 H 
ATOM     47  H   LIG d   1       6.261   2.464  -9.336  0.00  0.00     0.053 H 
ATOM     48  H   LIG d   1       5.475   0.215  -9.530  0.00  0.00     0.057 H 
ENDBRANCH   1  44
BRANCH   7  49
ATOM     49  O   LIG d   1       5.230  -1.456  -9.436  0.00  0.00    -0.390 OA
ATOM     50  H   LIG d   1       5.508  -0.578  -9.143  0.00  0.00     0.210 HD
ENDBRANCH   7  49
BRANCH   9  51
ATOM     51  C   LIG d   1       3.122  -0.447 -11.093  0.00  0.00    -0.045 C 
ATOM     52  C   LIG d   1       2.187  -0.876 -11.905  0.00  0.00    -0.097 C 
ATOM     53  H   LIG d   1       2.298  -0.749 -12.972  0.00  0.00     0.053 H 
ATOM     54  H   LIG d   1       1.306  -1.358 -11.508  0.00  0.00     0.053 H 
BRANCH  51  55
ATOM     55  C   LIG d   1       4.351   0.226 -11.648  0.00  0.00     0.065 C 
ATOM     56  H   LIG d   1       4.054   1.003 -12.351  0.00  0.00     0.060 H 
ATOM     57  H   LIG d   1       4.920   0.671 -10.833  0.00  0.00     0.060 H 
BRANCH  55  58
ATOM     58  O   LIG d   1       5.160  -0.741 -12.321  0.00  0.00    -0.391 OA
ATOM     59  H   LIG d   1       5.259  -0.579 -13.270  0.00  0.00     0.210 HD
ENDBRANCH  55  58
ENDBRANCH  51  55
ENDBRANCH   9  51
TORSDOF 17
ENDMDL
MODEL 6
REMARK VINA RESULT:      -5.5      2.360      3.210
REMARK  17 active torsions:
REMARK  status: ('A' for Active; 'I' for Inactive)
REMARK    1  A    between atoms: C_1  and  C_2 
REMARK    2  A    between atoms: C_2  and  C_33 
REMARK    3  A    between atoms: C_4  and  O_23 
REMARK    4  A    between atoms: C_6  and  C_17 
REMARK    5  A    between atoms: C_8  and  O_16 
REMARK    6  A    between atoms: C_10  and  C_12 
REMARK    7  A    between atoms: C_12  and  C_14 
REMARK    8  A    between atoms: C_14  and  O_15 
REMARK    9  A    between atoms: C_17  and  C_19 
REMARK   10  A    between atoms: C_19  and  O_21 
REMARK   11  A    between atoms: O_21  and  C_22 
REMARK   12  A    between atoms: O_23  and  C_24 
REMARK   13  A    between atoms: C_24  and  C_26 
REMARK   14  A    between atoms: C_26  and  C_28 
REMARK   15  A    between atoms: C_28  and  C_30 
REMARK   16  A    between atoms: C_28  and  O_32 
REMARK   17  A    between atoms: C_30  and  O_31 
ROOT
ATOM      1  C   LIG d   1       3.467   0.067  -8.690  0.00  0.00    -0.002 C 
ATOM      2  C   LIG d   1       3.100  -0.372  -7.272  0.00  0.00    -0.005 C 
ATOM      3  C   LIG d   1       4.341  -0.304  -6.380  0.00  0.00     0.114 C 
ATOM      4  H   LIG d   1       4.717   0.719  -6.358  0.00  0.00     0.074 H 
ATOM      5  C   LIG d   1       5.422  -1.233  -6.938  0.00  0.00     0.054 C 
ATOM      6  H   LIG d   1       5.046  -2.256  -6.960  0.00  0.00     0.041 H 
ATOM      7  C   LIG d   1       5.789  -0.793  -8.356  0.00  0.00     0.073 C 
ATOM      8  H   LIG d   1       6.559  -1.455  -8.754  0.00  0.00     0.061 H 
ATOM      9  C   LIG d   1       4.548  -0.861  -9.249  0.00  0.00     0.018 C 
ATOM     10  H   LIG d   1       4.172  -1.884  -9.270  0.00  0.00     0.038 H 
ATOM     11  H   LIG d   1       2.330   0.289  -6.874  0.00  0.00     0.031 H 
ATOM     12  H   LIG d   1       2.725  -1.395  -7.294  0.00  0.00     0.031 H 
ENDROOT
BRANCH   3  13
ATOM     13  O   LIG d   1       3.998  -0.714  -5.054  0.00  0.00    -0.457 OA
BRANCH  13  14
ATOM     14  C   LIG d   1       3.616   0.251  -4.195  0.00  0.00     0.337 C 
ATOM     15  O   LIG d   1       2.891   1.149  -4.573  0.00  0.00    -0.245 OA
BRANCH  14  16
ATOM     16  C   LIG d   1       4.075   0.216  -2.799  0.00  0.00     0.060 C 
ATOM     17  C   LIG d   1       4.041   1.321  -2.059  0.00  0.00    -0.086 C 
ATOM     18  H   LIG d   1       4.380   1.296  -1.034  0.00  0.00     0.054 H 
ATOM     19  H   LIG d   1       3.678   2.245  -2.485  0.00  0.00     0.054 H 
BRANCH  16  20
ATOM     20  C   LIG d   1       4.583  -1.073  -2.206  0.00  0.00     0.109 C 
ATOM     21  H   LIG d   1       4.697  -0.957  -1.127  0.00  0.00     0.067 H 
BRANCH  20  22
ATOM     22  C   LIG d   1       3.586  -2.197  -2.495  0.00  0.00     0.074 C 
ATOM     23  H   LIG d   1       3.366  -2.734  -1.572  0.00  0.00     0.059 H 
ATOM     24  H   LIG d   1       2.667  -1.772  -2.897  0.00  0.00     0.059 H 
BRANCH  22  25
ATOM     25  O   LIG d   1       4.150  -3.101  -3.448  0.00  0.00    -0.392 OA
ATOM     26  H   LIG d   1       4.990  -3.490  -3.171  0.00  0.00     0.209 HD
ENDBRANCH  22  25
ENDBRANCH  20  22
BRANCH  20  27
ATOM     27  O   LIG d   1       5.848  -1.398  -2.785  0.00  0.00    -0.385 OA
ATOM     28  H   LIG d   1       6.139  -0.777  -3.467  0.00  0.00     0.210 HD
ENDBRANCH  20  27
ENDBRANCH  16  20
ENDBRANCH  14  16
ENDBRANCH  13  14
ENDBRANCH   3  13
BRANCH   5  29
ATOM     29  C   LIG d   1       6.645  -1.166  -6.059  0.00  0.00     0.038 C 
ATOM     30  C   LIG d   1       7.114   0.015  -5.661  0.00  0.00    -0.088 C 
ATOM     31  H   LIG d   1       7.990   0.063  -5.032  0.00  0.00     0.054 H 
ATOM     32  H   LIG d   1       6.619   0.924  -5.969  0.00  0.00     0.054 H 
BRANCH  29  33
ATOM     33  C   LIG d   1       7.318  -2.404  -5.642  0.00  0.00     0.335 C 
ATOM     34  O   LIG d   1       6.736  -3.202  -4.933  0.00  0.00    -0.245 OA
BRANCH  33  35
ATOM     35  O   LIG d   1       8.579  -2.653  -6.044  0.00  0.00    -0.465 OA
BRANCH  35  36
ATOM     36  C   LIG d   1       8.782  -2.879  -7.441  0.00  0.00     0.082 C 
ATOM     37  H   LIG d   1       8.855  -1.922  -7.958  0.00  0.00     0.066 H 
ATOM     38  H   LIG d   1       9.702  -3.444  -7.589  0.00  0.00     0.066 H 
ATOM     39  H   LIG d   1       7.940  -3.444  -7.843  0.00  0.00     0.066 H 
ENDBRANCH  35  36
ENDBRANCH  33  35
ENDBRANCH  29  33
ENDBRANCH   5  29
BRANCH   1  40
ATOM     40  C   LIG d   1       2.226  -0.000  -9.583  0.00  0.00    -0.055 C 
ATOM     41  H   LIG d   1       2.021  -1.040  -9.840  0.00  0.00     0.024 H 
ATOM     42  H   LIG d   1       1.372   0.417  -9.049  0.00  0.00     0.024 H 
ATOM     43  H   LIG d   1       2.401   0.572 -10.493  0.00  0.00     0.024 H 
ENDBRANCH   1  40
BRANCH   1  44
ATOM     44  C   LIG d   1       3.987   1.481  -8.660  0.00  0.00    -0.084 C 
ATOM     45  C   LIG d   1       3.194   2.478  -8.965  0.00  0.00    -0.102 C 
ATOM     46  H   LIG d   1       2.167   2.286  -9.238  0.00  0.00     0.053 H 
ATOM     47  H   LIG d   1       3.566   3.492  -8.943  0.00  0.00     0.053 H 
ATOM     48  H   LIG d   1       5.014   1.673  -8.386  0.00  0.00     0.057 H 
ENDBRANCH   1  44
BRANCH   7  49
ATOM     49  O   LIG d   1       6.282   0.548  -8.327  0.00  0.00    -0.390 OA
ATOM     50  H   LIG d   1       7.238   0.618  -8.449  0.00  0.00     0.210 HD
ENDBRANCH   7  49
BRANCH   9  51
ATOM     51  C   LIG d   1       4.909  -0.428 -10.646  0.00  0.00    -0.045 C 
ATOM     52  C   LIG d   1       6.168  -0.299 -10.987  0.00  0.00    -0.097 C 
ATOM     53  H   LIG d   1       6.427   0.013 -11.988  0.00  0.00     0.053 H 
ATOM     54  H   LIG d   1       6.946  -0.502 -10.266  0.00  0.00     0.053 H 
BRANCH  51  55
ATOM     55  C   LIG d   1       3.824  -0.144 -11.651  0.00  0.00     0.065 C 
ATOM     56  H   LIG d   1       3.147  -0.996 -11.706  0.00  0.00     0.060 H 
ATOM     57  H   LIG d   1       3.268   0.742 -11.345  0.00  0.00     0.060 H 
BRANCH  55  58
ATOM     58  O   LIG d   1       4.411   0.083 -12.934  0.00  0.00    -0.391 OA
ATOM     59  H   LIG d   1       5.190  -0.462 -13.112  0.00  0.00     0.210 HD
ENDBRANCH  55  58
ENDBRANCH  51  55
ENDBRANCH   9  51
TORSDOF 17
ENDMDL
MODEL 7
REMARK VINA RESULT:      -5.5      2.099      6.639
REMARK  17 active torsions:
REMARK  status: ('A' for Active; 'I' for Inactive)
REMARK    1  A    between atoms: C_1  and  C_2 
REMARK    2  A    between atoms: C_2  and  C_33 
REMARK    3  A    between atoms: C_4  and  O_23 
REMARK    4  A    between atoms: C_6  and  C_17 
REMARK    5  A    between atoms: C_8  and  O_16 
REMARK    6  A    between atoms: C_10  and  C_12 
REMARK    7  A    between atoms: C_12  and  C_14 
REMARK    8  A    between atoms: C_14  and  O_15 
REMARK    9  A    between atoms: C_17  and  C_19 
REMARK   10  A    between atoms: C_19  and  O_21 
REMARK   11  A    between atoms: O_21  and  C_22 
REMARK   12  A    between atoms: O_23  and  C_24 
REMARK   13  A    between atoms: C_24  and  C_26 
REMARK   14  A    between atoms: C_26  and  C_28 
REMARK   15  A    between atoms: C_28  and  C_30 
REMARK   16  A    between atoms: C_28  and  O_32 
REMARK   17  A    between atoms: C_30  and  O_31 
ROOT
ATOM      1  C   LIG d   1       4.753  -1.735  -3.695  0.00  0.00    -0.002 C 
ATOM      2  C   LIG d   1       4.271  -2.795  -4.688  0.00  0.00    -0.005 C 
ATOM      3  C   LIG d   1       4.620  -2.357  -6.111  0.00  0.00     0.114 C 
ATOM      4  H   LIG d   1       5.699  -2.239  -6.201  0.00  0.00     0.074 H 
ATOM      5  C   LIG d   1       3.935  -1.023  -6.416  0.00  0.00     0.054 C 
ATOM      6  H   LIG d   1       2.855  -1.139  -6.327  0.00  0.00     0.041 H 
ATOM      7  C   LIG d   1       4.417   0.037  -5.424  0.00  0.00     0.073 C 
ATOM      8  H   LIG d   1       3.930   0.987  -5.641  0.00  0.00     0.061 H 
ATOM      9  C   LIG d   1       4.069  -0.401  -4.000  0.00  0.00     0.018 C 
ATOM     10  H   LIG d   1       2.988  -0.519  -3.911  0.00  0.00     0.038 H 
ATOM     11  H   LIG d   1       4.758  -3.746  -4.471  0.00  0.00     0.031 H 
ATOM     12  H   LIG d   1       3.191  -2.911  -4.598  0.00  0.00     0.031 H 
ENDROOT
BRANCH   3  13
ATOM     13  O   LIG d   1       4.169  -3.347  -7.038  0.00  0.00    -0.457 OA
BRANCH  13  14
ATOM     14  C   LIG d   1       4.339  -4.636  -6.687  0.00  0.00     0.337 C 
ATOM     15  O   LIG d   1       3.383  -5.306  -6.349  0.00  0.00    -0.245 OA
BRANCH  14  16
ATOM     16  C   LIG d   1       5.681  -5.234  -6.714  0.00  0.00     0.060 C 
ATOM     17  C   LIG d   1       6.438  -5.121  -7.803  0.00  0.00    -0.086 C 
ATOM     18  H   LIG d   1       7.425  -5.562  -7.823  0.00  0.00     0.054 H 
ATOM     19  H   LIG d   1       6.065  -4.591  -8.667  0.00  0.00     0.054 H 
BRANCH  16  20
ATOM     20  C   LIG d   1       6.200  -5.975  -5.509  0.00  0.00     0.109 C 
ATOM     21  H   LIG d   1       5.700  -5.607  -4.613  0.00  0.00     0.067 H 
BRANCH  20  22
ATOM     22  C   LIG d   1       5.923  -7.470  -5.670  0.00  0.00     0.074 C 
ATOM     23  H   LIG d   1       5.950  -7.733  -6.727  0.00  0.00     0.059 H 
ATOM     24  H   LIG d   1       6.682  -8.040  -5.134  0.00  0.00     0.059 H 
BRANCH  22  25
ATOM     25  O   LIG d   1       4.633  -7.776  -5.137  0.00  0.00    -0.392 OA
ATOM     26  H   LIG d   1       4.103  -6.998  -4.918  0.00  0.00     0.209 HD
ENDBRANCH  22  25
ENDBRANCH  20  22
BRANCH  20  27
ATOM     27  O   LIG d   1       7.608  -5.761  -5.389  0.00  0.00    -0.385 OA
ATOM     28  H   LIG d   1       7.848  -4.871  -5.099  0.00  0.00     0.210 HD
ENDBRANCH  20  27
ENDBRANCH  16  20
ENDBRANCH  14  16
ENDBRANCH  13  14
ENDBRANCH   3  13
BRANCH   5  29
ATOM     29  C   LIG d   1       4.278  -0.591  -7.819  0.00  0.00     0.038 C 
ATOM     30  C   LIG d   1       5.297  -1.159  -8.459  0.00  0.00    -0.088 C 
ATOM     31  H   LIG d   1       5.543  -0.850  -9.464  0.00  0.00     0.054 H 
ATOM     32  H   LIG d   1       5.877  -1.930  -7.974  0.00  0.00     0.054 H 
BRANCH  29  33
ATOM     33  C   LIG d   1       3.488   0.458  -8.478  0.00  0.00     0.335 C 
ATOM     34  O   LIG d   1       2.549   0.155  -9.189  0.00  0.00    -0.245 OA
BRANCH  33  35
ATOM     35  O   LIG d   1       3.804   1.755  -8.296  0.00  0.00    -0.465 OA
BRANCH  35  36
ATOM     36  C   LIG d   1       4.011   2.544  -9.470  0.00  0.00     0.082 C 
ATOM     37  H   LIG d   1       5.080   2.641  -9.660  0.00  0.00     0.066 H 
ATOM     38  H   LIG d   1       3.532   2.062 -10.322  0.00  0.00     0.066 H 
ATOM     39  H   LIG d   1       3.578   3.534  -9.322  0.00  0.00     0.066 H 
ENDBRANCH  35  36
ENDBRANCH  33  35
ENDBRANCH  29  33
ENDBRANCH   5  29
BRANCH   1  40
ATOM     40  C   LIG d   1       4.405  -2.173  -2.272  0.00  0.00    -0.055 C 
ATOM     41  H   LIG d   1       5.281  -2.626  -1.806  0.00  0.00     0.024 H 
ATOM     42  H   LIG d   1       4.093  -1.305  -1.690  0.00  0.00     0.024 H 
ATOM     43  H   LIG d   1       3.593  -2.900  -2.302  0.00  0.00     0.024 H 
ENDBRANCH   1  40
BRANCH   1  44
ATOM     44  C   LIG d   1       6.246  -1.573  -3.819  0.00  0.00    -0.084 C 
ATOM     45  C   LIG d   1       7.034  -2.606  -3.648  0.00  0.00    -0.102 C 
ATOM     46  H   LIG d   1       6.613  -3.574  -3.418  0.00  0.00     0.053 H 
ATOM     47  H   LIG d   1       8.104  -2.490  -3.738  0.00  0.00     0.053 H 
ATOM     48  H   LIG d   1       6.667  -0.606  -4.050  0.00  0.00     0.057 H 
ENDBRANCH   1  44
BRANCH   7  49
ATOM     49  O   LIG d   1       5.833   0.191  -5.542  0.00  0.00    -0.390 OA
ATOM     50  H   LIG d   1       6.197   0.906  -5.004  0.00  0.00     0.210 HD
ENDBRANCH   7  49
BRANCH   9  51
ATOM     51  C   LIG d   1       4.544   0.642  -3.023  0.00  0.00    -0.045 C 
ATOM     52  C   LIG d   1       3.676   1.402  -2.401  0.00  0.00    -0.097 C 
ATOM     53  H   LIG d   1       4.017   2.150  -1.701  0.00  0.00     0.053 H 
ATOM     54  H   LIG d   1       2.620   1.280  -2.590  0.00  0.00     0.053 H 
BRANCH  51  55
ATOM     55  C   LIG d   1       6.018   0.812  -2.759  0.00  0.00     0.065 C 
ATOM     56  H   LIG d   1       6.186   0.917  -1.688  0.00  0.00     0.060 H 
ATOM     57  H   LIG d   1       6.555  -0.061  -3.128  0.00  0.00     0.060 H 
BRANCH  55  58
ATOM     58  O   LIG d   1       6.490   1.981  -3.432  0.00  0.00    -0.391 OA
ATOM     59  H   LIG d   1       7.074   1.795  -4.180  0.00  0.00     0.210 HD
ENDBRANCH  55  58
ENDBRANCH  51  55
ENDBRANCH   9  51
TORSDOF 17
ENDMDL
MODEL 8
REMARK VINA RESULT:      -5.4      8.967     12.592
REMARK  17 active torsions:
REMARK  status: ('A' for Active; 'I' for Inactive)
REMARK    1  A    between atoms: C_1  and  C_2 
REMARK    2  A    between atoms: C_2  and  C_33 
REMARK    3  A    between atoms: C_4  and  O_23 
REMARK    4  A    between atoms: C_6  and  C_17 
REMARK    5  A    between atoms: C_8  and  O_16 
REMARK    6  A    between atoms: C_10  and  C_12 
REMARK    7  A    between atoms: C_12  and  C_14 
REMARK    8  A    between atoms: C_14  and  O_15 
REMARK    9  A    between atoms: C_17  and  C_19 
REMARK   10  A    between atoms: C_19  and  O_21 
REMARK   11  A    between atoms: O_21  and  C_22 
REMARK   12  A    between atoms: O_23  and  C_24 
REMARK   13  A    between atoms: C_24  and  C_26 
REMARK   14  A    between atoms: C_26  and  C_28 
REMARK   15  A    between atoms: C_28  and  C_30 
REMARK   16  A    between atoms: C_28  and  O_32 
REMARK   17  A    between atoms: C_30  and  O_31 
ROOT
ATOM      1  C   LIG d   1      10.273   5.291  -3.937  0.00  0.00    -0.002 C 
ATOM      2  C   LIG d   1      10.060   6.705  -3.394  0.00  0.00    -0.005 C 
ATOM      3  C   LIG d   1      10.948   6.920  -2.167  0.00  0.00     0.114 C 
ATOM      4  H   LIG d   1      11.993   6.792  -2.448  0.00  0.00     0.074 H 
ATOM      5  C   LIG d   1      10.581   5.899  -1.088  0.00  0.00     0.054 C 
ATOM      6  H   LIG d   1       9.536   6.026  -0.807  0.00  0.00     0.041 H 
ATOM      7  C   LIG d   1      10.794   4.484  -1.631  0.00  0.00     0.073 C 
ATOM      8  H   LIG d   1      10.534   3.756  -0.863  0.00  0.00     0.061 H 
ATOM      9  C   LIG d   1       9.907   4.270  -2.859  0.00  0.00     0.018 C 
ATOM     10  H   LIG d   1       8.861   4.398  -2.577  0.00  0.00     0.038 H 
ATOM     11  H   LIG d   1      10.320   7.433  -4.163  0.00  0.00     0.031 H 
ATOM     12  H   LIG d   1       9.015   6.833  -3.113  0.00  0.00     0.031 H 
ENDROOT
BRANCH   3  13
ATOM     13  O   LIG d   1      10.749   8.241  -1.660  0.00  0.00    -0.457 OA
BRANCH  13  14
ATOM     14  C   LIG d   1      11.307   9.253  -2.353  0.00  0.00     0.337 C 
ATOM     15  O   LIG d   1      12.516   9.334  -2.442  0.00  0.00    -0.245 OA
BRANCH  14  16
ATOM     16  C   LIG d   1      10.454  10.257  -3.003  0.00  0.00     0.060 C 
ATOM     17  C   LIG d   1      10.499  10.415  -4.323  0.00  0.00    -0.086 C 
ATOM     18  H   LIG d   1       9.872  11.154  -4.801  0.00  0.00     0.054 H 
ATOM     19  H   LIG d   1      11.163   9.805  -4.917  0.00  0.00     0.054 H 
BRANCH  16  20
ATOM     20  C   LIG d   1       9.528  11.109  -2.173  0.00  0.00     0.109 C 
ATOM     21  H   LIG d   1      10.112  11.701  -1.468  0.00  0.00     0.067 H 
BRANCH  20  22
ATOM     22  C   LIG d   1       8.735  12.042  -3.089  0.00  0.00     0.074 C 
ATOM     23  H   LIG d   1       8.791  13.062  -2.706  0.00  0.00     0.059 H 
ATOM     24  H   LIG d   1       9.154  12.008  -4.094  0.00  0.00     0.059 H 
BRANCH  22  25
ATOM     25  O   LIG d   1       7.369  11.625  -3.128  0.00  0.00    -0.392 OA
ATOM     26  H   LIG d   1       7.118  11.030  -2.409  0.00  0.00     0.209 HD
ENDBRANCH  22  25
ENDBRANCH  20  22
BRANCH  20  27
ATOM     27  O   LIG d   1       8.624  10.268  -1.453  0.00  0.00    -0.385 OA
ATOM     28  H   LIG d   1       8.543  10.489  -0.516  0.00  0.00     0.210 HD
ENDBRANCH  20  27
ENDBRANCH  16  20
ENDBRANCH  14  16
ENDBRANCH  13  14
ENDBRANCH   3  13
BRANCH   5  29
ATOM     29  C   LIG d   1      11.456   6.109   0.121  0.00  0.00     0.038 C 
ATOM     30  C   LIG d   1      11.024   5.743   1.326  0.00  0.00    -0.088 C 
ATOM     31  H   LIG d   1      11.650   5.894   2.193  0.00  0.00     0.054 H 
ATOM     32  H   LIG d   1      10.047   5.296   1.436  0.00  0.00     0.054 H 
BRANCH  29  33
ATOM     33  C   LIG d   1      12.784   6.718  -0.030  0.00  0.00     0.335 C 
ATOM     34  O   LIG d   1      13.006   7.817   0.442  0.00  0.00    -0.245 OA
BRANCH  33  35
ATOM     35  O   LIG d   1      13.756   6.060  -0.691  0.00  0.00    -0.465 OA
BRANCH  35  36
ATOM     36  C   LIG d   1      15.066   6.632  -0.657  0.00  0.00     0.082 C 
ATOM     37  H   LIG d   1      15.316   7.029  -1.640  0.00  0.00     0.066 H 
ATOM     38  H   LIG d   1      15.093   7.436   0.078  0.00  0.00     0.066 H 
ATOM     39  H   LIG d   1      15.789   5.863  -0.382  0.00  0.00     0.066 H 
ENDBRANCH  35  36
ENDBRANCH  33  35
ENDBRANCH  29  33
ENDBRANCH   5  29
BRANCH   1  40
ATOM     40  C   LIG d   1       9.385   5.077  -5.165  0.00  0.00    -0.055 C 
ATOM     41  H   LIG d   1       9.038   6.042  -5.535  0.00  0.00     0.024 H 
ATOM     42  H   LIG d   1       9.959   4.574  -5.944  0.00  0.00     0.024 H 
ATOM     43  H   LIG d   1       8.528   4.463  -4.891  0.00  0.00     0.024 H 
ENDBRANCH   1  40
BRANCH   1  44
ATOM     44  C   LIG d   1      11.718   5.115  -4.326  0.00  0.00    -0.084 C 
ATOM     45  C   LIG d   1      12.103   5.373  -5.551  0.00  0.00    -0.102 C 
ATOM     46  H   LIG d   1      11.386   5.713  -6.283  0.00  0.00     0.053 H 
ATOM     47  H   LIG d   1      13.140   5.247  -5.830  0.00  0.00     0.053 H 
ATOM     48  H   LIG d   1      12.436   4.775  -3.594  0.00  0.00     0.057 H 
ENDBRANCH   1  44
BRANCH   7  49
ATOM     49  O   LIG d   1      12.165   4.316  -2.000  0.00  0.00    -0.390 OA
ATOM     50  H   LIG d   1      12.731   5.063  -1.762  0.00  0.00     0.210 HD
ENDBRANCH   7  49
BRANCH   9  51
ATOM     51  C   LIG d   1      10.117   2.877  -3.394  0.00  0.00    -0.045 C 
ATOM     52  C   LIG d   1       9.091   2.170  -3.800  0.00  0.00    -0.097 C 
ATOM     53  H   LIG d   1       9.241   1.171  -4.183  0.00  0.00     0.053 H 
ATOM     54  H   LIG d   1       8.095   2.585  -3.751  0.00  0.00     0.053 H 
BRANCH  51  55
ATOM     55  C   LIG d   1      11.506   2.298  -3.462  0.00  0.00     0.065 C 
ATOM     56  H   LIG d   1      12.095   2.850  -4.194  0.00  0.00     0.060 H 
ATOM     57  H   LIG d   1      11.979   2.372  -2.484  0.00  0.00     0.060 H 
BRANCH  55  58
ATOM     58  O   LIG d   1      11.430   0.924  -3.851  0.00  0.00    -0.391 OA
ATOM     59  H   LIG d   1      11.278   0.315  -3.115  0.00  0.00     0.210 HD
ENDBRANCH  55  58
ENDBRANCH  51  55
ENDBRANCH   9  51
TORSDOF 17
ENDMDL
MODEL 9
REMARK VINA RESULT:      -5.4      8.383     10.785
REMARK  17 active torsions:
REMARK  status: ('A' for Active; 'I' for Inactive)
REMARK    1  A    between atoms: C_1  and  C_2 
REMARK    2  A    between atoms: C_2  and  C_33 
REMARK    3  A    between atoms: C_4  and  O_23 
REMARK    4  A    between atoms: C_6  and  C_17 
REMARK    5  A    between atoms: C_8  and  O_16 
REMARK    6  A    between atoms: C_10  and  C_12 
REMARK    7  A    between atoms: C_12  and  C_14 
REMARK    8  A    between atoms: C_14  and  O_15 
REMARK    9  A    between atoms: C_17  and  C_19 
REMARK   10  A    between atoms: C_19  and  O_21 
REMARK   11  A    between atoms: O_21  and  C_22 
REMARK   12  A    between atoms: O_23  and  C_24 
REMARK   13  A    between atoms: C_24  and  C_26 
REMARK   14  A    between atoms: C_26  and  C_28 
REMARK   15  A    between atoms: C_28  and  C_30 
REMARK   16  A    between atoms: C_28  and  O_32 
REMARK   17  A    between atoms: C_30  and  O_31 
ROOT
ATOM      1  C   LIG d   1      10.216   8.139  -5.277  0.00  0.00    -0.002 C 
ATOM      2  C   LIG d   1       9.735   7.794  -3.867  0.00  0.00    -0.005 C 
ATOM      3  C   LIG d   1      10.040   6.325  -3.569  0.00  0.00     0.114 C 
ATOM      4  H   LIG d   1      11.114   6.155  -3.639  0.00  0.00     0.074 H 
ATOM      5  C   LIG d   1       9.315   5.439  -4.585  0.00  0.00     0.054 C 
ATOM      6  H   LIG d   1       8.241   5.609  -4.516  0.00  0.00     0.041 H 
ATOM      7  C   LIG d   1       9.796   5.784  -5.996  0.00  0.00     0.073 C 
ATOM      8  H   LIG d   1       9.280   5.153  -6.720  0.00  0.00     0.061 H 
ATOM      9  C   LIG d   1       9.492   7.253  -6.294  0.00  0.00     0.018 C 
ATOM     10  H   LIG d   1       8.418   7.424  -6.223  0.00  0.00     0.038 H 
ATOM     11  H   LIG d   1      10.251   8.425  -3.142  0.00  0.00     0.031 H 
ATOM     12  H   LIG d   1       8.661   7.964  -3.797  0.00  0.00     0.031 H 
ENDROOT
BRANCH   3  13
ATOM     13  O   LIG d   1       9.590   6.003  -2.251  0.00  0.00    -0.457 OA
BRANCH  13  14
ATOM     14  C   LIG d   1       9.905   6.870  -1.269  0.00  0.00     0.337 C 
ATOM     15  O   LIG d   1       9.054   7.609  -0.815  0.00  0.00    -0.245 OA
BRANCH  14  16
ATOM     16  C   LIG d   1      11.277   6.921  -0.745  0.00  0.00     0.060 C 
ATOM     17  C   LIG d   1      12.093   7.905  -1.112  0.00  0.00    -0.086 C 
ATOM     18  H   LIG d   1      13.103   7.942  -0.728  0.00  0.00     0.054 H 
ATOM     19  H   LIG d   1      11.748   8.667  -1.796  0.00  0.00     0.054 H 
BRANCH  16  20
ATOM     20  C   LIG d   1      11.759   5.857   0.208  0.00  0.00     0.109 C 
ATOM     21  H   LIG d   1      12.847   5.900   0.279  0.00  0.00     0.067 H 
BRANCH  20  22
ATOM     22  C   LIG d   1      11.148   6.095   1.589  0.00  0.00     0.074 C 
ATOM     23  H   LIG d   1      11.938   6.342   2.299  0.00  0.00     0.059 H 
ATOM     24  H   LIG d   1      10.438   6.920   1.535  0.00  0.00     0.059 H 
BRANCH  22  25
ATOM     25  O   LIG d   1      10.473   4.912   2.022  0.00  0.00    -0.392 OA
ATOM     26  H   LIG d   1       9.610   5.077   2.423  0.00  0.00     0.209 HD
ENDBRANCH  22  25
ENDBRANCH  20  22
BRANCH  20  27
ATOM     27  O   LIG d   1      11.363   4.572  -0.273  0.00  0.00    -0.385 OA
ATOM     28  H   LIG d   1      11.903   3.843   0.061  0.00  0.00     0.210 HD
ENDBRANCH  20  27
ENDBRANCH  16  20
ENDBRANCH  14  16
ENDBRANCH  13  14
ENDBRANCH   3  13
BRANCH   5  29
ATOM     29  C   LIG d   1       9.614   3.991  -4.293  0.00  0.00     0.038 C 
ATOM     30  C   LIG d   1       8.756   3.045  -4.671  0.00  0.00    -0.088 C 
ATOM     31  H   LIG d   1       8.970   2.008  -4.462  0.00  0.00     0.054 H 
ATOM     32  H   LIG d   1       7.847   3.316  -5.187  0.00  0.00     0.054 H 
BRANCH  29  33
ATOM     33  C   LIG d   1      10.851   3.623  -3.591  0.00  0.00     0.335 C 
ATOM     34  O   LIG d   1      10.795   3.094  -2.497  0.00  0.00    -0.245 OA
BRANCH  33  35
ATOM     35  O   LIG d   1      12.048   3.873  -4.158  0.00  0.00    -0.465 OA
BRANCH  35  36
ATOM     36  C   LIG d   1      13.114   4.250  -3.284  0.00  0.00     0.082 C 
ATOM     37  H   LIG d   1      12.986   5.289  -2.982  0.00  0.00     0.066 H 
ATOM     38  H   LIG d   1      13.105   3.611  -2.402  0.00  0.00     0.066 H 
ATOM     39  H   LIG d   1      14.066   4.138  -3.805  0.00  0.00     0.066 H 
ENDBRANCH  35  36
ENDBRANCH  33  35
ENDBRANCH  29  33
ENDBRANCH   5  29
BRANCH   1  40
ATOM     40  C   LIG d   1       9.913   9.609  -5.575  0.00  0.00    -0.055 C 
ATOM     41  H   LIG d   1       9.629  10.115  -4.651  0.00  0.00     0.024 H 
ATOM     42  H   LIG d   1      10.800  10.085  -5.992  0.00  0.00     0.024 H 
ATOM     43  H   LIG d   1       9.094   9.674  -6.291  0.00  0.00     0.024 H 
ENDBRANCH   1  40
BRANCH   1  44
ATOM     44  C   LIG d   1      11.701   7.904  -5.374  0.00  0.00    -0.084 C 
ATOM     45  C   LIG d   1      12.533   8.694  -4.741  0.00  0.00    -0.102 C 
ATOM     46  H   LIG d   1      12.154   9.514  -4.150  0.00  0.00     0.053 H 
ATOM     47  H   LIG d   1      13.597   8.525  -4.810  0.00  0.00     0.053 H 
ATOM     48  H   LIG d   1      12.080   7.083  -5.965  0.00  0.00     0.057 H 
ENDBRANCH   1  44
BRANCH   7  49
ATOM     49  O   LIG d   1      11.205   5.560  -6.088  0.00  0.00    -0.390 OA
ATOM     50  H   LIG d   1      11.567   5.693  -6.974  0.00  0.00     0.210 HD
ENDBRANCH   7  49
BRANCH   9  51
ATOM     51  C   LIG d   1       9.966   7.593  -7.683  0.00  0.00    -0.045 C 
ATOM     52  C   LIG d   1      11.248   7.701  -7.930  0.00  0.00    -0.097 C 
ATOM     53  H   LIG d   1      11.588   7.945  -8.926  0.00  0.00     0.053 H 
ATOM     54  H   LIG d   1      11.966   7.546  -7.138  0.00  0.00     0.053 H 
BRANCH  51  55
ATOM     55  C   LIG d   1       8.965   7.810  -8.789  0.00  0.00     0.065 C 
ATOM     56  H   LIG d   1       9.456   7.681  -9.753  0.00  0.00     0.060 H 
ATOM     57  H   LIG d   1       8.156   7.086  -8.692  0.00  0.00     0.060 H 
BRANCH  55  58
ATOM     58  O   LIG d   1       8.434   9.133  -8.697  0.00  0.00    -0.391 OA
ATOM     59  H   LIG d   1       8.075   9.353  -7.827  0.00  0.00     0.210 HD
ENDBRANCH  55  58
ENDBRANCH  51  55
ENDBRANCH   9  51
TORSDOF 17
ENDMDL
MODEL 10
REMARK VINA RESULT:      -5.4      1.417      1.731
REMARK  17 active torsions:
REMARK  status: ('A' for Active; 'I' for Inactive)
REMARK    1  A    between atoms: C_1  and  C_2 
REMARK    2  A    between atoms: C_2  and  C_33 
REMARK    3  A    between atoms: C_4  and  O_23 
REMARK    4  A    between atoms: C_6  and  C_17 
REMARK    5  A    between atoms: C_8  and  O_16 
REMARK    6  A    between atoms: C_10  and  C_12 
REMARK    7  A    between atoms: C_12  and  C_14 
REMARK    8  A    between atoms: C_14  and  O_15 
REMARK    9  A    between atoms: C_17  and  C_19 
REMARK   10  A    between atoms: C_19  and  O_21 
REMARK   11  A    between atoms: O_21  and  C_22 
REMARK   12  A    between atoms: O_23  and  C_24 
REMARK   13  A    between atoms: C_24  and  C_26 
REMARK   14  A    between atoms: C_26  and  C_28 
REMARK   15  A    between atoms: C_28  and  C_30 
REMARK   16  A    between atoms: C_28  and  O_32 
REMARK   17  A    between atoms: C_30  and  O_31 
ROOT
ATOM      1  C   LIG d   1       3.809   0.479  -8.738  0.00  0.00    -0.002 C 
ATOM      2  C   LIG d   1       3.181   0.290  -7.356  0.00  0.00    -0.005 C 
ATOM      3  C   LIG d   1       4.002  -0.724  -6.557  0.00  0.00     0.114 C 
ATOM      4  H   LIG d   1       5.022  -0.358  -6.446  0.00  0.00     0.074 H 
ATOM      5  C   LIG d   1       4.018  -2.063  -7.298  0.00  0.00     0.054 C 
ATOM      6  H   LIG d   1       2.998  -2.430  -7.410  0.00  0.00     0.041 H 
ATOM      7  C   LIG d   1       4.646  -1.874  -8.680  0.00  0.00     0.073 C 
ATOM      8  H   LIG d   1       4.658  -2.828  -9.207  0.00  0.00     0.061 H 
ATOM      9  C   LIG d   1       3.826  -0.860  -9.479  0.00  0.00     0.018 C 
ATOM     10  H   LIG d   1       2.804  -1.226  -9.590  0.00  0.00     0.038 H 
ATOM     11  H   LIG d   1       3.168   1.243  -6.829  0.00  0.00     0.031 H 
ATOM     12  H   LIG d   1       2.160  -0.077  -7.468  0.00  0.00     0.031 H 
ENDROOT
BRANCH   3  13
ATOM     13  O   LIG d   1       3.415  -0.901  -5.266  0.00  0.00    -0.457 OA
BRANCH  13  14
ATOM     14  C   LIG d   1       3.870  -0.111  -4.274  0.00  0.00     0.337 C 
ATOM     15  O   LIG d   1       3.556   1.063  -4.240  0.00  0.00    -0.245 OA
BRANCH  14  16
ATOM     16  C   LIG d   1       4.743  -0.668  -3.232  0.00  0.00     0.060 C 
ATOM     17  C   LIG d   1       4.482  -1.866  -2.715  0.00  0.00    -0.086 C 
ATOM     18  H   LIG d   1       5.123  -2.276  -1.948  0.00  0.00     0.054 H 
ATOM     19  H   LIG d   1       3.626  -2.428  -3.060  0.00  0.00     0.054 H 
BRANCH  16  20
ATOM     20  C   LIG d   1       5.937   0.116  -2.751  0.00  0.00     0.109 C 
ATOM     21  H   LIG d   1       6.356  -0.365  -1.867  0.00  0.00     0.067 H 
BRANCH  20  22
ATOM     22  C   LIG d   1       6.994   0.165  -3.854  0.00  0.00     0.074 C 
ATOM     23  H   LIG d   1       6.507   0.113  -4.828  0.00  0.00     0.059 H 
ATOM     24  H   LIG d   1       7.555   1.096  -3.779  0.00  0.00     0.059 H 
BRANCH  22  25
ATOM     25  O   LIG d   1       7.886  -0.942  -3.710  0.00  0.00    -0.392 OA
ATOM     26  H   LIG d   1       8.138  -1.356  -4.546  0.00  0.00     0.209 HD
ENDBRANCH  22  25
ENDBRANCH  20  22
BRANCH  20  27
ATOM     27  O   LIG d   1       5.530   1.446  -2.421  0.00  0.00    -0.385 OA
ATOM     28  H   LIG d   1       5.372   1.586  -1.478  0.00  0.00     0.210 HD
ENDBRANCH  20  27
ENDBRANCH  16  20
ENDBRANCH  14  16
ENDBRANCH  13  14
ENDBRANCH   3  13
BRANCH   5  29
ATOM     29  C   LIG d   1       4.826  -3.063  -6.511  0.00  0.00     0.038 C 
ATOM     30  C   LIG d   1       6.081  -2.780  -6.167  0.00  0.00    -0.088 C 
ATOM     31  H   LIG d   1       6.661  -3.496  -5.603  0.00  0.00     0.054 H 
ATOM     32  H   LIG d   1       6.519  -1.835  -6.451  0.00  0.00     0.054 H 
BRANCH  29  33
ATOM     33  C   LIG d   1       4.230  -4.349  -6.124  0.00  0.00     0.335 C 
ATOM     34  O   LIG d   1       4.385  -4.776  -4.996  0.00  0.00    -0.245 OA
BRANCH  33  35
ATOM     35  O   LIG d   1       3.512  -5.055  -7.020  0.00  0.00    -0.465 OA
BRANCH  35  36
ATOM     36  C   LIG d   1       4.243  -5.779  -8.012  0.00  0.00     0.082 C 
ATOM     37  H   LIG d   1       5.211  -5.303  -8.170  0.00  0.00     0.066 H 
ATOM     38  H   LIG d   1       4.393  -6.805  -7.677  0.00  0.00     0.066 H 
ATOM     39  H   LIG d   1       3.682  -5.780  -8.946  0.00  0.00     0.066 H 
ENDBRANCH  35  36
ENDBRANCH  33  35
ENDBRANCH  29  33
ENDBRANCH   5  29
BRANCH   1  40
ATOM     40  C   LIG d   1       2.988   1.493  -9.537  0.00  0.00    -0.055 C 
ATOM     41  H   LIG d   1       2.615   2.267  -8.866  0.00  0.00     0.024 H 
ATOM     42  H   LIG d   1       3.619   1.949 -10.301  0.00  0.00     0.024 H 
ATOM     43  H   LIG d   1       2.148   0.988 -10.014  0.00  0.00     0.024 H 
ENDBRANCH   1  40
BRANCH   1  44
ATOM     44  C   LIG d   1       5.220   0.985  -8.584  0.00  0.00    -0.084 C 
ATOM     45  C   LIG d   1       5.551   2.158  -9.063  0.00  0.00    -0.102 C 
ATOM     46  H   LIG d   1       4.813   2.763  -9.567  0.00  0.00     0.053 H 
ATOM     47  H   LIG d   1       6.563   2.521  -8.952  0.00  0.00     0.053 H 
ATOM     48  H   LIG d   1       5.958   0.380  -8.078  0.00  0.00     0.057 H 
ENDBRANCH   1  44
BRANCH   7  49
ATOM     49  O   LIG d   1       5.985  -1.395  -8.533  0.00  0.00    -0.390 OA
ATOM     50  H   LIG d   1       6.078  -0.677  -7.893  0.00  0.00     0.210 HD
ENDBRANCH   7  49
BRANCH   9  51
ATOM     51  C   LIG d   1       4.445  -0.673 -10.840  0.00  0.00    -0.045 C 
ATOM     52  C   LIG d   1       3.885   0.131 -11.709  0.00  0.00    -0.097 C 
ATOM     53  H   LIG d   1       4.328   0.265 -12.685  0.00  0.00     0.053 H 
ATOM     54  H   LIG d   1       2.980   0.661 -11.450  0.00  0.00     0.053 H 
BRANCH  51  55
ATOM     55  C   LIG d   1       5.707  -1.412 -11.201  0.00  0.00     0.065 C 
ATOM     56  H   LIG d   1       5.927  -2.153 -10.433  0.00  0.00     0.060 H 
ATOM     57  H   LIG d   1       5.573  -1.911 -12.161  0.00  0.00     0.060 H 
BRANCH  55  58
ATOM     58  O   LIG d   1       6.791  -0.485 -11.293  0.00  0.00    -0.391 OA
ATOM     59  H   LIG d   1       6.839   0.138 -10.555  0.00  0.00     0.210 HD
ENDBRANCH  55  58
ENDBRANCH  51  55
ENDBRANCH   9  51
TORSDOF 17
ENDMDL
