MODEL 1
REMARK VINA RESULT:      -5.7      0.000      0.000
REMARK  11 active torsions:
REMARK  status: ('A' for Active; 'I' for Inactive)
REMARK    1  A    between atoms: C_1  and  C_2 
REMARK    2  A    between atoms: C_2  and  C_4 
REMARK    3  A    between atoms: C_8  and  C_44 
REMARK    4  A    between atoms: C_17  and  C_43 
REMARK    5  A    between atoms: C_18  and  C_21 
REMARK    6  A    between atoms: C_26  and  C_42 
REMARK    7  A    between atoms: C_29  and  C_30 
REMARK    8  A    between atoms: C_39  and  C_40 
REMARK    9  A    between atoms: C_39  and  C_41 
REMARK   10  A    between atoms: C_44  and  O_46 
REMARK   11  A    between atoms: O_46  and  C_47 
ROOT
ATOM      1  C   LIG d   1       3.989  -0.446  -3.965  0.00  0.00    -0.016 C 
ATOM      2  H   LIG d   1       3.561  -0.333  -4.960  0.00  0.00     0.035 H 
ATOM      3  C   LIG d   1       3.243  -1.542  -3.161  0.00  0.00    -0.045 C 
ATOM      4  C   LIG d   1       4.299  -2.638  -2.851  0.00  0.00    -0.036 C 
ATOM      5  C   LIG d   1       5.283  -2.472  -4.022  0.00  0.00     0.071 C 
ATOM      6  C   LIG d   1       5.435  -0.930  -4.053  0.00  0.00    -0.015 C 
ATOM      7  H   LIG d   1       5.943  -0.601  -3.139  0.00  0.00     0.032 H 
ATOM      8  C   LIG d   1       6.236  -0.539  -5.272  0.00  0.00    -0.031 C 
ATOM      9  H   LIG d   1       5.728  -0.915  -6.166  0.00  0.00     0.031 H 
ATOM     10  C   LIG d   1       6.340   0.979  -5.417  0.00  0.00    -0.049 C 
ATOM     11  C   LIG d   1       7.169   1.332  -6.656  0.00  0.00    -0.049 C 
ATOM     12  C   LIG d   1       8.555   0.704  -6.536  0.00  0.00    -0.029 C 
ATOM     13  H   LIG d   1       8.977   1.096  -5.579  0.00  0.00     0.031 H 
ATOM     14  C   LIG d   1       8.449  -0.806  -6.413  0.00  0.00    -0.023 C 
ATOM     15  C   LIG d   1       7.635  -1.160  -5.157  0.00  0.00    -0.023 C 
ATOM     16  C   LIG d   1       7.561  -2.679  -4.983  0.00  0.00    -0.046 C 
ATOM     17  C   LIG d   1       6.653  -3.085  -3.812  0.00  0.00    -0.036 C 
ATOM     18  C   LIG d   1       9.835  -1.444  -6.324  0.00  0.00    -0.046 C 
ATOM     19  C   LIG d   1      10.750  -0.956  -7.437  0.00  0.00    -0.048 C 
ATOM     20  C   LIG d   1      10.877   0.560  -7.490  0.00  0.00    -0.023 C 
ATOM     21  H   LIG d   1      11.400   0.789  -8.468  0.00  0.00     0.032 H 
ATOM     22  C   LIG d   1       9.498   1.207  -7.609  0.00  0.00    -0.021 C 
ATOM     23  C   LIG d   1       9.633   2.739  -7.491  0.00  0.00    -0.018 C 
ATOM     24  C   LIG d   1      10.157   3.056  -6.120  0.00  0.00    -0.003 C 
ATOM     25  C   LIG d   1       9.747   4.147  -5.457  0.00  0.00    -0.048 C 
ATOM     26  C   LIG d   1      11.093   2.174  -5.562  0.00  0.00     0.165 C 
ATOM     27  O   LIG d   1      11.390   2.277  -4.392  0.00  0.00    -0.292 OA
ATOM     28  C   LIG d   1      11.763   1.137  -6.415  0.00  0.00     0.031 C 
ATOM     29  H   LIG d   1       2.859  -1.120  -2.233  0.00  0.00     0.027 H 
ATOM     30  H   LIG d   1       2.431  -1.951  -3.751  0.00  0.00     0.027 H 
ATOM     31  H   LIG d   1       4.795  -2.449  -1.903  0.00  0.00     0.028 H 
ATOM     32  H   LIG d   1       3.847  -3.631  -2.875  0.00  0.00     0.028 H 
ATOM     33  H   LIG d   1       5.333   1.387  -5.558  0.00  0.00     0.027 H 
ATOM     34  H   LIG d   1       6.781   1.430  -4.533  0.00  0.00     0.027 H 
ATOM     35  H   LIG d   1       6.651   0.986  -7.547  0.00  0.00     0.027 H 
ATOM     36  H   LIG d   1       7.267   2.419  -6.705  0.00  0.00     0.027 H 
ATOM     37  H   LIG d   1       7.215  -3.161  -5.889  0.00  0.00     0.027 H 
ATOM     38  H   LIG d   1       8.574  -3.047  -4.774  0.00  0.00     0.027 H 
ATOM     39  H   LIG d   1       7.077  -2.757  -2.865  0.00  0.00     0.028 H 
ATOM     40  H   LIG d   1       6.561  -4.178  -3.796  0.00  0.00     0.028 H 
ATOM     41  H   LIG d   1      10.279  -1.283  -5.353  0.00  0.00     0.027 H 
ATOM     42  H   LIG d   1       9.709  -2.535  -6.439  0.00  0.00     0.027 H 
ATOM     43  H   LIG d   1      11.726  -1.444  -7.374  0.00  0.00     0.027 H 
ATOM     44  H   LIG d   1      10.335  -1.309  -8.402  0.00  0.00     0.027 H 
ATOM     45  H   LIG d   1      10.327   3.089  -8.250  0.00  0.00     0.032 H 
ATOM     46  H   LIG d   1       8.660   3.188  -7.633  0.00  0.00     0.032 H 
ATOM     47  H   LIG d   1       8.890   4.703  -5.809  0.00  0.00     0.063 H 
ENDROOT
BRANCH  25  48
ATOM     48  C   LIG d   1      10.464   4.588  -4.252  0.00  0.00    -0.025 A 
ATOM     49  C   LIG d   1       9.918   4.355  -2.984  0.00  0.00    -0.053 A 
ATOM     50  C   LIG d   1      10.599   4.766  -1.859  0.00  0.00    -0.043 A 
ATOM     51  H   LIG d   1       8.968   3.851  -2.887  0.00  0.00     0.062 H 
ATOM     52  C   LIG d   1      11.815   5.418  -1.980  0.00  0.00     0.041 A 
ATOM     53  H   LIG d   1      10.181   4.582  -0.880  0.00  0.00     0.063 H 
ATOM     54  C   LIG d   1      12.360   5.657  -3.232  0.00  0.00    -0.043 A 
ATOM     55 CL   LIG d   1      12.664   5.937  -0.557  0.00  0.00    -0.084 Cl
ATOM     56  C   LIG d   1      11.693   5.246  -4.367  0.00  0.00    -0.053 A 
ATOM     57  H   LIG d   1      13.308   6.165  -3.319  0.00  0.00     0.063 H 
ATOM     58  H   LIG d   1      12.119   5.433  -5.341  0.00  0.00     0.062 H 
ENDBRANCH  25  48
BRANCH  22  59
ATOM     59  C   LIG d   1       8.956   0.966  -9.025  0.00  0.00    -0.059 C 
ATOM     60  H   LIG d   1       9.788   0.798  -9.710  0.00  0.00     0.024 H 
ATOM     61  H   LIG d   1       8.306   0.090  -9.023  0.00  0.00     0.024 H 
ATOM     62  H   LIG d   1       8.388   1.837  -9.351  0.00  0.00     0.024 H 
ENDBRANCH  22  59
BRANCH  28  63
ATOM     63  C   LIG d   1      12.366   0.075  -5.491  0.00  0.00    -0.052 C 
ATOM     64  H   LIG d   1      12.288   0.406  -4.457  0.00  0.00     0.024 H 
ATOM     65  H   LIG d   1      11.825  -0.863  -5.615  0.00  0.00     0.024 H 
ATOM     66  H   LIG d   1      13.416  -0.075  -5.747  0.00  0.00     0.024 H 
ENDBRANCH  28  63
BRANCH  28  67
ATOM     67  C   LIG d   1      12.965   1.831  -7.104  0.00  0.00    -0.052 C 
ATOM     68  H   LIG d   1      13.800   1.132  -7.170  0.00  0.00     0.024 H 
ATOM     69  H   LIG d   1      12.678   2.148  -8.106  0.00  0.00     0.024 H 
ATOM     70  H   LIG d   1      13.266   2.702  -6.520  0.00  0.00     0.024 H 
ENDBRANCH  28  67
BRANCH  14  71
ATOM     71  C   LIG d   1       7.728  -1.425  -7.622  0.00  0.00    -0.059 C 
ATOM     72  H   LIG d   1       8.361  -2.193  -8.068  0.00  0.00     0.024 H 
ATOM     73  H   LIG d   1       6.789  -1.872  -7.295  0.00  0.00     0.024 H 
ATOM     74  H   LIG d   1       7.524  -0.649  -8.360  0.00  0.00     0.024 H 
ENDBRANCH  14  71
BRANCH  15  75
ATOM     75  C   LIG d   1       8.344  -0.599  -3.920  0.00  0.00    -0.059 C 
ATOM     76  H   LIG d   1       8.091   0.454  -3.801  0.00  0.00     0.024 H 
ATOM     77  H   LIG d   1       8.024  -1.151  -3.035  0.00  0.00     0.024 H 
ATOM     78  H   LIG d   1       9.423  -0.702  -4.040  0.00  0.00     0.024 H 
ENDBRANCH  15  75
BRANCH   1  79
ATOM     79  C   LIG d   1       3.920   0.863  -3.210  0.00  0.00    -0.076 C 
ATOM     80  C   LIG d   1       3.178   1.842  -3.665  0.00  0.00    -0.099 C 
ATOM     81  H   LIG d   1       2.615   1.714  -4.578  0.00  0.00     0.053 H 
ATOM     82  H   LIG d   1       3.128   2.777  -3.127  0.00  0.00     0.053 H 
BRANCH  79  83
ATOM     83  C   LIG d   1       4.705   1.040  -1.937  0.00  0.00    -0.044 C 
ATOM     84  H   LIG d   1       5.269   1.972  -1.984  0.00  0.00     0.027 H 
ATOM     85  H   LIG d   1       4.021   1.072  -1.090  0.00  0.00     0.027 H 
ATOM     86  H   LIG d   1       5.396   0.205  -1.816  0.00  0.00     0.027 H 
ENDBRANCH  79  83
ENDBRANCH   1  79
BRANCH   5  87
ATOM     87  C   LIG d   1       4.643  -3.007  -5.277  0.00  0.00     0.313 C 
ATOM     88  O   LIG d   1       4.293  -4.163  -5.331  0.00  0.00    -0.250 OA
BRANCH  87  89
ATOM     89  O   LIG d   1       4.462  -2.201  -6.335  0.00  0.00    -0.468 OA
BRANCH  89  90
ATOM     90  C   LIG d   1       4.293  -2.829  -7.607  0.00  0.00     0.082 C 
ATOM     91  H   LIG d   1       3.265  -3.175  -7.709  0.00  0.00     0.066 H 
ATOM     92  H   LIG d   1       4.515  -2.112  -8.398  0.00  0.00     0.066 H 
ATOM     93  H   LIG d   1       4.972  -3.678  -7.686  0.00  0.00     0.066 H 
ENDBRANCH  89  90
ENDBRANCH  87  89
ENDBRANCH   5  87
TORSDOF 11
ENDMDL
MODEL 2
REMARK VINA RESULT:      -5.5      5.546      9.049
REMARK  11 active torsions:
REMARK  status: ('A' for Active; 'I' for Inactive)
REMARK    1  A    between atoms: C_1  and  C_2 
REMARK    2  A    between atoms: C_2  and  C_4 
REMARK    3  A    between atoms: C_8  and  C_44 
REMARK    4  A    between atoms: C_17  and  C_43 
REMARK    5  A    between atoms: C_18  and  C_21 
REMARK    6  A    between atoms: C_26  and  C_42 
REMARK    7  A    between atoms: C_29  and  C_30 
REMARK    8  A    between atoms: C_39  and  C_40 
REMARK    9  A    between atoms: C_39  and  C_41 
REMARK   10  A    between atoms: C_44  and  O_46 
REMARK   11  A    between atoms: O_46  and  C_47 
ROOT
ATOM      1  C   LIG d   1      10.262   9.391  -1.403  0.00  0.00    -0.016 C 
ATOM      2  H   LIG d   1       9.296   8.941  -1.177  0.00  0.00     0.035 H 
ATOM      3  C   LIG d   1      10.889  10.028  -0.136  0.00  0.00    -0.045 C 
ATOM      4  C   LIG d   1      12.217   9.264   0.114  0.00  0.00    -0.036 C 
ATOM      5  C   LIG d   1      11.919   7.892  -0.514  0.00  0.00     0.071 C 
ATOM      6  C   LIG d   1      11.260   8.324  -1.848  0.00  0.00    -0.015 C 
ATOM      7  H   LIG d   1      12.010   8.822  -2.473  0.00  0.00     0.032 H 
ATOM      8  C   LIG d   1      10.719   7.100  -2.548  0.00  0.00    -0.031 C 
ATOM      9  H   LIG d   1      10.004   6.599  -1.886  0.00  0.00     0.031 H 
ATOM     10  C   LIG d   1       9.967   7.467  -3.828  0.00  0.00    -0.049 C 
ATOM     11  C   LIG d   1       9.446   6.198  -4.512  0.00  0.00    -0.049 C 
ATOM     12  C   LIG d   1      10.617   5.270  -4.819  0.00  0.00    -0.029 C 
ATOM     13  H   LIG d   1      11.317   5.872  -5.449  0.00  0.00     0.031 H 
ATOM     14  C   LIG d   1      11.349   4.890  -3.544  0.00  0.00    -0.023 C 
ATOM     15  C   LIG d   1      11.891   6.162  -2.869  0.00  0.00    -0.023 C 
ATOM     16  C   LIG d   1      12.679   5.800  -1.608  0.00  0.00    -0.046 C 
ATOM     17  C   LIG d   1      13.134   7.044  -0.831  0.00  0.00    -0.036 C 
ATOM     18  C   LIG d   1      12.505   3.935  -3.842  0.00  0.00    -0.046 C 
ATOM     19  C   LIG d   1      12.054   2.759  -4.694  0.00  0.00    -0.048 C 
ATOM     20  C   LIG d   1      11.379   3.179  -5.992  0.00  0.00    -0.023 C 
ATOM     21  H   LIG d   1      10.915   2.236  -6.415  0.00  0.00     0.032 H 
ATOM     22  C   LIG d   1      10.203   4.112  -5.703  0.00  0.00    -0.021 C 
ATOM     23  C   LIG d   1       9.639   4.660  -7.030  0.00  0.00    -0.018 C 
ATOM     24  C   LIG d   1      10.710   5.483  -7.686  0.00  0.00    -0.003 C 
ATOM     25  C   LIG d   1      10.406   6.592  -8.376  0.00  0.00    -0.048 C 
ATOM     26  C   LIG d   1      12.036   5.046  -7.557  0.00  0.00     0.165 C 
ATOM     27  O   LIG d   1      12.942   5.777  -7.894  0.00  0.00    -0.292 OA
ATOM     28  C   LIG d   1      12.336   3.667  -7.050  0.00  0.00     0.031 C 
ATOM     29  H   LIG d   1      11.092  11.083  -0.317  0.00  0.00     0.027 H 
ATOM     30  H   LIG d   1      10.219   9.915   0.709  0.00  0.00     0.027 H 
ATOM     31  H   LIG d   1      13.049   9.746  -0.393  0.00  0.00     0.028 H 
ATOM     32  H   LIG d   1      12.409   9.158   1.183  0.00  0.00     0.028 H 
ATOM     33  H   LIG d   1       9.103   8.085  -3.561  0.00  0.00     0.027 H 
ATOM     34  H   LIG d   1      10.601   8.025  -4.511  0.00  0.00     0.027 H 
ATOM     35  H   LIG d   1       8.714   5.717  -3.869  0.00  0.00     0.027 H 
ATOM     36  H   LIG d   1       8.959   6.488  -5.445  0.00  0.00     0.027 H 
ATOM     37  H   LIG d   1      12.100   5.159  -0.954  0.00  0.00     0.027 H 
ATOM     38  H   LIG d   1      13.573   5.242  -1.916  0.00  0.00     0.027 H 
ATOM     39  H   LIG d   1      13.858   7.614  -1.409  0.00  0.00     0.028 H 
ATOM     40  H   LIG d   1      13.607   6.724   0.107  0.00  0.00     0.028 H 
ATOM     41  H   LIG d   1      13.335   4.454  -4.298  0.00  0.00     0.027 H 
ATOM     42  H   LIG d   1      12.868   3.539  -2.877  0.00  0.00     0.027 H 
ATOM     43  H   LIG d   1      12.886   2.072  -4.873  0.00  0.00     0.027 H 
ATOM     44  H   LIG d   1      11.335   2.160  -4.100  0.00  0.00     0.027 H 
ATOM     45  H   LIG d   1       9.364   3.823  -7.666  0.00  0.00     0.032 H 
ATOM     46  H   LIG d   1       8.774   5.273  -6.816  0.00  0.00     0.032 H 
ATOM     47  H   LIG d   1       9.417   7.020  -8.302  0.00  0.00     0.063 H 
ENDROOT
BRANCH  25  48
ATOM     48  C   LIG d   1      11.418   7.225  -9.234  0.00  0.00    -0.025 A 
ATOM     49  C   LIG d   1      12.086   8.377  -8.801  0.00  0.00    -0.053 A 
ATOM     50  C   LIG d   1      13.038   8.961  -9.608  0.00  0.00    -0.043 A 
ATOM     51  H   LIG d   1      11.859   8.804  -7.836  0.00  0.00     0.062 H 
ATOM     52  C   LIG d   1      13.327   8.418 -10.850  0.00  0.00     0.041 A 
ATOM     53  H   LIG d   1      13.557   9.847  -9.274  0.00  0.00     0.063 H 
ATOM     54  C   LIG d   1      12.666   7.280 -11.287  0.00  0.00    -0.043 A 
ATOM     55 CL   LIG d   1      14.524   9.163 -11.862  0.00  0.00    -0.084 Cl
ATOM     56  C   LIG d   1      11.716   6.681 -10.488  0.00  0.00    -0.053 A 
ATOM     57  H   LIG d   1      12.897   6.862 -12.255  0.00  0.00     0.063 H 
ATOM     58  H   LIG d   1      11.203   5.795 -10.830  0.00  0.00     0.062 H 
ENDBRANCH  25  48
BRANCH  22  59
ATOM     59  C   LIG d   1       9.055   3.292  -5.094  0.00  0.00    -0.059 C 
ATOM     60  H   LIG d   1       9.466   2.495  -4.474  0.00  0.00     0.024 H 
ATOM     61  H   LIG d   1       8.429   3.942  -4.482  0.00  0.00     0.024 H 
ATOM     62  H   LIG d   1       8.455   2.858  -5.894  0.00  0.00     0.024 H 
ENDBRANCH  22  59
BRANCH  28  63
ATOM     63  C   LIG d   1      13.801   3.629  -6.604  0.00  0.00    -0.052 C 
ATOM     64  H   LIG d   1      13.981   2.724  -6.025  0.00  0.00     0.024 H 
ATOM     65  H   LIG d   1      14.448   3.634  -7.482  0.00  0.00     0.024 H 
ATOM     66  H   LIG d   1      14.017   4.503  -5.989  0.00  0.00     0.024 H 
ENDBRANCH  28  63
BRANCH  28  67
ATOM     67  C   LIG d   1      12.238   2.710  -8.264  0.00  0.00    -0.052 C 
ATOM     68  H   LIG d   1      11.340   2.942  -8.838  0.00  0.00     0.024 H 
ATOM     69  H   LIG d   1      13.115   2.835  -8.899  0.00  0.00     0.024 H 
ATOM     70  H   LIG d   1      12.189   1.679  -7.912  0.00  0.00     0.024 H 
ENDBRANCH  28  67
BRANCH  14  71
ATOM     71  C   LIG d   1      10.416   4.195  -2.540  0.00  0.00    -0.059 C 
ATOM     72  H   LIG d   1       9.445   4.023  -3.005  0.00  0.00     0.024 H 
ATOM     73  H   LIG d   1      10.850   3.241  -2.241  0.00  0.00     0.024 H 
ATOM     74  H   LIG d   1      10.291   4.828  -1.661  0.00  0.00     0.024 H 
ENDBRANCH  14  71
BRANCH  15  75
ATOM     75  C   LIG d   1      12.864   6.866  -3.821  0.00  0.00    -0.059 C 
ATOM     76  H   LIG d   1      13.209   6.159  -4.576  0.00  0.00     0.024 H 
ATOM     77  H   LIG d   1      12.357   7.698  -4.310  0.00  0.00     0.024 H 
ATOM     78  H   LIG d   1      13.717   7.242  -3.257  0.00  0.00     0.024 H 
ENDBRANCH  15  75
BRANCH   1  79
ATOM     79  C   LIG d   1      10.113  10.447  -2.474  0.00  0.00    -0.076 C 
ATOM     80  C   LIG d   1       8.960  11.045  -2.648  0.00  0.00    -0.099 C 
ATOM     81  H   LIG d   1       8.116  10.782  -2.027  0.00  0.00     0.053 H 
ATOM     82  H   LIG d   1       8.853  11.799  -3.414  0.00  0.00     0.053 H 
BRANCH  79  83
ATOM     83  C   LIG d   1      11.290  10.813  -3.340  0.00  0.00    -0.044 C 
ATOM     84  H   LIG d   1      11.065  10.574  -4.379  0.00  0.00     0.027 H 
ATOM     85  H   LIG d   1      11.491  11.880  -3.248  0.00  0.00     0.027 H 
ATOM     86  H   LIG d   1      12.167  10.249  -3.019  0.00  0.00     0.027 H 
ENDBRANCH  79  83
ENDBRANCH   1  79
BRANCH   5  87
ATOM     87  C   LIG d   1      10.962   7.145   0.379  0.00  0.00     0.313 C 
ATOM     88  O   LIG d   1       9.885   6.798  -0.045  0.00  0.00    -0.250 OA
BRANCH  87  89
ATOM     89  O   LIG d   1      11.305   6.866   1.647  0.00  0.00    -0.468 OA
BRANCH  89  90
ATOM     90  C   LIG d   1      10.900   5.597   2.164  0.00  0.00     0.082 C 
ATOM     91  H   LIG d   1      10.310   5.745   3.068  0.00  0.00     0.066 H 
ATOM     92  H   LIG d   1      10.300   5.076   1.419  0.00  0.00     0.066 H 
ATOM     93  H   LIG d   1      11.783   5.003   2.400  0.00  0.00     0.066 H 
ENDBRANCH  89  90
ENDBRANCH  87  89
ENDBRANCH   5  87
TORSDOF 11
ENDMDL
MODEL 3
REMARK VINA RESULT:      -5.4      5.174      8.668
REMARK  11 active torsions:
REMARK  status: ('A' for Active; 'I' for Inactive)
REMARK    1  A    between atoms: C_1  and  C_2 
REMARK    2  A    between atoms: C_2  and  C_4 
REMARK    3  A    between atoms: C_8  and  C_44 
REMARK    4  A    between atoms: C_17  and  C_43 
REMARK    5  A    between atoms: C_18  and  C_21 
REMARK    6  A    between atoms: C_26  and  C_42 
REMARK    7  A    between atoms: C_29  and  C_30 
REMARK    8  A    between atoms: C_39  and  C_40 
REMARK    9  A    between atoms: C_39  and  C_41 
REMARK   10  A    between atoms: C_44  and  O_46 
REMARK   11  A    between atoms: O_46  and  C_47 
ROOT
ATOM      1  C   LIG d   1       5.459  -1.247  -4.353  0.00  0.00    -0.016 C 
ATOM      2  H   LIG d   1       6.028  -0.686  -3.612  0.00  0.00     0.035 H 
ATOM      3  C   LIG d   1       4.541  -0.307  -5.176  0.00  0.00    -0.045 C 
ATOM      4  C   LIG d   1       5.020  -0.423  -6.649  0.00  0.00    -0.036 C 
ATOM      5  C   LIG d   1       6.502  -0.796  -6.473  0.00  0.00     0.071 C 
ATOM      6  C   LIG d   1       6.395  -1.886  -5.378  0.00  0.00    -0.015 C 
ATOM      7  H   LIG d   1       5.876  -2.759  -5.790  0.00  0.00     0.032 H 
ATOM      8  C   LIG d   1       7.785  -2.265  -4.923  0.00  0.00    -0.031 C 
ATOM      9  H   LIG d   1       8.294  -1.367  -4.555  0.00  0.00     0.031 H 
ATOM     10  C   LIG d   1       7.749  -3.268  -3.770  0.00  0.00    -0.049 C 
ATOM     11  C   LIG d   1       9.177  -3.634  -3.349  0.00  0.00    -0.049 C 
ATOM     12  C   LIG d   1       9.928  -4.210  -4.546  0.00  0.00    -0.029 C 
ATOM     13  H   LIG d   1       9.316  -5.081  -4.888  0.00  0.00     0.031 H 
ATOM     14  C   LIG d   1       9.979  -3.204  -5.682  0.00  0.00    -0.023 C 
ATOM     15  C   LIG d   1       8.547  -2.853  -6.119  0.00  0.00    -0.023 C 
ATOM     16  C   LIG d   1       8.574  -1.880  -7.299  0.00  0.00    -0.046 C 
ATOM     17  C   LIG d   1       7.168  -1.403  -7.691  0.00  0.00    -0.036 C 
ATOM     18  C   LIG d   1      10.757  -3.764  -6.872  0.00  0.00    -0.046 C 
ATOM     19  C   LIG d   1      12.108  -4.319  -6.448  0.00  0.00    -0.048 C 
ATOM     20  C   LIG d   1      12.011  -5.368  -5.350  0.00  0.00    -0.023 C 
ATOM     21  H   LIG d   1      13.071  -5.535  -4.991  0.00  0.00     0.032 H 
ATOM     22  C   LIG d   1      11.259  -4.808  -4.143  0.00  0.00    -0.021 C 
ATOM     23  C   LIG d   1      11.023  -5.932  -3.113  0.00  0.00    -0.018 C 
ATOM     24  C   LIG d   1      10.137  -6.966  -3.748  0.00  0.00    -0.003 C 
ATOM     25  C   LIG d   1       9.214  -7.622  -3.031  0.00  0.00    -0.048 C 
ATOM     26  C   LIG d   1      10.316  -7.224  -5.115  0.00  0.00     0.165 C 
ATOM     27  O   LIG d   1       9.501  -7.895  -5.709  0.00  0.00    -0.292 OA
ATOM     28  C   LIG d   1      11.532  -6.715  -5.832  0.00  0.00     0.031 C 
ATOM     29  H   LIG d   1       3.506  -0.639  -5.092  0.00  0.00     0.027 H 
ATOM     30  H   LIG d   1       4.637   0.712  -4.822  0.00  0.00     0.027 H 
ATOM     31  H   LIG d   1       4.485  -1.208  -7.175  0.00  0.00     0.028 H 
ATOM     32  H   LIG d   1       4.929   0.536  -7.162  0.00  0.00     0.028 H 
ATOM     33  H   LIG d   1       7.255  -2.799  -2.913  0.00  0.00     0.027 H 
ATOM     34  H   LIG d   1       7.201  -4.164  -4.045  0.00  0.00     0.027 H 
ATOM     35  H   LIG d   1       9.674  -2.751  -2.955  0.00  0.00     0.027 H 
ATOM     36  H   LIG d   1       9.119  -4.387  -2.561  0.00  0.00     0.027 H 
ATOM     37  H   LIG d   1       9.198  -1.021  -7.084  0.00  0.00     0.027 H 
ATOM     38  H   LIG d   1       9.011  -2.403  -8.160  0.00  0.00     0.027 H 
ATOM     39  H   LIG d   1       6.576  -2.230  -8.078  0.00  0.00     0.028 H 
ATOM     40  H   LIG d   1       7.257  -0.638  -8.474  0.00  0.00     0.028 H 
ATOM     41  H   LIG d   1      10.179  -4.504  -7.405  0.00  0.00     0.027 H 
ATOM     42  H   LIG d   1      10.935  -2.932  -7.577  0.00  0.00     0.027 H 
ATOM     43  H   LIG d   1      12.662  -4.688  -7.315  0.00  0.00     0.027 H 
ATOM     44  H   LIG d   1      12.724  -3.476  -6.076  0.00  0.00     0.027 H 
ATOM     45  H   LIG d   1      11.980  -6.369  -2.845  0.00  0.00     0.032 H 
ATOM     46  H   LIG d   1      10.541  -5.512  -2.241  0.00  0.00     0.032 H 
ATOM     47  H   LIG d   1       8.955  -7.278  -2.040  0.00  0.00     0.063 H 
ENDROOT
BRANCH  25  48
ATOM     48  C   LIG d   1       8.554  -8.809  -3.592  0.00  0.00    -0.025 A 
ATOM     49  C   LIG d   1       7.257  -8.715  -4.111  0.00  0.00    -0.053 A 
ATOM     50  C   LIG d   1       6.648  -9.832  -4.641  0.00  0.00    -0.043 A 
ATOM     51  H   LIG d   1       6.738  -7.768  -4.101  0.00  0.00     0.062 H 
ATOM     52  C   LIG d   1       7.311 -11.048  -4.650  0.00  0.00     0.041 A 
ATOM     53  H   LIG d   1       5.650  -9.759  -5.046  0.00  0.00     0.063 H 
ATOM     54  C   LIG d   1       8.593 -11.151  -4.133  0.00  0.00    -0.043 A 
ATOM     55 CL   LIG d   1       6.533 -12.451  -5.314  0.00  0.00    -0.084 Cl
ATOM     56  C   LIG d   1       9.218 -10.041  -3.606  0.00  0.00    -0.053 A 
ATOM     57  H   LIG d   1       9.103 -12.102  -4.144  0.00  0.00     0.063 H 
ATOM     58  H   LIG d   1      10.216 -10.123  -3.204  0.00  0.00     0.062 H 
ENDBRANCH  25  48
BRANCH  22  59
ATOM     59  C   LIG d   1      12.161  -3.796  -3.421  0.00  0.00    -0.059 C 
ATOM     60  H   LIG d   1      13.164  -4.211  -3.317  0.00  0.00     0.024 H 
ATOM     61  H   LIG d   1      12.210  -2.873  -4.001  0.00  0.00     0.024 H 
ATOM     62  H   LIG d   1      11.752  -3.582  -2.434  0.00  0.00     0.024 H 
ENDBRANCH  22  59
BRANCH  28  63
ATOM     63  C   LIG d   1      11.251  -6.755  -7.337  0.00  0.00    -0.052 C 
ATOM     64  H   LIG d   1      10.183  -6.886  -7.504  0.00  0.00     0.024 H 
ATOM     65  H   LIG d   1      11.579  -5.820  -7.792  0.00  0.00     0.024 H 
ATOM     66  H   LIG d   1      11.794  -7.587  -7.786  0.00  0.00     0.024 H 
ENDBRANCH  28  63
BRANCH  28  67
ATOM     67  C   LIG d   1      12.663  -7.743  -5.584  0.00  0.00    -0.052 C 
ATOM     68  H   LIG d   1      13.137  -7.540  -4.623  0.00  0.00     0.024 H 
ATOM     69  H   LIG d   1      12.246  -8.750  -5.576  0.00  0.00     0.024 H 
ATOM     70  H   LIG d   1      13.406  -7.665  -6.379  0.00  0.00     0.024 H 
ENDBRANCH  28  67
BRANCH  14  71
ATOM     71  C   LIG d   1      10.664  -1.896  -5.251  0.00  0.00    -0.059 C 
ATOM     72  H   LIG d   1      11.746  -2.011  -5.328  0.00  0.00     0.024 H 
ATOM     73  H   LIG d   1      10.337  -1.084  -5.899  0.00  0.00     0.024 H 
ATOM     74  H   LIG d   1      10.396  -1.669  -4.219  0.00  0.00     0.024 H 
ENDBRANCH  14  71
BRANCH  15  75
ATOM     75  C   LIG d   1       7.839  -4.125  -6.601  0.00  0.00    -0.059 C 
ATOM     76  H   LIG d   1       8.548  -4.754  -7.139  0.00  0.00     0.024 H 
ATOM     77  H   LIG d   1       7.448  -4.671  -5.742  0.00  0.00     0.024 H 
ATOM     78  H   LIG d   1       7.017  -3.855  -7.264  0.00  0.00     0.024 H 
ENDBRANCH  15  75
BRANCH   1  79
ATOM     79  C   LIG d   1       4.618  -2.307  -3.680  0.00  0.00    -0.076 C 
ATOM     80  C   LIG d   1       4.421  -3.460  -4.271  0.00  0.00    -0.099 C 
ATOM     81  H   LIG d   1       4.859  -3.652  -5.240  0.00  0.00     0.053 H 
ATOM     82  H   LIG d   1       3.820  -4.217  -3.791  0.00  0.00     0.053 H 
BRANCH  79  83
ATOM     83  C   LIG d   1       4.007  -2.038  -2.329  0.00  0.00    -0.044 C 
ATOM     84  H   LIG d   1       4.584  -2.553  -1.560  0.00  0.00     0.027 H 
ATOM     85  H   LIG d   1       4.015  -0.967  -2.133  0.00  0.00     0.027 H 
ATOM     86  H   LIG d   1       2.979  -2.403  -2.316  0.00  0.00     0.027 H 
ENDBRANCH  79  83
ENDBRANCH   1  79
BRANCH   5  87
ATOM     87  C   LIG d   1       7.257   0.418  -5.998  0.00  0.00     0.313 C 
ATOM     88  O   LIG d   1       7.271   1.423  -6.669  0.00  0.00    -0.250 OA
BRANCH  87  89
ATOM     89  O   LIG d   1       7.917   0.383  -4.829  0.00  0.00    -0.468 OA
BRANCH  89  90
ATOM     90  C   LIG d   1       7.858   1.557  -4.016  0.00  0.00     0.082 C 
ATOM     91  H   LIG d   1       6.842   1.693  -3.647  0.00  0.00     0.066 H 
ATOM     92  H   LIG d   1       8.540   1.449  -3.172  0.00  0.00     0.066 H 
ATOM     93  H   LIG d   1       8.149   2.425  -4.609  0.00  0.00     0.066 H 
ENDBRANCH  89  90
ENDBRANCH  87  89
ENDBRANCH   5  87
TORSDOF 11
ENDMDL
MODEL 4
REMARK VINA RESULT:      -5.3      4.448      8.108
REMARK  11 active torsions:
REMARK  status: ('A' for Active; 'I' for Inactive)
REMARK    1  A    between atoms: C_1  and  C_2 
REMARK    2  A    between atoms: C_2  and  C_4 
REMARK    3  A    between atoms: C_8  and  C_44 
REMARK    4  A    between atoms: C_17  and  C_43 
REMARK    5  A    between atoms: C_18  and  C_21 
REMARK    6  A    between atoms: C_26  and  C_42 
REMARK    7  A    between atoms: C_29  and  C_30 
REMARK    8  A    between atoms: C_39  and  C_40 
REMARK    9  A    between atoms: C_39  and  C_41 
REMARK   10  A    between atoms: C_44  and  O_46 
REMARK   11  A    between atoms: O_46  and  C_47 
ROOT
ATOM      1  C   LIG d   1      10.386   4.327  -8.287  0.00  0.00    -0.016 C 
ATOM      2  H   LIG d   1      11.410   3.967  -8.379  0.00  0.00     0.035 H 
ATOM      3  C   LIG d   1       9.391   3.347  -8.960  0.00  0.00    -0.045 C 
ATOM      4  C   LIG d   1       8.453   2.845  -7.828  0.00  0.00    -0.036 C 
ATOM      5  C   LIG d   1       9.355   2.972  -6.588  0.00  0.00     0.071 C 
ATOM      6  C   LIG d   1       9.964   4.378  -6.820  0.00  0.00    -0.015 C 
ATOM      7  H   LIG d   1       9.172   5.131  -6.737  0.00  0.00     0.032 H 
ATOM      8  C   LIG d   1      11.037   4.625  -5.786  0.00  0.00    -0.031 C 
ATOM      9  H   LIG d   1      11.793   3.836  -5.864  0.00  0.00     0.031 H 
ATOM     10  C   LIG d   1      11.749   5.957  -6.018  0.00  0.00    -0.049 C 
ATOM     11  C   LIG d   1      12.819   6.175  -4.942  0.00  0.00    -0.049 C 
ATOM     12  C   LIG d   1      12.167   6.142  -3.563  0.00  0.00    -0.029 C 
ATOM     13  H   LIG d   1      11.379   6.934  -3.588  0.00  0.00     0.031 H 
ATOM     14  C   LIG d   1      11.478   4.809  -3.327  0.00  0.00    -0.023 C 
ATOM     15  C   LIG d   1      10.389   4.602  -4.394  0.00  0.00    -0.023 C 
ATOM     16  C   LIG d   1       9.645   3.288  -4.145  0.00  0.00    -0.046 C 
ATOM     17  C   LIG d   1       8.632   2.976  -5.257  0.00  0.00    -0.036 C 
ATOM     18  C   LIG d   1      10.849   4.758  -1.935  0.00  0.00    -0.046 C 
ATOM     19  C   LIG d   1      11.842   5.165  -0.856  0.00  0.00    -0.048 C 
ATOM     20  C   LIG d   1      12.466   6.531  -1.096  0.00  0.00    -0.023 C 
ATOM     21  H   LIG d   1      13.319   6.613  -0.356  0.00  0.00     0.032 H 
ATOM     22  C   LIG d   1      13.123   6.583  -2.475  0.00  0.00    -0.021 C 
ATOM     23  C   LIG d   1      13.600   8.020  -2.768  0.00  0.00    -0.018 C 
ATOM     24  C   LIG d   1      12.391   8.911  -2.817  0.00  0.00    -0.003 C 
ATOM     25  C   LIG d   1      12.322   9.938  -3.677  0.00  0.00    -0.048 C 
ATOM     26  C   LIG d   1      11.343   8.633  -1.928  0.00  0.00     0.165 C 
ATOM     27  O   LIG d   1      10.277   9.192  -2.067  0.00  0.00    -0.292 OA
ATOM     28  C   LIG d   1      11.548   7.687  -0.783  0.00  0.00     0.031 C 
ATOM     29  H   LIG d   1       8.812   3.874  -9.719  0.00  0.00     0.027 H 
ATOM     30  H   LIG d   1       9.927   2.518  -9.407  0.00  0.00     0.027 H 
ATOM     31  H   LIG d   1       7.577   3.481  -7.734  0.00  0.00     0.028 H 
ATOM     32  H   LIG d   1       8.175   1.802  -7.989  0.00  0.00     0.028 H 
ATOM     33  H   LIG d   1      12.252   5.921  -6.990  0.00  0.00     0.027 H 
ATOM     34  H   LIG d   1      11.047   6.786  -6.016  0.00  0.00     0.027 H 
ATOM     35  H   LIG d   1      13.586   5.410  -5.037  0.00  0.00     0.027 H 
ATOM     36  H   LIG d   1      13.275   7.153  -5.104  0.00  0.00     0.027 H 
ATOM     37  H   LIG d   1      10.335   2.460  -4.045  0.00  0.00     0.027 H 
ATOM     38  H   LIG d   1       9.096   3.383  -3.199  0.00  0.00     0.027 H 
ATOM     39  H   LIG d   1       7.827   3.709  -5.260  0.00  0.00     0.028 H 
ATOM     40  H   LIG d   1       8.200   1.983  -5.076  0.00  0.00     0.028 H 
ATOM     41  H   LIG d   1       9.952   5.358  -1.888  0.00  0.00     0.027 H 
ATOM     42  H   LIG d   1      10.544   3.715  -1.744  0.00  0.00     0.027 H 
ATOM     43  H   LIG d   1      11.384   5.095   0.134  0.00  0.00     0.027 H 
ATOM     44  H   LIG d   1      12.650   4.407  -0.832  0.00  0.00     0.027 H 
ATOM     45  H   LIG d   1      14.269   8.337  -1.972  0.00  0.00     0.032 H 
ATOM     46  H   LIG d   1      14.112   8.033  -3.720  0.00  0.00     0.032 H 
ATOM     47  H   LIG d   1      13.040  10.019  -4.480  0.00  0.00     0.063 H 
ENDROOT
BRANCH  25  48
ATOM     48  C   LIG d   1      11.270  10.953  -3.526  0.00  0.00    -0.025 A 
ATOM     49  C   LIG d   1      10.152  10.938  -4.369  0.00  0.00    -0.053 A 
ATOM     50  C   LIG d   1       9.167  11.890  -4.218  0.00  0.00    -0.043 A 
ATOM     51  H   LIG d   1      10.060  10.181  -5.133  0.00  0.00     0.062 H 
ATOM     52  C   LIG d   1       9.286  12.866  -3.242  0.00  0.00     0.041 A 
ATOM     53  H   LIG d   1       8.302  11.877  -4.864  0.00  0.00     0.063 H 
ATOM     54  C   LIG d   1      10.392  12.890  -2.407  0.00  0.00    -0.043 A 
ATOM     55 CL   LIG d   1       8.043  14.065  -3.062  0.00  0.00    -0.084 Cl
ATOM     56  C   LIG d   1      11.383  11.941  -2.542  0.00  0.00    -0.053 A 
ATOM     57  H   LIG d   1      10.478  13.653  -1.649  0.00  0.00     0.063 H 
ATOM     58  H   LIG d   1      12.243  11.961  -1.891  0.00  0.00     0.062 H 
ENDBRANCH  25  48
BRANCH  22  59
ATOM     59  C   LIG d   1      14.407   5.740  -2.446  0.00  0.00    -0.059 C 
ATOM     60  H   LIG d   1      15.189   6.248  -3.010  0.00  0.00     0.024 H 
ATOM     61  H   LIG d   1      14.732   5.607  -1.414  0.00  0.00     0.024 H 
ATOM     62  H   LIG d   1      14.212   4.765  -2.893  0.00  0.00     0.024 H 
ENDBRANCH  22  59
BRANCH  28  63
ATOM     63  C   LIG d   1      10.173   7.246  -0.273  0.00  0.00    -0.052 C 
ATOM     64  H   LIG d   1       9.397   7.816  -0.783  0.00  0.00     0.024 H 
ATOM     65  H   LIG d   1      10.034   6.184  -0.474  0.00  0.00     0.024 H 
ATOM     66  H   LIG d   1      10.108   7.425   0.800  0.00  0.00     0.024 H 
ENDBRANCH  28  63
BRANCH  28  67
ATOM     67  C   LIG d   1      12.184   8.506   0.369  0.00  0.00    -0.052 C 
ATOM     68  H   LIG d   1      13.019   9.091  -0.019  0.00  0.00     0.024 H 
ATOM     69  H   LIG d   1      11.438   9.177   0.793  0.00  0.00     0.024 H 
ATOM     70  H   LIG d   1      12.543   7.827   1.143  0.00  0.00     0.024 H 
ENDBRANCH  28  67
BRANCH  14  71
ATOM     71  C   LIG d   1      12.463   3.634  -3.437  0.00  0.00    -0.059 C 
ATOM     72  H   LIG d   1      11.916   2.694  -3.355  0.00  0.00     0.024 H 
ATOM     73  H   LIG d   1      12.973   3.676  -4.399  0.00  0.00     0.024 H 
ATOM     74  H   LIG d   1      13.197   3.699  -2.633  0.00  0.00     0.024 H 
ENDBRANCH  14  71
BRANCH  15  75
ATOM     75  C   LIG d   1       9.358   5.731  -4.291  0.00  0.00    -0.059 C 
ATOM     76  H   LIG d   1       8.746   5.584  -3.401  0.00  0.00     0.024 H 
ATOM     77  H   LIG d   1       9.873   6.689  -4.223  0.00  0.00     0.024 H 
ATOM     78  H   LIG d   1       8.721   5.724  -5.176  0.00  0.00     0.024 H 
ENDBRANCH  15  75
BRANCH   1  79
ATOM     79  C   LIG d   1      10.249   5.693  -8.919  0.00  0.00    -0.076 C 
ATOM     80  C   LIG d   1       9.166   6.402  -8.716  0.00  0.00    -0.099 C 
ATOM     81  H   LIG d   1       8.371   6.010  -8.098  0.00  0.00     0.053 H 
ATOM     82  H   LIG d   1       9.067   7.379  -9.167  0.00  0.00     0.053 H 
BRANCH  79  83
ATOM     83  C   LIG d   1      11.358   6.240  -9.780  0.00  0.00    -0.044 C 
ATOM     84  H   LIG d   1      11.023   6.287 -10.817  0.00  0.00     0.027 H 
ATOM     85  H   LIG d   1      11.625   7.239  -9.439  0.00  0.00     0.027 H 
ATOM     86  H   LIG d   1      12.228   5.586  -9.710  0.00  0.00     0.027 H 
ENDBRANCH  79  83
ENDBRANCH   1  79
BRANCH   5  87
ATOM     87  C   LIG d   1      10.397   1.885  -6.630  0.00  0.00     0.313 C 
ATOM     88  O   LIG d   1      10.060   0.724  -6.645  0.00  0.00    -0.250 OA
BRANCH  87  89
ATOM     89  O   LIG d   1      11.701   2.205  -6.648  0.00  0.00    -0.468 OA
BRANCH  89  90
ATOM     90  C   LIG d   1      12.559   1.384  -7.443  0.00  0.00     0.082 C 
ATOM     91  H   LIG d   1      12.119   0.393  -7.549  0.00  0.00     0.066 H 
ATOM     92  H   LIG d   1      12.682   1.834  -8.428  0.00  0.00     0.066 H 
ATOM     93  H   LIG d   1      13.532   1.300  -6.959  0.00  0.00     0.066 H 
ENDBRANCH  89  90
ENDBRANCH  87  89
ENDBRANCH   5  87
TORSDOF 11
ENDMDL
MODEL 5
REMARK VINA RESULT:      -5.2      4.279      9.601
REMARK  11 active torsions:
REMARK  status: ('A' for Active; 'I' for Inactive)
REMARK    1  A    between atoms: C_1  and  C_2 
REMARK    2  A    between atoms: C_2  and  C_4 
REMARK    3  A    between atoms: C_8  and  C_44 
REMARK    4  A    between atoms: C_17  and  C_43 
REMARK    5  A    between atoms: C_18  and  C_21 
REMARK    6  A    between atoms: C_26  and  C_42 
REMARK    7  A    between atoms: C_29  and  C_30 
REMARK    8  A    between atoms: C_39  and  C_40 
REMARK    9  A    between atoms: C_39  and  C_41 
REMARK   10  A    between atoms: C_44  and  O_46 
REMARK   11  A    between atoms: O_46  and  C_47 
ROOT
ATOM      1  C   LIG d   1      10.725   9.499  -1.811  0.00  0.00    -0.016 C 
ATOM      2  H   LIG d   1      11.808   9.614  -1.808  0.00  0.00     0.035 H 
ATOM      3  C   LIG d   1      10.024  10.826  -1.422  0.00  0.00    -0.045 C 
ATOM      4  C   LIG d   1       9.168  11.233  -2.652  0.00  0.00    -0.036 C 
ATOM      5  C   LIG d   1       9.944  10.583  -3.810  0.00  0.00     0.071 C 
ATOM      6  C   LIG d   1      10.222   9.179  -3.217  0.00  0.00    -0.015 C 
ATOM      7  H   LIG d   1       9.273   8.642  -3.108  0.00  0.00     0.032 H 
ATOM      8  C   LIG d   1      11.150   8.428  -4.144  0.00  0.00    -0.031 C 
ATOM      9  H   LIG d   1      12.072   9.007  -4.268  0.00  0.00     0.031 H 
ATOM     10  C   LIG d   1      11.544   7.068  -3.569  0.00  0.00    -0.049 C 
ATOM     11  C   LIG d   1      12.473   6.336  -4.543  0.00  0.00    -0.049 C 
ATOM     12  C   LIG d   1      11.771   6.172  -5.888  0.00  0.00    -0.029 C 
ATOM     13  H   LIG d   1      10.823   5.624  -5.663  0.00  0.00     0.031 H 
ATOM     14  C   LIG d   1      11.399   7.526  -6.467  0.00  0.00    -0.023 C 
ATOM     15  C   LIG d   1      10.449   8.252  -5.498  0.00  0.00    -0.023 C 
ATOM     16  C   LIG d   1      10.017   9.597  -6.085  0.00  0.00    -0.046 C 
ATOM     17  C   LIG d   1       9.168  10.415  -5.100  0.00  0.00    -0.036 C 
ATOM     18  C   LIG d   1      10.722   7.371  -7.829  0.00  0.00    -0.046 C 
ATOM     19  C   LIG d   1      11.532   6.479  -8.758  0.00  0.00    -0.048 C 
ATOM     20  C   LIG d   1      11.834   5.109  -8.167  0.00  0.00    -0.023 C 
ATOM     21  H   LIG d   1      12.602   4.641  -8.854  0.00  0.00     0.032 H 
ATOM     22  C   LIG d   1      12.536   5.254  -6.817  0.00  0.00    -0.021 C 
ATOM     23  C   LIG d   1      12.681   3.867  -6.158  0.00  0.00    -0.018 C 
ATOM     24  C   LIG d   1      11.303   3.334  -5.887  0.00  0.00    -0.003 C 
ATOM     25  C   LIG d   1      11.045   2.607  -4.791  0.00  0.00    -0.048 C 
ATOM     26  C   LIG d   1      10.301   3.619  -6.825  0.00  0.00     0.165 C 
ATOM     27  O   LIG d   1       9.144   3.385  -6.554  0.00  0.00    -0.292 OA
ATOM     28  C   LIG d   1      10.657   4.166  -8.176  0.00  0.00     0.031 C 
ATOM     29  H   LIG d   1       9.382  10.663  -0.557  0.00  0.00     0.027 H 
ATOM     30  H   LIG d   1      10.762  11.588  -1.202  0.00  0.00     0.027 H 
ATOM     31  H   LIG d   1       8.164  10.823  -2.585  0.00  0.00     0.028 H 
ATOM     32  H   LIG d   1       9.149  12.318  -2.770  0.00  0.00     0.028 H 
ATOM     33  H   LIG d   1      12.094   7.229  -2.635  0.00  0.00     0.027 H 
ATOM     34  H   LIG d   1      10.669   6.460  -3.360  0.00  0.00     0.027 H 
ATOM     35  H   LIG d   1      13.401   6.893  -4.644  0.00  0.00     0.027 H 
ATOM     36  H   LIG d   1      12.696   5.351  -4.129  0.00  0.00     0.027 H 
ATOM     37  H   LIG d   1      10.875  10.184  -6.393  0.00  0.00     0.027 H 
ATOM     38  H   LIG d   1       9.410   9.399  -6.978  0.00  0.00     0.027 H 
ATOM     39  H   LIG d   1       8.217   9.921  -4.912  0.00  0.00     0.028 H 
ATOM     40  H   LIG d   1       8.970  11.402  -5.536  0.00  0.00     0.028 H 
ATOM     41  H   LIG d   1       9.710   7.011  -7.725  0.00  0.00     0.027 H 
ATOM     42  H   LIG d   1      10.658   8.373  -8.287  0.00  0.00     0.027 H 
ATOM     43  H   LIG d   1      11.049   6.402  -9.735  0.00  0.00     0.027 H 
ATOM     44  H   LIG d   1      12.492   6.989  -8.972  0.00  0.00     0.027 H 
ATOM     45  H   LIG d   1      13.213   3.209  -6.839  0.00  0.00     0.032 H 
ATOM     46  H   LIG d   1      13.229   3.975  -5.231  0.00  0.00     0.032 H 
ATOM     47  H   LIG d   1      11.767   2.563  -3.989  0.00  0.00     0.063 H 
ENDROOT
BRANCH  25  48
ATOM     48  C   LIG d   1       9.779   1.868  -4.680  0.00  0.00    -0.025 A 
ATOM     49  C   LIG d   1       8.731   2.381  -3.906  0.00  0.00    -0.053 A 
ATOM     50  C   LIG d   1       7.545   1.686  -3.812  0.00  0.00    -0.043 A 
ATOM     51  H   LIG d   1       8.850   3.321  -3.388  0.00  0.00     0.062 H 
ATOM     52  C   LIG d   1       7.392   0.477  -4.472  0.00  0.00     0.041 A 
ATOM     53  H   LIG d   1       6.734   2.082  -3.219  0.00  0.00     0.063 H 
ATOM     54  C   LIG d   1       8.426  -0.040  -5.236  0.00  0.00    -0.043 A 
ATOM     55 CL   LIG d   1       5.896  -0.395  -4.343  0.00  0.00    -0.084 Cl
ATOM     56  C   LIG d   1       9.617   0.648  -5.344  0.00  0.00    -0.053 A 
ATOM     57  H   LIG d   1       8.300  -0.981  -5.747  0.00  0.00     0.063 H 
ATOM     58  H   LIG d   1      10.421   0.244  -5.940  0.00  0.00     0.062 H 
ENDBRANCH  25  48
BRANCH  22  59
ATOM     59  C   LIG d   1      13.977   5.730  -7.055  0.00  0.00    -0.059 C 
ATOM     60  H   LIG d   1      13.999   6.820  -7.089  0.00  0.00     0.024 H 
ATOM     61  H   LIG d   1      14.615   5.381  -6.243  0.00  0.00     0.024 H 
ATOM     62  H   LIG d   1      14.341   5.330  -8.000  0.00  0.00     0.024 H 
ENDBRANCH  22  59
BRANCH  28  63
ATOM     63  C   LIG d   1       9.395   4.779  -8.792  0.00  0.00    -0.052 C 
ATOM     64  H   LIG d   1       9.103   4.203  -9.669  0.00  0.00     0.024 H 
ATOM     65  H   LIG d   1       8.588   4.761  -8.060  0.00  0.00     0.024 H 
ATOM     66  H   LIG d   1       9.597   5.810  -9.084  0.00  0.00     0.024 H 
ENDBRANCH  28  63
BRANCH  28  67
ATOM     67  C   LIG d   1      11.019   2.954  -9.070  0.00  0.00    -0.052 C 
ATOM     68  H   LIG d   1      10.612   3.105 -10.070  0.00  0.00     0.024 H 
ATOM     69  H   LIG d   1      12.103   2.858  -9.131  0.00  0.00     0.024 H 
ATOM     70  H   LIG d   1      10.598   2.045  -8.639  0.00  0.00     0.024 H 
ENDBRANCH  28  67
BRANCH  14  71
ATOM     71  C   LIG d   1      12.634   8.420  -6.659  0.00  0.00    -0.059 C 
ATOM     72  H   LIG d   1      12.894   8.889  -5.710  0.00  0.00     0.024 H 
ATOM     73  H   LIG d   1      13.471   7.814  -7.007  0.00  0.00     0.024 H 
ATOM     74  H   LIG d   1      12.413   9.192  -7.397  0.00  0.00     0.024 H 
ENDBRANCH  14  71
BRANCH  15  75
ATOM     75  C   LIG d   1       9.179   7.414  -5.312  0.00  0.00    -0.059 C 
ATOM     76  H   LIG d   1       8.321   8.075  -5.191  0.00  0.00     0.024 H 
ATOM     77  H   LIG d   1       9.029   6.782  -6.187  0.00  0.00     0.024 H 
ATOM     78  H   LIG d   1       9.283   6.788  -4.426  0.00  0.00     0.024 H 
ENDBRANCH  15  75
BRANCH   1  79
ATOM     79  C   LIG d   1      10.309   8.411  -0.847  0.00  0.00    -0.076 C 
ATOM     80  C   LIG d   1       9.168   7.790  -1.014  0.00  0.00    -0.099 C 
ATOM     81  H   LIG d   1       8.524   8.056  -1.840  0.00  0.00     0.053 H 
ATOM     82  H   LIG d   1       8.870   7.013  -0.325  0.00  0.00     0.053 H 
BRANCH  79  83
ATOM     83  C   LIG d   1      11.207   8.041   0.305  0.00  0.00    -0.044 C 
ATOM     84  H   LIG d   1      12.236   8.311   0.065  0.00  0.00     0.027 H 
ATOM     85  H   LIG d   1      10.891   8.577   1.199  0.00  0.00     0.027 H 
ATOM     86  H   LIG d   1      11.147   6.967   0.484  0.00  0.00     0.027 H 
ENDBRANCH  79  83
ENDBRANCH   1  79
BRANCH   5  87
ATOM     87  C   LIG d   1      11.212  11.364  -4.045  0.00  0.00     0.313 C 
ATOM     88  O   LIG d   1      11.155  12.537  -4.333  0.00  0.00    -0.250 OA
BRANCH  87  89
ATOM     89  O   LIG d   1      12.404  10.757  -3.937  0.00  0.00    -0.468 OA
BRANCH  89  90
ATOM     90  C   LIG d   1      13.470  11.517  -3.365  0.00  0.00     0.082 C 
ATOM     91  H   LIG d   1      13.848  12.225  -4.101  0.00  0.00     0.066 H 
ATOM     92  H   LIG d   1      13.102  12.061  -2.494  0.00  0.00     0.066 H 
ATOM     93  H   LIG d   1      14.273  10.845  -3.060  0.00  0.00     0.066 H 
ENDBRANCH  89  90
ENDBRANCH  87  89
ENDBRANCH   5  87
TORSDOF 11
ENDMDL
MODEL 6
REMARK VINA RESULT:      -5.2      5.169      9.695
REMARK  11 active torsions:
REMARK  status: ('A' for Active; 'I' for Inactive)
REMARK    1  A    between atoms: C_1  and  C_2 
REMARK    2  A    between atoms: C_2  and  C_4 
REMARK    3  A    between atoms: C_8  and  C_44 
REMARK    4  A    between atoms: C_17  and  C_43 
REMARK    5  A    between atoms: C_18  and  C_21 
REMARK    6  A    between atoms: C_26  and  C_42 
REMARK    7  A    between atoms: C_29  and  C_30 
REMARK    8  A    between atoms: C_39  and  C_40 
REMARK    9  A    between atoms: C_39  and  C_41 
REMARK   10  A    between atoms: C_44  and  O_46 
REMARK   11  A    between atoms: O_46  and  C_47 
ROOT
ATOM      1  C   LIG d   1       8.340  -1.706  -6.062  0.00  0.00    -0.016 C 
ATOM      2  H   LIG d   1       8.619  -0.682  -6.305  0.00  0.00     0.035 H 
ATOM      3  C   LIG d   1       8.574  -2.003  -4.558  0.00  0.00    -0.045 C 
ATOM      4  C   LIG d   1       7.179  -2.345  -3.967  0.00  0.00    -0.036 C 
ATOM      5  C   LIG d   1       6.238  -1.566  -4.901  0.00  0.00     0.071 C 
ATOM      6  C   LIG d   1       6.844  -1.922  -6.282  0.00  0.00    -0.015 C 
ATOM      7  H   LIG d   1       6.696  -2.991  -6.473  0.00  0.00     0.032 H 
ATOM      8  C   LIG d   1       6.161  -1.096  -7.347  0.00  0.00    -0.031 C 
ATOM      9  H   LIG d   1       6.290  -0.035  -7.109  0.00  0.00     0.031 H 
ATOM     10  C   LIG d   1       6.781  -1.328  -8.725  0.00  0.00    -0.049 C 
ATOM     11  C   LIG d   1       6.052  -0.483  -9.776  0.00  0.00    -0.049 C 
ATOM     12  C   LIG d   1       4.570  -0.844  -9.781  0.00  0.00    -0.029 C 
ATOM     13  H   LIG d   1       4.533  -1.944  -9.975  0.00  0.00     0.031 H 
ATOM     14  C   LIG d   1       3.953  -0.593  -8.416  0.00  0.00    -0.023 C 
ATOM     15  C   LIG d   1       4.670  -1.459  -7.365  0.00  0.00    -0.023 C 
ATOM     16  C   LIG d   1       4.029  -1.263  -5.989  0.00  0.00    -0.046 C 
ATOM     17  C   LIG d   1       4.790  -2.010  -4.883  0.00  0.00    -0.036 C 
ATOM     18  C   LIG d   1       2.461  -0.925  -8.422  0.00  0.00    -0.046 C 
ATOM     19  C   LIG d   1       1.742  -0.252  -9.582  0.00  0.00    -0.048 C 
ATOM     20  C   LIG d   1       2.353  -0.575 -10.938  0.00  0.00    -0.023 C 
ATOM     21  H   LIG d   1       1.869   0.140 -11.670  0.00  0.00     0.032 H 
ATOM     22  C   LIG d   1       3.840  -0.220 -10.951  0.00  0.00    -0.021 C 
ATOM     23  C   LIG d   1       4.477  -0.708 -12.268  0.00  0.00    -0.018 C 
ATOM     24  C   LIG d   1       4.376  -2.207 -12.306  0.00  0.00    -0.003 C 
ATOM     25  C   LIG d   1       5.352  -2.953 -12.844  0.00  0.00    -0.048 C 
ATOM     26  C   LIG d   1       3.224  -2.794 -11.766  0.00  0.00     0.165 C 
ATOM     27  O   LIG d   1       3.188  -3.993 -11.594  0.00  0.00    -0.292 OA
ATOM     28  C   LIG d   1       2.022  -1.956 -11.445  0.00  0.00     0.031 C 
ATOM     29  H   LIG d   1       9.245  -2.855  -4.452  0.00  0.00     0.027 H 
ATOM     30  H   LIG d   1       8.994  -1.133  -4.067  0.00  0.00     0.027 H 
ATOM     31  H   LIG d   1       6.980  -3.411  -4.023  0.00  0.00     0.028 H 
ATOM     32  H   LIG d   1       7.090  -1.975  -2.944  0.00  0.00     0.028 H 
ATOM     33  H   LIG d   1       7.826  -1.004  -8.697  0.00  0.00     0.027 H 
ATOM     34  H   LIG d   1       6.745  -2.377  -9.002  0.00  0.00     0.027 H 
ATOM     35  H   LIG d   1       6.204   0.572  -9.559  0.00  0.00     0.027 H 
ATOM     36  H   LIG d   1       6.483  -0.706 -10.754  0.00  0.00     0.027 H 
ATOM     37  H   LIG d   1       3.964  -0.212  -5.733  0.00  0.00     0.027 H 
ATOM     38  H   LIG d   1       3.007  -1.661  -6.030  0.00  0.00     0.027 H 
ATOM     39  H   LIG d   1       4.718  -3.086  -5.028  0.00  0.00     0.028 H 
ATOM     40  H   LIG d   1       4.345  -1.757  -3.912  0.00  0.00     0.028 H 
ATOM     41  H   LIG d   1       2.296  -1.992  -8.426  0.00  0.00     0.027 H 
ATOM     42  H   LIG d   1       2.028  -0.539  -7.482  0.00  0.00     0.027 H 
ATOM     43  H   LIG d   1       0.673  -0.476  -9.554  0.00  0.00     0.027 H 
ATOM     44  H   LIG d   1       1.791   0.844  -9.426  0.00  0.00     0.027 H 
ATOM     45  H   LIG d   1       3.935  -0.273 -13.103  0.00  0.00     0.032 H 
ATOM     46  H   LIG d   1       5.514  -0.403 -12.290  0.00  0.00     0.032 H 
ATOM     47  H   LIG d   1       6.309  -2.507 -13.074  0.00  0.00     0.063 H 
ENDROOT
BRANCH  25  48
ATOM     48  C   LIG d   1       5.120  -4.377 -13.122  0.00  0.00    -0.025 A 
ATOM     49  C   LIG d   1       5.635  -5.355 -12.262  0.00  0.00    -0.053 A 
ATOM     50  C   LIG d   1       5.408  -6.688 -12.526  0.00  0.00    -0.043 A 
ATOM     51  H   LIG d   1       6.206  -5.065 -11.392  0.00  0.00     0.062 H 
ATOM     52  C   LIG d   1       4.681  -7.063 -13.644  0.00  0.00     0.041 A 
ATOM     53  H   LIG d   1       5.801  -7.443 -11.861  0.00  0.00     0.063 H 
ATOM     54  C   LIG d   1       4.172  -6.101 -14.503  0.00  0.00    -0.043 A 
ATOM     55 CL   LIG d   1       4.405  -8.745 -13.972  0.00  0.00    -0.084 Cl
ATOM     56  C   LIG d   1       4.386  -4.763 -14.249  0.00  0.00    -0.053 A 
ATOM     57  H   LIG d   1       3.606  -6.401 -15.372  0.00  0.00     0.063 H 
ATOM     58  H   LIG d   1       3.988  -4.016 -14.918  0.00  0.00     0.062 H 
ENDBRANCH  25  48
BRANCH  22  59
ATOM     59  C   LIG d   1       3.986   1.308 -10.985  0.00  0.00    -0.059 C 
ATOM     60  H   LIG d   1       4.020   1.648 -12.021  0.00  0.00     0.024 H 
ATOM     61  H   LIG d   1       3.135   1.767 -10.481  0.00  0.00     0.024 H 
ATOM     62  H   LIG d   1       4.907   1.597 -10.478  0.00  0.00     0.024 H 
ENDBRANCH  22  59
BRANCH  28  63
ATOM     63  C   LIG d   1       1.124  -2.751 -10.492  0.00  0.00    -0.052 C 
ATOM     64  H   LIG d   1       0.391  -3.314 -11.069  0.00  0.00     0.024 H 
ATOM     65  H   LIG d   1       1.735  -3.440  -9.908  0.00  0.00     0.024 H 
ATOM     66  H   LIG d   1       0.608  -2.064  -9.820  0.00  0.00     0.024 H 
ENDBRANCH  28  63
BRANCH  28  67
ATOM     67  C   LIG d   1       1.216  -1.805 -12.759  0.00  0.00    -0.052 C 
ATOM     68  H   LIG d   1       0.368  -1.140 -12.591  0.00  0.00     0.024 H 
ATOM     69  H   LIG d   1       1.857  -1.385 -13.534  0.00  0.00     0.024 H 
ATOM     70  H   LIG d   1       0.854  -2.783 -13.078  0.00  0.00     0.024 H 
ENDBRANCH  28  67
BRANCH  14  71
ATOM     71  C   LIG d   1       4.103   0.875  -7.986  0.00  0.00    -0.059 C 
ATOM     72  H   LIG d   1       4.743   1.398  -8.697  0.00  0.00     0.024 H 
ATOM     73  H   LIG d   1       3.122   1.349  -7.964  0.00  0.00     0.024 H 
ATOM     74  H   LIG d   1       4.551   0.919  -6.993  0.00  0.00     0.024 H 
ENDBRANCH  14  71
BRANCH  15  75
ATOM     75  C   LIG d   1       4.507  -2.938  -7.731  0.00  0.00    -0.059 C 
ATOM     76  H   LIG d   1       3.718  -3.044  -8.476  0.00  0.00     0.024 H 
ATOM     77  H   LIG d   1       5.444  -3.318  -8.138  0.00  0.00     0.024 H 
ATOM     78  H   LIG d   1       4.242  -3.506  -6.839  0.00  0.00     0.024 H 
ENDBRANCH  15  75
BRANCH   1  79
ATOM     79  C   LIG d   1       9.138  -2.682  -6.896  0.00  0.00    -0.076 C 
ATOM     80  C   LIG d   1       8.797  -3.946  -6.929  0.00  0.00    -0.099 C 
ATOM     81  H   LIG d   1       7.946  -4.292  -6.359  0.00  0.00     0.053 H 
ATOM     82  H   LIG d   1       9.367  -4.644  -7.524  0.00  0.00     0.053 H 
BRANCH  79  83
ATOM     83  C   LIG d   1      10.324  -2.200  -7.690  0.00  0.00    -0.044 C 
ATOM     84  H   LIG d   1      11.234  -2.337  -7.104  0.00  0.00     0.027 H 
ATOM     85  H   LIG d   1      10.399  -2.770  -8.615  0.00  0.00     0.027 H 
ATOM     86  H   LIG d   1      10.200  -1.142  -7.923  0.00  0.00     0.027 H 
ENDBRANCH  79  83
ENDBRANCH   1  79
BRANCH   5  87
ATOM     87  C   LIG d   1       6.351  -0.095  -4.592  0.00  0.00     0.313 C 
ATOM     88  O   LIG d   1       6.512   0.701  -5.487  0.00  0.00    -0.250 OA
BRANCH  87  89
ATOM     89  O   LIG d   1       6.276   0.331  -3.321  0.00  0.00    -0.468 OA
BRANCH  89  90
ATOM     90  C   LIG d   1       5.095   1.043  -2.945  0.00  0.00     0.082 C 
ATOM     91  H   LIG d   1       5.284   1.601  -2.028  0.00  0.00     0.066 H 
ATOM     92  H   LIG d   1       4.820   1.735  -3.741  0.00  0.00     0.066 H 
ATOM     93  H   LIG d   1       4.281   0.337  -2.780  0.00  0.00     0.066 H 
ENDBRANCH  89  90
ENDBRANCH  87  89
ENDBRANCH   5  87
TORSDOF 11
ENDMDL
MODEL 7
REMARK VINA RESULT:      -5.0      6.386      9.867
REMARK  11 active torsions:
REMARK  status: ('A' for Active; 'I' for Inactive)
REMARK    1  A    between atoms: C_1  and  C_2 
REMARK    2  A    between atoms: C_2  and  C_4 
REMARK    3  A    between atoms: C_8  and  C_44 
REMARK    4  A    between atoms: C_17  and  C_43 
REMARK    5  A    between atoms: C_18  and  C_21 
REMARK    6  A    between atoms: C_26  and  C_42 
REMARK    7  A    between atoms: C_29  and  C_30 
REMARK    8  A    between atoms: C_39  and  C_40 
REMARK    9  A    between atoms: C_39  and  C_41 
REMARK   10  A    between atoms: C_44  and  O_46 
REMARK   11  A    between atoms: O_46  and  C_47 
ROOT
ATOM      1  C   LIG d   1      12.370   7.644  -8.753  0.00  0.00    -0.016 C 
ATOM      2  H   LIG d   1      11.811   6.744  -9.002  0.00  0.00     0.035 H 
ATOM      3  C   LIG d   1      12.120   8.761  -9.800  0.00  0.00    -0.045 C 
ATOM      4  C   LIG d   1      11.464   9.935  -9.024  0.00  0.00    -0.036 C 
ATOM      5  C   LIG d   1      10.766   9.201  -7.866  0.00  0.00     0.071 C 
ATOM      6  C   LIG d   1      11.887   8.227  -7.426  0.00  0.00    -0.015 C 
ATOM      7  H   LIG d   1      12.718   8.804  -7.005  0.00  0.00     0.032 H 
ATOM      8  C   LIG d   1      11.333   7.271  -6.397  0.00  0.00    -0.031 C 
ATOM      9  H   LIG d   1      10.480   6.738  -6.831  0.00  0.00     0.031 H 
ATOM     10  C   LIG d   1      12.364   6.217  -5.991  0.00  0.00    -0.049 C 
ATOM     11  C   LIG d   1      11.766   5.277  -4.938  0.00  0.00    -0.049 C 
ATOM     12  C   LIG d   1      11.317   6.091  -3.727  0.00  0.00    -0.029 C 
ATOM     13  H   LIG d   1      12.228   6.639  -3.384  0.00  0.00     0.031 H 
ATOM     14  C   LIG d   1      10.278   7.122  -4.130  0.00  0.00    -0.023 C 
ATOM     15  C   LIG d   1      10.885   8.079  -5.171  0.00  0.00    -0.023 C 
ATOM     16  C   LIG d   1       9.873   9.161  -5.552  0.00  0.00    -0.046 C 
ATOM     17  C   LIG d   1      10.389  10.066  -6.681  0.00  0.00    -0.036 C 
ATOM     18  C   LIG d   1       9.801   7.920  -2.916  0.00  0.00    -0.046 C 
ATOM     19  C   LIG d   1       9.385   7.005  -1.774  0.00  0.00    -0.048 C 
ATOM     20  C   LIG d   1      10.474   6.026  -1.359  0.00  0.00    -0.023 C 
ATOM     21  H   LIG d   1       9.972   5.285  -0.665  0.00  0.00     0.032 H 
ATOM     22  C   LIG d   1      10.937   5.204  -2.561  0.00  0.00    -0.021 C 
ATOM     23  C   LIG d   1      12.152   4.341  -2.160  0.00  0.00    -0.018 C 
ATOM     24  C   LIG d   1      13.277   5.265  -1.792  0.00  0.00    -0.003 C 
ATOM     25  C   LIG d   1      14.550   4.956  -2.082  0.00  0.00    -0.048 C 
ATOM     26  C   LIG d   1      12.950   6.455  -1.128  0.00  0.00     0.165 C 
ATOM     27  O   LIG d   1      13.793   7.315  -0.992  0.00  0.00    -0.292 OA
ATOM     28  C   LIG d   1      11.581   6.651  -0.547  0.00  0.00     0.031 C 
ATOM     29  H   LIG d   1      13.069   9.081 -10.230  0.00  0.00     0.027 H 
ATOM     30  H   LIG d   1      11.459   8.401 -10.579  0.00  0.00     0.027 H 
ATOM     31  H   LIG d   1      12.214  10.624  -8.646  0.00  0.00     0.028 H 
ATOM     32  H   LIG d   1      10.728  10.447  -9.646  0.00  0.00     0.028 H 
ATOM     33  H   LIG d   1      12.618   5.619  -6.872  0.00  0.00     0.027 H 
ATOM     34  H   LIG d   1      13.269   6.679  -5.607  0.00  0.00     0.027 H 
ATOM     35  H   LIG d   1      10.938   4.726  -5.376  0.00  0.00     0.027 H 
ATOM     36  H   LIG d   1      12.539   4.570  -4.632  0.00  0.00     0.027 H 
ATOM     37  H   LIG d   1       8.926   8.725  -5.846  0.00  0.00     0.027 H 
ATOM     38  H   LIG d   1       9.694   9.785  -4.668  0.00  0.00     0.027 H 
ATOM     39  H   LIG d   1      11.244  10.649  -6.345  0.00  0.00     0.028 H 
ATOM     40  H   LIG d   1       9.589  10.757  -6.977  0.00  0.00     0.028 H 
ATOM     41  H   LIG d   1      10.548   8.631  -2.597  0.00  0.00     0.027 H 
ATOM     42  H   LIG d   1       8.917   8.504  -3.226  0.00  0.00     0.027 H 
ATOM     43  H   LIG d   1       9.021   7.591  -0.926  0.00  0.00     0.027 H 
ATOM     44  H   LIG d   1       8.499   6.428  -2.102  0.00  0.00     0.027 H 
ATOM     45  H   LIG d   1      11.878   3.723  -1.309  0.00  0.00     0.032 H 
ATOM     46  H   LIG d   1      12.435   3.723  -3.000  0.00  0.00     0.032 H 
ATOM     47  H   LIG d   1      14.767   4.143  -2.759  0.00  0.00     0.063 H 
ENDROOT
BRANCH  25  48
ATOM     48  C   LIG d   1      15.648   5.723  -1.479  0.00  0.00    -0.025 A 
ATOM     49  C   LIG d   1      16.290   6.729  -2.213  0.00  0.00    -0.053 A 
ATOM     50  C   LIG d   1      17.315   7.448  -1.638  0.00  0.00    -0.043 A 
ATOM     51  H   LIG d   1      15.979   6.943  -3.224  0.00  0.00     0.062 H 
ATOM     52  C   LIG d   1      17.719   7.171  -0.342  0.00  0.00     0.041 A 
ATOM     53  H   LIG d   1      17.808   8.227  -2.201  0.00  0.00     0.063 H 
ATOM     54  C   LIG d   1      17.093   6.174   0.389  0.00  0.00    -0.043 A 
ATOM     55 CL   LIG d   1      19.016   8.079   0.372  0.00  0.00    -0.084 Cl
ATOM     56  C   LIG d   1      16.061   5.450  -0.170  0.00  0.00    -0.053 A 
ATOM     57  H   LIG d   1      17.413   5.964   1.398  0.00  0.00     0.063 H 
ATOM     58  H   LIG d   1      15.574   4.674   0.400  0.00  0.00     0.062 H 
ENDBRANCH  25  48
BRANCH  22  59
ATOM     59  C   LIG d   1       9.839   4.194  -2.925  0.00  0.00    -0.059 C 
ATOM     60  H   LIG d   1       9.244   3.968  -2.040  0.00  0.00     0.024 H 
ATOM     61  H   LIG d   1       9.195   4.619  -3.696  0.00  0.00     0.024 H 
ATOM     62  H   LIG d   1      10.297   3.278  -3.299  0.00  0.00     0.024 H 
ENDBRANCH  22  59
BRANCH  28  63
ATOM     63  C   LIG d   1      11.377   8.148  -0.295  0.00  0.00    -0.052 C 
ATOM     64  H   LIG d   1      11.616   8.377   0.743  0.00  0.00     0.024 H 
ATOM     65  H   LIG d   1      12.030   8.719  -0.954  0.00  0.00     0.024 H 
ATOM     66  H   LIG d   1      10.338   8.411  -0.495  0.00  0.00     0.024 H 
ENDBRANCH  28  63
BRANCH  28  67
ATOM     67  C   LIG d   1      11.587   5.983   0.851  0.00  0.00    -0.052 C 
ATOM     68  H   LIG d   1      10.635   5.478   1.018  0.00  0.00     0.024 H 
ATOM     69  H   LIG d   1      12.396   5.254   0.904  0.00  0.00     0.024 H 
ATOM     70  H   LIG d   1      11.734   6.745   1.617  0.00  0.00     0.024 H 
ENDBRANCH  28  67
BRANCH  14  71
ATOM     71  C   LIG d   1       9.044   6.465  -4.770  0.00  0.00    -0.059 C 
ATOM     72  H   LIG d   1       8.711   5.634  -4.147  0.00  0.00     0.024 H 
ATOM     73  H   LIG d   1       8.244   7.200  -4.854  0.00  0.00     0.024 H 
ATOM     74  H   LIG d   1       9.304   6.094  -5.762  0.00  0.00     0.024 H 
ENDBRANCH  14  71
BRANCH  15  75
ATOM     75  C   LIG d   1      12.096   8.792  -4.557  0.00  0.00    -0.059 C 
ATOM     76  H   LIG d   1      12.714   9.208  -5.353  0.00  0.00     0.024 H 
ATOM     77  H   LIG d   1      11.753   9.596  -3.906  0.00  0.00     0.024 H 
ATOM     78  H   LIG d   1      12.682   8.079  -3.976  0.00  0.00     0.024 H 
ENDBRANCH  15  75
BRANCH   1  79
ATOM     79  C   LIG d   1      13.850   7.343  -8.685  0.00  0.00    -0.076 C 
ATOM     80  C   LIG d   1      14.673   8.220  -8.165  0.00  0.00    -0.099 C 
ATOM     81  H   LIG d   1      14.294   9.159  -7.786  0.00  0.00     0.053 H 
ATOM     82  H   LIG d   1      15.731   8.006  -8.116  0.00  0.00     0.053 H 
BRANCH  79  83
ATOM     83  C   LIG d   1      14.378   6.035  -9.214  0.00  0.00    -0.044 C 
ATOM     84  H   LIG d   1      14.135   5.947 -10.273  0.00  0.00     0.027 H 
ATOM     85  H   LIG d   1      15.460   6.001  -9.086  0.00  0.00     0.027 H 
ATOM     86  H   LIG d   1      13.921   5.211  -8.667  0.00  0.00     0.027 H 
ENDBRANCH  79  83
ENDBRANCH   1  79
BRANCH   5  87
ATOM     87  C   LIG d   1       9.560   8.475  -8.406  0.00  0.00     0.313 C 
ATOM     88  O   LIG d   1       8.657   9.098  -8.914  0.00  0.00    -0.250 OA
BRANCH  87  89
ATOM     89  O   LIG d   1       9.488   7.137  -8.320  0.00  0.00    -0.468 OA
BRANCH  89  90
ATOM     90  C   LIG d   1       8.927   6.445  -9.438  0.00  0.00     0.082 C 
ATOM     91  H   LIG d   1       9.451   6.738 -10.347  0.00  0.00     0.066 H 
ATOM     92  H   LIG d   1       9.031   5.370  -9.289  0.00  0.00     0.066 H 
ATOM     93  H   LIG d   1       7.870   6.699  -9.529  0.00  0.00     0.066 H 
ENDBRANCH  89  90
ENDBRANCH  87  89
ENDBRANCH   5  87
TORSDOF 11
ENDMDL
MODEL 8
REMARK VINA RESULT:      -5.0      4.814      9.257
REMARK  11 active torsions:
REMARK  status: ('A' for Active; 'I' for Inactive)
REMARK    1  A    between atoms: C_1  and  C_2 
REMARK    2  A    between atoms: C_2  and  C_4 
REMARK    3  A    between atoms: C_8  and  C_44 
REMARK    4  A    between atoms: C_17  and  C_43 
REMARK    5  A    between atoms: C_18  and  C_21 
REMARK    6  A    between atoms: C_26  and  C_42 
REMARK    7  A    between atoms: C_29  and  C_30 
REMARK    8  A    between atoms: C_39  and  C_40 
REMARK    9  A    between atoms: C_39  and  C_41 
REMARK   10  A    between atoms: C_44  and  O_46 
REMARK   11  A    between atoms: O_46  and  C_47 
ROOT
ATOM      1  C   LIG d   1      12.654   9.652  -1.581  0.00  0.00    -0.016 C 
ATOM      2  H   LIG d   1      12.611  10.197  -2.523  0.00  0.00     0.035 H 
ATOM      3  C   LIG d   1      12.111  10.517  -0.414  0.00  0.00    -0.045 C 
ATOM      4  C   LIG d   1      10.875   9.758   0.141  0.00  0.00    -0.036 C 
ATOM      5  C   LIG d   1      10.397   8.980  -1.096  0.00  0.00     0.071 C 
ATOM      6  C   LIG d   1      11.743   8.427  -1.626  0.00  0.00    -0.015 C 
ATOM      7  H   LIG d   1      12.141   7.701  -0.907  0.00  0.00     0.032 H 
ATOM      8  C   LIG d   1      11.512   7.769  -2.966  0.00  0.00    -0.031 C 
ATOM      9  H   LIG d   1      11.077   8.504  -3.651  0.00  0.00     0.031 H 
ATOM     10  C   LIG d   1      12.821   7.287  -3.592  0.00  0.00    -0.049 C 
ATOM     11  C   LIG d   1      12.540   6.616  -4.942  0.00  0.00    -0.049 C 
ATOM     12  C   LIG d   1      11.575   5.452  -4.739  0.00  0.00    -0.029 C 
ATOM     13  H   LIG d   1      12.070   4.783  -3.992  0.00  0.00     0.031 H 
ATOM     14  C   LIG d   1      10.269   5.937  -4.136  0.00  0.00    -0.023 C 
ATOM     15  C   LIG d   1      10.548   6.591  -2.772  0.00  0.00    -0.023 C 
ATOM     16  C   LIG d   1       9.239   7.040  -2.120  0.00  0.00    -0.046 C 
ATOM     17  C   LIG d   1       9.476   7.811  -0.812  0.00  0.00    -0.036 C 
ATOM     18  C   LIG d   1       9.286   4.780  -3.960  0.00  0.00    -0.046 C 
ATOM     19  C   LIG d   1       9.138   3.970  -5.239  0.00  0.00    -0.048 C 
ATOM     20  C   LIG d   1      10.462   3.451  -5.780  0.00  0.00    -0.023 C 
ATOM     21  H   LIG d   1      10.237   3.060  -6.818  0.00  0.00     0.032 H 
ATOM     22  C   LIG d   1      11.443   4.605  -5.987  0.00  0.00    -0.021 C 
ATOM     23  C   LIG d   1      12.828   4.045  -6.373  0.00  0.00    -0.018 C 
ATOM     24  C   LIG d   1      13.337   3.230  -5.218  0.00  0.00    -0.003 C 
ATOM     25  C   LIG d   1      14.641   3.212  -4.906  0.00  0.00    -0.048 C 
ATOM     26  C   LIG d   1      12.402   2.484  -4.487  0.00  0.00     0.165 C 
ATOM     27  O   LIG d   1      12.731   1.976  -3.437  0.00  0.00    -0.292 OA
ATOM     28  C   LIG d   1      11.015   2.273  -5.017  0.00  0.00     0.031 C 
ATOM     29  H   LIG d   1      12.872  10.610   0.360  0.00  0.00     0.027 H 
ATOM     30  H   LIG d   1      11.825  11.497  -0.777  0.00  0.00     0.027 H 
ATOM     31  H   LIG d   1      11.159   9.076   0.938  0.00  0.00     0.028 H 
ATOM     32  H   LIG d   1      10.106  10.458   0.470  0.00  0.00     0.028 H 
ATOM     33  H   LIG d   1      13.462   8.156  -3.774  0.00  0.00     0.027 H 
ATOM     34  H   LIG d   1      13.342   6.597  -2.935  0.00  0.00     0.027 H 
ATOM     35  H   LIG d   1      12.137   7.352  -5.633  0.00  0.00     0.027 H 
ATOM     36  H   LIG d   1      13.485   6.240  -5.340  0.00  0.00     0.027 H 
ATOM     37  H   LIG d   1       8.654   7.651  -2.796  0.00  0.00     0.027 H 
ATOM     38  H   LIG d   1       8.650   6.143  -1.886  0.00  0.00     0.027 H 
ATOM     39  H   LIG d   1       9.907   7.159  -0.055  0.00  0.00     0.028 H 
ATOM     40  H   LIG d   1       8.514   8.189  -0.443  0.00  0.00     0.028 H 
ATOM     41  H   LIG d   1       9.567   4.150  -3.128  0.00  0.00     0.027 H 
ATOM     42  H   LIG d   1       8.301   5.212  -3.713  0.00  0.00     0.027 H 
ATOM     43  H   LIG d   1       8.411   3.165  -5.103  0.00  0.00     0.027 H 
ATOM     44  H   LIG d   1       8.676   4.623  -6.006  0.00  0.00     0.027 H 
ATOM     45  H   LIG d   1      12.721   3.421  -7.256  0.00  0.00     0.032 H 
ATOM     46  H   LIG d   1      13.497   4.870  -6.571  0.00  0.00     0.032 H 
ATOM     47  H   LIG d   1      15.312   3.934  -5.346  0.00  0.00     0.063 H 
ENDROOT
BRANCH  25  48
ATOM     48  C   LIG d   1      15.157   2.209  -3.964  0.00  0.00    -0.025 A 
ATOM     49  C   LIG d   1      15.543   2.589  -2.672  0.00  0.00    -0.053 A 
ATOM     50  C   LIG d   1      16.021   1.641  -1.793  0.00  0.00    -0.043 A 
ATOM     51  H   LIG d   1      15.463   3.621  -2.365  0.00  0.00     0.062 H 
ATOM     52  C   LIG d   1      16.130   0.318  -2.187  0.00  0.00     0.041 A 
ATOM     53  H   LIG d   1      16.314   1.933  -0.795  0.00  0.00     0.063 H 
ATOM     54  C   LIG d   1      15.754  -0.066  -3.465  0.00  0.00    -0.043 A 
ATOM     55 CL   LIG d   1      16.737  -0.868  -1.074  0.00  0.00    -0.084 Cl
ATOM     56  C   LIG d   1      15.269   0.869  -4.354  0.00  0.00    -0.053 A 
ATOM     57  H   LIG d   1      15.841  -1.099  -3.764  0.00  0.00     0.063 H 
ATOM     58  H   LIG d   1      14.977   0.569  -5.348  0.00  0.00     0.062 H 
ENDBRANCH  25  48
BRANCH  22  59
ATOM     59  C   LIG d   1      10.996   5.424  -7.207  0.00  0.00    -0.059 C 
ATOM     60  H   LIG d   1      11.749   6.179  -7.435  0.00  0.00     0.024 H 
ATOM     61  H   LIG d   1      10.874   4.763  -8.065  0.00  0.00     0.024 H 
ATOM     62  H   LIG d   1      10.047   5.914  -6.988  0.00  0.00     0.024 H 
ENDBRANCH  22  59
BRANCH  28  63
ATOM     63  C   LIG d   1      10.120   1.830  -3.856  0.00  0.00    -0.052 C 
ATOM     64  H   LIG d   1      10.303   0.779  -3.637  0.00  0.00     0.024 H 
ATOM     65  H   LIG d   1      10.347   2.430  -2.974  0.00  0.00     0.024 H 
ATOM     66  H   LIG d   1       9.074   1.968  -4.130  0.00  0.00     0.024 H 
ENDBRANCH  28  63
BRANCH  28  67
ATOM     67  C   LIG d   1      11.083   1.064  -5.984  0.00  0.00    -0.052 C 
ATOM     68  H   LIG d   1      10.183   0.458  -5.873  0.00  0.00     0.024 H 
ATOM     69  H   LIG d   1      11.154   1.422  -7.011  0.00  0.00     0.024 H 
ATOM     70  H   LIG d   1      11.960   0.459  -5.749  0.00  0.00     0.024 H 
ENDBRANCH  28  67
BRANCH  14  71
ATOM     71  C   LIG d   1       9.591   6.993  -5.025  0.00  0.00    -0.059 C 
ATOM     72  H   LIG d   1      10.354   7.576  -5.542  0.00  0.00     0.024 H 
ATOM     73  H   LIG d   1       8.954   6.497  -5.756  0.00  0.00     0.024 H 
ATOM     74  H   LIG d   1       8.986   7.655  -4.405  0.00  0.00     0.024 H 
ENDBRANCH  14  71
BRANCH  15  75
ATOM     75  C   LIG d   1      11.185   5.557  -1.836  0.00  0.00    -0.059 C 
ATOM     76  H   LIG d   1      10.898   4.554  -2.153  0.00  0.00     0.024 H 
ATOM     77  H   LIG d   1      12.271   5.652  -1.874  0.00  0.00     0.024 H 
ATOM     78  H   LIG d   1      10.841   5.728  -0.816  0.00  0.00     0.024 H 
ENDBRANCH  15  75
BRANCH   1  79
ATOM     79  C   LIG d   1      14.076   9.237  -1.277  0.00  0.00    -0.076 C 
ATOM     80  C   LIG d   1      15.077   9.873  -1.834  0.00  0.00    -0.099 C 
ATOM     81  H   LIG d   1      14.886  10.694  -2.510  0.00  0.00     0.053 H 
ATOM     82  H   LIG d   1      16.093   9.577  -1.618  0.00  0.00     0.053 H 
BRANCH  79  83
ATOM     83  C   LIG d   1      14.341   8.092  -0.335  0.00  0.00    -0.044 C 
ATOM     84  H   LIG d   1      13.394   7.655  -0.018  0.00  0.00     0.027 H 
ATOM     85  H   LIG d   1      14.938   7.335  -0.841  0.00  0.00     0.027 H 
ATOM     86  H   LIG d   1      14.882   8.458   0.539  0.00  0.00     0.027 H 
ENDBRANCH  79  83
ENDBRANCH   1  79
BRANCH   5  87
ATOM     87  C   LIG d   1       9.757   9.944  -2.061  0.00  0.00     0.313 C 
ATOM     88  O   LIG d   1       8.793  10.590  -1.722  0.00  0.00    -0.250 OA
BRANCH  87  89
ATOM     89  O   LIG d   1      10.257  10.086  -3.299  0.00  0.00    -0.468 OA
BRANCH  89  90
ATOM     90  C   LIG d   1       9.442  10.769  -4.254  0.00  0.00     0.082 C 
ATOM     91  H   LIG d   1       9.969  11.649  -4.620  0.00  0.00     0.066 H 
ATOM     92  H   LIG d   1       9.224  10.102  -5.088  0.00  0.00     0.066 H 
ATOM     93  H   LIG d   1       8.508  11.075  -3.781  0.00  0.00     0.066 H 
ENDBRANCH  89  90
ENDBRANCH  87  89
ENDBRANCH   5  87
TORSDOF 11
ENDMDL
MODEL 9
REMARK VINA RESULT:      -5.0      4.366      7.908
REMARK  11 active torsions:
REMARK  status: ('A' for Active; 'I' for Inactive)
REMARK    1  A    between atoms: C_1  and  C_2 
REMARK    2  A    between atoms: C_2  and  C_4 
REMARK    3  A    between atoms: C_8  and  C_44 
REMARK    4  A    between atoms: C_17  and  C_43 
REMARK    5  A    between atoms: C_18  and  C_21 
REMARK    6  A    between atoms: C_26  and  C_42 
REMARK    7  A    between atoms: C_29  and  C_30 
REMARK    8  A    between atoms: C_39  and  C_40 
REMARK    9  A    between atoms: C_39  and  C_41 
REMARK   10  A    between atoms: C_44  and  O_46 
REMARK   11  A    between atoms: O_46  and  C_47 
ROOT
ATOM      1  C   LIG d   1       6.807   0.365  -4.934  0.00  0.00    -0.016 C 
ATOM      2  H   LIG d   1       6.131   1.208  -5.069  0.00  0.00     0.035 H 
ATOM      3  C   LIG d   1       6.918  -0.022  -3.436  0.00  0.00    -0.045 C 
ATOM      4  C   LIG d   1       6.388  -1.478  -3.331  0.00  0.00    -0.036 C 
ATOM      5  C   LIG d   1       5.410  -1.548  -4.517  0.00  0.00     0.071 C 
ATOM      6  C   LIG d   1       6.259  -0.880  -5.628  0.00  0.00    -0.015 C 
ATOM      7  H   LIG d   1       7.114  -1.524  -5.861  0.00  0.00     0.032 H 
ATOM      8  C   LIG d   1       5.397  -0.683  -6.853  0.00  0.00    -0.031 C 
ATOM      9  H   LIG d   1       4.530  -0.072  -6.582  0.00  0.00     0.031 H 
ATOM     10  C   LIG d   1       6.147   0.062  -7.957  0.00  0.00    -0.049 C 
ATOM     11  C   LIG d   1       5.244   0.230  -9.184  0.00  0.00    -0.049 C 
ATOM     12  C   LIG d   1       4.787  -1.143  -9.670  0.00  0.00    -0.029 C 
ATOM     13  H   LIG d   1       5.727  -1.714  -9.871  0.00  0.00     0.031 H 
ATOM     14  C   LIG d   1       4.025  -1.872  -8.578  0.00  0.00    -0.023 C 
ATOM     15  C   LIG d   1       4.939  -2.060  -7.355  0.00  0.00    -0.023 C 
ATOM     16  C   LIG d   1       4.209  -2.840  -6.260  0.00  0.00    -0.046 C 
ATOM     17  C   LIG d   1       5.038  -2.944  -4.970  0.00  0.00    -0.036 C 
ATOM     18  C   LIG d   1       3.539  -3.235  -9.069  0.00  0.00    -0.046 C 
ATOM     19  C   LIG d   1       2.804  -3.123 -10.396  0.00  0.00    -0.048 C 
ATOM     20  C   LIG d   1       3.622  -2.441 -11.482  0.00  0.00    -0.023 C 
ATOM     21  H   LIG d   1       2.899  -2.237 -12.329  0.00  0.00     0.032 H 
ATOM     22  C   LIG d   1       4.090  -1.064 -11.011  0.00  0.00    -0.021 C 
ATOM     23  C   LIG d   1       5.054  -0.460 -12.053  0.00  0.00    -0.018 C 
ATOM     24  C   LIG d   1       6.268  -1.341 -12.127  0.00  0.00    -0.003 C 
ATOM     25  C   LIG d   1       7.489  -0.822 -12.323  0.00  0.00    -0.048 C 
ATOM     26  C   LIG d   1       6.078  -2.723 -11.992  0.00  0.00     0.165 C 
ATOM     27  O   LIG d   1       7.037  -3.448 -11.846  0.00  0.00    -0.292 OA
ATOM     28  C   LIG d   1       4.701  -3.313 -12.074  0.00  0.00     0.031 C 
ATOM     29  H   LIG d   1       7.961   0.020  -3.122  0.00  0.00     0.027 H 
ATOM     30  H   LIG d   1       6.318   0.647  -2.832  0.00  0.00     0.027 H 
ATOM     31  H   LIG d   1       7.192  -2.199  -3.453  0.00  0.00     0.028 H 
ATOM     32  H   LIG d   1       5.855  -1.630  -2.391  0.00  0.00     0.028 H 
ATOM     33  H   LIG d   1       6.407   1.061  -7.591  0.00  0.00     0.027 H 
ATOM     34  H   LIG d   1       7.059  -0.458  -8.235  0.00  0.00     0.027 H 
ATOM     35  H   LIG d   1       4.398   0.861  -8.924  0.00  0.00     0.027 H 
ATOM     36  H   LIG d   1       5.821   0.719  -9.970  0.00  0.00     0.027 H 
ATOM     37  H   LIG d   1       3.248  -2.394  -6.035  0.00  0.00     0.027 H 
ATOM     38  H   LIG d   1       4.026  -3.857  -6.632  0.00  0.00     0.027 H 
ATOM     39  H   LIG d   1       5.930  -3.544  -5.135  0.00  0.00     0.028 H 
ATOM     40  H   LIG d   1       4.429  -3.427  -4.195  0.00  0.00     0.028 H 
ATOM     41  H   LIG d   1       4.352  -3.943  -9.130  0.00  0.00     0.027 H 
ATOM     42  H   LIG d   1       2.830  -3.629  -8.318  0.00  0.00     0.027 H 
ATOM     43  H   LIG d   1       2.438  -4.102 -10.717  0.00  0.00     0.027 H 
ATOM     44  H   LIG d   1       1.880  -2.534 -10.228  0.00  0.00     0.027 H 
ATOM     45  H   LIG d   1       4.553  -0.426 -13.016  0.00  0.00     0.032 H 
ATOM     46  H   LIG d   1       5.333   0.535 -11.736  0.00  0.00     0.032 H 
ATOM     47  H   LIG d   1       7.645   0.243 -12.229  0.00  0.00     0.063 H 
ENDROOT
BRANCH  25  48
ATOM     48  C   LIG d   1       8.615  -1.701 -12.667  0.00  0.00    -0.025 A 
ATOM     49  C   LIG d   1       9.560  -2.049 -11.694  0.00  0.00    -0.053 A 
ATOM     50  C   LIG d   1      10.610  -2.878 -12.023  0.00  0.00    -0.043 A 
ATOM     51  H   LIG d   1       9.464  -1.670 -10.687  0.00  0.00     0.062 H 
ATOM     52  C   LIG d   1      10.738  -3.361 -13.315  0.00  0.00     0.041 A 
ATOM     53  H   LIG d   1      11.336  -3.150 -11.271  0.00  0.00     0.063 H 
ATOM     54  C   LIG d   1       9.810  -3.018 -14.286  0.00  0.00    -0.043 A 
ATOM     55 CL   LIG d   1      12.067  -4.401 -13.722  0.00  0.00    -0.084 Cl
ATOM     56  C   LIG d   1       8.751  -2.193 -13.970  0.00  0.00    -0.053 A 
ATOM     57  H   LIG d   1       9.916  -3.397 -15.290  0.00  0.00     0.063 H 
ATOM     58  H   LIG d   1       8.029  -1.928 -14.727  0.00  0.00     0.062 H 
ENDBRANCH  25  48
BRANCH  22  59
ATOM     59  C   LIG d   1       2.885  -0.110 -10.989  0.00  0.00    -0.059 C 
ATOM     60  H   LIG d   1       2.409  -0.103 -11.970  0.00  0.00     0.024 H 
ATOM     61  H   LIG d   1       2.167  -0.448 -10.241  0.00  0.00     0.024 H 
ATOM     62  H   LIG d   1       3.222   0.896 -10.742  0.00  0.00     0.024 H 
ENDBRANCH  22  59
BRANCH  28  63
ATOM     63  C   LIG d   1       4.744  -4.718 -11.467  0.00  0.00    -0.052 C 
ATOM     64  H   LIG d   1       4.771  -5.458 -12.266  0.00  0.00     0.024 H 
ATOM     65  H   LIG d   1       5.636  -4.819 -10.848  0.00  0.00     0.024 H 
ATOM     66  H   LIG d   1       3.856  -4.877 -10.854  0.00  0.00     0.024 H 
ENDBRANCH  28  63
BRANCH  28  67
ATOM     67  C   LIG d   1       4.386  -3.511 -13.579  0.00  0.00    -0.052 C 
ATOM     68  H   LIG d   1       4.859  -4.427 -13.932  0.00  0.00     0.024 H 
ATOM     69  H   LIG d   1       3.308  -3.582 -13.719  0.00  0.00     0.024 H 
ATOM     70  H   LIG d   1       4.770  -2.661 -14.145  0.00  0.00     0.024 H 
ENDBRANCH  28  67
BRANCH  14  71
ATOM     71  C   LIG d   1       2.793  -1.076  -8.117  0.00  0.00    -0.059 C 
ATOM     72  H   LIG d   1       3.053  -0.480  -7.241  0.00  0.00     0.024 H 
ATOM     73  H   LIG d   1       2.465  -0.418  -8.920  0.00  0.00     0.024 H 
ATOM     74  H   LIG d   1       1.989  -1.767  -7.860  0.00  0.00     0.024 H 
ENDBRANCH  14  71
BRANCH  15  75
ATOM     75  C   LIG d   1       6.162  -2.890  -7.760  0.00  0.00    -0.059 C 
ATOM     76  H   LIG d   1       6.549  -2.527  -8.712  0.00  0.00     0.024 H 
ATOM     77  H   LIG d   1       6.935  -2.796  -6.996  0.00  0.00     0.024 H 
ATOM     78  H   LIG d   1       5.875  -3.937  -7.859  0.00  0.00     0.024 H 
ENDBRANCH  15  75
BRANCH   1  79
ATOM     79  C   LIG d   1       8.181   0.700  -5.468  0.00  0.00    -0.076 C 
ATOM     80  C   LIG d   1       8.511   1.949  -5.688  0.00  0.00    -0.099 C 
ATOM     81  H   LIG d   1       7.802   2.739  -5.487  0.00  0.00     0.053 H 
ATOM     82  H   LIG d   1       9.492   2.189  -6.070  0.00  0.00     0.053 H 
BRANCH  79  83
ATOM     83  C   LIG d   1       9.169  -0.402  -5.748  0.00  0.00    -0.044 C 
ATOM     84  H   LIG d   1       9.262  -0.542  -6.825  0.00  0.00     0.027 H 
ATOM     85  H   LIG d   1      10.140  -0.134  -5.332  0.00  0.00     0.027 H 
ATOM     86  H   LIG d   1       8.820  -1.328  -5.291  0.00  0.00     0.027 H 
ENDBRANCH  79  83
ENDBRANCH   1  79
BRANCH   5  87
ATOM     87  C   LIG d   1       4.179  -0.747  -4.181  0.00  0.00     0.313 C 
ATOM     88  O   LIG d   1       3.514  -1.036  -3.213  0.00  0.00    -0.250 OA
BRANCH  87  89
ATOM     89  O   LIG d   1       3.819   0.288  -4.956  0.00  0.00    -0.468 OA
BRANCH  89  90
ATOM     90  C   LIG d   1       2.441   0.665  -4.937  0.00  0.00     0.082 C 
ATOM     91  H   LIG d   1       2.298   1.554  -5.550  0.00  0.00     0.066 H 
ATOM     92  H   LIG d   1       1.836  -0.151  -5.334  0.00  0.00     0.066 H 
ATOM     93  H   LIG d   1       2.136   0.877  -3.911  0.00  0.00     0.066 H 
ENDBRANCH  89  90
ENDBRANCH  87  89
ENDBRANCH   5  87
TORSDOF 11
ENDMDL
