MODEL 1
REMARK VINA RESULT:      -5.9      0.000      0.000
REMARK  9 active torsions:
REMARK  status: ('A' for Active; 'I' for Inactive)
REMARK    1  A    between atoms: C_1  and  N_2 
REMARK    2  A    between atoms: N_5  and  C_8 
REMARK    3  A    between atoms: C_10  and  C_20 
REMARK    4  A    between atoms: C_13  and  C_18 
REMARK    5  A    between atoms: C_15  and  O_17 
REMARK    6  A    between atoms: C_18  and  O_19 
REMARK    7  A    between atoms: C_20  and  N_21 
REMARK    8  A    between atoms: N_21  and  C_22 
REMARK    9  A    between atoms: C_22  and  C_23 
ROOT
ATOM      1  C   LIG d   1       5.551  -3.321  -8.276  0.00  0.00     0.070 C 
ATOM      2  H   LIG d   1       6.022  -3.163  -9.257  0.00  0.00     0.052 H 
ATOM      3  C   LIG d   1       6.553  -3.649  -7.152  0.00  0.00     0.117 C 
ATOM      4  H   LIG d   1       7.570  -3.832  -7.529  0.00  0.00     0.067 H 
ATOM      5  O   LIG d   1       6.108  -4.863  -6.523  0.00  0.00    -0.362 OA
ATOM      6  C   LIG d   1       5.354  -5.598  -7.511  0.00  0.00     0.110 C 
ATOM      7  H   LIG d   1       6.039  -6.171  -8.154  0.00  0.00     0.065 H 
ATOM      8  C   LIG d   1       4.543  -4.496  -8.240  0.00  0.00     0.102 C 
ATOM      9  H   LIG d   1       4.104  -4.781  -9.208  0.00  0.00     0.064 H 
ENDROOT
BRANCH   3  10
ATOM     10  C   LIG d   1       6.581  -2.511  -6.131  0.00  0.00    -0.005 C 
ATOM     11  H   LIG d   1       7.562  -2.014  -6.162  0.00  0.00     0.084 H 
ATOM     12  H   LIG d   1       5.794  -1.782  -6.373  0.00  0.00     0.084 H 
BRANCH  10  13
ATOM     13  N   LIG d   1       6.348  -3.053  -4.786  0.00  0.00     0.232 N 
ATOM     14  H   LIG d   1       5.270  -3.044  -4.568  0.00  0.00     0.202 HD
ATOM     15  H   LIG d   1       6.723  -4.086  -4.737  0.00  0.00     0.202 HD
BRANCH  13  16
ATOM     16  C   LIG d   1       7.041  -2.252  -3.768  0.00  0.00    -0.008 C 
ATOM     17  H   LIG d   1       7.376  -2.908  -2.951  0.00  0.00     0.087 H 
ATOM     18  H   LIG d   1       7.912  -1.757  -4.221  0.00  0.00     0.087 H 
BRANCH  16  19
ATOM     19  C   LIG d   1       6.099  -1.210  -3.221  0.00  0.00    -0.003 A 
ATOM     20  C   LIG d   1       4.939  -1.598  -2.577  0.00  0.00    -0.051 A 
ATOM     21  C   LIG d   1       4.075  -0.643  -2.075  0.00  0.00    -0.026 A 
ATOM     22  H   LIG d   1       4.708  -2.647  -2.464  0.00  0.00     0.062 H 
ATOM     23  C   LIG d   1       4.371   0.702  -2.219  0.00  0.00     0.123 A 
ATOM     24  H   LIG d   1       3.169  -0.946  -1.572  0.00  0.00     0.065 H 
ATOM     25  C   LIG d   1       5.532   1.089  -2.866  0.00  0.00    -0.026 A 
ATOM     26  F   LIG d   1       3.527   1.636  -1.729  0.00  0.00    -0.205 F 
ATOM     27  C   LIG d   1       6.398   0.132  -3.361  0.00  0.00    -0.051 A 
ATOM     28  H   LIG d   1       5.764   2.137  -2.978  0.00  0.00     0.065 H 
ATOM     29  H   LIG d   1       7.307   0.433  -3.861  0.00  0.00     0.062 H 
ENDBRANCH  16  19
ENDBRANCH  13  16
ENDBRANCH  10  13
ENDBRANCH   3  10
BRANCH   1  30
ATOM     30  N   LIG d   1       4.869  -2.050  -8.001  0.00  0.00    -0.292 N 
ATOM     31  C   LIG d   1       5.698  -0.908  -8.412  0.00  0.00     0.012 C 
ATOM     32  C   LIG d   1       4.988   0.395  -8.037  0.00  0.00     0.011 C 
ATOM     33  H   LIG d   1       5.855  -0.940  -9.499  0.00  0.00     0.044 H 
ATOM     34  H   LIG d   1       6.670  -0.957  -7.899  0.00  0.00     0.044 H 
ATOM     35  N   LIG d   1       3.673   0.440  -8.692  0.00  0.00    -0.303 N 
ATOM     36  H   LIG d   1       5.593   1.252  -8.369  0.00  0.00     0.044 H 
ATOM     37  H   LIG d   1       4.855   0.441  -6.946  0.00  0.00     0.044 H 
ATOM     38  C   LIG d   1       2.844  -0.702  -8.282  0.00  0.00     0.011 C 
ATOM     39  C   LIG d   1       3.555  -2.006  -8.657  0.00  0.00     0.012 C 
ATOM     40  H   LIG d   1       2.687  -0.669  -7.194  0.00  0.00     0.044 H 
ATOM     41  H   LIG d   1       1.873  -0.652  -8.795  0.00  0.00     0.044 H 
ATOM     42  H   LIG d   1       3.687  -2.051  -9.748  0.00  0.00     0.044 H 
ATOM     43  H   LIG d   1       2.950  -2.862  -8.325  0.00  0.00     0.044 H 
BRANCH  35  44
ATOM     44  C   LIG d   1       2.991   1.712  -8.418  0.00  0.00    -0.013 C 
ATOM     45  H   LIG d   1       3.685   2.546  -8.594  0.00  0.00     0.039 H 
ATOM     46  H   LIG d   1       2.656   1.729  -7.371  0.00  0.00     0.039 H 
ATOM     47  H   LIG d   1       2.121   1.812  -9.083  0.00  0.00     0.039 H 
ENDBRANCH  35  44
ENDBRANCH   1  30
BRANCH   8  48
ATOM     48  O   LIG d   1       3.376  -4.144  -7.495  0.00  0.00    -0.388 OA
ATOM     49  H   LIG d   1       3.299  -3.151  -7.029  0.00  0.00     0.210 HD
ENDBRANCH   8  48
BRANCH   6  50
ATOM     50  C   LIG d   1       4.415  -6.600  -6.837  0.00  0.00     0.073 C 
ATOM     51  H   LIG d   1       3.584  -6.837  -7.517  0.00  0.00     0.058 H 
ATOM     52  H   LIG d   1       4.970  -7.521  -6.600  0.00  0.00     0.058 H 
BRANCH  50  53
ATOM     53  O   LIG d   1       3.898  -6.032  -5.632  0.00  0.00    -0.392 OA
ATOM     54  H   LIG d   1       4.258  -6.391  -4.656  0.00  0.00     0.209 HD
ENDBRANCH  50  53
ENDBRANCH   6  50
TORSDOF 9
ENDMDL
MODEL 2
REMARK VINA RESULT:      -5.9      2.289      4.338
REMARK  9 active torsions:
REMARK  status: ('A' for Active; 'I' for Inactive)
REMARK    1  A    between atoms: C_1  and  N_2 
REMARK    2  A    between atoms: N_5  and  C_8 
REMARK    3  A    between atoms: C_10  and  C_20 
REMARK    4  A    between atoms: C_13  and  C_18 
REMARK    5  A    between atoms: C_15  and  O_17 
REMARK    6  A    between atoms: C_18  and  O_19 
REMARK    7  A    between atoms: C_20  and  N_21 
REMARK    8  A    between atoms: N_21  and  C_22 
REMARK    9  A    between atoms: C_22  and  C_23 
ROOT
ATOM      1  C   LIG d   1       5.999  -1.494  -8.011  0.00  0.00     0.070 C 
ATOM      2  H   LIG d   1       6.570  -1.528  -8.950  0.00  0.00     0.052 H 
ATOM      3  C   LIG d   1       4.844  -2.512  -7.949  0.00  0.00     0.117 C 
ATOM      4  H   LIG d   1       4.665  -3.011  -8.913  0.00  0.00     0.067 H 
ATOM      5  O   LIG d   1       3.650  -1.784  -7.617  0.00  0.00    -0.362 OA
ATOM      6  C   LIG d   1       3.838  -0.430  -8.082  0.00  0.00     0.110 C 
ATOM      7  H   LIG d   1       3.592  -0.365  -9.153  0.00  0.00     0.065 H 
ATOM      8  C   LIG d   1       5.319  -0.131  -7.734  0.00  0.00     0.102 C 
ATOM      9  H   LIG d   1       5.766   0.740  -8.237  0.00  0.00     0.064 H 
ENDROOT
BRANCH   3  10
ATOM     10  C   LIG d   1       5.132  -3.562  -6.875  0.00  0.00    -0.005 C 
ATOM     11  H   LIG d   1       4.979  -4.568  -7.295  0.00  0.00     0.084 H 
ATOM     12  H   LIG d   1       6.174  -3.462  -6.535  0.00  0.00     0.084 H 
BRANCH  10  13
ATOM     13  N   LIG d   1       4.225  -3.362  -5.738  0.00  0.00     0.232 N 
ATOM     14  H   LIG d   1       3.817  -2.341  -5.770  0.00  0.00     0.202 HD
ATOM     15  H   LIG d   1       3.401  -4.088  -5.794  0.00  0.00     0.202 HD
BRANCH  13  16
ATOM     16  C   LIG d   1       4.930  -3.547  -4.463  0.00  0.00    -0.008 C 
ATOM     17  H   LIG d   1       4.467  -4.375  -3.905  0.00  0.00     0.087 H 
ATOM     18  H   LIG d   1       5.986  -3.784  -4.659  0.00  0.00     0.087 H 
BRANCH  16  19
ATOM     19  C   LIG d   1       4.841  -2.281  -3.650  0.00  0.00    -0.003 A 
ATOM     20  C   LIG d   1       3.635  -1.906  -3.087  0.00  0.00    -0.051 A 
ATOM     21  C   LIG d   1       3.552  -0.744  -2.341  0.00  0.00    -0.026 A 
ATOM     22  H   LIG d   1       2.758  -2.519  -3.230  0.00  0.00     0.062 H 
ATOM     23  C   LIG d   1       4.677   0.042  -2.159  0.00  0.00     0.123 A 
ATOM     24  H   LIG d   1       2.610  -0.451  -1.902  0.00  0.00     0.065 H 
ATOM     25  C   LIG d   1       5.884  -0.335  -2.724  0.00  0.00    -0.026 A 
ATOM     26  F   LIG d   1       4.597   1.177  -1.430  0.00  0.00    -0.205 F 
ATOM     27  C   LIG d   1       5.965  -1.500  -3.464  0.00  0.00    -0.051 A 
ATOM     28  H   LIG d   1       6.761   0.278  -2.582  0.00  0.00     0.065 H 
ATOM     29  H   LIG d   1       6.908  -1.797  -3.900  0.00  0.00     0.062 H 
ENDBRANCH  16  19
ENDBRANCH  13  16
ENDBRANCH  10  13
ENDBRANCH   3  10
BRANCH   1  30
ATOM     30  N   LIG d   1       6.999  -1.789  -6.976  0.00  0.00    -0.292 N 
ATOM     31  C   LIG d   1       7.787  -2.978  -7.330  0.00  0.00     0.012 C 
ATOM     32  C   LIG d   1       8.761  -3.298  -6.193  0.00  0.00     0.011 C 
ATOM     33  H   LIG d   1       8.352  -2.785  -8.253  0.00  0.00     0.044 H 
ATOM     34  H   LIG d   1       7.112  -3.833  -7.485  0.00  0.00     0.044 H 
ATOM     35  N   LIG d   1       9.636  -2.140  -5.962  0.00  0.00    -0.303 N 
ATOM     36  H   LIG d   1       9.372  -4.170  -6.467  0.00  0.00     0.044 H 
ATOM     37  H   LIG d   1       8.196  -3.519  -5.276  0.00  0.00     0.044 H 
ATOM     38  C   LIG d   1       8.849  -0.950  -5.609  0.00  0.00     0.011 C 
ATOM     39  C   LIG d   1       7.875  -0.631  -6.746  0.00  0.00     0.012 C 
ATOM     40  H   LIG d   1       8.285  -1.145  -4.685  0.00  0.00     0.044 H 
ATOM     41  H   LIG d   1       9.525  -0.097  -5.453  0.00  0.00     0.044 H 
ATOM     42  H   LIG d   1       8.441  -0.410  -7.663  0.00  0.00     0.044 H 
ATOM     43  H   LIG d   1       7.264   0.242  -6.472  0.00  0.00     0.044 H 
BRANCH  35  44
ATOM     44  C   LIG d   1      10.638  -2.435  -4.928  0.00  0.00    -0.013 C 
ATOM     45  H   LIG d   1      10.572  -3.495  -4.644  0.00  0.00     0.039 H 
ATOM     46  H   LIG d   1      10.448  -1.807  -4.045  0.00  0.00     0.039 H 
ATOM     47  H   LIG d   1      11.642  -2.222  -5.320  0.00  0.00     0.039 H 
ENDBRANCH  35  44
ENDBRANCH   1  30
BRANCH   8  48
ATOM     48  O   LIG d   1       5.455   0.237  -6.359  0.00  0.00    -0.388 OA
ATOM     49  H   LIG d   1       6.095  -0.357  -5.691  0.00  0.00     0.210 HD
ENDBRANCH   8  48
BRANCH   6  50
ATOM     50  C   LIG d   1       2.906   0.529  -7.341  0.00  0.00     0.073 C 
ATOM     51  H   LIG d   1       3.420   1.488  -7.179  0.00  0.00     0.058 H 
ATOM     52  H   LIG d   1       1.998   0.696  -7.940  0.00  0.00     0.058 H 
BRANCH  50  53
ATOM     53  O   LIG d   1       2.545  -0.038  -6.079  0.00  0.00    -0.392 OA
ATOM     54  H   LIG d   1       1.500  -0.316  -5.879  0.00  0.00     0.209 HD
ENDBRANCH  50  53
ENDBRANCH   6  50
TORSDOF 9
ENDMDL
MODEL 3
REMARK VINA RESULT:      -5.8      2.906      5.418
REMARK  9 active torsions:
REMARK  status: ('A' for Active; 'I' for Inactive)
REMARK    1  A    between atoms: C_1  and  N_2 
REMARK    2  A    between atoms: N_5  and  C_8 
REMARK    3  A    between atoms: C_10  and  C_20 
REMARK    4  A    between atoms: C_13  and  C_18 
REMARK    5  A    between atoms: C_15  and  O_17 
REMARK    6  A    between atoms: C_18  and  O_19 
REMARK    7  A    between atoms: C_20  and  N_21 
REMARK    8  A    between atoms: N_21  and  C_22 
REMARK    9  A    between atoms: C_22  and  C_23 
ROOT
ATOM      1  C   LIG d   1       6.105  -2.316  -3.941  0.00  0.00     0.070 C 
ATOM      2  H   LIG d   1       6.693  -2.519  -3.034  0.00  0.00     0.052 H 
ATOM      3  C   LIG d   1       4.585  -2.258  -3.696  0.00  0.00     0.117 C 
ATOM      4  H   LIG d   1       4.304  -2.583  -2.683  0.00  0.00     0.067 H 
ATOM      5  O   LIG d   1       3.967  -3.167  -4.622  0.00  0.00    -0.362 OA
ATOM      6  C   LIG d   1       4.947  -4.181  -4.934  0.00  0.00     0.110 C 
ATOM      7  H   LIG d   1       4.943  -4.958  -4.154  0.00  0.00     0.065 H 
ATOM      8  C   LIG d   1       6.270  -3.381  -5.052  0.00  0.00     0.102 C 
ATOM      9  H   LIG d   1       7.196  -3.974  -5.015  0.00  0.00     0.064 H 
ENDROOT
BRANCH   3  10
ATOM     10  C   LIG d   1       4.073  -0.837  -3.938  0.00  0.00    -0.005 C 
ATOM     11  H   LIG d   1       3.552  -0.476  -3.038  0.00  0.00     0.084 H 
ATOM     12  H   LIG d   1       4.922  -0.174  -4.160  0.00  0.00     0.084 H 
BRANCH  10  13
ATOM     13  N   LIG d   1       3.143  -0.838  -5.074  0.00  0.00     0.232 N 
ATOM     14  H   LIG d   1       3.546  -1.472  -5.878  0.00  0.00     0.202 HD
ATOM     15  H   LIG d   1       2.168  -1.233  -4.750  0.00  0.00     0.202 HD
BRANCH  13  16
ATOM     16  C   LIG d   1       2.950   0.521  -5.598  0.00  0.00    -0.008 C 
ATOM     17  H   LIG d   1       1.983   0.914  -5.250  0.00  0.00     0.087 H 
ATOM     18  H   LIG d   1       3.760   1.171  -5.238  0.00  0.00     0.087 H 
BRANCH  16  19
ATOM     19  C   LIG d   1       2.965   0.486  -7.105  0.00  0.00    -0.003 A 
ATOM     20  C   LIG d   1       2.861   1.662  -7.823  0.00  0.00    -0.051 A 
ATOM     21  C   LIG d   1       2.876   1.632  -9.206  0.00  0.00    -0.026 A 
ATOM     22  H   LIG d   1       2.769   2.605  -7.306  0.00  0.00     0.062 H 
ATOM     23  C   LIG d   1       2.994   0.422  -9.869  0.00  0.00     0.123 A 
ATOM     24  H   LIG d   1       2.794   2.551  -9.767  0.00  0.00     0.065 H 
ATOM     25  C   LIG d   1       3.097  -0.755  -9.148  0.00  0.00    -0.026 A 
ATOM     26  F   LIG d   1       3.009   0.391 -11.220  0.00  0.00    -0.205 F 
ATOM     27  C   LIG d   1       3.089  -0.721  -7.766  0.00  0.00    -0.051 A 
ATOM     28  H   LIG d   1       3.190  -1.699  -9.665  0.00  0.00     0.065 H 
ATOM     29  H   LIG d   1       3.175  -1.639  -7.203  0.00  0.00     0.062 H 
ENDBRANCH  16  19
ENDBRANCH  13  16
ENDBRANCH  10  13
ENDBRANCH   3  10
BRANCH   1  30
ATOM     30  N   LIG d   1       6.602  -1.013  -4.401  0.00  0.00    -0.292 N 
ATOM     31  C   LIG d   1       6.702  -0.063  -3.283  0.00  0.00     0.012 C 
ATOM     32  C   LIG d   1       7.145   1.302  -3.816  0.00  0.00     0.011 C 
ATOM     33  H   LIG d   1       7.439  -0.429  -2.554  0.00  0.00     0.044 H 
ATOM     34  H   LIG d   1       5.720   0.035  -2.796  0.00  0.00     0.044 H 
ATOM     35  N   LIG d   1       8.438   1.161  -4.501  0.00  0.00    -0.303 N 
ATOM     36  H   LIG d   1       7.249   2.007  -2.978  0.00  0.00     0.044 H 
ATOM     37  H   LIG d   1       6.395   1.682  -4.525  0.00  0.00     0.044 H 
ATOM     38  C   LIG d   1       8.339   0.211  -5.618  0.00  0.00     0.011 C 
ATOM     39  C   LIG d   1       7.895  -1.154  -5.085  0.00  0.00     0.012 C 
ATOM     40  H   LIG d   1       7.601   0.579  -6.346  0.00  0.00     0.044 H 
ATOM     41  H   LIG d   1       9.320   0.114  -6.105  0.00  0.00     0.044 H 
ATOM     42  H   LIG d   1       8.645  -1.533  -4.377  0.00  0.00     0.044 H 
ATOM     43  H   LIG d   1       7.791  -1.859  -5.923  0.00  0.00     0.044 H 
BRANCH  35  44
ATOM     44  C   LIG d   1       8.936   2.464  -4.960  0.00  0.00    -0.013 C 
ATOM     45  H   LIG d   1       8.230   3.253  -4.661  0.00  0.00     0.039 H 
ATOM     46  H   LIG d   1       9.031   2.455  -6.056  0.00  0.00     0.039 H 
ATOM     47  H   LIG d   1       9.918   2.661  -4.508  0.00  0.00     0.039 H 
ENDBRANCH  35  44
ENDBRANCH   1  30
BRANCH   8  48
ATOM     48  O   LIG d   1       6.380  -2.766  -6.337  0.00  0.00    -0.388 OA
ATOM     49  H   LIG d   1       5.490  -2.661  -6.975  0.00  0.00     0.210 HD
ENDBRANCH   8  48
BRANCH   6  50
ATOM     50  C   LIG d   1       4.611  -4.866  -6.261  0.00  0.00     0.073 C 
ATOM     51  H   LIG d   1       4.907  -4.213  -7.095  0.00  0.00     0.058 H 
ATOM     52  H   LIG d   1       5.155  -5.820  -6.329  0.00  0.00     0.058 H 
BRANCH  50  53
ATOM     53  O   LIG d   1       3.205  -5.113  -6.325  0.00  0.00    -0.392 OA
ATOM     54  H   LIG d   1       2.834  -6.108  -6.614  0.00  0.00     0.209 HD
ENDBRANCH  50  53
ENDBRANCH   6  50
TORSDOF 9
ENDMDL
MODEL 4
REMARK VINA RESULT:      -5.8      2.781      4.737
REMARK  9 active torsions:
REMARK  status: ('A' for Active; 'I' for Inactive)
REMARK    1  A    between atoms: C_1  and  N_2 
REMARK    2  A    between atoms: N_5  and  C_8 
REMARK    3  A    between atoms: C_10  and  C_20 
REMARK    4  A    between atoms: C_13  and  C_18 
REMARK    5  A    between atoms: C_15  and  O_17 
REMARK    6  A    between atoms: C_18  and  O_19 
REMARK    7  A    between atoms: C_20  and  N_21 
REMARK    8  A    between atoms: N_21  and  C_22 
REMARK    9  A    between atoms: C_22  and  C_23 
ROOT
ATOM      1  C   LIG d   1       2.854  -0.778  -9.077  0.00  0.00     0.070 C 
ATOM      2  H   LIG d   1       1.802  -1.098  -9.041  0.00  0.00     0.052 H 
ATOM      3  C   LIG d   1       3.465  -0.494  -7.691  0.00  0.00     0.117 C 
ATOM      4  H   LIG d   1       2.715  -0.502  -6.886  0.00  0.00     0.067 H 
ATOM      5  O   LIG d   1       4.029   0.826  -7.736  0.00  0.00    -0.362 OA
ATOM      6  C   LIG d   1       3.296   1.566  -8.736  0.00  0.00     0.110 C 
ATOM      7  H   LIG d   1       2.369   1.967  -8.300  0.00  0.00     0.065 H 
ATOM      8  C   LIG d   1       3.089   0.530  -9.871  0.00  0.00     0.102 C 
ATOM      9  H   LIG d   1       2.323   0.782 -10.619  0.00  0.00     0.064 H 
ENDROOT
BRANCH   3  10
ATOM     10  C   LIG d   1       4.557  -1.520  -7.384  0.00  0.00    -0.005 C 
ATOM     11  H   LIG d   1       4.638  -2.232  -8.219  0.00  0.00     0.084 H 
ATOM     12  H   LIG d   1       5.518  -1.003  -7.249  0.00  0.00     0.084 H 
BRANCH  10  13
ATOM     13  N   LIG d   1       4.215  -2.245  -6.153  0.00  0.00     0.232 N 
ATOM     14  H   LIG d   1       3.400  -1.721  -5.632  0.00  0.00     0.202 HD
ATOM     15  H   LIG d   1       3.892  -3.266  -6.406  0.00  0.00     0.202 HD
BRANCH  13  16
ATOM     16  C   LIG d   1       5.372  -2.328  -5.252  0.00  0.00    -0.008 C 
ATOM     17  H   LIG d   1       5.469  -3.356  -4.872  0.00  0.00     0.087 H 
ATOM     18  H   LIG d   1       6.285  -2.054  -5.802  0.00  0.00     0.087 H 
BRANCH  16  19
ATOM     19  C   LIG d   1       5.178  -1.381  -4.095  0.00  0.00    -0.003 A 
ATOM     20  C   LIG d   1       4.474  -1.791  -2.979  0.00  0.00    -0.051 A 
ATOM     21  C   LIG d   1       4.296  -0.924  -1.917  0.00  0.00    -0.026 A 
ATOM     22  H   LIG d   1       4.063  -2.789  -2.935  0.00  0.00     0.062 H 
ATOM     23  C   LIG d   1       4.822   0.356  -1.974  0.00  0.00     0.123 A 
ATOM     24  H   LIG d   1       3.745  -1.244  -1.045  0.00  0.00     0.065 H 
ATOM     25  C   LIG d   1       5.527   0.765  -3.093  0.00  0.00    -0.026 A 
ATOM     26  F   LIG d   1       4.648   1.204  -0.937  0.00  0.00    -0.205 F 
ATOM     27  C   LIG d   1       5.709  -0.106  -4.150  0.00  0.00    -0.051 A 
ATOM     28  H   LIG d   1       5.938   1.762  -3.138  0.00  0.00     0.065 H 
ATOM     29  H   LIG d   1       6.264   0.211  -5.022  0.00  0.00     0.062 H 
ENDBRANCH  16  19
ENDBRANCH  13  16
ENDBRANCH  10  13
ENDBRANCH   3  10
BRANCH   1  30
ATOM     30  N   LIG d   1       3.545  -1.902  -9.723  0.00  0.00    -0.292 N 
ATOM     31  C   LIG d   1       3.005  -3.188  -9.258  0.00  0.00     0.012 C 
ATOM     32  C   LIG d   1       3.803  -4.331  -9.891  0.00  0.00     0.011 C 
ATOM     33  H   LIG d   1       1.949  -3.272  -9.550  0.00  0.00     0.044 H 
ATOM     34  H   LIG d   1       3.089  -3.247  -8.162  0.00  0.00     0.044 H 
ATOM     35  N   LIG d   1       3.722  -4.228 -11.355  0.00  0.00    -0.303 N 
ATOM     36  H   LIG d   1       3.384  -5.295  -9.567  0.00  0.00     0.044 H 
ATOM     37  H   LIG d   1       4.855  -4.265  -9.577  0.00  0.00     0.044 H 
ATOM     38  C   LIG d   1       4.260  -2.943 -11.821  0.00  0.00     0.011 C 
ATOM     39  C   LIG d   1       3.463  -1.799 -11.186  0.00  0.00     0.012 C 
ATOM     40  H   LIG d   1       5.317  -2.860 -11.527  0.00  0.00     0.044 H 
ATOM     41  H   LIG d   1       4.177  -2.885 -12.916  0.00  0.00     0.044 H 
ATOM     42  H   LIG d   1       2.412  -1.867 -11.501  0.00  0.00     0.044 H 
ATOM     43  H   LIG d   1       3.882  -0.836 -11.510  0.00  0.00     0.044 H 
BRANCH  35  44
ATOM     44  C   LIG d   1       4.412  -5.353 -12.001  0.00  0.00    -0.013 C 
ATOM     45  H   LIG d   1       4.421  -6.218 -11.322  0.00  0.00     0.039 H 
ATOM     46  H   LIG d   1       5.447  -5.062 -12.236  0.00  0.00     0.039 H 
ATOM     47  H   LIG d   1       3.887  -5.621 -12.929  0.00  0.00     0.039 H 
ENDBRANCH  35  44
ENDBRANCH   1  30
BRANCH   8  48
ATOM     48  O   LIG d   1       4.258   0.428 -10.688  0.00  0.00    -0.388 OA
ATOM     49  H   LIG d   1       4.337  -0.373 -11.437  0.00  0.00     0.210 HD
ENDBRANCH   8  48
BRANCH   6  50
ATOM     50  C   LIG d   1       4.116   2.756  -9.236  0.00  0.00     0.073 C 
ATOM     51  H   LIG d   1       3.800   3.015 -10.257  0.00  0.00     0.058 H 
ATOM     52  H   LIG d   1       3.955   3.618  -8.572  0.00  0.00     0.058 H 
BRANCH  50  53
ATOM     53  O   LIG d   1       5.503   2.411  -9.240  0.00  0.00    -0.392 OA
ATOM     54  H   LIG d   1       5.809   1.362  -9.108  0.00  0.00     0.209 HD
ENDBRANCH  50  53
ENDBRANCH   6  50
TORSDOF 9
ENDMDL
MODEL 5
REMARK VINA RESULT:      -5.8      3.208      4.835
REMARK  9 active torsions:
REMARK  status: ('A' for Active; 'I' for Inactive)
REMARK    1  A    between atoms: C_1  and  N_2 
REMARK    2  A    between atoms: N_5  and  C_8 
REMARK    3  A    between atoms: C_10  and  C_20 
REMARK    4  A    between atoms: C_13  and  C_18 
REMARK    5  A    between atoms: C_15  and  O_17 
REMARK    6  A    between atoms: C_18  and  O_19 
REMARK    7  A    between atoms: C_20  and  N_21 
REMARK    8  A    between atoms: N_21  and  C_22 
REMARK    9  A    between atoms: C_22  and  C_23 
ROOT
ATOM      1  C   LIG d   1       5.373  -1.052  -8.122  0.00  0.00     0.070 C 
ATOM      2  H   LIG d   1       5.627  -2.067  -7.784  0.00  0.00     0.052 H 
ATOM      3  C   LIG d   1       3.865  -0.741  -8.076  0.00  0.00     0.117 C 
ATOM      4  H   LIG d   1       3.253  -1.630  -7.863  0.00  0.00     0.067 H 
ATOM      5  O   LIG d   1       3.487  -0.265  -9.379  0.00  0.00    -0.362 OA
ATOM      6  C   LIG d   1       4.417  -0.838 -10.323  0.00  0.00     0.110 C 
ATOM      7  H   LIG d   1       4.098  -1.856 -10.592  0.00  0.00     0.065 H 
ATOM      8  C   LIG d   1       5.778  -0.753  -9.585  0.00  0.00     0.102 C 
ATOM      9  H   LIG d   1       6.588  -1.375  -9.996  0.00  0.00     0.064 H 
ENDROOT
BRANCH   3  10
ATOM     10  C   LIG d   1       3.586   0.335  -7.025  0.00  0.00    -0.005 C 
ATOM     11  H   LIG d   1       4.441   0.404  -6.335  0.00  0.00     0.084 H 
ATOM     12  H   LIG d   1       3.440   1.305  -7.524  0.00  0.00     0.084 H 
BRANCH  10  13
ATOM     13  N   LIG d   1       2.375  -0.016  -6.273  0.00  0.00     0.232 N 
ATOM     14  H   LIG d   1       1.492   0.119  -6.915  0.00  0.00     0.202 HD
ATOM     15  H   LIG d   1       2.436  -1.066  -5.950  0.00  0.00     0.202 HD
BRANCH  13  16
ATOM     16  C   LIG d   1       2.228   0.835  -5.085  0.00  0.00    -0.008 C 
ATOM     17  H   LIG d   1       2.652   1.829  -5.291  0.00  0.00     0.087 H 
ATOM     18  H   LIG d   1       1.161   0.936  -4.836  0.00  0.00     0.087 H 
BRANCH  16  19
ATOM     19  C   LIG d   1       2.957   0.208  -3.924  0.00  0.00    -0.003 A 
ATOM     20  C   LIG d   1       2.946  -1.165  -3.763  0.00  0.00    -0.051 A 
ATOM     21  C   LIG d   1       3.615  -1.741  -2.698  0.00  0.00    -0.026 A 
ATOM     22  H   LIG d   1       2.416  -1.788  -4.468  0.00  0.00     0.062 H 
ATOM     23  C   LIG d   1       4.294  -0.942  -1.795  0.00  0.00     0.123 A 
ATOM     24  H   LIG d   1       3.606  -2.814  -2.573  0.00  0.00     0.065 H 
ATOM     25  C   LIG d   1       4.304   0.433  -1.957  0.00  0.00    -0.026 A 
ATOM     26  F   LIG d   1       4.949  -1.504  -0.754  0.00  0.00    -0.205 F 
ATOM     27  C   LIG d   1       3.640   1.006  -3.026  0.00  0.00    -0.051 A 
ATOM     28  H   LIG d   1       4.834   1.056  -1.253  0.00  0.00     0.065 H 
ATOM     29  H   LIG d   1       3.651   2.078  -3.156  0.00  0.00     0.062 H 
ENDBRANCH  16  19
ENDBRANCH  13  16
ENDBRANCH  10  13
ENDBRANCH   3  10
BRANCH   1  30
ATOM     30  N   LIG d   1       6.106  -0.177  -7.197  0.00  0.00    -0.292 N 
ATOM     31  C   LIG d   1       6.058  -0.703  -5.825  0.00  0.00     0.012 C 
ATOM     32  C   LIG d   1       6.762   0.275  -4.882  0.00  0.00     0.011 C 
ATOM     33  H   LIG d   1       6.563  -1.679  -5.786  0.00  0.00     0.044 H 
ATOM     34  H   LIG d   1       5.008  -0.821  -5.514  0.00  0.00     0.044 H 
ATOM     35  N   LIG d   1       8.152   0.460  -5.322  0.00  0.00    -0.303 N 
ATOM     36  H   LIG d   1       6.752  -0.130  -3.859  0.00  0.00     0.044 H 
ATOM     37  H   LIG d   1       6.241   1.243  -4.898  0.00  0.00     0.044 H 
ATOM     38  C   LIG d   1       8.202   0.985  -6.694  0.00  0.00     0.011 C 
ATOM     39  C   LIG d   1       7.496   0.007  -7.637  0.00  0.00     0.012 C 
ATOM     40  H   LIG d   1       7.696   1.961  -6.731  0.00  0.00     0.044 H 
ATOM     41  H   LIG d   1       9.250   1.103  -7.003  0.00  0.00     0.044 H 
ATOM     42  H   LIG d   1       8.018  -0.960  -7.620  0.00  0.00     0.044 H 
ATOM     43  H   LIG d   1       7.506   0.411  -8.660  0.00  0.00     0.044 H 
BRANCH  35  44
ATOM     44  C   LIG d   1       8.886   1.334  -4.397  0.00  0.00    -0.013 C 
ATOM     45  H   LIG d   1       8.223   1.638  -3.574  0.00  0.00     0.039 H 
ATOM     46  H   LIG d   1       9.235   2.227  -4.936  0.00  0.00     0.039 H 
ATOM     47  H   LIG d   1       9.751   0.792  -3.989  0.00  0.00     0.039 H 
ENDBRANCH  35  44
ENDBRANCH   1  30
BRANCH   8  48
ATOM     48  O   LIG d   1       6.341   0.556  -9.702  0.00  0.00    -0.388 OA
ATOM     49  H   LIG d   1       6.238   1.116 -10.643  0.00  0.00     0.210 HD
ENDBRANCH   8  48
BRANCH   6  50
ATOM     50  C   LIG d   1       4.451  -0.015 -11.613  0.00  0.00     0.073 C 
ATOM     51  H   LIG d   1       5.475  -0.009 -12.016  0.00  0.00     0.058 H 
ATOM     52  H   LIG d   1       3.769  -0.462 -12.351  0.00  0.00     0.058 H 
BRANCH  50  53
ATOM     53  O   LIG d   1       4.040   1.325 -11.334  0.00  0.00    -0.392 OA
ATOM     54  H   LIG d   1       4.761   2.048 -10.925  0.00  0.00     0.209 HD
ENDBRANCH  50  53
ENDBRANCH   6  50
TORSDOF 9
ENDMDL
MODEL 6
REMARK VINA RESULT:      -5.8      6.080      8.147
REMARK  9 active torsions:
REMARK  status: ('A' for Active; 'I' for Inactive)
REMARK    1  A    between atoms: C_1  and  N_2 
REMARK    2  A    between atoms: N_5  and  C_8 
REMARK    3  A    between atoms: C_10  and  C_20 
REMARK    4  A    between atoms: C_13  and  C_18 
REMARK    5  A    between atoms: C_15  and  O_17 
REMARK    6  A    between atoms: C_18  and  O_19 
REMARK    7  A    between atoms: C_20  and  N_21 
REMARK    8  A    between atoms: N_21  and  C_22 
REMARK    9  A    between atoms: C_22  and  C_23 
ROOT
ATOM      1  C   LIG d   1       9.425   4.197  -4.891  0.00  0.00     0.070 C 
ATOM      2  H   LIG d   1       8.549   4.666  -5.363  0.00  0.00     0.052 H 
ATOM      3  C   LIG d   1       9.067   3.154  -3.815  0.00  0.00     0.117 C 
ATOM      4  H   LIG d   1       7.995   3.148  -3.568  0.00  0.00     0.067 H 
ATOM      5  O   LIG d   1       9.777   3.514  -2.618  0.00  0.00    -0.362 OA
ATOM      6  C   LIG d   1      10.000   4.939  -2.672  0.00  0.00     0.110 C 
ATOM      7  H   LIG d   1       9.106   5.471  -2.312  0.00  0.00     0.065 H 
ATOM      8  C   LIG d   1      10.356   5.193  -4.159  0.00  0.00     0.102 C 
ATOM      9  H   LIG d   1      10.300   6.240  -4.496  0.00  0.00     0.064 H 
ENDROOT
BRANCH   3  10
ATOM     10  C   LIG d   1       9.494   1.760  -4.278  0.00  0.00    -0.005 C 
ATOM     11  H   LIG d   1       9.555   1.741  -5.377  0.00  0.00     0.084 H 
ATOM     12  H   LIG d   1      10.479   1.519  -3.853  0.00  0.00     0.084 H 
BRANCH  10  13
ATOM     13  N   LIG d   1       8.509   0.770  -3.824  0.00  0.00     0.232 N 
ATOM     14  H   LIG d   1       8.454  -0.053  -4.552  0.00  0.00     0.202 HD
ATOM     15  H   LIG d   1       8.814   0.373  -2.844  0.00  0.00     0.202 HD
BRANCH  13  16
ATOM     16  C   LIG d   1       7.177   1.374  -3.694  0.00  0.00    -0.008 C 
ATOM     17  H   LIG d   1       7.217   2.199  -2.967  0.00  0.00     0.087 H 
ATOM     18  H   LIG d   1       6.853   1.762  -4.671  0.00  0.00     0.087 H 
BRANCH  16  19
ATOM     19  C   LIG d   1       6.197   0.332  -3.217  0.00  0.00    -0.003 A 
ATOM     20  C   LIG d   1       6.305  -0.972  -3.663  0.00  0.00    -0.051 A 
ATOM     21  C   LIG d   1       5.407  -1.929  -3.226  0.00  0.00    -0.026 A 
ATOM     22  H   LIG d   1       7.091  -1.245  -4.351  0.00  0.00     0.062 H 
ATOM     23  C   LIG d   1       4.399  -1.579  -2.344  0.00  0.00     0.123 A 
ATOM     24  H   LIG d   1       5.492  -2.947  -3.574  0.00  0.00     0.065 H 
ATOM     25  C   LIG d   1       4.291  -0.272  -1.899  0.00  0.00    -0.026 A 
ATOM     26  F   LIG d   1       3.521  -2.513  -1.916  0.00  0.00    -0.205 F 
ATOM     27  C   LIG d   1       5.194   0.681  -2.332  0.00  0.00    -0.051 A 
ATOM     28  H   LIG d   1       3.506   0.001  -1.211  0.00  0.00     0.065 H 
ATOM     29  H   LIG d   1       5.114   1.699  -1.981  0.00  0.00     0.062 H 
ENDBRANCH  16  19
ENDBRANCH  13  16
ENDBRANCH  10  13
ENDBRANCH   3  10
BRANCH   1  30
ATOM     30  N   LIG d   1      10.131   3.560  -6.009  0.00  0.00    -0.292 N 
ATOM     31  C   LIG d   1       9.200   2.797  -6.854  0.00  0.00     0.012 C 
ATOM     32  C   LIG d   1       9.985   2.085  -7.959  0.00  0.00     0.011 C 
ATOM     33  H   LIG d   1       8.469   3.482  -7.307  0.00  0.00     0.044 H 
ATOM     34  H   LIG d   1       8.674   2.051  -6.239  0.00  0.00     0.044 H 
ATOM     35  N   LIG d   1      10.719   3.080  -8.754  0.00  0.00    -0.303 N 
ATOM     36  H   LIG d   1       9.288   1.537  -8.609  0.00  0.00     0.044 H 
ATOM     37  H   LIG d   1      10.698   1.379  -7.507  0.00  0.00     0.044 H 
ATOM     38  C   LIG d   1      11.649   3.843  -7.910  0.00  0.00     0.011 C 
ATOM     39  C   LIG d   1      10.864   4.555  -6.805  0.00  0.00     0.012 C 
ATOM     40  H   LIG d   1      12.380   3.157  -7.458  0.00  0.00     0.044 H 
ATOM     41  H   LIG d   1      12.175   4.587  -8.525  0.00  0.00     0.044 H 
ATOM     42  H   LIG d   1      10.151   5.260  -7.257  0.00  0.00     0.044 H 
ATOM     43  H   LIG d   1      11.561   5.103  -6.155  0.00  0.00     0.044 H 
BRANCH  35  44
ATOM     44  C   LIG d   1      11.424   2.442  -9.874  0.00  0.00    -0.013 C 
ATOM     45  H   LIG d   1      11.505   1.361  -9.689  0.00  0.00     0.039 H 
ATOM     46  H   LIG d   1      12.432   2.875  -9.965  0.00  0.00     0.039 H 
ATOM     47  H   LIG d   1      10.866   2.615 -10.805  0.00  0.00     0.039 H 
ENDBRANCH  35  44
ENDBRANCH   1  30
BRANCH   8  48
ATOM     48  O   LIG d   1      11.730   4.889  -4.413  0.00  0.00    -0.388 OA
ATOM     49  H   LIG d   1      12.420   5.685  -4.728  0.00  0.00     0.210 HD
ENDBRANCH   8  48
BRANCH   6  50
ATOM     50  C   LIG d   1      11.164   5.338  -1.763  0.00  0.00     0.073 C 
ATOM     51  H   LIG d   1      12.082   5.427  -2.361  0.00  0.00     0.058 H 
ATOM     52  H   LIG d   1      10.941   6.304  -1.284  0.00  0.00     0.058 H 
BRANCH  50  53
ATOM     53  O   LIG d   1      11.346   4.339  -0.757  0.00  0.00    -0.392 OA
ATOM     54  H   LIG d   1      10.518   3.663  -0.497  0.00  0.00     0.209 HD
ENDBRANCH  50  53
ENDBRANCH   6  50
TORSDOF 9
ENDMDL
MODEL 7
REMARK VINA RESULT:      -5.7      3.549      6.518
REMARK  9 active torsions:
REMARK  status: ('A' for Active; 'I' for Inactive)
REMARK    1  A    between atoms: C_1  and  N_2 
REMARK    2  A    between atoms: N_5  and  C_8 
REMARK    3  A    between atoms: C_10  and  C_20 
REMARK    4  A    between atoms: C_13  and  C_18 
REMARK    5  A    between atoms: C_15  and  O_17 
REMARK    6  A    between atoms: C_18  and  O_19 
REMARK    7  A    between atoms: C_20  and  N_21 
REMARK    8  A    between atoms: N_21  and  C_22 
REMARK    9  A    between atoms: C_22  and  C_23 
ROOT
ATOM      1  C   LIG d   1       5.401  -1.842  -5.595  0.00  0.00     0.070 C 
ATOM      2  H   LIG d   1       6.428  -2.110  -5.881  0.00  0.00     0.052 H 
ATOM      3  C   LIG d   1       5.055  -0.360  -5.839  0.00  0.00     0.117 C 
ATOM      4  H   LIG d   1       5.933   0.242  -6.115  0.00  0.00     0.067 H 
ATOM      5  O   LIG d   1       4.546   0.169  -4.603  0.00  0.00    -0.362 OA
ATOM      6  C   LIG d   1       5.124  -0.617  -3.538  0.00  0.00     0.110 C 
ATOM      7  H   LIG d   1       6.129  -0.240  -3.297  0.00  0.00     0.065 H 
ATOM      8  C   LIG d   1       5.086  -2.063  -4.096  0.00  0.00     0.102 C 
ATOM      9  H   LIG d   1       5.719  -2.797  -3.575  0.00  0.00     0.064 H 
ENDROOT
BRANCH   3  10
ATOM     10  C   LIG d   1       3.991  -0.247  -6.933  0.00  0.00    -0.005 C 
ATOM     11  H   LIG d   1       4.100  -1.085  -7.638  0.00  0.00     0.084 H 
ATOM     12  H   LIG d   1       2.991  -0.281  -6.476  0.00  0.00     0.084 H 
BRANCH  10  13
ATOM     13  N   LIG d   1       4.159   1.024  -7.649  0.00  0.00     0.232 N 
ATOM     14  H   LIG d   1       4.388   1.823  -6.930  0.00  0.00     0.202 HD
ATOM     15  H   LIG d   1       4.985   0.931  -8.370  0.00  0.00     0.202 HD
BRANCH  13  16
ATOM     16  C   LIG d   1       2.935   1.382  -8.378  0.00  0.00    -0.008 C 
ATOM     17  H   LIG d   1       2.057   1.156  -7.755  0.00  0.00     0.087 H 
ATOM     18  H   LIG d   1       2.950   2.456  -8.615  0.00  0.00     0.087 H 
BRANCH  16  19
ATOM     19  C   LIG d   1       2.860   0.587  -9.657  0.00  0.00    -0.003 A 
ATOM     20  C   LIG d   1       1.806  -0.282  -9.868  0.00  0.00    -0.051 A 
ATOM     21  C   LIG d   1       1.736  -1.011 -11.041  0.00  0.00    -0.026 A 
ATOM     22  H   LIG d   1       1.036  -0.391  -9.119  0.00  0.00     0.062 H 
ATOM     23  C   LIG d   1       2.723  -0.872 -12.001  0.00  0.00     0.123 A 
ATOM     24  H   LIG d   1       0.912  -1.690 -11.206  0.00  0.00     0.065 H 
ATOM     25  C   LIG d   1       3.779  -0.002 -11.788  0.00  0.00    -0.026 A 
ATOM     26  F   LIG d   1       2.656  -1.584 -13.148  0.00  0.00    -0.205 F 
ATOM     27  C   LIG d   1       3.843   0.731 -10.618  0.00  0.00    -0.051 A 
ATOM     28  H   LIG d   1       4.548   0.107 -12.537  0.00  0.00     0.065 H 
ATOM     29  H   LIG d   1       4.663   1.414 -10.453  0.00  0.00     0.062 H 
ENDBRANCH  16  19
ENDBRANCH  13  16
ENDBRANCH  10  13
ENDBRANCH   3  10
BRANCH   1  30
ATOM     30  N   LIG d   1       4.562  -2.710  -6.430  0.00  0.00    -0.292 N 
ATOM     31  C   LIG d   1       4.888  -2.545  -7.854  0.00  0.00     0.012 C 
ATOM     32  C   LIG d   1       3.940  -3.405  -8.694  0.00  0.00     0.011 C 
ATOM     33  H   LIG d   1       5.926  -2.861  -8.033  0.00  0.00     0.044 H 
ATOM     34  H   LIG d   1       4.772  -1.488  -8.138  0.00  0.00     0.044 H 
ATOM     35  N   LIG d   1       4.068  -4.811  -8.287  0.00  0.00    -0.303 N 
ATOM     36  H   LIG d   1       4.201  -3.306  -9.758  0.00  0.00     0.044 H 
ATOM     37  H   LIG d   1       2.904  -3.071  -8.538  0.00  0.00     0.044 H 
ATOM     38  C   LIG d   1       3.743  -4.976  -6.864  0.00  0.00     0.011 C 
ATOM     39  C   LIG d   1       4.691  -4.116  -6.023  0.00  0.00     0.012 C 
ATOM     40  H   LIG d   1       2.705  -4.660  -6.686  0.00  0.00     0.044 H 
ATOM     41  H   LIG d   1       3.858  -6.033  -6.582  0.00  0.00     0.044 H 
ATOM     42  H   LIG d   1       5.726  -4.451  -6.181  0.00  0.00     0.044 H 
ATOM     43  H   LIG d   1       4.430  -4.215  -4.960  0.00  0.00     0.044 H 
BRANCH  35  44
ATOM     44  C   LIG d   1       3.230  -5.680  -9.124  0.00  0.00    -0.013 C 
ATOM     45  H   LIG d   1       3.678  -5.772 -10.123  0.00  0.00     0.039 H 
ATOM     46  H   LIG d   1       2.224  -5.243  -9.213  0.00  0.00     0.039 H 
ATOM     47  H   LIG d   1       3.157  -6.675  -8.662  0.00  0.00     0.039 H 
ENDBRANCH  35  44
ENDBRANCH   1  30
BRANCH   8  48
ATOM     48  O   LIG d   1       3.789  -2.641  -3.927  0.00  0.00    -0.388 OA
ATOM     49  H   LIG d   1       3.688  -3.653  -3.508  0.00  0.00     0.210 HD
ENDBRANCH   8  48
BRANCH   6  50
ATOM     50  C   LIG d   1       4.279  -0.507  -2.267  0.00  0.00     0.073 C 
ATOM     51  H   LIG d   1       4.277  -1.474  -1.744  0.00  0.00     0.058 H 
ATOM     52  H   LIG d   1       4.705   0.266  -1.609  0.00  0.00     0.058 H 
BRANCH  50  53
ATOM     53  O   LIG d   1       2.940  -0.151  -2.616  0.00  0.00    -0.392 OA
ATOM     54  H   LIG d   1       2.226   0.142  -1.831  0.00  0.00     0.209 HD
ENDBRANCH  50  53
ENDBRANCH   6  50
TORSDOF 9
ENDMDL
MODEL 8
REMARK VINA RESULT:      -5.7      3.144      4.962
REMARK  9 active torsions:
REMARK  status: ('A' for Active; 'I' for Inactive)
REMARK    1  A    between atoms: C_1  and  N_2 
REMARK    2  A    between atoms: N_5  and  C_8 
REMARK    3  A    between atoms: C_10  and  C_20 
REMARK    4  A    between atoms: C_13  and  C_18 
REMARK    5  A    between atoms: C_15  and  O_17 
REMARK    6  A    between atoms: C_18  and  O_19 
REMARK    7  A    between atoms: C_20  and  N_21 
REMARK    8  A    between atoms: N_21  and  C_22 
REMARK    9  A    between atoms: C_22  and  C_23 
ROOT
ATOM      1  C   LIG d   1       4.608   0.573 -10.270  0.00  0.00     0.070 C 
ATOM      2  H   LIG d   1       4.530   0.749 -11.353  0.00  0.00     0.052 H 
ATOM      3  C   LIG d   1       4.152   1.769  -9.412  0.00  0.00     0.117 C 
ATOM      4  H   LIG d   1       3.965   2.674 -10.009  0.00  0.00     0.067 H 
ATOM      5  O   LIG d   1       5.220   2.074  -8.500  0.00  0.00    -0.362 OA
ATOM      6  C   LIG d   1       6.445   1.628  -9.121  0.00  0.00     0.110 C 
ATOM      7  H   LIG d   1       6.811   2.396  -9.820  0.00  0.00     0.065 H 
ATOM      8  C   LIG d   1       6.047   0.282  -9.780  0.00  0.00     0.102 C 
ATOM      9  H   LIG d   1       6.743  -0.108 -10.538  0.00  0.00     0.064 H 
ENDROOT
BRANCH   3  10
ATOM     10  C   LIG d   1       2.888   1.400  -8.634  0.00  0.00    -0.005 C 
ATOM     11  H   LIG d   1       2.123   2.176  -8.786  0.00  0.00     0.084 H 
ATOM     12  H   LIG d   1       2.505   0.434  -8.994  0.00  0.00     0.084 H 
BRANCH  10  13
ATOM     13  N   LIG d   1       3.206   1.298  -7.203  0.00  0.00     0.232 N 
ATOM     14  H   LIG d   1       4.239   1.635  -7.032  0.00  0.00     0.202 HD
ATOM     15  H   LIG d   1       2.514   1.931  -6.628  0.00  0.00     0.202 HD
BRANCH  13  16
ATOM     16  C   LIG d   1       3.078  -0.087  -6.733  0.00  0.00    -0.008 C 
ATOM     17  H   LIG d   1       2.035  -0.419  -6.850  0.00  0.00     0.087 H 
ATOM     18  H   LIG d   1       3.738  -0.738  -7.325  0.00  0.00     0.087 H 
BRANCH  16  19
ATOM     19  C   LIG d   1       3.469  -0.163  -5.279  0.00  0.00    -0.003 A 
ATOM     20  C   LIG d   1       2.740   0.531  -4.332  0.00  0.00    -0.051 A 
ATOM     21  C   LIG d   1       3.098   0.461  -2.998  0.00  0.00    -0.026 A 
ATOM     22  H   LIG d   1       1.891   1.126  -4.632  0.00  0.00     0.062 H 
ATOM     23  C   LIG d   1       4.187  -0.302  -2.613  0.00  0.00     0.123 A 
ATOM     24  H   LIG d   1       2.529   1.004  -2.258  0.00  0.00     0.065 H 
ATOM     25  C   LIG d   1       4.916  -0.996  -3.563  0.00  0.00    -0.026 A 
ATOM     26  F   LIG d   1       4.538  -0.371  -1.310  0.00  0.00    -0.205 F 
ATOM     27  C   LIG d   1       4.553  -0.930  -4.895  0.00  0.00    -0.051 A 
ATOM     28  H   LIG d   1       5.765  -1.592  -3.264  0.00  0.00     0.065 H 
ATOM     29  H   LIG d   1       5.118  -1.476  -5.637  0.00  0.00     0.062 H 
ENDBRANCH  16  19
ENDBRANCH  13  16
ENDBRANCH  10  13
ENDBRANCH   3  10
BRANCH   1  30
ATOM     30  N   LIG d   1       3.740  -0.588 -10.035  0.00  0.00    -0.292 N 
ATOM     31  C   LIG d   1       2.447  -0.425 -10.714  0.00  0.00     0.012 C 
ATOM     32  C   LIG d   1       1.544  -1.615 -10.380  0.00  0.00     0.011 C 
ATOM     33  H   LIG d   1       2.605  -0.378 -11.801  0.00  0.00     0.044 H 
ATOM     34  H   LIG d   1       1.968   0.505 -10.373  0.00  0.00     0.044 H 
ATOM     35  N   LIG d   1       2.204  -2.859 -10.802  0.00  0.00    -0.303 N 
ATOM     36  H   LIG d   1       0.587  -1.510 -10.910  0.00  0.00     0.044 H 
ATOM     37  H   LIG d   1       1.362  -1.646  -9.296  0.00  0.00     0.044 H 
ATOM     38  C   LIG d   1       3.497  -3.023 -10.123  0.00  0.00     0.011 C 
ATOM     39  C   LIG d   1       4.399  -1.832 -10.457  0.00  0.00     0.012 C 
ATOM     40  H   LIG d   1       3.337  -3.069  -9.036  0.00  0.00     0.044 H 
ATOM     41  H   LIG d   1       3.975  -3.953 -10.464  0.00  0.00     0.044 H 
ATOM     42  H   LIG d   1       4.581  -1.801 -11.541  0.00  0.00     0.044 H 
ATOM     43  H   LIG d   1       5.357  -1.937  -9.927  0.00  0.00     0.044 H 
BRANCH  35  44
ATOM     44  C   LIG d   1       1.336  -4.021 -10.568  0.00  0.00    -0.013 C 
ATOM     45  H   LIG d   1       0.830  -4.296 -11.505  0.00  0.00     0.039 H 
ATOM     46  H   LIG d   1       0.583  -3.768  -9.807  0.00  0.00     0.039 H 
ATOM     47  H   LIG d   1       1.942  -4.867 -10.216  0.00  0.00     0.039 H 
ENDBRANCH  35  44
ENDBRANCH   1  30
BRANCH   8  48
ATOM     48  O   LIG d   1       6.055  -0.777  -8.820  0.00  0.00    -0.388 OA
ATOM     49  H   LIG d   1       6.100  -1.823  -9.155  0.00  0.00     0.210 HD
ENDBRANCH   8  48
BRANCH   6  50
ATOM     50  C   LIG d   1       7.535   1.412  -8.070  0.00  0.00     0.073 C 
ATOM     51  H   LIG d   1       8.164   0.559  -8.364  0.00  0.00     0.058 H 
ATOM     52  H   LIG d   1       8.156   2.318  -7.994  0.00  0.00     0.058 H 
BRANCH  50  53
ATOM     53  O   LIG d   1       6.929   1.143  -6.804  0.00  0.00    -0.392 OA
ATOM     54  H   LIG d   1       6.630   0.117  -6.544  0.00  0.00     0.209 HD
ENDBRANCH  50  53
ENDBRANCH   6  50
TORSDOF 9
ENDMDL
MODEL 9
REMARK VINA RESULT:      -5.7      2.724      3.482
REMARK  9 active torsions:
REMARK  status: ('A' for Active; 'I' for Inactive)
REMARK    1  A    between atoms: C_1  and  N_2 
REMARK    2  A    between atoms: N_5  and  C_8 
REMARK    3  A    between atoms: C_10  and  C_20 
REMARK    4  A    between atoms: C_13  and  C_18 
REMARK    5  A    between atoms: C_15  and  O_17 
REMARK    6  A    between atoms: C_18  and  O_19 
REMARK    7  A    between atoms: C_20  and  N_21 
REMARK    8  A    between atoms: N_21  and  C_22 
REMARK    9  A    between atoms: C_22  and  C_23 
ROOT
ATOM      1  C   LIG d   1       4.030  -3.605  -9.951  0.00  0.00     0.070 C 
ATOM      2  H   LIG d   1       4.668  -3.687 -10.842  0.00  0.00     0.052 H 
ATOM      3  C   LIG d   1       4.602  -2.678  -8.861  0.00  0.00     0.117 C 
ATOM      4  H   LIG d   1       5.635  -2.363  -9.070  0.00  0.00     0.067 H 
ATOM      5  O   LIG d   1       4.625  -3.425  -7.633  0.00  0.00    -0.362 OA
ATOM      6  C   LIG d   1       4.726  -4.821  -7.990  0.00  0.00     0.110 C 
ATOM      7  H   LIG d   1       5.778  -5.083  -8.181  0.00  0.00     0.065 H 
ATOM      8  C   LIG d   1       3.789  -4.947  -9.219  0.00  0.00     0.102 C 
ATOM      9  H   LIG d   1       3.914  -5.855  -9.829  0.00  0.00     0.064 H 
ENDROOT
BRANCH   3  10
ATOM     10  C   LIG d   1       3.712  -1.444  -8.705  0.00  0.00    -0.005 C 
ATOM     11  H   LIG d   1       4.298  -0.539  -8.922  0.00  0.00     0.084 H 
ATOM     12  H   LIG d   1       2.868  -1.510  -9.408  0.00  0.00     0.084 H 
BRANCH  10  13
ATOM     13  N   LIG d   1       3.200  -1.379  -7.330  0.00  0.00     0.232 N 
ATOM     14  H   LIG d   1       2.102  -1.448  -7.344  0.00  0.00     0.202 HD
ATOM     15  H   LIG d   1       3.612  -2.215  -6.746  0.00  0.00     0.202 HD
BRANCH  13  16
ATOM     16  C   LIG d   1       3.584  -0.117  -6.684  0.00  0.00    -0.008 C 
ATOM     17  H   LIG d   1       4.516   0.256  -7.134  0.00  0.00     0.087 H 
ATOM     18  H   LIG d   1       2.786   0.626  -6.826  0.00  0.00     0.087 H 
BRANCH  16  19
ATOM     19  C   LIG d   1       3.797  -0.352  -5.210  0.00  0.00    -0.003 A 
ATOM     20  C   LIG d   1       2.922   0.198  -4.292  0.00  0.00    -0.051 A 
ATOM     21  C   LIG d   1       3.116  -0.016  -2.939  0.00  0.00    -0.026 A 
ATOM     22  H   LIG d   1       2.088   0.794  -4.629  0.00  0.00     0.062 H 
ATOM     23  C   LIG d   1       4.186  -0.780  -2.507  0.00  0.00     0.123 A 
ATOM     24  H   LIG d   1       2.433   0.414  -2.222  0.00  0.00     0.065 H 
ATOM     25  C   LIG d   1       5.061  -1.330  -3.428  0.00  0.00    -0.026 A 
ATOM     26  F   LIG d   1       4.376  -0.991  -1.186  0.00  0.00    -0.205 F 
ATOM     27  C   LIG d   1       4.862  -1.120  -4.780  0.00  0.00    -0.051 A 
ATOM     28  H   LIG d   1       5.896  -1.927  -3.092  0.00  0.00     0.065 H 
ATOM     29  H   LIG d   1       5.541  -1.552  -5.500  0.00  0.00     0.062 H 
ENDBRANCH  16  19
ENDBRANCH  13  16
ENDBRANCH  10  13
ENDBRANCH   3  10
BRANCH   1  30
ATOM     30  N   LIG d   1       2.764  -3.068 -10.468  0.00  0.00    -0.292 N 
ATOM     31  C   LIG d   1       3.007  -1.962 -11.407  0.00  0.00     0.012 C 
ATOM     32  C   LIG d   1       1.666  -1.379 -11.861  0.00  0.00     0.011 C 
ATOM     33  H   LIG d   1       3.559  -2.336 -12.281  0.00  0.00     0.044 H 
ATOM     34  H   LIG d   1       3.596  -1.179 -10.907  0.00  0.00     0.044 H 
ATOM     35  N   LIG d   1       0.864  -2.437 -12.493  0.00  0.00    -0.303 N 
ATOM     36  H   LIG d   1       1.843  -0.571 -12.585  0.00  0.00     0.044 H 
ATOM     37  H   LIG d   1       1.124  -0.980 -10.991  0.00  0.00     0.044 H 
ATOM     38  C   LIG d   1       0.623  -3.542 -11.556  0.00  0.00     0.011 C 
ATOM     39  C   LIG d   1       1.964  -4.125 -11.101  0.00  0.00     0.012 C 
ATOM     40  H   LIG d   1       0.070  -3.167 -10.682  0.00  0.00     0.044 H 
ATOM     41  H   LIG d   1       0.033  -4.324 -12.056  0.00  0.00     0.044 H 
ATOM     42  H   LIG d   1       2.504  -4.524 -11.972  0.00  0.00     0.044 H 
ATOM     43  H   LIG d   1       1.786  -4.933 -10.377  0.00  0.00     0.044 H 
BRANCH  35  44
ATOM     44  C   LIG d   1      -0.400  -1.900 -13.013  0.00  0.00    -0.013 C 
ATOM     45  H   LIG d   1      -1.244  -2.418 -12.534  0.00  0.00     0.039 H 
ATOM     46  H   LIG d   1      -0.445  -2.056 -14.101  0.00  0.00     0.039 H 
ATOM     47  H   LIG d   1      -0.459  -0.824 -12.794  0.00  0.00     0.039 H 
ENDBRANCH  35  44
ENDBRANCH   1  30
BRANCH   8  48
ATOM     48  O   LIG d   1       2.425  -5.068  -8.810  0.00  0.00    -0.388 OA
ATOM     49  H   LIG d   1       1.744  -5.738  -9.355  0.00  0.00     0.210 HD
ENDBRANCH   8  48
BRANCH   6  50
ATOM     50  C   LIG d   1       4.235  -5.708  -6.845  0.00  0.00     0.073 C 
ATOM     51  H   LIG d   1       3.892  -6.671  -7.249  0.00  0.00     0.058 H 
ATOM     52  H   LIG d   1       5.058  -5.879  -6.134  0.00  0.00     0.058 H 
BRANCH  50  53
ATOM     53  O   LIG d   1       3.152  -5.061  -6.172  0.00  0.00    -0.392 OA
ATOM     54  H   LIG d   1       2.148  -5.058  -6.622  0.00  0.00     0.209 HD
ENDBRANCH  50  53
ENDBRANCH   6  50
TORSDOF 9
ENDMDL
