MODEL 1
REMARK VINA RESULT:      -7.1      0.000      0.000
REMARK  3 active torsions:
REMARK  status: ('A' for Active; 'I' for Inactive)
REMARK    1  A    between atoms: C_1  and  C_2 
REMARK    2  A    between atoms: N_11  and  C_13 
REMARK    3  A    between atoms: C_18  and  C_19 
ROOT
ATOM      1  C   LIG d   1       4.685  -2.485  -5.400  0.00  0.00     0.067 A 
ATOM      2  C   LIG d   1       4.354  -1.610  -4.275  0.00  0.00     0.010 A 
ATOM      3  C   LIG d   1       4.615  -1.978  -2.954  0.00  0.00    -0.052 A 
ATOM      4  C   LIG d   1       4.288  -1.125  -1.937  0.00  0.00    -0.061 A 
ATOM      5  C   LIG d   1       3.698   0.104  -2.199  0.00  0.00    -0.061 A 
ATOM      6  C   LIG d   1       3.429   0.495  -3.493  0.00  0.00    -0.049 A 
ATOM      7  C   LIG d   1       3.754  -0.359  -4.546  0.00  0.00     0.050 A 
ATOM      8  C   LIG d   1       3.494  -0.002  -5.946  0.00  0.00     0.280 A 
ATOM      9  O   LIG d   1       2.979   1.065  -6.228  0.00  0.00    -0.265 OA
ATOM     10  N   LIG d   1       3.836  -0.877  -6.914  0.00  0.00    -0.195 N 
ATOM     11  N   LIG d   1       4.431  -2.103  -6.618  0.00  0.00    -0.168 NA
ATOM     12  H   LIG d   1       5.073  -2.932  -2.737  0.00  0.00     0.062 H 
ATOM     13  H   LIG d   1       4.490  -1.413  -0.915  0.00  0.00     0.062 H 
ATOM     14  H   LIG d   1       3.448   0.763  -1.380  0.00  0.00     0.062 H 
ATOM     15  H   LIG d   1       2.971   1.452  -3.689  0.00  0.00     0.062 H 
ENDROOT
BRANCH  10  16
ATOM     16  C   LIG d   1       3.592  -0.547  -8.245  0.00  0.00     0.078 A 
ATOM     17  C   LIG d   1       4.591   0.073  -9.013  0.00  0.00     0.023 A 
ATOM     18  C   LIG d   1       4.334   0.395 -10.349  0.00  0.00    -0.051 A 
ATOM     19  C   LIG d   1       3.102   0.113 -10.899  0.00  0.00    -0.061 A 
ATOM     20  H   LIG d   1       5.098   0.867 -10.949  0.00  0.00     0.062 H 
ATOM     21  C   LIG d   1       2.116  -0.494 -10.135  0.00  0.00    -0.060 A 
ATOM     22  H   LIG d   1       2.904   0.365 -11.930  0.00  0.00     0.062 H 
ATOM     23  C   LIG d   1       2.357  -0.823  -8.817  0.00  0.00    -0.035 A 
ATOM     24  H   LIG d   1       1.155  -0.712 -10.577  0.00  0.00     0.062 H 
ATOM     25  H   LIG d   1       1.585  -1.297  -8.230  0.00  0.00     0.064 H 
BRANCH  17  26
ATOM     26  C   LIG d   1       5.901   0.377  -8.417  0.00  0.00     0.074 C 
ATOM     27  O   LIG d   1       6.093   1.458  -7.877  0.00  0.00    -0.545 OA
ATOM     28  O   LIG d   1       6.801  -0.451  -8.462  0.00  0.00    -0.545 OA
ENDBRANCH  17  26
ENDBRANCH  10  16
BRANCH   1  29
ATOM     29  C   LIG d   1       5.326  -3.826  -5.150  0.00  0.00    -0.020 C 
ATOM     30  H   LIG d   1       4.553  -4.587  -5.057  0.00  0.00     0.029 H 
ATOM     31  H   LIG d   1       5.984  -4.075  -5.982  0.00  0.00     0.029 H 
ATOM     32  H   LIG d   1       5.907  -3.783  -4.228  0.00  0.00     0.029 H 
ENDBRANCH   1  29
TORSDOF 3
ENDMDL
MODEL 2
REMARK VINA RESULT:      -6.9      2.039      5.716
REMARK  3 active torsions:
REMARK  status: ('A' for Active; 'I' for Inactive)
REMARK    1  A    between atoms: C_1  and  C_2 
REMARK    2  A    between atoms: N_11  and  C_13 
REMARK    3  A    between atoms: C_18  and  C_19 
ROOT
ATOM      1  C   LIG d   1       6.238   0.300  -7.281  0.00  0.00     0.067 A 
ATOM      2  C   LIG d   1       5.141   0.807  -8.105  0.00  0.00     0.010 A 
ATOM      3  C   LIG d   1       5.362   1.354  -9.370  0.00  0.00    -0.052 A 
ATOM      4  C   LIG d   1       4.303   1.815 -10.103  0.00  0.00    -0.061 A 
ATOM      5  C   LIG d   1       3.008   1.746  -9.606  0.00  0.00    -0.061 A 
ATOM      6  C   LIG d   1       2.759   1.211  -8.361  0.00  0.00    -0.049 A 
ATOM      7  C   LIG d   1       3.824   0.735  -7.595  0.00  0.00     0.050 A 
ATOM      8  C   LIG d   1       3.626   0.153  -6.263  0.00  0.00     0.280 A 
ATOM      9  O   LIG d   1       2.509   0.071  -5.783  0.00  0.00    -0.265 OA
ATOM     10  N   LIG d   1       4.702  -0.287  -5.580  0.00  0.00    -0.195 N 
ATOM     11  N   LIG d   1       5.990  -0.207  -6.109  0.00  0.00    -0.168 NA
ATOM     12  H   LIG d   1       6.365   1.414  -9.768  0.00  0.00     0.062 H 
ATOM     13  H   LIG d   1       4.477   2.239 -11.081  0.00  0.00     0.062 H 
ATOM     14  H   LIG d   1       2.187   2.115 -10.202  0.00  0.00     0.062 H 
ATOM     15  H   LIG d   1       1.750   1.160  -7.981  0.00  0.00     0.062 H 
ENDROOT
BRANCH  10  16
ATOM     16  C   LIG d   1       4.523  -0.840  -4.314  0.00  0.00     0.078 A 
ATOM     17  C   LIG d   1       4.603  -0.027  -3.171  0.00  0.00     0.023 A 
ATOM     18  C   LIG d   1       4.415  -0.594  -1.907  0.00  0.00    -0.051 A 
ATOM     19  C   LIG d   1       4.165  -1.944  -1.790  0.00  0.00    -0.061 A 
ATOM     20  H   LIG d   1       4.470   0.024  -1.023  0.00  0.00     0.062 H 
ATOM     21  C   LIG d   1       4.092  -2.744  -2.920  0.00  0.00    -0.060 A 
ATOM     22  H   LIG d   1       4.024  -2.382  -0.812  0.00  0.00     0.062 H 
ATOM     23  C   LIG d   1       4.269  -2.198  -4.175  0.00  0.00    -0.035 A 
ATOM     24  H   LIG d   1       3.895  -3.801  -2.817  0.00  0.00     0.062 H 
ATOM     25  H   LIG d   1       4.210  -2.828  -5.050  0.00  0.00     0.064 H 
BRANCH  17  26
ATOM     26  C   LIG d   1       4.877   1.412  -3.304  0.00  0.00     0.074 C 
ATOM     27  O   LIG d   1       6.032   1.817  -3.327  0.00  0.00    -0.545 OA
ATOM     28  O   LIG d   1       3.950   2.207  -3.390  0.00  0.00    -0.545 OA
ENDBRANCH  17  26
ENDBRANCH  10  16
BRANCH   1  29
ATOM     29  C   LIG d   1       7.655   0.360  -7.791  0.00  0.00    -0.020 C 
ATOM     30  H   LIG d   1       7.855  -0.512  -8.412  0.00  0.00     0.029 H 
ATOM     31  H   LIG d   1       7.790   1.266  -8.382  0.00  0.00     0.029 H 
ATOM     32  H   LIG d   1       8.344   0.371  -6.947  0.00  0.00     0.029 H 
ENDBRANCH   1  29
TORSDOF 3
ENDMDL
MODEL 3
REMARK VINA RESULT:      -6.7      1.655      5.214
REMARK  3 active torsions:
REMARK  status: ('A' for Active; 'I' for Inactive)
REMARK    1  A    between atoms: C_1  and  C_2 
REMARK    2  A    between atoms: N_11  and  C_13 
REMARK    3  A    between atoms: C_18  and  C_19 
ROOT
ATOM      1  C   LIG d   1       4.303  -2.587  -7.227  0.00  0.00     0.067 A 
ATOM      2  C   LIG d   1       3.615  -1.843  -8.282  0.00  0.00     0.010 A 
ATOM      3  C   LIG d   1       3.411  -2.384  -9.553  0.00  0.00    -0.052 A 
ATOM      4  C   LIG d   1       2.762  -1.649 -10.505  0.00  0.00    -0.061 A 
ATOM      5  C   LIG d   1       2.301  -0.369 -10.227  0.00  0.00    -0.061 A 
ATOM      6  C   LIG d   1       2.488   0.192  -8.982  0.00  0.00    -0.049 A 
ATOM      7  C   LIG d   1       3.148  -0.539  -7.995  0.00  0.00     0.050 A 
ATOM      8  C   LIG d   1       3.377  -0.001  -6.649  0.00  0.00     0.280 A 
ATOM      9  O   LIG d   1       2.992   1.117  -6.356  0.00  0.00    -0.265 OA
ATOM     10  N   LIG d   1       4.022  -0.765  -5.745  0.00  0.00    -0.195 N 
ATOM     11  N   LIG d   1       4.468  -2.050  -6.054  0.00  0.00    -0.168 NA
ATOM     12  H   LIG d   1       3.765  -3.379  -9.782  0.00  0.00     0.062 H 
ATOM     13  H   LIG d   1       2.606  -2.070 -11.488  0.00  0.00     0.062 H 
ATOM     14  H   LIG d   1       1.791   0.194 -10.995  0.00  0.00     0.062 H 
ATOM     15  H   LIG d   1       2.127   1.187  -8.773  0.00  0.00     0.062 H 
ENDROOT
BRANCH  10  16
ATOM     16  C   LIG d   1       4.244  -0.261  -4.465  0.00  0.00     0.078 A 
ATOM     17  C   LIG d   1       5.530   0.160  -4.087  0.00  0.00     0.023 A 
ATOM     18  C   LIG d   1       5.738   0.670  -2.801  0.00  0.00    -0.051 A 
ATOM     19  C   LIG d   1       4.687   0.745  -1.914  0.00  0.00    -0.061 A 
ATOM     20  H   LIG d   1       6.722   1.000  -2.503  0.00  0.00     0.062 H 
ATOM     21  C   LIG d   1       3.420   0.324  -2.290  0.00  0.00    -0.060 A 
ATOM     22  H   LIG d   1       4.849   1.136  -0.920  0.00  0.00     0.062 H 
ATOM     23  C   LIG d   1       3.198  -0.176  -3.557  0.00  0.00    -0.035 A 
ATOM     24  H   LIG d   1       2.603   0.389  -1.587  0.00  0.00     0.062 H 
ATOM     25  H   LIG d   1       2.208  -0.500  -3.842  0.00  0.00     0.064 H 
BRANCH  17  26
ATOM     26  C   LIG d   1       6.649   0.070  -5.038  0.00  0.00     0.074 C 
ATOM     27  O   LIG d   1       7.422  -0.877  -4.986  0.00  0.00    -0.545 OA
ATOM     28  O   LIG d   1       6.808   0.943  -5.880  0.00  0.00    -0.545 OA
ENDBRANCH  17  26
ENDBRANCH  10  16
BRANCH   1  29
ATOM     29  C   LIG d   1       4.814  -3.979  -7.497  0.00  0.00    -0.020 C 
ATOM     30  H   LIG d   1       4.251  -4.421  -8.317  0.00  0.00     0.029 H 
ATOM     31  H   LIG d   1       5.870  -3.933  -7.764  0.00  0.00     0.029 H 
ATOM     32  H   LIG d   1       4.693  -4.590  -6.602  0.00  0.00     0.029 H 
ENDBRANCH   1  29
TORSDOF 3
ENDMDL
MODEL 4
REMARK VINA RESULT:      -6.6      1.808      2.245
REMARK  3 active torsions:
REMARK  status: ('A' for Active; 'I' for Inactive)
REMARK    1  A    between atoms: C_1  and  C_2 
REMARK    2  A    between atoms: N_11  and  C_13 
REMARK    3  A    between atoms: C_18  and  C_19 
ROOT
ATOM      1  C   LIG d   1       6.181  -0.357  -5.366  0.00  0.00     0.067 A 
ATOM      2  C   LIG d   1       5.125  -0.576  -4.377  0.00  0.00     0.010 A 
ATOM      3  C   LIG d   1       5.414  -0.913  -3.053  0.00  0.00    -0.052 A 
ATOM      4  C   LIG d   1       4.392  -1.107  -2.166  0.00  0.00    -0.061 A 
ATOM      5  C   LIG d   1       3.067  -0.975  -2.563  0.00  0.00    -0.061 A 
ATOM      6  C   LIG d   1       2.752  -0.644  -3.863  0.00  0.00    -0.049 A 
ATOM      7  C   LIG d   1       3.777  -0.441  -4.786  0.00  0.00     0.050 A 
ATOM      8  C   LIG d   1       3.508  -0.086  -6.184  0.00  0.00     0.280 A 
ATOM      9  O   LIG d   1       2.364   0.042  -6.581  0.00  0.00    -0.265 OA
ATOM     10  N   LIG d   1       4.551   0.096  -7.020  0.00  0.00    -0.195 N 
ATOM     11  N   LIG d   1       5.870  -0.040  -6.589  0.00  0.00    -0.168 NA
ATOM     12  H   LIG d   1       6.440  -1.019  -2.732  0.00  0.00     0.062 H 
ATOM     13  H   LIG d   1       4.618  -1.368  -1.143  0.00  0.00     0.062 H 
ATOM     14  H   LIG d   1       2.276  -1.134  -1.846  0.00  0.00     0.062 H 
ATOM     15  H   LIG d   1       1.720  -0.543  -4.164  0.00  0.00     0.062 H 
ENDROOT
BRANCH  10  16
ATOM     16  C   LIG d   1       4.304   0.433  -8.349  0.00  0.00     0.078 A 
ATOM     17  C   LIG d   1       4.210  -0.572  -9.326  0.00  0.00     0.023 A 
ATOM     18  C   LIG d   1       3.956  -0.221 -10.655  0.00  0.00    -0.051 A 
ATOM     19  C   LIG d   1       3.811   1.106 -10.999  0.00  0.00    -0.061 A 
ATOM     20  H   LIG d   1       3.877  -0.987 -11.412  0.00  0.00     0.062 H 
ATOM     21  C   LIG d   1       3.910   2.095 -10.033  0.00  0.00    -0.060 A 
ATOM     22  H   LIG d   1       3.619   1.376 -12.027  0.00  0.00     0.062 H 
ATOM     23  C   LIG d   1       4.155   1.763  -8.715  0.00  0.00    -0.035 A 
ATOM     24  H   LIG d   1       3.795   3.131 -10.314  0.00  0.00     0.062 H 
ATOM     25  H   LIG d   1       4.229   2.540  -7.970  0.00  0.00     0.064 H 
BRANCH  17  26
ATOM     26  C   LIG d   1       4.371  -1.986  -8.952  0.00  0.00     0.074 C 
ATOM     27  O   LIG d   1       5.479  -2.506  -8.988  0.00  0.00    -0.545 OA
ATOM     28  O   LIG d   1       3.399  -2.643  -8.605  0.00  0.00    -0.545 OA
ENDBRANCH  17  26
ENDBRANCH  10  16
BRANCH   1  29
ATOM     29  C   LIG d   1       7.628  -0.492  -4.967  0.00  0.00    -0.020 C 
ATOM     30  H   LIG d   1       7.960   0.429  -4.490  0.00  0.00     0.029 H 
ATOM     31  H   LIG d   1       7.736  -1.322  -4.269  0.00  0.00     0.029 H 
ATOM     32  H   LIG d   1       8.232  -0.681  -5.854  0.00  0.00     0.029 H 
ENDBRANCH   1  29
TORSDOF 3
ENDMDL
MODEL 5
REMARK VINA RESULT:      -6.6      1.753      2.022
REMARK  3 active torsions:
REMARK  status: ('A' for Active; 'I' for Inactive)
REMARK    1  A    between atoms: C_1  and  C_2 
REMARK    2  A    between atoms: N_11  and  C_13 
REMARK    3  A    between atoms: C_18  and  C_19 
ROOT
ATOM      1  C   LIG d   1       6.106  -0.352  -5.480  0.00  0.00     0.067 A 
ATOM      2  C   LIG d   1       5.286   0.042  -4.334  0.00  0.00     0.010 A 
ATOM      3  C   LIG d   1       5.843   0.274  -3.075  0.00  0.00    -0.052 A 
ATOM      4  C   LIG d   1       5.035   0.641  -2.035  0.00  0.00    -0.061 A 
ATOM      5  C   LIG d   1       3.665   0.788  -2.213  0.00  0.00    -0.061 A 
ATOM      6  C   LIG d   1       3.088   0.566  -3.444  0.00  0.00    -0.049 A 
ATOM      7  C   LIG d   1       3.892   0.191  -4.520  0.00  0.00     0.050 A 
ATOM      8  C   LIG d   1       3.340  -0.058  -5.856  0.00  0.00     0.280 A 
ATOM      9  O   LIG d   1       2.145   0.057  -6.063  0.00  0.00    -0.265 OA
ATOM     10  N   LIG d   1       4.179  -0.418  -6.849  0.00  0.00    -0.195 N 
ATOM     11  N   LIG d   1       5.551  -0.553  -6.639  0.00  0.00    -0.168 NA
ATOM     12  H   LIG d   1       6.907   0.162  -2.923  0.00  0.00     0.062 H 
ATOM     13  H   LIG d   1       5.468   0.818  -1.061  0.00  0.00     0.062 H 
ATOM     14  H   LIG d   1       3.046   1.079  -1.377  0.00  0.00     0.062 H 
ATOM     15  H   LIG d   1       2.023   0.683  -3.576  0.00  0.00     0.062 H 
ENDROOT
BRANCH  10  16
ATOM     16  C   LIG d   1       3.661  -0.657  -8.121  0.00  0.00     0.078 A 
ATOM     17  C   LIG d   1       3.495   0.403  -9.026  0.00  0.00     0.023 A 
ATOM     18  C   LIG d   1       2.980   0.148 -10.301  0.00  0.00    -0.051 A 
ATOM     19  C   LIG d   1       2.630  -1.137 -10.655  0.00  0.00    -0.061 A 
ATOM     20  H   LIG d   1       2.853   0.956 -11.005  0.00  0.00     0.062 H 
ATOM     21  C   LIG d   1       2.790  -2.180  -9.756  0.00  0.00    -0.060 A 
ATOM     22  H   LIG d   1       2.228  -1.332 -11.639  0.00  0.00     0.062 H 
ATOM     23  C   LIG d   1       3.303  -1.945  -8.496  0.00  0.00    -0.035 A 
ATOM     24  H   LIG d   1       2.513  -3.183 -10.045  0.00  0.00     0.062 H 
ATOM     25  H   LIG d   1       3.426  -2.763  -7.803  0.00  0.00     0.064 H 
BRANCH  17  26
ATOM     26  C   LIG d   1       3.865   1.773  -8.638  0.00  0.00     0.074 C 
ATOM     27  O   LIG d   1       5.014   2.165  -8.797  0.00  0.00    -0.545 OA
ATOM     28  O   LIG d   1       3.026   2.522  -8.156  0.00  0.00    -0.545 OA
ENDBRANCH  17  26
ENDBRANCH  10  16
BRANCH   1  29
ATOM     29  C   LIG d   1       7.596  -0.519  -5.320  0.00  0.00    -0.020 C 
ATOM     30  H   LIG d   1       8.105  -0.083  -6.179  0.00  0.00     0.029 H 
ATOM     31  H   LIG d   1       7.922  -0.016  -4.410  0.00  0.00     0.029 H 
ATOM     32  H   LIG d   1       7.836  -1.581  -5.254  0.00  0.00     0.029 H 
ENDBRANCH   1  29
TORSDOF 3
ENDMDL
MODEL 6
REMARK VINA RESULT:      -6.5      1.766      5.771
REMARK  3 active torsions:
REMARK  status: ('A' for Active; 'I' for Inactive)
REMARK    1  A    between atoms: C_1  and  C_2 
REMARK    2  A    between atoms: N_11  and  C_13 
REMARK    3  A    between atoms: C_18  and  C_19 
ROOT
ATOM      1  C   LIG d   1       6.222   0.309  -7.509  0.00  0.00     0.067 A 
ATOM      2  C   LIG d   1       5.076   0.459  -8.406  0.00  0.00     0.010 A 
ATOM      3  C   LIG d   1       5.236   0.721  -9.769  0.00  0.00    -0.052 A 
ATOM      4  C   LIG d   1       4.133   0.852 -10.566  0.00  0.00    -0.061 A 
ATOM      5  C   LIG d   1       2.854   0.727 -10.041  0.00  0.00    -0.061 A 
ATOM      6  C   LIG d   1       2.665   0.468  -8.701  0.00  0.00    -0.049 A 
ATOM      7  C   LIG d   1       3.775   0.331  -7.868  0.00  0.00     0.050 A 
ATOM      8  C   LIG d   1       3.642   0.053  -6.433  0.00  0.00     0.280 A 
ATOM      9  O   LIG d   1       2.542  -0.065  -5.924  0.00  0.00    -0.265 OA
ATOM     10  N   LIG d   1       4.761  -0.067  -5.688  0.00  0.00    -0.195 N 
ATOM     11  N   LIG d   1       6.032   0.060  -6.247  0.00  0.00    -0.168 NA
ATOM     12  H   LIG d   1       6.226   0.822 -10.189  0.00  0.00     0.062 H 
ATOM     13  H   LIG d   1       4.259   1.056 -11.619  0.00  0.00     0.062 H 
ATOM     14  H   LIG d   1       1.996   0.834 -10.689  0.00  0.00     0.062 H 
ATOM     15  H   LIG d   1       1.668   0.371  -8.299  0.00  0.00     0.062 H 
ENDROOT
BRANCH  10  16
ATOM     16  C   LIG d   1       4.643  -0.330  -4.325  0.00  0.00     0.078 A 
ATOM     17  C   LIG d   1       4.782  -1.642  -3.844  0.00  0.00     0.023 A 
ATOM     18  C   LIG d   1       4.667  -1.890  -2.473  0.00  0.00    -0.051 A 
ATOM     19  C   LIG d   1       4.407  -0.850  -1.606  0.00  0.00    -0.061 A 
ATOM     20  H   LIG d   1       4.778  -2.895  -2.093  0.00  0.00     0.062 H 
ATOM     21  C   LIG d   1       4.265   0.443  -2.086  0.00  0.00    -0.060 A 
ATOM     22  H   LIG d   1       4.315  -1.044  -0.548  0.00  0.00     0.062 H 
ATOM     23  C   LIG d   1       4.382   0.704  -3.436  0.00  0.00    -0.035 A 
ATOM     24  H   LIG d   1       4.062   1.250  -1.398  0.00  0.00     0.062 H 
ATOM     25  H   LIG d   1       4.271   1.714  -3.800  0.00  0.00     0.064 H 
BRANCH  17  26
ATOM     26  C   LIG d   1       5.053  -2.747  -4.776  0.00  0.00     0.074 C 
ATOM     27  O   LIG d   1       4.125  -3.338  -5.313  0.00  0.00    -0.545 OA
ATOM     28  O   LIG d   1       6.207  -3.078  -5.015  0.00  0.00    -0.545 OA
ENDBRANCH  17  26
ENDBRANCH  10  16
BRANCH   1  29
ATOM     29  C   LIG d   1       7.624   0.439  -8.049  0.00  0.00    -0.020 C 
ATOM     30  H   LIG d   1       8.319   0.587  -7.223  0.00  0.00     0.029 H 
ATOM     31  H   LIG d   1       7.890  -0.469  -8.590  0.00  0.00     0.029 H 
ATOM     32  H   LIG d   1       7.675   1.293  -8.724  0.00  0.00     0.029 H 
ENDBRANCH   1  29
TORSDOF 3
ENDMDL
MODEL 7
REMARK VINA RESULT:      -6.5      1.939      5.722
REMARK  3 active torsions:
REMARK  status: ('A' for Active; 'I' for Inactive)
REMARK    1  A    between atoms: C_1  and  C_2 
REMARK    2  A    between atoms: N_11  and  C_13 
REMARK    3  A    between atoms: C_18  and  C_19 
ROOT
ATOM      1  C   LIG d   1       3.198   0.813  -7.937  0.00  0.00     0.067 A 
ATOM      2  C   LIG d   1       3.285  -0.332  -8.843  0.00  0.00     0.010 A 
ATOM      3  C   LIG d   1       3.003  -0.217 -10.206  0.00  0.00    -0.052 A 
ATOM      4  C   LIG d   1       3.099  -1.317 -11.012  0.00  0.00    -0.061 A 
ATOM      5  C   LIG d   1       3.475  -2.550 -10.495  0.00  0.00    -0.061 A 
ATOM      6  C   LIG d   1       3.760  -2.694  -9.155  0.00  0.00    -0.049 A 
ATOM      7  C   LIG d   1       3.668  -1.586  -8.313  0.00  0.00     0.050 A 
ATOM      8  C   LIG d   1       3.960  -1.673  -6.877  0.00  0.00     0.280 A 
ATOM      9  O   LIG d   1       4.293  -2.731  -6.376  0.00  0.00    -0.265 OA
ATOM     10  N   LIG d   1       3.850  -0.559  -6.124  0.00  0.00    -0.195 N 
ATOM     11  N   LIG d   1       3.474   0.666  -6.675  0.00  0.00    -0.168 NA
ATOM     12  H   LIG d   1       2.708   0.737 -10.620  0.00  0.00     0.062 H 
ATOM     13  H   LIG d   1       2.879  -1.225 -12.066  0.00  0.00     0.062 H 
ATOM     14  H   LIG d   1       3.545  -3.405 -11.151  0.00  0.00     0.062 H 
ATOM     15  H   LIG d   1       4.052  -3.655  -8.760  0.00  0.00     0.062 H 
ENDROOT
BRANCH  10  16
ATOM     16  C   LIG d   1       4.124  -0.633  -4.760  0.00  0.00     0.078 A 
ATOM     17  C   LIG d   1       5.437  -0.460  -4.293  0.00  0.00     0.023 A 
ATOM     18  C   LIG d   1       5.697  -0.532  -2.921  0.00  0.00    -0.051 A 
ATOM     19  C   LIG d   1       4.668  -0.782  -2.040  0.00  0.00    -0.061 A 
ATOM     20  H   LIG d   1       6.703  -0.395  -2.553  0.00  0.00     0.062 H 
ATOM     21  C   LIG d   1       3.374  -0.958  -2.505  0.00  0.00    -0.060 A 
ATOM     22  H   LIG d   1       4.870  -0.841  -0.980  0.00  0.00     0.062 H 
ATOM     23  C   LIG d   1       3.101  -0.884  -3.856  0.00  0.00    -0.035 A 
ATOM     24  H   LIG d   1       2.575  -1.153  -1.805  0.00  0.00     0.062 H 
ATOM     25  H   LIG d   1       2.090  -1.022  -4.209  0.00  0.00     0.064 H 
BRANCH  17  26
ATOM     26  C   LIG d   1       6.532  -0.199  -5.241  0.00  0.00     0.074 C 
ATOM     27  O   LIG d   1       6.804   0.951  -5.561  0.00  0.00    -0.545 OA
ATOM     28  O   LIG d   1       7.171  -1.131  -5.711  0.00  0.00    -0.545 OA
ENDBRANCH  17  26
ENDBRANCH  10  16
BRANCH   1  29
ATOM     29  C   LIG d   1       2.793   2.165  -8.467  0.00  0.00    -0.020 C 
ATOM     30  H   LIG d   1       3.372   2.940  -7.966  0.00  0.00     0.029 H 
ATOM     31  H   LIG d   1       2.982   2.206  -9.539  0.00  0.00     0.029 H 
ATOM     32  H   LIG d   1       1.731   2.325  -8.278  0.00  0.00     0.029 H 
ENDBRANCH   1  29
TORSDOF 3
ENDMDL
MODEL 8
REMARK VINA RESULT:      -6.1      3.786      5.109
REMARK  3 active torsions:
REMARK  status: ('A' for Active; 'I' for Inactive)
REMARK    1  A    between atoms: C_1  and  C_2 
REMARK    2  A    between atoms: N_11  and  C_13 
REMARK    3  A    between atoms: C_18  and  C_19 
ROOT
ATOM      1  C   LIG d   1       7.160  -1.761  -4.064  0.00  0.00     0.067 A 
ATOM      2  C   LIG d   1       5.871  -1.437  -3.452  0.00  0.00     0.010 A 
ATOM      3  C   LIG d   1       4.954  -2.429  -3.096  0.00  0.00    -0.052 A 
ATOM      4  C   LIG d   1       3.762  -2.075  -2.527  0.00  0.00    -0.061 A 
ATOM      5  C   LIG d   1       3.449  -0.742  -2.297  0.00  0.00    -0.061 A 
ATOM      6  C   LIG d   1       4.334   0.258  -2.638  0.00  0.00    -0.049 A 
ATOM      7  C   LIG d   1       5.555  -0.078  -3.220  0.00  0.00     0.050 A 
ATOM      8  C   LIG d   1       6.541   0.938  -3.604  0.00  0.00     0.280 A 
ATOM      9  O   LIG d   1       6.314   2.121  -3.424  0.00  0.00    -0.265 OA
ATOM     10  N   LIG d   1       7.703   0.539  -4.162  0.00  0.00    -0.195 N 
ATOM     11  N   LIG d   1       7.989  -0.809  -4.376  0.00  0.00    -0.168 NA
ATOM     12  H   LIG d   1       5.186  -3.469  -3.271  0.00  0.00     0.062 H 
ATOM     13  H   LIG d   1       3.055  -2.844  -2.254  0.00  0.00     0.062 H 
ATOM     14  H   LIG d   1       2.501  -0.486  -1.847  0.00  0.00     0.062 H 
ATOM     15  H   LIG d   1       4.084   1.292  -2.456  0.00  0.00     0.062 H 
ENDROOT
BRANCH  10  16
ATOM     16  C   LIG d   1       8.643   1.498  -4.531  0.00  0.00     0.078 A 
ATOM     17  C   LIG d   1       8.819   1.830  -5.884  0.00  0.00     0.023 A 
ATOM     18  C   LIG d   1       9.763   2.799  -6.240  0.00  0.00    -0.051 A 
ATOM     19  C   LIG d   1      10.520   3.411  -5.265  0.00  0.00    -0.061 A 
ATOM     20  H   LIG d   1       9.901   3.065  -7.278  0.00  0.00     0.062 H 
ATOM     21  C   LIG d   1      10.347   3.076  -3.930  0.00  0.00    -0.060 A 
ATOM     22  H   LIG d   1      11.251   4.156  -5.541  0.00  0.00     0.062 H 
ATOM     23  C   LIG d   1       9.415   2.126  -3.563  0.00  0.00    -0.035 A 
ATOM     24  H   LIG d   1      10.945   3.563  -3.174  0.00  0.00     0.062 H 
ATOM     25  H   LIG d   1       9.287   1.873  -2.522  0.00  0.00     0.064 H 
BRANCH  17  26
ATOM     26  C   LIG d   1       8.011   1.168  -6.920  0.00  0.00     0.074 C 
ATOM     27  O   LIG d   1       6.862   1.535  -7.129  0.00  0.00    -0.545 OA
ATOM     28  O   LIG d   1       8.487   0.249  -7.574  0.00  0.00    -0.545 OA
ENDBRANCH  17  26
ENDBRANCH  10  16
BRANCH   1  29
ATOM     29  C   LIG d   1       7.530  -3.199  -4.326  0.00  0.00    -0.020 C 
ATOM     30  H   LIG d   1       8.613  -3.287  -4.402  0.00  0.00     0.029 H 
ATOM     31  H   LIG d   1       7.171  -3.821  -3.507  0.00  0.00     0.029 H 
ATOM     32  H   LIG d   1       7.072  -3.526  -5.260  0.00  0.00     0.029 H 
ENDBRANCH   1  29
TORSDOF 3
ENDMDL
MODEL 9
REMARK VINA RESULT:      -6.0      2.198      5.465
REMARK  3 active torsions:
REMARK  status: ('A' for Active; 'I' for Inactive)
REMARK    1  A    between atoms: C_1  and  C_2 
REMARK    2  A    between atoms: N_11  and  C_13 
REMARK    3  A    between atoms: C_18  and  C_19 
ROOT
ATOM      1  C   LIG d   1       4.174  -2.947  -7.856  0.00  0.00     0.067 A 
ATOM      2  C   LIG d   1       3.192  -2.198  -8.640  0.00  0.00     0.010 A 
ATOM      3  C   LIG d   1       2.468  -2.792  -9.676  0.00  0.00    -0.052 A 
ATOM      4  C   LIG d   1       1.560  -2.050 -10.379  0.00  0.00    -0.061 A 
ATOM      5  C   LIG d   1       1.346  -0.711 -10.077  0.00  0.00    -0.061 A 
ATOM      6  C   LIG d   1       2.046  -0.098  -9.061  0.00  0.00    -0.049 A 
ATOM      7  C   LIG d   1       2.977  -0.835  -8.330  0.00  0.00     0.050 A 
ATOM      8  C   LIG d   1       3.753  -0.242  -7.235  0.00  0.00     0.280 A 
ATOM      9  O   LIG d   1       3.602   0.928  -6.932  0.00  0.00    -0.265 OA
ATOM     10  N   LIG d   1       4.636  -1.016  -6.571  0.00  0.00    -0.195 N 
ATOM     11  N   LIG d   1       4.824  -2.359  -6.896  0.00  0.00    -0.168 NA
ATOM     12  H   LIG d   1       2.626  -3.832  -9.920  0.00  0.00     0.062 H 
ATOM     13  H   LIG d   1       1.002  -2.512 -11.180  0.00  0.00     0.062 H 
ATOM     14  H   LIG d   1       0.624  -0.144 -10.646  0.00  0.00     0.062 H 
ATOM     15  H   LIG d   1       1.874   0.943  -8.831  0.00  0.00     0.062 H 
ENDROOT
BRANCH  10  16
ATOM     16  C   LIG d   1       5.377  -0.460  -5.530  0.00  0.00     0.078 A 
ATOM     17  C   LIG d   1       4.890  -0.506  -4.214  0.00  0.00     0.023 A 
ATOM     18  C   LIG d   1       5.648   0.052  -3.179  0.00  0.00    -0.051 A 
ATOM     19  C   LIG d   1       6.857   0.650  -3.458  0.00  0.00    -0.061 A 
ATOM     20  H   LIG d   1       5.283   0.017  -2.162  0.00  0.00     0.062 H 
ATOM     21  C   LIG d   1       7.332   0.697  -4.759  0.00  0.00    -0.060 A 
ATOM     22  H   LIG d   1       7.439   1.083  -2.657  0.00  0.00     0.062 H 
ATOM     23  C   LIG d   1       6.599   0.146  -5.791  0.00  0.00    -0.035 A 
ATOM     24  H   LIG d   1       8.281   1.168  -4.967  0.00  0.00     0.062 H 
ATOM     25  H   LIG d   1       6.976   0.187  -6.802  0.00  0.00     0.064 H 
BRANCH  17  26
ATOM     26  C   LIG d   1       3.595  -1.141  -3.925  0.00  0.00     0.074 C 
ATOM     27  O   LIG d   1       2.569  -0.474  -3.945  0.00  0.00    -0.545 OA
ATOM     28  O   LIG d   1       3.543  -2.335  -3.664  0.00  0.00    -0.545 OA
ENDBRANCH  17  26
ENDBRANCH  10  16
BRANCH   1  29
ATOM     29  C   LIG d   1       4.429  -4.402  -8.158  0.00  0.00    -0.020 C 
ATOM     30  H   LIG d   1       4.841  -4.498  -9.162  0.00  0.00     0.029 H 
ATOM     31  H   LIG d   1       5.138  -4.804  -7.435  0.00  0.00     0.029 H 
ATOM     32  H   LIG d   1       3.492  -4.955  -8.095  0.00  0.00     0.029 H 
ENDBRANCH   1  29
TORSDOF 3
ENDMDL
MODEL 10
REMARK VINA RESULT:      -6.0      2.876      5.222
REMARK  3 active torsions:
REMARK  status: ('A' for Active; 'I' for Inactive)
REMARK    1  A    between atoms: C_1  and  C_2 
REMARK    2  A    between atoms: N_11  and  C_13 
REMARK    3  A    between atoms: C_18  and  C_19 
ROOT
ATOM      1  C   LIG d   1       5.525  -4.710  -5.327  0.00  0.00     0.067 A 
ATOM      2  C   LIG d   1       6.941  -4.530  -5.006  0.00  0.00     0.010 A 
ATOM      3  C   LIG d   1       7.843  -5.596  -5.031  0.00  0.00    -0.052 A 
ATOM      4  C   LIG d   1       9.157  -5.377  -4.724  0.00  0.00    -0.061 A 
ATOM      5  C   LIG d   1       9.609  -4.108  -4.386  0.00  0.00    -0.061 A 
ATOM      6  C   LIG d   1       8.742  -3.038  -4.352  0.00  0.00    -0.049 A 
ATOM      7  C   LIG d   1       7.398  -3.237  -4.662  0.00  0.00     0.050 A 
ATOM      8  C   LIG d   1       6.424  -2.139  -4.645  0.00  0.00     0.280 A 
ATOM      9  O   LIG d   1       6.771  -1.008  -4.355  0.00  0.00    -0.265 OA
ATOM     10  N   LIG d   1       5.139  -2.406  -4.957  0.00  0.00    -0.195 N 
ATOM     11  N   LIG d   1       4.717  -3.691  -5.297  0.00  0.00    -0.168 NA
ATOM     12  H   LIG d   1       7.504  -6.588  -5.292  0.00  0.00     0.062 H 
ATOM     13  H   LIG d   1       9.853  -6.203  -4.744  0.00  0.00     0.062 H 
ATOM     14  H   LIG d   1      10.652  -3.958  -4.146  0.00  0.00     0.062 H 
ATOM     15  H   LIG d   1       9.101  -2.054  -4.089  0.00  0.00     0.062 H 
ENDROOT
BRANCH  10  16
ATOM     16  C   LIG d   1       4.208  -1.369  -4.943  0.00  0.00     0.078 A 
ATOM     17  C   LIG d   1       3.578  -1.003  -3.742  0.00  0.00     0.023 A 
ATOM     18  C   LIG d   1       2.650   0.043  -3.741  0.00  0.00    -0.051 A 
ATOM     19  C   LIG d   1       2.352   0.698  -4.916  0.00  0.00    -0.061 A 
ATOM     20  H   LIG d   1       2.164   0.335  -2.822  0.00  0.00     0.062 H 
ATOM     21  C   LIG d   1       2.973   0.330  -6.101  0.00  0.00    -0.060 A 
ATOM     22  H   LIG d   1       1.633   1.503  -4.915  0.00  0.00     0.062 H 
ATOM     23  C   LIG d   1       3.896  -0.697  -6.116  0.00  0.00    -0.035 A 
ATOM     24  H   LIG d   1       2.733   0.851  -7.016  0.00  0.00     0.062 H 
ATOM     25  H   LIG d   1       4.374  -0.976  -7.042  0.00  0.00     0.064 H 
BRANCH  17  26
ATOM     26  C   LIG d   1       3.896  -1.711  -2.493  0.00  0.00     0.074 C 
ATOM     27  O   LIG d   1       4.533  -1.146  -1.613  0.00  0.00    -0.545 OA
ATOM     28  O   LIG d   1       3.526  -2.866  -2.331  0.00  0.00    -0.545 OA
ENDBRANCH  17  26
ENDBRANCH  10  16
BRANCH   1  29
ATOM     29  C   LIG d   1       5.003  -6.074  -5.698  0.00  0.00    -0.020 C 
ATOM     30  H   LIG d   1       5.169  -6.250  -6.760  0.00  0.00     0.029 H 
ATOM     31  H   LIG d   1       5.526  -6.834  -5.118  0.00  0.00     0.029 H 
ATOM     32  H   LIG d   1       3.935  -6.124  -5.484  0.00  0.00     0.029 H 
ENDBRANCH   1  29
TORSDOF 3
ENDMDL
