MODEL 1
REMARK VINA RESULT:      -7.1      0.000      0.000
REMARK  10 active torsions:
REMARK  status: ('A' for Active; 'I' for Inactive)
REMARK    1  A    between atoms: C_1  and  C_2 
REMARK    2  A    between atoms: C_7  and  C_8 
REMARK    3  A    between atoms: C_8  and  N_9 
REMARK    4  A    between atoms: C_13  and  C_15 
REMARK    5  A    between atoms: C_17  and  C_20 
REMARK    6  A    between atoms: C_23  and  N_26 
REMARK    7  A    between atoms: N_26  and  C_27 
REMARK    8  A    between atoms: C_27  and  C_28 
REMARK    9  A    between atoms: C_28  and  O_29 
REMARK   10  A    between atoms: O_29  and  C_30 
ROOT
ATOM      1  N   LIG d   1       4.230   0.232  -6.552  0.00  0.00     0.247 N 
ATOM      2  C   LIG d   1       3.139   0.605  -7.477  0.00  0.00    -0.031 C 
ATOM      3  C   LIG d   1       3.845   0.899  -8.824  0.00  0.00    -0.007 C 
ATOM      4  C   LIG d   1       4.963  -0.177  -8.833  0.00  0.00     0.004 C 
ATOM      5  C   LIG d   1       5.367  -0.270  -7.345  0.00  0.00     0.060 C 
ATOM      6  H   LIG d   1       5.575  -1.307  -7.082  0.00  0.00     0.095 H 
ATOM      7  H   LIG d   1       2.436  -0.220  -7.589  0.00  0.00     0.082 H 
ATOM      8  H   LIG d   1       2.624   1.496  -7.116  0.00  0.00     0.082 H 
ATOM      9  H   LIG d   1       3.161   0.758  -9.661  0.00  0.00     0.032 H 
ATOM     10  H   LIG d   1       4.269   1.902  -8.833  0.00  0.00     0.032 H 
ATOM     11  H   LIG d   1       4.576  -1.132  -9.187  0.00  0.00     0.033 H 
ATOM     12  H   LIG d   1       5.806   0.148  -9.441  0.00  0.00     0.033 H 
ATOM     13  H   LIG d   1       4.517   1.042  -6.023  0.00  0.00     0.204 HD
ENDROOT
BRANCH   5  14
ATOM     14  C   LIG d   1       6.585   0.581  -7.091  0.00  0.00     0.276 A 
ATOM     15  O   LIG d   1       7.421   1.050  -8.026  0.00  0.00    -0.332 OA
ATOM     16  N   LIG d   1       8.413   1.798  -7.339  0.00  0.00    -0.056 NA
ATOM     17  C   LIG d   1       8.117   1.722  -6.065  0.00  0.00     0.208 A 
ATOM     18  N   LIG d   1       7.004   0.980  -5.925  0.00  0.00    -0.186 NA
BRANCH  17  19
ATOM     19  C   LIG d   1       8.883   2.351  -4.961  0.00  0.00     0.086 A 
ATOM     20  C   LIG d   1       9.576   1.564  -4.045  0.00  0.00     0.182 A 
ATOM     21  N   LIG d   1      10.263   2.118  -3.066  0.00  0.00    -0.198 N 
ATOM     22  H   LIG d   1       9.555   0.489  -4.141  0.00  0.00     0.138 H 
ATOM     23  C   LIG d   1      10.313   3.432  -2.906  0.00  0.00     0.269 A 
ATOM     24  H   LIG d   1      10.741   1.548  -2.443  0.00  0.00     0.454 HD
ATOM     25  C   LIG d   1       9.639   4.284  -3.779  0.00  0.00     0.027 A 
ATOM     26  C   LIG d   1       8.914   3.744  -4.821  0.00  0.00    -0.038 A 
ATOM     27  H   LIG d   1       9.686   5.354  -3.642  0.00  0.00     0.070 H 
ATOM     28  H   LIG d   1       8.383   4.380  -5.514  0.00  0.00     0.063 H 
BRANCH  23  29
ATOM     29  N   LIG d   1      11.045   3.967  -1.855  0.00  0.00    -0.289 N 
ATOM     30  H   LIG d   1      11.483   3.379  -1.220  0.00  0.00     0.152 HD
BRANCH  29  31
ATOM     31  C   LIG d   1      11.158   5.420  -1.706  0.00  0.00     0.038 C 
ATOM     32  H   LIG d   1      12.175   5.732  -1.942  0.00  0.00     0.049 H 
ATOM     33  H   LIG d   1      10.461   5.910  -2.386  0.00  0.00     0.049 H 
BRANCH  31  34
ATOM     34  C   LIG d   1      10.825   5.812  -0.265  0.00  0.00     0.063 C 
ATOM     35  H   LIG d   1      10.387   4.957   0.252  0.00  0.00     0.058 H 
ATOM     36  H   LIG d   1      11.737   6.117   0.248  0.00  0.00     0.058 H 
BRANCH  34  37
ATOM     37  O   LIG d   1       9.894   6.895  -0.269  0.00  0.00    -0.381 OA
BRANCH  37  38
ATOM     38  C   LIG d   1       9.441   7.268  -1.573  0.00  0.00     0.036 C 
ATOM     39  H   LIG d   1       8.355   7.187  -1.616  0.00  0.00     0.052 H 
ATOM     40  H   LIG d   1       9.738   8.295  -1.781  0.00  0.00     0.052 H 
ATOM     41  H   LIG d   1       9.884   6.603  -2.315  0.00  0.00     0.052 H 
ENDBRANCH  37  38
ENDBRANCH  34  37
ENDBRANCH  31  34
ENDBRANCH  29  31
ENDBRANCH  23  29
ENDBRANCH  17  19
ENDBRANCH   5  14
BRANCH   1  42
ATOM     42  C   LIG d   1       3.765  -0.819  -5.637  0.00  0.00    -0.005 C 
ATOM     43  H   LIG d   1       4.330  -1.734  -5.817  0.00  0.00     0.087 H 
ATOM     44  H   LIG d   1       2.705  -1.007  -5.808  0.00  0.00     0.087 H 
BRANCH  42  45
ATOM     45  C   LIG d   1       3.972  -0.372  -4.212  0.00  0.00     0.000 A 
ATOM     46  C   LIG d   1       4.420  -1.272  -3.264  0.00  0.00    -0.042 A 
ATOM     47  C   LIG d   1       4.615  -0.861  -1.959  0.00  0.00    -0.058 A 
ATOM     48  C   LIG d   1       4.358   0.449  -1.601  0.00  0.00    -0.061 A 
ATOM     49  H   LIG d   1       4.971  -1.563  -1.218  0.00  0.00     0.062 H 
ATOM     50  C   LIG d   1       3.904   1.348  -2.549  0.00  0.00    -0.061 A 
ATOM     51  H   LIG d   1       4.510   0.770  -0.581  0.00  0.00     0.062 H 
ATOM     52  C   LIG d   1       3.709   0.937  -3.853  0.00  0.00    -0.053 A 
ATOM     53  H   LIG d   1       3.702   2.371  -2.269  0.00  0.00     0.062 H 
ATOM     54  H   LIG d   1       3.355   1.640  -4.594  0.00  0.00     0.062 H 
BRANCH  46  55
ATOM     55  C   LIG d   1       4.702  -2.700  -3.654  0.00  0.00    -0.039 C 
ATOM     56  H   LIG d   1       5.742  -2.939  -3.432  0.00  0.00     0.028 H 
ATOM     57  H   LIG d   1       4.048  -3.366  -3.091  0.00  0.00     0.028 H 
ATOM     58  H   LIG d   1       4.519  -2.828  -4.721  0.00  0.00     0.028 H 
ENDBRANCH  46  55
ENDBRANCH  42  45
ENDBRANCH   1  42
TORSDOF 10
ENDMDL
MODEL 2
REMARK VINA RESULT:      -6.6      1.519      2.174
REMARK  10 active torsions:
REMARK  status: ('A' for Active; 'I' for Inactive)
REMARK    1  A    between atoms: C_1  and  C_2 
REMARK    2  A    between atoms: C_7  and  C_8 
REMARK    3  A    between atoms: C_8  and  N_9 
REMARK    4  A    between atoms: C_13  and  C_15 
REMARK    5  A    between atoms: C_17  and  C_20 
REMARK    6  A    between atoms: C_23  and  N_26 
REMARK    7  A    between atoms: N_26  and  C_27 
REMARK    8  A    between atoms: C_27  and  C_28 
REMARK    9  A    between atoms: C_28  and  O_29 
REMARK   10  A    between atoms: O_29  and  C_30 
ROOT
ATOM      1  N   LIG d   1       3.336   0.627  -6.015  0.00  0.00     0.247 N 
ATOM      2  C   LIG d   1       2.601   1.317  -7.097  0.00  0.00    -0.031 C 
ATOM      3  C   LIG d   1       3.297   0.856  -8.403  0.00  0.00    -0.007 C 
ATOM      4  C   LIG d   1       3.625  -0.625  -8.078  0.00  0.00     0.004 C 
ATOM      5  C   LIG d   1       3.968  -0.582  -6.573  0.00  0.00     0.060 C 
ATOM      6  H   LIG d   1       3.573  -1.470  -6.078  0.00  0.00     0.095 H 
ATOM      7  H   LIG d   1       1.554   1.015  -7.099  0.00  0.00     0.082 H 
ATOM      8  H   LIG d   1       2.685   2.398  -6.984  0.00  0.00     0.082 H 
ATOM      9  H   LIG d   1       2.618   0.928  -9.252  0.00  0.00     0.032 H 
ATOM     10  H   LIG d   1       4.208   1.427  -8.583  0.00  0.00     0.032 H 
ATOM     11  H   LIG d   1       2.758  -1.260  -8.257  0.00  0.00     0.033 H 
ATOM     12  H   LIG d   1       4.481  -0.966  -8.658  0.00  0.00     0.033 H 
ATOM     13  H   LIG d   1       4.046   1.241  -5.644  0.00  0.00     0.204 HD
ENDROOT
BRANCH   5  14
ATOM     14  C   LIG d   1       5.462  -0.511  -6.390  0.00  0.00     0.276 A 
ATOM     15  O   LIG d   1       6.363  -1.294  -6.997  0.00  0.00    -0.332 OA
ATOM     16  N   LIG d   1       7.637  -0.873  -6.533  0.00  0.00    -0.056 NA
ATOM     17  C   LIG d   1       7.420   0.107  -5.690  0.00  0.00     0.208 A 
ATOM     18  N   LIG d   1       6.094   0.319  -5.610  0.00  0.00    -0.186 NA
BRANCH  17  19
ATOM     19  C   LIG d   1       8.462   0.857  -4.948  0.00  0.00     0.086 A 
ATOM     20  C   LIG d   1       8.107   1.862  -4.053  0.00  0.00     0.182 A 
ATOM     21  N   LIG d   1       9.030   2.527  -3.387  0.00  0.00    -0.198 N 
ATOM     22  H   LIG d   1       7.064   2.096  -3.899  0.00  0.00     0.138 H 
ATOM     23  C   LIG d   1      10.321   2.278  -3.547  0.00  0.00     0.269 A 
ATOM     24  H   LIG d   1       8.756   3.219  -2.765  0.00  0.00     0.454 HD
ATOM     25  C   LIG d   1      10.753   1.290  -4.430  0.00  0.00     0.027 A 
ATOM     26  C   LIG d   1       9.819   0.567  -5.142  0.00  0.00    -0.038 A 
ATOM     27  H   LIG d   1      11.808   1.093  -4.554  0.00  0.00     0.070 H 
ATOM     28  H   LIG d   1      10.125  -0.205  -5.833  0.00  0.00     0.063 H 
BRANCH  23  29
ATOM     29  N   LIG d   1      11.254   3.010  -2.827  0.00  0.00    -0.289 N 
ATOM     30  H   LIG d   1      12.154   2.668  -2.711  0.00  0.00     0.152 HD
BRANCH  29  31
ATOM     31  C   LIG d   1      10.880   4.300  -2.242  0.00  0.00     0.038 C 
ATOM     32  H   LIG d   1       9.800   4.428  -2.305  0.00  0.00     0.049 H 
ATOM     33  H   LIG d   1      11.189   4.328  -1.197  0.00  0.00     0.049 H 
BRANCH  31  34
ATOM     34  C   LIG d   1      11.573   5.427  -3.009  0.00  0.00     0.063 C 
ATOM     35  H   LIG d   1      12.582   5.566  -2.619  0.00  0.00     0.058 H 
ATOM     36  H   LIG d   1      11.627   5.168  -4.067  0.00  0.00     0.058 H 
BRANCH  34  37
ATOM     37  O   LIG d   1      10.830   6.637  -2.852  0.00  0.00    -0.381 OA
BRANCH  37  38
ATOM     38  C   LIG d   1       9.862   6.592  -1.801  0.00  0.00     0.036 C 
ATOM     39  H   LIG d   1      10.369   6.643  -0.838  0.00  0.00     0.052 H 
ATOM     40  H   LIG d   1       9.181   7.437  -1.899  0.00  0.00     0.052 H 
ATOM     41  H   LIG d   1       9.298   5.661  -1.867  0.00  0.00     0.052 H 
ENDBRANCH  37  38
ENDBRANCH  34  37
ENDBRANCH  31  34
ENDBRANCH  29  31
ENDBRANCH  23  29
ENDBRANCH  17  19
ENDBRANCH   5  14
BRANCH   1  42
ATOM     42  C   LIG d   1       2.401   0.248  -4.947  0.00  0.00    -0.005 C 
ATOM     43  H   LIG d   1       1.752  -0.554  -5.300  0.00  0.00     0.087 H 
ATOM     44  H   LIG d   1       1.795   1.110  -4.671  0.00  0.00     0.087 H 
BRANCH  42  45
ATOM     45  C   LIG d   1       3.177  -0.226  -3.745  0.00  0.00     0.000 A 
ATOM     46  C   LIG d   1       3.746   0.693  -2.883  0.00  0.00    -0.042 A 
ATOM     47  C   LIG d   1       4.453   0.258  -1.778  0.00  0.00    -0.058 A 
ATOM     48  C   LIG d   1       4.594  -1.095  -1.537  0.00  0.00    -0.061 A 
ATOM     49  H   LIG d   1       4.894   0.976  -1.102  0.00  0.00     0.062 H 
ATOM     50  C   LIG d   1       4.029  -2.015  -2.402  0.00  0.00    -0.061 A 
ATOM     51  H   LIG d   1       5.148  -1.435  -0.673  0.00  0.00     0.062 H 
ATOM     52  C   LIG d   1       3.322  -1.580  -3.506  0.00  0.00    -0.053 A 
ATOM     53  H   LIG d   1       4.141  -3.072  -2.213  0.00  0.00     0.062 H 
ATOM     54  H   LIG d   1       2.880  -2.298  -4.182  0.00  0.00     0.062 H 
BRANCH  46  55
ATOM     55  C   LIG d   1       3.591   2.168  -3.147  0.00  0.00    -0.039 C 
ATOM     56  H   LIG d   1       2.541   2.445  -3.054  0.00  0.00     0.028 H 
ATOM     57  H   LIG d   1       4.180   2.731  -2.422  0.00  0.00     0.028 H 
ATOM     58  H   LIG d   1       3.940   2.397  -4.154  0.00  0.00     0.028 H 
ENDBRANCH  46  55
ENDBRANCH  42  45
ENDBRANCH   1  42
TORSDOF 10
ENDMDL
MODEL 3
REMARK VINA RESULT:      -6.5      2.296      3.220
REMARK  10 active torsions:
REMARK  status: ('A' for Active; 'I' for Inactive)
REMARK    1  A    between atoms: C_1  and  C_2 
REMARK    2  A    between atoms: C_7  and  C_8 
REMARK    3  A    between atoms: C_8  and  N_9 
REMARK    4  A    between atoms: C_13  and  C_15 
REMARK    5  A    between atoms: C_17  and  C_20 
REMARK    6  A    between atoms: C_23  and  N_26 
REMARK    7  A    between atoms: N_26  and  C_27 
REMARK    8  A    between atoms: C_27  and  C_28 
REMARK    9  A    between atoms: C_28  and  O_29 
REMARK   10  A    between atoms: O_29  and  C_30 
ROOT
ATOM      1  N   LIG d   1       7.090   0.557  -5.765  0.00  0.00     0.247 N 
ATOM      2  C   LIG d   1       6.070   0.177  -6.765  0.00  0.00    -0.031 C 
ATOM      3  C   LIG d   1       6.599   0.746  -8.105  0.00  0.00    -0.007 C 
ATOM      4  C   LIG d   1       8.127   0.516  -7.962  0.00  0.00     0.004 C 
ATOM      5  C   LIG d   1       8.375   0.760  -6.458  0.00  0.00     0.060 C 
ATOM      6  H   LIG d   1       9.115   0.051  -6.085  0.00  0.00     0.095 H 
ATOM      7  H   LIG d   1       5.980  -0.907  -6.823  0.00  0.00     0.082 H 
ATOM      8  H   LIG d   1       5.108   0.626  -6.515  0.00  0.00     0.082 H 
ATOM      9  H   LIG d   1       6.198   0.188  -8.951  0.00  0.00     0.032 H 
ATOM     10  H   LIG d   1       6.372   1.808  -8.196  0.00  0.00     0.032 H 
ATOM     11  H   LIG d   1       8.390  -0.506  -8.235  0.00  0.00     0.033 H 
ATOM     12  H   LIG d   1       8.683   1.233  -8.566  0.00  0.00     0.033 H 
ATOM     13  H   LIG d   1       6.813   1.413  -5.307  0.00  0.00     0.204 HD
ENDROOT
BRANCH   5  14
ATOM     14  C   LIG d   1       8.858   2.171  -6.241  0.00  0.00     0.276 A 
ATOM     15  O   LIG d   1       9.390   2.969  -7.176  0.00  0.00    -0.332 OA
ATOM     16  N   LIG d   1       9.694   4.196  -6.530  0.00  0.00    -0.056 NA
ATOM     17  C   LIG d   1       9.341   4.053  -5.276  0.00  0.00     0.208 A 
ATOM     18  N   LIG d   1       8.834   2.818  -5.111  0.00  0.00    -0.186 NA
BRANCH  17  19
ATOM     19  C   LIG d   1       9.477   5.081  -4.216  0.00  0.00     0.086 A 
ATOM     20  C   LIG d   1       9.159   6.411  -4.477  0.00  0.00     0.182 A 
ATOM     21  N   LIG d   1       9.273   7.327  -3.536  0.00  0.00    -0.198 N 
ATOM     22  H   LIG d   1       8.810   6.694  -5.459  0.00  0.00     0.138 H 
ATOM     23  C   LIG d   1       9.701   7.028  -2.320  0.00  0.00     0.269 A 
ATOM     24  H   LIG d   1       9.040   8.246  -3.742  0.00  0.00     0.454 HD
ATOM     25  C   LIG d   1      10.044   5.719  -1.985  0.00  0.00     0.027 A 
ATOM     26  C   LIG d   1       9.934   4.729  -2.940  0.00  0.00    -0.038 A 
ATOM     27  H   LIG d   1      10.392   5.483  -0.991  0.00  0.00     0.070 H 
ATOM     28  H   LIG d   1      10.192   3.706  -2.708  0.00  0.00     0.063 H 
BRANCH  23  29
ATOM     29  N   LIG d   1       9.810   8.030  -1.365  0.00  0.00    -0.289 N 
ATOM     30  H   LIG d   1       9.251   8.008  -0.573  0.00  0.00     0.152 HD
BRANCH  29  31
ATOM     31  C   LIG d   1      10.769   9.120  -1.555  0.00  0.00     0.038 C 
ATOM     32  H   LIG d   1      11.382   9.225  -0.660  0.00  0.00     0.049 H 
ATOM     33  H   LIG d   1      11.409   8.897  -2.409  0.00  0.00     0.049 H 
BRANCH  31  34
ATOM     34  C   LIG d   1      10.014  10.425  -1.811  0.00  0.00     0.063 C 
ATOM     35  H   LIG d   1       9.158  10.489  -1.138  0.00  0.00     0.058 H 
ATOM     36  H   LIG d   1      10.678  11.271  -1.634  0.00  0.00     0.058 H 
BRANCH  34  37
ATOM     37  O   LIG d   1       9.557  10.453  -3.165  0.00  0.00    -0.381 OA
BRANCH  37  38
ATOM     38  C   LIG d   1       8.613  11.491  -3.438  0.00  0.00     0.036 C 
ATOM     39  H   LIG d   1       9.142  12.432  -3.593  0.00  0.00     0.052 H 
ATOM     40  H   LIG d   1       8.047  11.240  -4.335  0.00  0.00     0.052 H 
ATOM     41  H   LIG d   1       7.931  11.593  -2.594  0.00  0.00     0.052 H 
ENDBRANCH  37  38
ENDBRANCH  34  37
ENDBRANCH  31  34
ENDBRANCH  29  31
ENDBRANCH  23  29
ENDBRANCH  17  19
ENDBRANCH   5  14
BRANCH   1  42
ATOM     42  C   LIG d   1       7.230  -0.514  -4.769  0.00  0.00    -0.005 C 
ATOM     43  H   LIG d   1       8.213  -0.451  -4.302  0.00  0.00     0.087 H 
ATOM     44  H   LIG d   1       7.122  -1.482  -5.259  0.00  0.00     0.087 H 
BRANCH  42  45
ATOM     45  C   LIG d   1       6.162  -0.364  -3.716  0.00  0.00     0.000 A 
ATOM     46  C   LIG d   1       5.376  -1.447  -3.368  0.00  0.00    -0.042 A 
ATOM     47  C   LIG d   1       4.402  -1.310  -2.398  0.00  0.00    -0.058 A 
ATOM     48  C   LIG d   1       4.209  -0.090  -1.779  0.00  0.00    -0.061 A 
ATOM     49  H   LIG d   1       3.791  -2.158  -2.123  0.00  0.00     0.062 H 
ATOM     50  C   LIG d   1       4.991   0.995  -2.131  0.00  0.00    -0.061 A 
ATOM     51  H   LIG d   1       3.446   0.017  -1.022  0.00  0.00     0.062 H 
ATOM     52  C   LIG d   1       5.966   0.858  -3.101  0.00  0.00    -0.053 A 
ATOM     53  H   LIG d   1       4.839   1.949  -1.648  0.00  0.00     0.062 H 
ATOM     54  H   LIG d   1       6.577   1.706  -3.375  0.00  0.00     0.062 H 
BRANCH  46  55
ATOM     55  C   LIG d   1       5.587  -2.777  -4.043  0.00  0.00    -0.039 C 
ATOM     56  H   LIG d   1       5.670  -3.559  -3.287  0.00  0.00     0.028 H 
ATOM     57  H   LIG d   1       4.741  -2.992  -4.695  0.00  0.00     0.028 H 
ATOM     58  H   LIG d   1       6.503  -2.745  -4.634  0.00  0.00     0.028 H 
ENDBRANCH  46  55
ENDBRANCH  42  45
ENDBRANCH   1  42
TORSDOF 10
ENDMDL
MODEL 4
REMARK VINA RESULT:      -6.3      3.973      9.194
REMARK  10 active torsions:
REMARK  status: ('A' for Active; 'I' for Inactive)
REMARK    1  A    between atoms: C_1  and  C_2 
REMARK    2  A    between atoms: C_7  and  C_8 
REMARK    3  A    between atoms: C_8  and  N_9 
REMARK    4  A    between atoms: C_13  and  C_15 
REMARK    5  A    between atoms: C_17  and  C_20 
REMARK    6  A    between atoms: C_23  and  N_26 
REMARK    7  A    between atoms: N_26  and  C_27 
REMARK    8  A    between atoms: C_27  and  C_28 
REMARK    9  A    between atoms: C_28  and  O_29 
REMARK   10  A    between atoms: O_29  and  C_30 
ROOT
ATOM      1  N   LIG d   1       7.432  -0.815  -5.376  0.00  0.00     0.247 N 
ATOM      2  C   LIG d   1       8.616  -1.677  -5.573  0.00  0.00    -0.031 C 
ATOM      3  C   LIG d   1       9.212  -1.226  -6.931  0.00  0.00    -0.007 C 
ATOM      4  C   LIG d   1       8.972   0.306  -6.884  0.00  0.00     0.004 C 
ATOM      5  C   LIG d   1       7.617   0.424  -6.153  0.00  0.00     0.060 C 
ATOM      6  H   LIG d   1       7.632   1.284  -5.483  0.00  0.00     0.095 H 
ATOM      7  H   LIG d   1       9.338  -1.522  -4.772  0.00  0.00     0.082 H 
ATOM      8  H   LIG d   1       8.319  -2.725  -5.619  0.00  0.00     0.082 H 
ATOM      9  H   LIG d   1      10.276  -1.453  -6.984  0.00  0.00     0.032 H 
ATOM     10  H   LIG d   1       8.675  -1.680  -7.763  0.00  0.00     0.032 H 
ATOM     11  H   LIG d   1       9.760   0.802  -6.317  0.00  0.00     0.033 H 
ATOM     12  H   LIG d   1       8.904   0.716  -7.891  0.00  0.00     0.033 H 
ATOM     13  H   LIG d   1       6.606  -1.297  -5.697  0.00  0.00     0.204 HD
ENDROOT
BRANCH   5  14
ATOM     14  C   LIG d   1       6.504   0.570  -7.158  0.00  0.00     0.276 A 
ATOM     15  O   LIG d   1       6.266   1.652  -7.910  0.00  0.00    -0.332 OA
ATOM     16  N   LIG d   1       5.132   1.345  -8.707  0.00  0.00    -0.056 NA
ATOM     17  C   LIG d   1       4.767   0.129  -8.380  0.00  0.00     0.208 A 
ATOM     18  N   LIG d   1       5.608  -0.333  -7.437  0.00  0.00    -0.186 NA
BRANCH  17  19
ATOM     19  C   LIG d   1       3.619  -0.613  -8.954  0.00  0.00     0.086 A 
ATOM     20  C   LIG d   1       3.646  -2.002  -9.037  0.00  0.00     0.182 A 
ATOM     21  N   LIG d   1       2.625  -2.666  -9.541  0.00  0.00    -0.198 N 
ATOM     22  H   LIG d   1       4.511  -2.541  -8.680  0.00  0.00     0.138 H 
ATOM     23  C   LIG d   1       1.546  -2.047  -9.996  0.00  0.00     0.269 A 
ATOM     24  H   LIG d   1       2.667  -3.634  -9.584  0.00  0.00     0.454 HD
ATOM     25  C   LIG d   1       1.449  -0.657  -9.951  0.00  0.00     0.027 A 
ATOM     26  C   LIG d   1       2.493   0.075  -9.426  0.00  0.00    -0.038 A 
ATOM     27  H   LIG d   1       0.565  -0.160 -10.323  0.00  0.00     0.070 H 
ATOM     28  H   LIG d   1       2.445   1.153  -9.378  0.00  0.00     0.063 H 
BRANCH  23  29
ATOM     29  N   LIG d   1       0.500  -2.791 -10.523  0.00  0.00    -0.289 N 
ATOM     30  H   LIG d   1      -0.415  -2.581 -10.280  0.00  0.00     0.152 HD
BRANCH  29  31
ATOM     31  C   LIG d   1       0.778  -3.893 -11.446  0.00  0.00     0.038 C 
ATOM     32  H   LIG d   1       0.858  -3.505 -12.462  0.00  0.00     0.049 H 
ATOM     33  H   LIG d   1       1.715  -4.374 -11.167  0.00  0.00     0.049 H 
BRANCH  31  34
ATOM     34  C   LIG d   1      -0.359  -4.914 -11.378  0.00  0.00     0.063 C 
ATOM     35  H   LIG d   1      -1.062  -4.731 -12.192  0.00  0.00     0.058 H 
ATOM     36  H   LIG d   1       0.050  -5.920 -11.472  0.00  0.00     0.058 H 
BRANCH  34  37
ATOM     37  O   LIG d   1      -1.037  -4.790 -10.126  0.00  0.00    -0.381 OA
BRANCH  37  38
ATOM     38  C   LIG d   1      -2.436  -5.079 -10.192  0.00  0.00     0.036 C 
ATOM     39  H   LIG d   1      -2.723  -5.247 -11.230  0.00  0.00     0.052 H 
ATOM     40  H   LIG d   1      -2.650  -5.972  -9.606  0.00  0.00     0.052 H 
ATOM     41  H   LIG d   1      -3.000  -4.237  -9.791  0.00  0.00     0.052 H 
ENDBRANCH  37  38
ENDBRANCH  34  37
ENDBRANCH  31  34
ENDBRANCH  29  31
ENDBRANCH  23  29
ENDBRANCH  17  19
ENDBRANCH   5  14
BRANCH   1  42
ATOM     42  C   LIG d   1       7.292  -0.487  -3.950  0.00  0.00    -0.005 C 
ATOM     43  H   LIG d   1       7.375   0.591  -3.816  0.00  0.00     0.087 H 
ATOM     44  H   LIG d   1       8.077  -0.986  -3.383  0.00  0.00     0.087 H 
BRANCH  42  45
ATOM     45  C   LIG d   1       5.945  -0.953  -3.458  0.00  0.00     0.000 A 
ATOM     46  C   LIG d   1       5.088  -0.061  -2.842  0.00  0.00    -0.042 A 
ATOM     47  C   LIG d   1       3.851  -0.486  -2.396  0.00  0.00    -0.058 A 
ATOM     48  C   LIG d   1       3.473  -1.805  -2.561  0.00  0.00    -0.061 A 
ATOM     49  H   LIG d   1       3.179   0.212  -1.918  0.00  0.00     0.062 H 
ATOM     50  C   LIG d   1       4.333  -2.699  -3.173  0.00  0.00    -0.061 A 
ATOM     51  H   LIG d   1       2.506  -2.138  -2.211  0.00  0.00     0.062 H 
ATOM     52  C   LIG d   1       5.569  -2.273  -3.619  0.00  0.00    -0.053 A 
ATOM     53  H   LIG d   1       4.037  -3.730  -3.301  0.00  0.00     0.062 H 
ATOM     54  H   LIG d   1       6.240  -2.972  -4.098  0.00  0.00     0.062 H 
BRANCH  46  55
ATOM     55  C   LIG d   1       5.500   1.377  -2.662  0.00  0.00    -0.039 C 
ATOM     56  H   LIG d   1       4.750   2.029  -3.110  0.00  0.00     0.028 H 
ATOM     57  H   LIG d   1       5.585   1.601  -1.598  0.00  0.00     0.028 H 
ATOM     58  H   LIG d   1       6.463   1.544  -3.146  0.00  0.00     0.028 H 
ENDBRANCH  46  55
ENDBRANCH  42  45
ENDBRANCH   1  42
TORSDOF 10
ENDMDL
MODEL 5
REMARK VINA RESULT:      -6.2      3.975      9.326
REMARK  10 active torsions:
REMARK  status: ('A' for Active; 'I' for Inactive)
REMARK    1  A    between atoms: C_1  and  C_2 
REMARK    2  A    between atoms: C_7  and  C_8 
REMARK    3  A    between atoms: C_8  and  N_9 
REMARK    4  A    between atoms: C_13  and  C_15 
REMARK    5  A    between atoms: C_17  and  C_20 
REMARK    6  A    between atoms: C_23  and  N_26 
REMARK    7  A    between atoms: N_26  and  C_27 
REMARK    8  A    between atoms: C_27  and  C_28 
REMARK    9  A    between atoms: C_28  and  O_29 
REMARK   10  A    between atoms: O_29  and  C_30 
ROOT
ATOM      1  N   LIG d   1       6.870  -2.062  -4.838  0.00  0.00     0.247 N 
ATOM      2  C   LIG d   1       7.571  -3.355  -4.988  0.00  0.00    -0.031 C 
ATOM      3  C   LIG d   1       8.034  -3.384  -6.467  0.00  0.00    -0.007 C 
ATOM      4  C   LIG d   1       8.418  -1.900  -6.704  0.00  0.00     0.004 C 
ATOM      5  C   LIG d   1       7.374  -1.132  -5.865  0.00  0.00     0.060 C 
ATOM      6  H   LIG d   1       7.842  -0.270  -5.389  0.00  0.00     0.095 H 
ATOM      7  H   LIG d   1       8.431  -3.401  -4.320  0.00  0.00     0.082 H 
ATOM      8  H   LIG d   1       6.889  -4.182  -4.788  0.00  0.00     0.082 H 
ATOM      9  H   LIG d   1       8.899  -4.036  -6.591  0.00  0.00     0.032 H 
ATOM     10  H   LIG d   1       7.221  -3.687  -7.125  0.00  0.00     0.032 H 
ATOM     11  H   LIG d   1       9.426  -1.700  -6.340  0.00  0.00     0.033 H 
ATOM     12  H   LIG d   1       8.330  -1.643  -7.759  0.00  0.00     0.033 H 
ATOM     13  H   LIG d   1       5.878  -2.199  -4.962  0.00  0.00     0.204 HD
ENDROOT
BRANCH   5  14
ATOM     14  C   LIG d   1       6.240  -0.681  -6.749  0.00  0.00     0.276 A 
ATOM     15  O   LIG d   1       5.956   0.587  -7.072  0.00  0.00    -0.332 OA
ATOM     16  N   LIG d   1       4.818   0.540  -7.919  0.00  0.00    -0.056 NA
ATOM     17  C   LIG d   1       4.496  -0.724  -8.039  0.00  0.00     0.208 A 
ATOM     18  N   LIG d   1       5.367  -1.459  -7.323  0.00  0.00    -0.186 NA
BRANCH  17  19
ATOM     19  C   LIG d   1       3.361  -1.257  -8.831  0.00  0.00     0.086 A 
ATOM     20  C   LIG d   1       3.199  -2.629  -8.998  0.00  0.00     0.182 A 
ATOM     21  N   LIG d   1       2.188  -3.107  -9.696  0.00  0.00    -0.198 N 
ATOM     22  H   LIG d   1       3.905  -3.309  -8.546  0.00  0.00     0.138 H 
ATOM     23  C   LIG d   1       1.300  -2.311 -10.272  0.00  0.00     0.269 A 
ATOM     24  H   LIG d   1       2.094  -4.068  -9.793  0.00  0.00     0.454 HD
ATOM     25  C   LIG d   1       1.400  -0.926 -10.154  0.00  0.00     0.027 A 
ATOM     26  C   LIG d   1       2.440  -0.386  -9.427  0.00  0.00    -0.038 A 
ATOM     27  H   LIG d   1       0.672  -0.284 -10.627  0.00  0.00     0.070 H 
ATOM     28  H   LIG d   1       2.543   0.684  -9.319  0.00  0.00     0.063 H 
BRANCH  23  29
ATOM     29  N   LIG d   1       0.257  -2.864 -11.002  0.00  0.00    -0.289 N 
ATOM     30  H   LIG d   1      -0.646  -2.843 -10.649  0.00  0.00     0.152 HD
BRANCH  29  31
ATOM     31  C   LIG d   1       0.520  -3.476 -12.306  0.00  0.00     0.038 C 
ATOM     32  H   LIG d   1       1.536  -3.869 -12.325  0.00  0.00     0.049 H 
ATOM     33  H   LIG d   1      -0.187  -4.290 -12.475  0.00  0.00     0.049 H 
BRANCH  31  34
ATOM     34  C   LIG d   1       0.358  -2.425 -13.405  0.00  0.00     0.063 C 
ATOM     35  H   LIG d   1       1.271  -1.834 -13.481  0.00  0.00     0.058 H 
ATOM     36  H   LIG d   1       0.166  -2.920 -14.357  0.00  0.00     0.058 H 
BRANCH  34  37
ATOM     37  O   LIG d   1      -0.739  -1.566 -13.086  0.00  0.00    -0.381 OA
BRANCH  37  38
ATOM     38  C   LIG d   1      -1.903  -1.788 -13.886  0.00  0.00     0.036 C 
ATOM     39  H   LIG d   1      -1.676  -1.557 -14.927  0.00  0.00     0.052 H 
ATOM     40  H   LIG d   1      -2.208  -2.830 -13.802  0.00  0.00     0.052 H 
ATOM     41  H   LIG d   1      -2.710  -1.143 -13.538  0.00  0.00     0.052 H 
ENDBRANCH  37  38
ENDBRANCH  34  37
ENDBRANCH  31  34
ENDBRANCH  29  31
ENDBRANCH  23  29
ENDBRANCH  17  19
ENDBRANCH   5  14
BRANCH   1  42
ATOM     42  C   LIG d   1       7.132  -1.510  -3.502  0.00  0.00    -0.005 C 
ATOM     43  H   LIG d   1       8.002  -0.854  -3.544  0.00  0.00     0.087 H 
ATOM     44  H   LIG d   1       7.325  -2.324  -2.803  0.00  0.00     0.087 H 
BRANCH  42  45
ATOM     45  C   LIG d   1       5.931  -0.725  -3.039  0.00  0.00     0.000 A 
ATOM     46  C   LIG d   1       5.948   0.657  -3.086  0.00  0.00    -0.042 A 
ATOM     47  C   LIG d   1       4.846   1.376  -2.667  0.00  0.00    -0.058 A 
ATOM     48  C   LIG d   1       3.728   0.715  -2.196  0.00  0.00    -0.061 A 
ATOM     49  H   LIG d   1       4.857   2.455  -2.709  0.00  0.00     0.062 H 
ATOM     50  C   LIG d   1       3.712  -0.667  -2.143  0.00  0.00    -0.061 A 
ATOM     51  H   LIG d   1       2.865   1.277  -1.867  0.00  0.00     0.062 H 
ATOM     52  C   LIG d   1       4.815  -1.386  -2.563  0.00  0.00    -0.053 A 
ATOM     53  H   LIG d   1       2.839  -1.183  -1.774  0.00  0.00     0.062 H 
ATOM     54  H   LIG d   1       4.803  -2.466  -2.522  0.00  0.00     0.062 H 
BRANCH  46  55
ATOM     55  C   LIG d   1       7.168   1.377  -3.601  0.00  0.00    -0.039 C 
ATOM     56  H   LIG d   1       6.858   2.235  -4.197  0.00  0.00     0.028 H 
ATOM     57  H   LIG d   1       7.770   1.719  -2.759  0.00  0.00     0.028 H 
ATOM     58  H   LIG d   1       7.758   0.700  -4.218  0.00  0.00     0.028 H 
ENDBRANCH  46  55
ENDBRANCH  42  45
ENDBRANCH   1  42
TORSDOF 10
ENDMDL
MODEL 6
REMARK VINA RESULT:      -6.2      1.566      2.001
REMARK  10 active torsions:
REMARK  status: ('A' for Active; 'I' for Inactive)
REMARK    1  A    between atoms: C_1  and  C_2 
REMARK    2  A    between atoms: C_7  and  C_8 
REMARK    3  A    between atoms: C_8  and  N_9 
REMARK    4  A    between atoms: C_13  and  C_15 
REMARK    5  A    between atoms: C_17  and  C_20 
REMARK    6  A    between atoms: C_23  and  N_26 
REMARK    7  A    between atoms: N_26  and  C_27 
REMARK    8  A    between atoms: C_27  and  C_28 
REMARK    9  A    between atoms: C_28  and  O_29 
REMARK   10  A    between atoms: O_29  and  C_30 
ROOT
ATOM      1  N   LIG d   1       5.189   0.102  -6.722  0.00  0.00     0.247 N 
ATOM      2  C   LIG d   1       5.002   0.561  -8.114  0.00  0.00    -0.031 C 
ATOM      3  C   LIG d   1       6.369   1.166  -8.519  0.00  0.00    -0.007 C 
ATOM      4  C   LIG d   1       7.359   0.204  -7.811  0.00  0.00     0.004 C 
ATOM      5  C   LIG d   1       6.625  -0.145  -6.498  0.00  0.00     0.060 C 
ATOM      6  H   LIG d   1       6.788  -1.194  -6.250  0.00  0.00     0.095 H 
ATOM      7  H   LIG d   1       4.752  -0.280  -8.762  0.00  0.00     0.082 H 
ATOM      8  H   LIG d   1       4.222   1.321  -8.161  0.00  0.00     0.082 H 
ATOM      9  H   LIG d   1       6.503   1.138  -9.600  0.00  0.00     0.032 H 
ATOM     10  H   LIG d   1       6.474   2.182  -8.140  0.00  0.00     0.032 H 
ATOM     11  H   LIG d   1       7.522  -0.691  -8.411  0.00  0.00     0.033 H 
ATOM     12  H   LIG d   1       8.303   0.707  -7.603  0.00  0.00     0.033 H 
ATOM     13  H   LIG d   1       4.864   0.813  -6.084  0.00  0.00     0.204 HD
ENDROOT
BRANCH   5  14
ATOM     14  C   LIG d   1       7.129   0.733  -5.381  0.00  0.00     0.276 A 
ATOM     15  O   LIG d   1       6.534   0.908  -4.194  0.00  0.00    -0.332 OA
ATOM     16  N   LIG d   1       7.354   1.807  -3.464  0.00  0.00    -0.056 NA
ATOM     17  C   LIG d   1       8.359   2.112  -4.246  0.00  0.00     0.208 A 
ATOM     18  N   LIG d   1       8.213   1.454  -5.410  0.00  0.00    -0.186 NA
BRANCH  17  19
ATOM     19  C   LIG d   1       9.473   3.030  -3.906  0.00  0.00     0.086 A 
ATOM     20  C   LIG d   1      10.411   2.675  -2.940  0.00  0.00     0.182 A 
ATOM     21  N   LIG d   1      11.406   3.485  -2.638  0.00  0.00    -0.198 N 
ATOM     22  H   LIG d   1      10.325   1.724  -2.436  0.00  0.00     0.138 H 
ATOM     23  C   LIG d   1      11.549   4.663  -3.226  0.00  0.00     0.269 A 
ATOM     24  H   LIG d   1      12.049   3.212  -1.965  0.00  0.00     0.454 HD
ATOM     25  C   LIG d   1      10.646   5.090  -4.198  0.00  0.00     0.027 A 
ATOM     26  C   LIG d   1       9.594   4.269  -4.547  0.00  0.00    -0.038 A 
ATOM     27  H   LIG d   1      10.770   6.052  -4.673  0.00  0.00     0.070 H 
ATOM     28  H   LIG d   1       8.880   4.574  -5.298  0.00  0.00     0.063 H 
BRANCH  23  29
ATOM     29  N   LIG d   1      12.610   5.483  -2.869  0.00  0.00    -0.289 N 
ATOM     30  H   LIG d   1      13.491   5.102  -2.728  0.00  0.00     0.152 HD
BRANCH  29  31
ATOM     31  C   LIG d   1      12.401   6.923  -2.706  0.00  0.00     0.038 C 
ATOM     32  H   LIG d   1      13.357   7.441  -2.782  0.00  0.00     0.049 H 
ATOM     33  H   LIG d   1      11.730   7.284  -3.486  0.00  0.00     0.049 H 
BRANCH  31  34
ATOM     34  C   LIG d   1      11.780   7.196  -1.335  0.00  0.00     0.063 C 
ATOM     35  H   LIG d   1      11.474   6.253  -0.880  0.00  0.00     0.058 H 
ATOM     36  H   LIG d   1      12.514   7.686  -0.694  0.00  0.00     0.058 H 
BRANCH  34  37
ATOM     37  O   LIG d   1      10.640   8.043  -1.487  0.00  0.00    -0.381 OA
BRANCH  37  38
ATOM     38  C   LIG d   1       9.394   7.342  -1.516  0.00  0.00     0.036 C 
ATOM     39  H   LIG d   1       9.386   6.586  -0.730  0.00  0.00     0.052 H 
ATOM     40  H   LIG d   1       8.578   8.045  -1.353  0.00  0.00     0.052 H 
ATOM     41  H   LIG d   1       9.272   6.860  -2.485  0.00  0.00     0.052 H 
ENDBRANCH  37  38
ENDBRANCH  34  37
ENDBRANCH  31  34
ENDBRANCH  29  31
ENDBRANCH  23  29
ENDBRANCH  17  19
ENDBRANCH   5  14
BRANCH   1  42
ATOM     42  C   LIG d   1       4.436  -1.141  -6.506  0.00  0.00    -0.005 C 
ATOM     43  H   LIG d   1       5.049  -1.994  -6.798  0.00  0.00     0.087 H 
ATOM     44  H   LIG d   1       3.527  -1.125  -7.106  0.00  0.00     0.087 H 
BRANCH  42  45
ATOM     45  C   LIG d   1       4.071  -1.260  -5.047  0.00  0.00     0.000 A 
ATOM     46  C   LIG d   1       4.537  -2.328  -4.303  0.00  0.00    -0.042 A 
ATOM     47  C   LIG d   1       4.208  -2.434  -2.966  0.00  0.00    -0.058 A 
ATOM     48  C   LIG d   1       3.409  -1.475  -2.373  0.00  0.00    -0.061 A 
ATOM     49  H   LIG d   1       4.576  -3.266  -2.383  0.00  0.00     0.062 H 
ATOM     50  C   LIG d   1       2.939  -0.409  -3.118  0.00  0.00    -0.061 A 
ATOM     51  H   LIG d   1       3.151  -1.558  -1.327  0.00  0.00     0.062 H 
ATOM     52  C   LIG d   1       3.268  -0.303  -4.456  0.00  0.00    -0.053 A 
ATOM     53  H   LIG d   1       2.313   0.339  -2.655  0.00  0.00     0.062 H 
ATOM     54  H   LIG d   1       2.901   0.530  -5.038  0.00  0.00     0.062 H 
BRANCH  46  55
ATOM     55  C   LIG d   1       5.409  -3.373  -4.951  0.00  0.00    -0.039 C 
ATOM     56  H   LIG d   1       6.237  -2.887  -5.466  0.00  0.00     0.028 H 
ATOM     57  H   LIG d   1       5.801  -4.044  -4.186  0.00  0.00     0.028 H 
ATOM     58  H   LIG d   1       4.820  -3.945  -5.668  0.00  0.00     0.028 H 
ENDBRANCH  46  55
ENDBRANCH  42  45
ENDBRANCH   1  42
TORSDOF 10
ENDMDL
MODEL 7
REMARK VINA RESULT:      -6.1      1.713      3.601
REMARK  10 active torsions:
REMARK  status: ('A' for Active; 'I' for Inactive)
REMARK    1  A    between atoms: C_1  and  C_2 
REMARK    2  A    between atoms: C_7  and  C_8 
REMARK    3  A    between atoms: C_8  and  N_9 
REMARK    4  A    between atoms: C_13  and  C_15 
REMARK    5  A    between atoms: C_17  and  C_20 
REMARK    6  A    between atoms: C_23  and  N_26 
REMARK    7  A    between atoms: N_26  and  C_27 
REMARK    8  A    between atoms: C_27  and  C_28 
REMARK    9  A    between atoms: C_28  and  O_29 
REMARK   10  A    between atoms: O_29  and  C_30 
ROOT
ATOM      1  N   LIG d   1       5.840  -1.648  -5.386  0.00  0.00     0.247 N 
ATOM      2  C   LIG d   1       6.362  -2.995  -5.070  0.00  0.00    -0.031 C 
ATOM      3  C   LIG d   1       7.431  -2.758  -3.975  0.00  0.00    -0.007 C 
ATOM      4  C   LIG d   1       6.784  -1.616  -3.147  0.00  0.00     0.004 C 
ATOM      5  C   LIG d   1       6.065  -0.772  -4.222  0.00  0.00     0.060 C 
ATOM      6  H   LIG d   1       5.110  -0.415  -3.835  0.00  0.00     0.095 H 
ATOM      7  H   LIG d   1       5.564  -3.633  -4.690  0.00  0.00     0.082 H 
ATOM      8  H   LIG d   1       6.817  -3.442  -5.954  0.00  0.00     0.082 H 
ATOM      9  H   LIG d   1       7.570  -3.651  -3.366  0.00  0.00     0.032 H 
ATOM     10  H   LIG d   1       8.375  -2.435  -4.413  0.00  0.00     0.032 H 
ATOM     11  H   LIG d   1       6.067  -2.019  -2.431  0.00  0.00     0.033 H 
ATOM     12  H   LIG d   1       7.547  -1.027  -2.640  0.00  0.00     0.033 H 
ATOM     13  H   LIG d   1       6.325  -1.277  -6.189  0.00  0.00     0.204 HD
ENDROOT
BRANCH   5  14
ATOM     14  C   LIG d   1       6.931   0.396  -4.618  0.00  0.00     0.276 A 
ATOM     15  O   LIG d   1       7.003   0.937  -5.841  0.00  0.00    -0.332 OA
ATOM     16  N   LIG d   1       7.933   2.005  -5.752  0.00  0.00    -0.056 NA
ATOM     17  C   LIG d   1       8.355   2.028  -4.512  0.00  0.00     0.208 A 
ATOM     18  N   LIG d   1       7.739   1.045  -3.831  0.00  0.00    -0.186 NA
BRANCH  17  19
ATOM     19  C   LIG d   1       9.345   2.980  -3.953  0.00  0.00     0.086 A 
ATOM     20  C   LIG d   1      10.293   2.550  -3.028  0.00  0.00     0.182 A 
ATOM     21  N   LIG d   1      11.180   3.391  -2.533  0.00  0.00    -0.198 N 
ATOM     22  H   LIG d   1      10.306   1.516  -2.718  0.00  0.00     0.138 H 
ATOM     23  C   LIG d   1      11.199   4.669  -2.881  0.00  0.00     0.269 A 
ATOM     24  H   LIG d   1      11.833   3.066  -1.894  0.00  0.00     0.454 HD
ATOM     25  C   LIG d   1      10.278   5.173  -3.797  0.00  0.00     0.027 A 
ATOM     26  C   LIG d   1       9.337   4.325  -4.343  0.00  0.00    -0.038 A 
ATOM     27  H   LIG d   1      10.301   6.216  -4.076  0.00  0.00     0.070 H 
ATOM     28  H   LIG d   1       8.611   4.689  -5.056  0.00  0.00     0.063 H 
BRANCH  23  29
ATOM     29  N   LIG d   1      12.149   5.516  -2.327  0.00  0.00    -0.289 N 
ATOM     30  H   LIG d   1      13.093   5.319  -2.430  0.00  0.00     0.152 HD
BRANCH  29  31
ATOM     31  C   LIG d   1      11.725   6.706  -1.586  0.00  0.00     0.038 C 
ATOM     32  H   LIG d   1      12.600   7.297  -1.317  0.00  0.00     0.049 H 
ATOM     33  H   LIG d   1      11.061   7.305  -2.210  0.00  0.00     0.049 H 
BRANCH  31  34
ATOM     34  C   LIG d   1      10.986   6.280  -0.317  0.00  0.00     0.063 C 
ATOM     35  H   LIG d   1      10.730   5.222  -0.382  0.00  0.00     0.058 H 
ATOM     36  H   LIG d   1      11.627   6.445   0.550  0.00  0.00     0.058 H 
BRANCH  34  37
ATOM     37  O   LIG d   1       9.791   7.052  -0.179  0.00  0.00    -0.381 OA
BRANCH  37  38
ATOM     38  C   LIG d   1       9.439   7.791  -1.352  0.00  0.00     0.036 C 
ATOM     39  H   LIG d   1       8.738   8.582  -1.084  0.00  0.00     0.052 H 
ATOM     40  H   LIG d   1      10.335   8.230  -1.787  0.00  0.00     0.052 H 
ATOM     41  H   LIG d   1       8.972   7.122  -2.075  0.00  0.00     0.052 H 
ENDBRANCH  37  38
ENDBRANCH  34  37
ENDBRANCH  31  34
ENDBRANCH  29  31
ENDBRANCH  23  29
ENDBRANCH  17  19
ENDBRANCH   5  14
BRANCH   1  42
ATOM     42  C   LIG d   1       4.401  -1.730  -5.671  0.00  0.00    -0.005 C 
ATOM     43  H   LIG d   1       3.838  -1.430  -4.787  0.00  0.00     0.087 H 
ATOM     44  H   LIG d   1       4.140  -2.754  -5.937  0.00  0.00     0.087 H 
BRANCH  42  45
ATOM     45  C   LIG d   1       4.062  -0.812  -6.818  0.00  0.00     0.000 A 
ATOM     46  C   LIG d   1       3.154   0.214  -6.636  0.00  0.00    -0.042 A 
ATOM     47  C   LIG d   1       2.849   1.059  -7.686  0.00  0.00    -0.058 A 
ATOM     48  C   LIG d   1       3.447   0.876  -8.918  0.00  0.00    -0.061 A 
ATOM     49  H   LIG d   1       2.143   1.865  -7.544  0.00  0.00     0.062 H 
ATOM     50  C   LIG d   1       4.352  -0.154  -9.100  0.00  0.00    -0.061 A 
ATOM     51  H   LIG d   1       3.208   1.536  -9.739  0.00  0.00     0.062 H 
ATOM     52  C   LIG d   1       4.658  -0.999  -8.051  0.00  0.00    -0.053 A 
ATOM     53  H   LIG d   1       4.819  -0.298 -10.064  0.00  0.00     0.062 H 
ATOM     54  H   LIG d   1       5.365  -1.803  -8.194  0.00  0.00     0.062 H 
BRANCH  46  55
ATOM     55  C   LIG d   1       2.502   0.414  -5.293  0.00  0.00    -0.039 C 
ATOM     56  H   LIG d   1       3.258   0.700  -4.561  0.00  0.00     0.028 H 
ATOM     57  H   LIG d   1       1.753   1.203  -5.366  0.00  0.00     0.028 H 
ATOM     58  H   LIG d   1       2.024  -0.514  -4.978  0.00  0.00     0.028 H 
ENDBRANCH  46  55
ENDBRANCH  42  45
ENDBRANCH   1  42
TORSDOF 10
ENDMDL
MODEL 8
REMARK VINA RESULT:      -6.0      2.452      4.029
REMARK  10 active torsions:
REMARK  status: ('A' for Active; 'I' for Inactive)
REMARK    1  A    between atoms: C_1  and  C_2 
REMARK    2  A    between atoms: C_7  and  C_8 
REMARK    3  A    between atoms: C_8  and  N_9 
REMARK    4  A    between atoms: C_13  and  C_15 
REMARK    5  A    between atoms: C_17  and  C_20 
REMARK    6  A    between atoms: C_23  and  N_26 
REMARK    7  A    between atoms: N_26  and  C_27 
REMARK    8  A    between atoms: C_27  and  C_28 
REMARK    9  A    between atoms: C_28  and  O_29 
REMARK   10  A    between atoms: O_29  and  C_30 
ROOT
ATOM      1  N   LIG d   1       5.535  -1.134  -3.219  0.00  0.00     0.247 N 
ATOM      2  C   LIG d   1       4.711  -1.013  -1.998  0.00  0.00    -0.031 C 
ATOM      3  C   LIG d   1       4.675   0.506  -1.693  0.00  0.00    -0.007 C 
ATOM      4  C   LIG d   1       4.607   1.110  -3.121  0.00  0.00     0.004 C 
ATOM      5  C   LIG d   1       5.485   0.146  -3.948  0.00  0.00     0.060 C 
ATOM      6  H   LIG d   1       5.043  -0.004  -4.934  0.00  0.00     0.095 H 
ATOM      7  H   LIG d   1       3.704  -1.387  -2.180  0.00  0.00     0.082 H 
ATOM      8  H   LIG d   1       5.174  -1.554  -1.172  0.00  0.00     0.082 H 
ATOM      9  H   LIG d   1       3.788   0.767  -1.116  0.00  0.00     0.032 H 
ATOM     10  H   LIG d   1       5.582   0.823  -1.179  0.00  0.00     0.032 H 
ATOM     11  H   LIG d   1       3.582   1.109  -3.491  0.00  0.00     0.033 H 
ATOM     12  H   LIG d   1       5.022   2.117  -3.134  0.00  0.00     0.033 H 
ATOM     13  H   LIG d   1       6.489  -1.342  -2.964  0.00  0.00     0.204 HD
ENDROOT
BRANCH   5  14
ATOM     14  C   LIG d   1       6.875   0.712  -4.087  0.00  0.00     0.276 A 
ATOM     15  O   LIG d   1       7.905   0.116  -4.700  0.00  0.00    -0.332 OA
ATOM     16  N   LIG d   1       9.006   1.006  -4.592  0.00  0.00    -0.056 NA
ATOM     17  C   LIG d   1       8.575   2.050  -3.928  0.00  0.00     0.208 A 
ATOM     18  N   LIG d   1       7.278   1.861  -3.625  0.00  0.00    -0.186 NA
BRANCH  17  19
ATOM     19  C   LIG d   1       9.383   3.241  -3.570  0.00  0.00     0.086 A 
ATOM     20  C   LIG d   1       9.144   4.467  -4.184  0.00  0.00     0.182 A 
ATOM     21  N   LIG d   1       9.856   5.529  -3.864  0.00  0.00    -0.198 N 
ATOM     22  H   LIG d   1       8.365   4.549  -4.927  0.00  0.00     0.138 H 
ATOM     23  C   LIG d   1      10.825   5.474  -2.963  0.00  0.00     0.269 A 
ATOM     24  H   LIG d   1       9.667   6.373  -4.304  0.00  0.00     0.454 HD
ATOM     25  C   LIG d   1      11.126   4.281  -2.310  0.00  0.00     0.027 A 
ATOM     26  C   LIG d   1      10.401   3.147  -2.612  0.00  0.00    -0.038 A 
ATOM     27  H   LIG d   1      11.917   4.245  -1.576  0.00  0.00     0.070 H 
ATOM     28  H   LIG d   1      10.611   2.208  -2.121  0.00  0.00     0.063 H 
BRANCH  23  29
ATOM     29  N   LIG d   1      11.550   6.620  -2.666  0.00  0.00    -0.289 N 
ATOM     30  H   LIG d   1      12.434   6.746  -3.043  0.00  0.00     0.152 HD
BRANCH  29  31
ATOM     31  C   LIG d   1      10.978   7.640  -1.783  0.00  0.00     0.038 C 
ATOM     32  H   LIG d   1      11.254   8.630  -2.144  0.00  0.00     0.049 H 
ATOM     33  H   LIG d   1       9.892   7.546  -1.775  0.00  0.00     0.049 H 
BRANCH  31  34
ATOM     34  C   LIG d   1      11.516   7.445  -0.364  0.00  0.00     0.063 C 
ATOM     35  H   LIG d   1      12.412   6.823  -0.397  0.00  0.00     0.058 H 
ATOM     36  H   LIG d   1      11.764   8.415   0.067  0.00  0.00     0.058 H 
BRANCH  34  37
ATOM     37  O   LIG d   1      10.522   6.807   0.439  0.00  0.00    -0.381 OA
BRANCH  37  38
ATOM     38  C   LIG d   1      11.044   5.830   1.343  0.00  0.00     0.036 C 
ATOM     39  H   LIG d   1      11.101   4.864   0.840  0.00  0.00     0.052 H 
ATOM     40  H   LIG d   1      12.040   6.131   1.667  0.00  0.00     0.052 H 
ATOM     41  H   LIG d   1      10.388   5.750   2.210  0.00  0.00     0.052 H 
ENDBRANCH  37  38
ENDBRANCH  34  37
ENDBRANCH  31  34
ENDBRANCH  29  31
ENDBRANCH  23  29
ENDBRANCH  17  19
ENDBRANCH   5  14
BRANCH   1  42
ATOM     42  C   LIG d   1       5.003  -2.208  -4.069  0.00  0.00    -0.005 C 
ATOM     43  H   LIG d   1       4.603  -1.779  -4.988  0.00  0.00     0.087 H 
ATOM     44  H   LIG d   1       4.209  -2.733  -3.539  0.00  0.00     0.087 H 
BRANCH  42  45
ATOM     45  C   LIG d   1       6.108  -3.176  -4.406  0.00  0.00     0.000 A 
ATOM     46  C   LIG d   1       5.874  -4.213  -5.289  0.00  0.00    -0.042 A 
ATOM     47  C   LIG d   1       6.888  -5.097  -5.602  0.00  0.00    -0.058 A 
ATOM     48  C   LIG d   1       8.136  -4.948  -5.029  0.00  0.00    -0.061 A 
ATOM     49  H   LIG d   1       6.706  -5.905  -6.296  0.00  0.00     0.062 H 
ATOM     50  C   LIG d   1       8.370  -3.913  -4.141  0.00  0.00    -0.061 A 
ATOM     51  H   LIG d   1       8.930  -5.640  -5.272  0.00  0.00     0.062 H 
ATOM     52  C   LIG d   1       7.355  -3.029  -3.828  0.00  0.00    -0.053 A 
ATOM     53  H   LIG d   1       9.345  -3.798  -3.692  0.00  0.00     0.062 H 
ATOM     54  H   LIG d   1       7.538  -2.221  -3.135  0.00  0.00     0.062 H 
BRANCH  46  55
ATOM     55  C   LIG d   1       4.512  -4.376  -5.915  0.00  0.00    -0.039 C 
ATOM     56  H   LIG d   1       4.115  -5.360  -5.668  0.00  0.00     0.028 H 
ATOM     57  H   LIG d   1       3.842  -3.607  -5.531  0.00  0.00     0.028 H 
ATOM     58  H   LIG d   1       4.595  -4.278  -6.998  0.00  0.00     0.028 H 
ENDBRANCH  46  55
ENDBRANCH  42  45
ENDBRANCH   1  42
TORSDOF 10
ENDMDL
MODEL 9
REMARK VINA RESULT:      -6.0      2.675      3.280
REMARK  10 active torsions:
REMARK  status: ('A' for Active; 'I' for Inactive)
REMARK    1  A    between atoms: C_1  and  C_2 
REMARK    2  A    between atoms: C_7  and  C_8 
REMARK    3  A    between atoms: C_8  and  N_9 
REMARK    4  A    between atoms: C_13  and  C_15 
REMARK    5  A    between atoms: C_17  and  C_20 
REMARK    6  A    between atoms: C_23  and  N_26 
REMARK    7  A    between atoms: N_26  and  C_27 
REMARK    8  A    between atoms: C_27  and  C_28 
REMARK    9  A    between atoms: C_28  and  O_29 
REMARK   10  A    between atoms: O_29  and  C_30 
ROOT
ATOM      1  N   LIG d   1       3.794   0.055  -6.433  0.00  0.00     0.247 N 
ATOM      2  C   LIG d   1       2.693   0.302  -7.388  0.00  0.00    -0.031 C 
ATOM      3  C   LIG d   1       3.384   0.396  -8.772  0.00  0.00    -0.007 C 
ATOM      4  C   LIG d   1       4.495  -0.680  -8.641  0.00  0.00     0.004 C 
ATOM      5  C   LIG d   1       4.917  -0.564  -7.161  0.00  0.00     0.060 C 
ATOM      6  H   LIG d   1       5.122  -1.555  -6.756  0.00  0.00     0.095 H 
ATOM      7  H   LIG d   1       1.984  -0.526  -7.373  0.00  0.00     0.082 H 
ATOM      8  H   LIG d   1       2.189   1.239  -7.152  0.00  0.00     0.082 H 
ATOM      9  H   LIG d   1       2.688   0.143  -9.572  0.00  0.00     0.032 H 
ATOM     10  H   LIG d   1       3.814   1.384  -8.928  0.00  0.00     0.032 H 
ATOM     11  H   LIG d   1       4.097  -1.672  -8.852  0.00  0.00     0.033 H 
ATOM     12  H   LIG d   1       5.332  -0.451  -9.300  0.00  0.00     0.033 H 
ATOM     13  H   LIG d   1       4.093   0.929  -6.028  0.00  0.00     0.204 HD
ENDROOT
BRANCH   5  14
ATOM     14  C   LIG d   1       6.144   0.305  -7.045  0.00  0.00     0.276 A 
ATOM     15  O   LIG d   1       6.443   1.345  -7.832  0.00  0.00    -0.332 OA
ATOM     16  N   LIG d   1       7.677   1.864  -7.360  0.00  0.00    -0.056 NA
ATOM     17  C   LIG d   1       8.033   1.111  -6.348  0.00  0.00     0.208 A 
ATOM     18  N   LIG d   1       7.094   0.165  -6.165  0.00  0.00    -0.186 NA
BRANCH  17  19
ATOM     19  C   LIG d   1       9.266   1.274  -5.540  0.00  0.00     0.086 A 
ATOM     20  C   LIG d   1       9.194   1.732  -4.227  0.00  0.00     0.182 A 
ATOM     21  N   LIG d   1      10.287   1.873  -3.503  0.00  0.00    -0.198 N 
ATOM     22  H   LIG d   1       8.233   1.970  -3.796  0.00  0.00     0.138 H 
ATOM     23  C   LIG d   1      11.487   1.598  -3.992  0.00  0.00     0.269 A 
ATOM     24  H   LIG d   1      10.210   2.190  -2.590  0.00  0.00     0.454 HD
ATOM     25  C   LIG d   1      11.638   1.140  -5.299  0.00  0.00     0.027 A 
ATOM     26  C   LIG d   1      10.519   0.974  -6.088  0.00  0.00    -0.038 A 
ATOM     27  H   LIG d   1      12.620   0.918  -5.689  0.00  0.00     0.070 H 
ATOM     28  H   LIG d   1      10.607   0.620  -7.105  0.00  0.00     0.063 H 
BRANCH  23  29
ATOM     29  N   LIG d   1      12.608   1.768  -3.191  0.00  0.00    -0.289 N 
ATOM     30  H   LIG d   1      12.511   2.102  -2.285  0.00  0.00     0.152 HD
BRANCH  29  31
ATOM     31  C   LIG d   1      13.937   1.444  -3.713  0.00  0.00     0.038 C 
ATOM     32  H   LIG d   1      13.892   1.366  -4.799  0.00  0.00     0.049 H 
ATOM     33  H   LIG d   1      14.639   2.230  -3.435  0.00  0.00     0.049 H 
BRANCH  31  34
ATOM     34  C   LIG d   1      14.404   0.111  -3.125  0.00  0.00     0.063 C 
ATOM     35  H   LIG d   1      13.799  -0.132  -2.251  0.00  0.00     0.058 H 
ATOM     36  H   LIG d   1      14.295  -0.675  -3.872  0.00  0.00     0.058 H 
BRANCH  34  37
ATOM     37  O   LIG d   1      15.777   0.215  -2.741  0.00  0.00    -0.381 OA
BRANCH  37  38
ATOM     38  C   LIG d   1      15.998   0.088  -1.334  0.00  0.00     0.036 C 
ATOM     39  H   LIG d   1      17.051   0.261  -1.115  0.00  0.00     0.052 H 
ATOM     40  H   LIG d   1      15.391   0.820  -0.803  0.00  0.00     0.052 H 
ATOM     41  H   LIG d   1      15.720  -0.917  -1.013  0.00  0.00     0.052 H 
ENDBRANCH  37  38
ENDBRANCH  34  37
ENDBRANCH  31  34
ENDBRANCH  29  31
ENDBRANCH  23  29
ENDBRANCH  17  19
ENDBRANCH   5  14
BRANCH   1  42
ATOM     42  C   LIG d   1       3.334  -0.852  -5.373  0.00  0.00    -0.005 C 
ATOM     43  H   LIG d   1       3.808  -1.826  -5.496  0.00  0.00     0.087 H 
ATOM     44  H   LIG d   1       2.252  -0.965  -5.434  0.00  0.00     0.087 H 
BRANCH  42  45
ATOM     45  C   LIG d   1       3.704  -0.280  -4.027  0.00  0.00     0.000 A 
ATOM     46  C   LIG d   1       4.241  -1.099  -3.052  0.00  0.00    -0.042 A 
ATOM     47  C   LIG d   1       4.585  -0.574  -1.822  0.00  0.00    -0.058 A 
ATOM     48  C   LIG d   1       4.387   0.769  -1.564  0.00  0.00    -0.061 A 
ATOM     49  H   LIG d   1       5.010  -1.213  -1.060  0.00  0.00     0.062 H 
ATOM     50  C   LIG d   1       3.845   1.588  -2.538  0.00  0.00    -0.061 A 
ATOM     51  H   LIG d   1       4.655   1.180  -0.601  0.00  0.00     0.062 H 
ATOM     52  C   LIG d   1       3.501   1.062  -3.768  0.00  0.00    -0.053 A 
ATOM     53  H   LIG d   1       3.689   2.637  -2.335  0.00  0.00     0.062 H 
ATOM     54  H   LIG d   1       3.078   1.702  -4.529  0.00  0.00     0.062 H 
BRANCH  46  55
ATOM     55  C   LIG d   1       4.457  -2.564  -3.334  0.00  0.00    -0.039 C 
ATOM     56  H   LIG d   1       5.153  -2.976  -2.602  0.00  0.00     0.028 H 
ATOM     57  H   LIG d   1       3.506  -3.091  -3.266  0.00  0.00     0.028 H 
ATOM     58  H   LIG d   1       4.870  -2.685  -4.336  0.00  0.00     0.028 H 
ENDBRANCH  46  55
ENDBRANCH  42  45
ENDBRANCH   1  42
TORSDOF 10
ENDMDL
