MODEL 1
REMARK VINA RESULT:      -7.4      0.000      0.000
REMARK  15 active torsions:
REMARK  status: ('A' for Active; 'I' for Inactive)
REMARK    1  A    between atoms: C_1  and  C_2 
REMARK    2  A    between atoms: C_2  and  C_4 
REMARK    3  A    between atoms: C_4  and  O_49 
REMARK    4  A    between atoms: C_9  and  C_48 
REMARK    5  A    between atoms: N_21  and  O_22 
REMARK    6  A    between atoms: O_22  and  C_23 
REMARK    7  A    between atoms: C_23  and  C_24 
REMARK       I    between atoms: C_24  and  N_26 
REMARK    8  A    between atoms: N_26  and  C_27 
REMARK    9  A    between atoms: C_27  and  C_29 
REMARK   10  A    between atoms: C_27  and  C_40 
REMARK   11  A    between atoms: C_29  and  C_30 
REMARK   12  A    between atoms: C_34  and  N_36 
REMARK   13  A    between atoms: C_40  and  O_42 
REMARK   14  A    between atoms: O_42  and  C_43 
REMARK   15  A    between atoms: C_46  and  C_47 
ROOT
ATOM      1  C   LIG d   1      11.479   7.944   0.351  0.00  0.00     0.129 C 
ATOM      2  C   LIG d   1      10.112   8.630   0.106  0.00  0.00    -0.016 C 
ATOM      3  C   LIG d   1       9.536   8.001  -1.193  0.00  0.00    -0.046 C 
ATOM      4  C   LIG d   1      10.289   6.661  -1.260  0.00  0.00    -0.029 C 
ATOM      5  H   LIG d   1       9.913   6.016  -0.444  0.00  0.00     0.031 H 
ATOM      6  C   LIG d   1      11.728   7.110  -0.924  0.00  0.00     0.007 C 
ATOM      7  C   LIG d   1      12.614   5.906  -0.726  0.00  0.00    -0.044 C 
ATOM      8  C   LIG d   1      12.340   4.831  -1.784  0.00  0.00    -0.049 C 
ATOM      9  C   LIG d   1      11.562   5.356  -2.981  0.00  0.00    -0.029 C 
ATOM     10  H   LIG d   1      12.137   6.122  -3.501  0.00  0.00     0.031 H 
ATOM     11  C   LIG d   1      10.205   5.914  -2.558  0.00  0.00    -0.034 C 
ATOM     12  H   LIG d   1       9.543   5.040  -2.391  0.00  0.00     0.031 H 
ATOM     13  C   LIG d   1       9.565   6.728  -3.674  0.00  0.00    -0.046 C 
ATOM     14  C   LIG d   1       9.846   6.081  -5.033  0.00  0.00    -0.031 C 
ATOM     15  C   LIG d   1      10.127   4.610  -4.829  0.00  0.00    -0.062 C 
ATOM     16  C   LIG d   1       9.343   3.694  -5.370  0.00  0.00    -0.037 C 
ATOM     17  C   LIG d   1       9.597   2.262  -5.171  0.00  0.00     0.080 C 
ATOM     18  N   LIG d   1       8.851   1.385  -5.769  0.00  0.00    -0.089 NA
ATOM     19  C   LIG d   1      10.718   1.807  -4.273  0.00  0.00    -0.006 C 
ATOM     20  C   LIG d   1      11.062   2.911  -3.271  0.00  0.00    -0.038 C 
ATOM     21  C   LIG d   1      11.326   4.224  -3.996  0.00  0.00    -0.007 C 
ATOM     22  H   LIG d   1       9.443   8.437   0.942  0.00  0.00     0.030 H 
ATOM     23  H   LIG d   1      10.252   9.702  -0.029  0.00  0.00     0.030 H 
ATOM     24  H   LIG d   1       8.464   7.825  -1.081  0.00  0.00     0.027 H 
ATOM     25  H   LIG d   1       9.732   8.626  -2.054  0.00  0.00     0.027 H 
ATOM     26  H   LIG d   1      13.668   6.212  -0.787  0.00  0.00     0.027 H 
ATOM     27  H   LIG d   1      12.451   5.477   0.270  0.00  0.00     0.027 H 
ATOM     28  H   LIG d   1      13.297   4.418  -2.123  0.00  0.00     0.027 H 
ATOM     29  H   LIG d   1      11.776   4.017  -1.313  0.00  0.00     0.027 H 
ATOM     30  H   LIG d   1       8.488   6.767  -3.518  0.00  0.00     0.027 H 
ATOM     31  H   LIG d   1       9.972   7.735  -3.677  0.00  0.00     0.027 H 
ATOM     32  H   LIG d   1       8.973   6.198  -5.673  0.00  0.00     0.031 H 
ATOM     33  H   LIG d   1      10.707   6.561  -5.492  0.00  0.00     0.031 H 
ATOM     34  H   LIG d   1       8.498   4.003  -5.970  0.00  0.00     0.064 H 
ATOM     35  H   LIG d   1      10.393   0.916  -3.724  0.00  0.00     0.033 H 
ATOM     36  H   LIG d   1      11.591   1.546  -4.868  0.00  0.00     0.033 H 
ATOM     37  H   LIG d   1      10.230   3.037  -2.574  0.00  0.00     0.028 H 
ATOM     38  H   LIG d   1      11.952   2.616  -2.707  0.00  0.00     0.028 H 
ENDROOT
BRANCH  18  39
ATOM     39  O   LIG d   1       7.795   1.810  -6.610  0.00  0.00    -0.384 OA
BRANCH  39  40
ATOM     40  C   LIG d   1       7.080   0.741  -7.233  0.00  0.00     0.193 C 
ATOM     41  H   LIG d   1       6.535   1.123  -8.096  0.00  0.00     0.082 H 
ATOM     42  H   LIG d   1       7.785  -0.025  -7.558  0.00  0.00     0.082 H 
BRANCH  40  43
ATOM     43  C   LIG d   1       6.109   0.144  -6.248  0.00  0.00     0.254 C 
ATOM     44  O   LIG d   1       5.184  -0.533  -6.643  0.00  0.00    -0.272 OA
ATOM     45  N   LIG d   1       6.269   0.361  -4.927  0.00  0.00    -0.299 N 
ATOM     46  H   LIG d   1       7.009   0.903  -4.610  0.00  0.00     0.150 HD
BRANCH  45  47
ATOM     47  C   LIG d   1       5.325  -0.220  -3.970  0.00  0.00     0.124 C 
ATOM     48  H   LIG d   1       4.524  -0.724  -4.510  0.00  0.00     0.062 H 
BRANCH  47  49
ATOM     49  C   LIG d   1       6.055  -1.230  -3.082  0.00  0.00     0.001 C 
ATOM     50  H   LIG d   1       6.987  -0.793  -2.724  0.00  0.00     0.034 H 
ATOM     51  H   LIG d   1       5.425  -1.489  -2.231  0.00  0.00     0.034 H 
BRANCH  49  52
ATOM     52  C   LIG d   1       6.358  -2.473  -3.879  0.00  0.00    -0.039 A 
ATOM     53  C   LIG d   1       5.325  -3.206  -4.435  0.00  0.00     0.018 A 
ATOM     54  C   LIG d   1       5.600  -4.344  -5.168  0.00  0.00     0.266 A 
ATOM     55  H   LIG d   1       4.302  -2.886  -4.298  0.00  0.00     0.069 H 
ATOM     56  C   LIG d   1       6.913  -4.756  -5.338  0.00  0.00    -0.029 A 
ATOM     57  C   LIG d   1       7.947  -4.023  -4.776  0.00  0.00    -0.063 A 
ATOM     58  O   LIG d   1       7.186  -5.878  -6.055  0.00  0.00    -0.869 OA
ATOM     59  C   LIG d   1       7.668  -2.883  -4.047  0.00  0.00    -0.059 A 
ATOM     60  H   LIG d   1       8.970  -4.343  -4.906  0.00  0.00     0.061 H 
ATOM     61  H   LIG d   1       8.472  -2.312  -3.608  0.00  0.00     0.062 H 
BRANCH  54  62
ATOM     62  N   LIG d   1       4.494  -5.123  -5.767  0.00  0.00     0.079 N 
ATOM     63  O   LIG d   1       4.069  -4.829  -6.861  0.00  0.00     0.041 OA
ATOM     64  O   LIG d   1       4.016  -6.056  -5.164  0.00  0.00    -0.576 OA
ENDBRANCH  54  62
ENDBRANCH  49  52
ENDBRANCH  47  49
BRANCH  47  65
ATOM     65  C   LIG d   1       4.742   0.873  -3.113  0.00  0.00     0.328 C 
ATOM     66  O   LIG d   1       5.256   1.151  -2.054  0.00  0.00    -0.249 OA
BRANCH  65  67
ATOM     67  O   LIG d   1       3.652   1.540  -3.524  0.00  0.00    -0.467 OA
BRANCH  67  68
ATOM     68  C   LIG d   1       2.750   0.841  -4.385  0.00  0.00     0.082 C 
ATOM     69  H   LIG d   1       1.732   0.948  -4.008  0.00  0.00     0.066 H 
ATOM     70  H   LIG d   1       2.811   1.259  -5.389  0.00  0.00     0.066 H 
ATOM     71  H   LIG d   1       3.018  -0.214  -4.413  0.00  0.00     0.066 H 
ENDBRANCH  67  68
ENDBRANCH  65  67
ENDBRANCH  47  65
ENDBRANCH  45  47
ENDBRANCH  40  43
ENDBRANCH  39  40
ENDBRANCH  18  39
BRANCH  21  72
ATOM     72  C   LIG d   1      12.558   4.098  -4.897  0.00  0.00    -0.056 C 
ATOM     73  H   LIG d   1      13.095   5.046  -4.911  0.00  0.00     0.024 H 
ATOM     74  H   LIG d   1      13.211   3.315  -4.513  0.00  0.00     0.024 H 
ATOM     75  H   LIG d   1      12.242   3.845  -5.909  0.00  0.00     0.024 H 
ENDBRANCH  21  72
BRANCH   6  76
ATOM     76  C   LIG d   1      12.313   8.060  -1.969  0.00  0.00    -0.056 C 
ATOM     77  H   LIG d   1      12.414   9.057  -1.538  0.00  0.00     0.024 H 
ATOM     78  H   LIG d   1      13.294   7.699  -2.280  0.00  0.00     0.024 H 
ATOM     79  H   LIG d   1      11.651   8.104  -2.833  0.00  0.00     0.024 H 
ENDBRANCH   6  76
BRANCH   1  80
ATOM     80  C   LIG d   1      12.566   8.972   0.510  0.00  0.00     0.162 C 
ATOM     81  O   LIG d   1      13.684   8.627   0.809  0.00  0.00    -0.295 OA
BRANCH  80  82
ATOM     82  C   LIG d   1      12.258  10.432   0.297  0.00  0.00    -0.003 C 
ATOM     83  H   LIG d   1      11.373  10.528  -0.331  0.00  0.00     0.031 H 
ATOM     84  H   LIG d   1      12.074  10.908   1.260  0.00  0.00     0.031 H 
ATOM     85  H   LIG d   1      13.105  10.914  -0.191  0.00  0.00     0.031 H 
ENDBRANCH  80  82
ENDBRANCH   1  80
BRANCH   1  86
ATOM     86  O   LIG d   1      11.412   7.095   1.493  0.00  0.00    -0.381 OA
ATOM     87  H   LIG d   1      10.644   6.509   1.503  0.00  0.00     0.211 HD
ENDBRANCH   1  86
TORSDOF 15
ENDMDL
MODEL 2
REMARK VINA RESULT:      -7.3      2.458      3.927
REMARK  15 active torsions:
REMARK  status: ('A' for Active; 'I' for Inactive)
REMARK    1  A    between atoms: C_1  and  C_2 
REMARK    2  A    between atoms: C_2  and  C_4 
REMARK    3  A    between atoms: C_4  and  O_49 
REMARK    4  A    between atoms: C_9  and  C_48 
REMARK    5  A    between atoms: N_21  and  O_22 
REMARK    6  A    between atoms: O_22  and  C_23 
REMARK    7  A    between atoms: C_23  and  C_24 
REMARK       I    between atoms: C_24  and  N_26 
REMARK    8  A    between atoms: N_26  and  C_27 
REMARK    9  A    between atoms: C_27  and  C_29 
REMARK   10  A    between atoms: C_27  and  C_40 
REMARK   11  A    between atoms: C_29  and  C_30 
REMARK   12  A    between atoms: C_34  and  N_36 
REMARK   13  A    between atoms: C_40  and  O_42 
REMARK   14  A    between atoms: O_42  and  C_43 
REMARK   15  A    between atoms: C_46  and  C_47 
ROOT
ATOM      1  C   LIG d   1      10.423   7.855  -1.888  0.00  0.00     0.129 C 
ATOM      2  C   LIG d   1      10.080   8.879  -2.999  0.00  0.00    -0.016 C 
ATOM      3  C   LIG d   1       9.869   8.055  -4.301  0.00  0.00    -0.046 C 
ATOM      4  C   LIG d   1       9.537   6.659  -3.745  0.00  0.00    -0.029 C 
ATOM      5  H   LIG d   1       8.536   6.707  -3.277  0.00  0.00     0.031 H 
ATOM      6  C   LIG d   1      10.605   6.517  -2.638  0.00  0.00     0.007 C 
ATOM      7  C   LIG d   1      10.330   5.288  -1.807  0.00  0.00    -0.044 C 
ATOM      8  C   LIG d   1       9.930   4.099  -2.687  0.00  0.00    -0.049 C 
ATOM      9  C   LIG d   1      10.274   4.299  -4.155  0.00  0.00    -0.029 C 
ATOM     10  H   LIG d   1      11.353   4.391  -4.282  0.00  0.00     0.031 H 
ATOM     11  C   LIG d   1       9.570   5.526  -4.727  0.00  0.00    -0.034 C 
ATOM     12  H   LIG d   1       8.519   5.227  -4.918  0.00  0.00     0.031 H 
ATOM     13  C   LIG d   1      10.152   5.924  -6.077  0.00  0.00    -0.046 C 
ATOM     14  C   LIG d   1      10.508   4.677  -6.890  0.00  0.00    -0.031 C 
ATOM     15  C   LIG d   1       9.673   3.516  -6.404  0.00  0.00    -0.062 C 
ATOM     16  C   LIG d   1       8.820   2.913  -7.215  0.00  0.00    -0.037 C 
ATOM     17  C   LIG d   1       7.995   1.791  -6.753  0.00  0.00     0.080 C 
ATOM     18  N   LIG d   1       7.216   1.176  -7.588  0.00  0.00    -0.089 NA
ATOM     19  C   LIG d   1       8.043   1.355  -5.311  0.00  0.00    -0.006 C 
ATOM     20  C   LIG d   1       8.532   2.510  -4.435  0.00  0.00    -0.038 C 
ATOM     21  C   LIG d   1       9.843   3.067  -4.972  0.00  0.00    -0.007 C 
ATOM     22  H   LIG d   1       9.167   9.414  -2.745  0.00  0.00     0.030 H 
ATOM     23  H   LIG d   1      10.906   9.578  -3.130  0.00  0.00     0.030 H 
ATOM     24  H   LIG d   1       9.019   8.449  -4.861  0.00  0.00     0.027 H 
ATOM     25  H   LIG d   1      10.762   8.052  -4.913  0.00  0.00     0.027 H 
ATOM     26  H   LIG d   1      11.229   5.026  -1.232  0.00  0.00     0.027 H 
ATOM     27  H   LIG d   1       9.525   5.490  -1.090  0.00  0.00     0.027 H 
ATOM     28  H   LIG d   1      10.431   3.199  -2.313  0.00  0.00     0.027 H 
ATOM     29  H   LIG d   1       8.848   3.942  -2.586  0.00  0.00     0.027 H 
ATOM     30  H   LIG d   1       9.415   6.505  -6.628  0.00  0.00     0.027 H 
ATOM     31  H   LIG d   1      11.051   6.515  -5.932  0.00  0.00     0.027 H 
ATOM     32  H   LIG d   1      10.295   4.861  -7.942  0.00  0.00     0.031 H 
ATOM     33  H   LIG d   1      11.564   4.451  -6.763  0.00  0.00     0.031 H 
ATOM     34  H   LIG d   1       8.730   3.251  -8.238  0.00  0.00     0.064 H 
ATOM     35  H   LIG d   1       7.035   1.068  -4.993  0.00  0.00     0.033 H 
ATOM     36  H   LIG d   1       8.697   0.492  -5.204  0.00  0.00     0.033 H 
ATOM     37  H   LIG d   1       7.775   3.298  -4.423  0.00  0.00     0.028 H 
ATOM     38  H   LIG d   1       8.676   2.147  -3.414  0.00  0.00     0.028 H 
ENDROOT
BRANCH  18  39
ATOM     39  O   LIG d   1       7.165   1.587  -8.942  0.00  0.00    -0.384 OA
BRANCH  39  40
ATOM     40  C   LIG d   1       6.677   0.585  -9.836  0.00  0.00     0.193 C 
ATOM     41  H   LIG d   1       6.218   1.064 -10.702  0.00  0.00     0.082 H 
ATOM     42  H   LIG d   1       7.507  -0.042 -10.166  0.00  0.00     0.082 H 
BRANCH  40  43
ATOM     43  C   LIG d   1       5.654  -0.266  -9.130  0.00  0.00     0.254 C 
ATOM     44  O   LIG d   1       5.842  -1.455  -8.997  0.00  0.00    -0.272 OA
ATOM     45  N   LIG d   1       4.530   0.297  -8.643  0.00  0.00    -0.299 N 
ATOM     46  H   LIG d   1       4.378   1.250  -8.749  0.00  0.00     0.150 HD
BRANCH  45  47
ATOM     47  C   LIG d   1       3.535  -0.530  -7.956  0.00  0.00     0.124 C 
ATOM     48  H   LIG d   1       4.030  -1.383  -7.492  0.00  0.00     0.062 H 
BRANCH  47  49
ATOM     49  C   LIG d   1       2.837   0.302  -6.879  0.00  0.00     0.001 C 
ATOM     50  H   LIG d   1       3.118   1.350  -6.989  0.00  0.00     0.034 H 
ATOM     51  H   LIG d   1       1.756   0.204  -6.987  0.00  0.00     0.034 H 
BRANCH  49  52
ATOM     52  C   LIG d   1       3.252  -0.188  -5.516  0.00  0.00    -0.039 A 
ATOM     53  C   LIG d   1       4.428  -0.900  -5.367  0.00  0.00     0.018 A 
ATOM     54  C   LIG d   1       4.812  -1.348  -4.118  0.00  0.00     0.266 A 
ATOM     55  H   LIG d   1       5.048  -1.105  -6.227  0.00  0.00     0.069 H 
ATOM     56  C   LIG d   1       4.013  -1.090  -3.014  0.00  0.00    -0.029 A 
ATOM     57  C   LIG d   1       2.831  -0.379  -3.166  0.00  0.00    -0.063 A 
ATOM     58  O   LIG d   1       4.387  -1.533  -1.785  0.00  0.00    -0.869 OA
ATOM     59  C   LIG d   1       2.453   0.070  -4.417  0.00  0.00    -0.059 A 
ATOM     60  H   LIG d   1       2.207  -0.178  -2.309  0.00  0.00     0.061 H 
ATOM     61  H   LIG d   1       1.533   0.623  -4.536  0.00  0.00     0.062 H 
BRANCH  54  62
ATOM     62  N   LIG d   1       6.073  -2.105  -3.959  0.00  0.00     0.079 N 
ATOM     63  O   LIG d   1       7.043  -1.570  -3.472  0.00  0.00     0.041 OA
ATOM     64  O   LIG d   1       6.135  -3.259  -4.315  0.00  0.00    -0.576 OA
ENDBRANCH  54  62
ENDBRANCH  49  52
ENDBRANCH  47  49
BRANCH  47  65
ATOM     65  C   LIG d   1       2.516  -1.021  -8.951  0.00  0.00     0.328 C 
ATOM     66  O   LIG d   1       1.665  -0.270  -9.367  0.00  0.00    -0.249 OA
BRANCH  65  67
ATOM     67  O   LIG d   1       2.553  -2.293  -9.377  0.00  0.00    -0.467 OA
BRANCH  67  68
ATOM     68  C   LIG d   1       1.450  -2.746 -10.166  0.00  0.00     0.082 C 
ATOM     69  H   LIG d   1       0.520  -2.580  -9.621  0.00  0.00     0.066 H 
ATOM     70  H   LIG d   1       1.424  -2.193 -11.104  0.00  0.00     0.066 H 
ATOM     71  H   LIG d   1       1.564  -3.810 -10.374  0.00  0.00     0.066 H 
ENDBRANCH  67  68
ENDBRANCH  65  67
ENDBRANCH  47  65
ENDBRANCH  45  47
ENDBRANCH  40  43
ENDBRANCH  39  40
ENDBRANCH  18  39
BRANCH  21  72
ATOM     72  C   LIG d   1      10.946   2.008  -4.894  0.00  0.00    -0.056 C 
ATOM     73  H   LIG d   1      11.725   2.242  -5.618  0.00  0.00     0.024 H 
ATOM     74  H   LIG d   1      11.372   1.999  -3.891  0.00  0.00     0.024 H 
ATOM     75  H   LIG d   1      10.524   1.028  -5.118  0.00  0.00     0.024 H 
ENDBRANCH  21  72
BRANCH   6  76
ATOM     76  C   LIG d   1      12.032   6.506  -3.185  0.00  0.00    -0.056 C 
ATOM     77  H   LIG d   1      12.565   7.386  -2.827  0.00  0.00     0.024 H 
ATOM     78  H   LIG d   1      12.545   5.606  -2.844  0.00  0.00     0.024 H 
ATOM     79  H   LIG d   1      12.004   6.517  -4.275  0.00  0.00     0.024 H 
ENDBRANCH   6  76
BRANCH   1  80
ATOM     80  C   LIG d   1      11.704   8.233  -1.198  0.00  0.00     0.162 C 
ATOM     81  O   LIG d   1      12.081   7.605  -0.238  0.00  0.00    -0.295 OA
BRANCH  80  82
ATOM     82  C   LIG d   1      12.518   9.396  -1.705  0.00  0.00    -0.003 C 
ATOM     83  H   LIG d   1      12.684  10.103  -0.893  0.00  0.00     0.031 H 
ATOM     84  H   LIG d   1      13.478   9.033  -2.072  0.00  0.00     0.031 H 
ATOM     85  H   LIG d   1      11.982   9.890  -2.515  0.00  0.00     0.031 H 
ENDBRANCH  80  82
ENDBRANCH   1  80
BRANCH   1  86
ATOM     86  O   LIG d   1       9.352   7.757  -0.954  0.00  0.00    -0.381 OA
ATOM     87  H   LIG d   1       9.621   7.451  -0.078  0.00  0.00     0.211 HD
ENDBRANCH   1  86
TORSDOF 15
ENDMDL
MODEL 3
REMARK VINA RESULT:      -7.3      1.882      3.232
REMARK  15 active torsions:
REMARK  status: ('A' for Active; 'I' for Inactive)
REMARK    1  A    between atoms: C_1  and  C_2 
REMARK    2  A    between atoms: C_2  and  C_4 
REMARK    3  A    between atoms: C_4  and  O_49 
REMARK    4  A    between atoms: C_9  and  C_48 
REMARK    5  A    between atoms: N_21  and  O_22 
REMARK    6  A    between atoms: O_22  and  C_23 
REMARK    7  A    between atoms: C_23  and  C_24 
REMARK       I    between atoms: C_24  and  N_26 
REMARK    8  A    between atoms: N_26  and  C_27 
REMARK    9  A    between atoms: C_27  and  C_29 
REMARK   10  A    between atoms: C_27  and  C_40 
REMARK   11  A    between atoms: C_29  and  C_30 
REMARK   12  A    between atoms: C_34  and  N_36 
REMARK   13  A    between atoms: C_40  and  O_42 
REMARK   14  A    between atoms: O_42  and  C_43 
REMARK   15  A    between atoms: C_46  and  C_47 
ROOT
ATOM      1  C   LIG d   1      11.499   7.927   0.299  0.00  0.00     0.129 C 
ATOM      2  C   LIG d   1      10.155   8.658   0.054  0.00  0.00    -0.016 C 
ATOM      3  C   LIG d   1       9.541   8.022  -1.225  0.00  0.00    -0.046 C 
ATOM      4  C   LIG d   1      10.244   6.655  -1.271  0.00  0.00    -0.029 C 
ATOM      5  H   LIG d   1       9.854   6.041  -0.438  0.00  0.00     0.031 H 
ATOM      6  C   LIG d   1      11.703   7.058  -0.960  0.00  0.00     0.007 C 
ATOM      7  C   LIG d   1      12.546   5.826  -0.745  0.00  0.00    -0.044 C 
ATOM      8  C   LIG d   1      12.222   4.740  -1.776  0.00  0.00    -0.049 C 
ATOM      9  C   LIG d   1      11.449   5.267  -2.976  0.00  0.00    -0.029 C 
ATOM     10  H   LIG d   1      12.047   6.000  -3.519  0.00  0.00     0.031 H 
ATOM     11  C   LIG d   1      10.119   5.883  -2.552  0.00  0.00    -0.034 C 
ATOM     12  H   LIG d   1       9.427   5.039  -2.359  0.00  0.00     0.031 H 
ATOM     13  C   LIG d   1       9.497   6.697  -3.678  0.00  0.00    -0.046 C 
ATOM     14  C   LIG d   1       9.739   6.011  -5.025  0.00  0.00    -0.031 C 
ATOM     15  C   LIG d   1       9.968   4.536  -4.793  0.00  0.00    -0.062 C 
ATOM     16  C   LIG d   1       9.145   3.637  -5.306  0.00  0.00    -0.037 C 
ATOM     17  C   LIG d   1       9.349   2.202  -5.078  0.00  0.00     0.080 C 
ATOM     18  N   LIG d   1       8.565   1.340  -5.649  0.00  0.00    -0.089 NA
ATOM     19  C   LIG d   1      10.463   1.725  -4.181  0.00  0.00    -0.006 C 
ATOM     20  C   LIG d   1      10.858   2.836  -3.208  0.00  0.00    -0.038 C 
ATOM     21  C   LIG d   1      11.162   4.123  -3.964  0.00  0.00    -0.007 C 
ATOM     22  H   LIG d   1       9.488   8.508   0.901  0.00  0.00     0.030 H 
ATOM     23  H   LIG d   1      10.332   9.721  -0.106  0.00  0.00     0.030 H 
ATOM     24  H   LIG d   1       8.465   7.889  -1.099  0.00  0.00     0.027 H 
ATOM     25  H   LIG d   1       9.751   8.622  -2.102  0.00  0.00     0.027 H 
ATOM     26  H   LIG d   1      13.610   6.092  -0.823  0.00  0.00     0.027 H 
ATOM     27  H   LIG d   1      12.378   5.425   0.262  0.00  0.00     0.027 H 
ATOM     28  H   LIG d   1      13.159   4.284  -2.115  0.00  0.00     0.027 H 
ATOM     29  H   LIG d   1      11.633   3.958  -1.282  0.00  0.00     0.027 H 
ATOM     30  H   LIG d   1       8.424   6.778  -3.512  0.00  0.00     0.027 H 
ATOM     31  H   LIG d   1       9.940   7.688  -3.707  0.00  0.00     0.027 H 
ATOM     32  H   LIG d   1       8.864   6.146  -5.659  0.00  0.00     0.031 H 
ATOM     33  H   LIG d   1      10.612   6.449  -5.504  0.00  0.00     0.031 H 
ATOM     34  H   LIG d   1       8.306   3.965  -5.903  0.00  0.00     0.064 H 
ATOM     35  H   LIG d   1      10.111   0.858  -3.610  0.00  0.00     0.033 H 
ATOM     36  H   LIG d   1      11.318   1.419  -4.779  0.00  0.00     0.033 H 
ATOM     37  H   LIG d   1      10.039   3.008  -2.505  0.00  0.00     0.028 H 
ATOM     38  H   LIG d   1      11.742   2.522  -2.647  0.00  0.00     0.028 H 
ENDROOT
BRANCH  18  39
ATOM     39  O   LIG d   1       7.515   1.785  -6.487  0.00  0.00    -0.384 OA
BRANCH  39  40
ATOM     40  C   LIG d   1       7.452   1.114  -7.747  0.00  0.00     0.193 C 
ATOM     41  H   LIG d   1       7.487   1.849  -8.552  0.00  0.00     0.082 H 
ATOM     42  H   LIG d   1       8.300   0.434  -7.839  0.00  0.00     0.082 H 
BRANCH  40  43
ATOM     43  C   LIG d   1       6.169   0.331  -7.836  0.00  0.00     0.254 C 
ATOM     44  O   LIG d   1       6.201  -0.873  -7.975  0.00  0.00    -0.272 OA
ATOM     45  N   LIG d   1       4.983   0.968  -7.760  0.00  0.00    -0.299 N 
ATOM     46  H   LIG d   1       4.956   1.932  -7.649  0.00  0.00     0.150 HD
BRANCH  45  47
ATOM     47  C   LIG d   1       3.735   0.206  -7.846  0.00  0.00     0.124 C 
ATOM     48  H   LIG d   1       3.950  -0.856  -7.731  0.00  0.00     0.062 H 
BRANCH  47  49
ATOM     49  C   LIG d   1       2.784   0.658  -6.737  0.00  0.00     0.001 C 
ATOM     50  H   LIG d   1       2.861   1.738  -6.609  0.00  0.00     0.034 H 
ATOM     51  H   LIG d   1       1.761   0.397  -7.005  0.00  0.00     0.034 H 
BRANCH  49  52
ATOM     52  C   LIG d   1       3.154  -0.027  -5.446  0.00  0.00    -0.039 A 
ATOM     53  C   LIG d   1       3.883  -1.202  -5.473  0.00  0.00     0.018 A 
ATOM     54  C   LIG d   1       4.227  -1.830  -4.291  0.00  0.00     0.266 A 
ATOM     55  H   LIG d   1       4.187  -1.627  -6.418  0.00  0.00     0.069 H 
ATOM     56  C   LIG d   1       3.833  -1.286  -3.079  0.00  0.00    -0.029 A 
ATOM     57  C   LIG d   1       3.097  -0.110  -3.054  0.00  0.00    -0.063 A 
ATOM     58  O   LIG d   1       4.166  -1.904  -1.915  0.00  0.00    -0.869 OA
ATOM     59  C   LIG d   1       2.759   0.517  -4.238  0.00  0.00    -0.059 A 
ATOM     60  H   LIG d   1       2.788   0.315  -2.111  0.00  0.00     0.061 H 
ATOM     61  H   LIG d   1       2.187   1.432  -4.220  0.00  0.00     0.062 H 
BRANCH  54  62
ATOM     62  N   LIG d   1       5.012  -3.084  -4.321  0.00  0.00     0.079 N 
ATOM     63  O   LIG d   1       4.458  -4.141  -4.520  0.00  0.00     0.041 OA
ATOM     64  O   LIG d   1       6.208  -3.053  -4.147  0.00  0.00    -0.576 OA
ENDBRANCH  54  62
ENDBRANCH  49  52
ENDBRANCH  47  49
BRANCH  47  65
ATOM     65  C   LIG d   1       3.092   0.446  -9.188  0.00  0.00     0.328 C 
ATOM     66  O   LIG d   1       2.040  -0.084  -9.458  0.00  0.00    -0.249 OA
BRANCH  65  67
ATOM     67  O   LIG d   1       3.688   1.248 -10.084  0.00  0.00    -0.467 OA
BRANCH  67  68
ATOM     68  C   LIG d   1       4.110   0.650 -11.312  0.00  0.00     0.082 C 
ATOM     69  H   LIG d   1       5.199   0.609 -11.341  0.00  0.00     0.066 H 
ATOM     70  H   LIG d   1       3.707  -0.360 -11.380  0.00  0.00     0.066 H 
ATOM     71  H   LIG d   1       3.746   1.244 -12.149  0.00  0.00     0.066 H 
ENDBRANCH  67  68
ENDBRANCH  65  67
ENDBRANCH  47  65
ENDBRANCH  45  47
ENDBRANCH  40  43
ENDBRANCH  39  40
ENDBRANCH  18  39
BRANCH  21  72
ATOM     72  C   LIG d   1      12.377   3.933  -4.875  0.00  0.00    -0.056 C 
ATOM     73  H   LIG d   1      12.265   4.552  -5.764  0.00  0.00     0.024 H 
ATOM     74  H   LIG d   1      13.281   4.226  -4.340  0.00  0.00     0.024 H 
ATOM     75  H   LIG d   1      12.451   2.886  -5.168  0.00  0.00     0.024 H 
ENDBRANCH  21  72
BRANCH   6  76
ATOM     76  C   LIG d   1      12.310   7.963  -2.031  0.00  0.00    -0.056 C 
ATOM     77  H   LIG d   1      13.391   8.014  -1.894  0.00  0.00     0.024 H 
ATOM     78  H   LIG d   1      12.088   7.557  -3.019  0.00  0.00     0.024 H 
ATOM     79  H   LIG d   1      11.886   8.964  -1.946  0.00  0.00     0.024 H 
ENDBRANCH   6  76
BRANCH   1  80
ATOM     80  C   LIG d   1      12.624   8.918   0.425  0.00  0.00     0.162 C 
ATOM     81  O   LIG d   1      13.735   8.537   0.705  0.00  0.00    -0.295 OA
BRANCH  80  82
ATOM     82  C   LIG d   1      12.364  10.385   0.201  0.00  0.00    -0.003 C 
ATOM     83  H   LIG d   1      11.429  10.665   0.685  0.00  0.00     0.031 H 
ATOM     84  H   LIG d   1      13.181  10.967   0.626  0.00  0.00     0.031 H 
ATOM     85  H   LIG d   1      12.294  10.583  -0.868  0.00  0.00     0.031 H 
ENDBRANCH  80  82
ENDBRANCH   1  80
BRANCH   1  86
ATOM     86  O   LIG d   1      11.414   7.106   1.460  0.00  0.00    -0.381 OA
ATOM     87  H   LIG d   1      10.798   6.365   1.373  0.00  0.00     0.211 HD
ENDBRANCH   1  86
TORSDOF 15
ENDMDL
MODEL 4
REMARK VINA RESULT:      -7.2      5.652     11.047
REMARK  15 active torsions:
REMARK  status: ('A' for Active; 'I' for Inactive)
REMARK    1  A    between atoms: C_1  and  C_2 
REMARK    2  A    between atoms: C_2  and  C_4 
REMARK    3  A    between atoms: C_4  and  O_49 
REMARK    4  A    between atoms: C_9  and  C_48 
REMARK    5  A    between atoms: N_21  and  O_22 
REMARK    6  A    between atoms: O_22  and  C_23 
REMARK    7  A    between atoms: C_23  and  C_24 
REMARK       I    between atoms: C_24  and  N_26 
REMARK    8  A    between atoms: N_26  and  C_27 
REMARK    9  A    between atoms: C_27  and  C_29 
REMARK   10  A    between atoms: C_27  and  C_40 
REMARK   11  A    between atoms: C_29  and  C_30 
REMARK   12  A    between atoms: C_34  and  N_36 
REMARK   13  A    between atoms: C_40  and  O_42 
REMARK   14  A    between atoms: O_42  and  C_43 
REMARK   15  A    between atoms: C_46  and  C_47 
ROOT
ATOM      1  C   LIG d   1      11.269   4.415  -4.831  0.00  0.00     0.129 C 
ATOM      2  C   LIG d   1      10.279   5.282  -5.649  0.00  0.00    -0.016 C 
ATOM      3  C   LIG d   1       9.783   6.399  -4.688  0.00  0.00    -0.046 C 
ATOM      4  C   LIG d   1      10.908   6.443  -3.640  0.00  0.00    -0.029 C 
ATOM      5  H   LIG d   1      11.808   6.867  -4.123  0.00  0.00     0.031 H 
ATOM      6  C   LIG d   1      11.137   4.937  -3.384  0.00  0.00     0.007 C 
ATOM      7  C   LIG d   1      12.363   4.737  -2.528  0.00  0.00    -0.044 C 
ATOM      8  C   LIG d   1      12.419   5.758  -1.387  0.00  0.00    -0.049 C 
ATOM      9  C   LIG d   1      11.089   6.453  -1.140  0.00  0.00    -0.029 C 
ATOM     10  H   LIG d   1      10.334   5.728  -0.831  0.00  0.00     0.031 H 
ATOM     11  C   LIG d   1      10.618   7.206  -2.382  0.00  0.00    -0.034 C 
ATOM     12  H   LIG d   1      11.207   8.144  -2.424  0.00  0.00     0.031 H 
ATOM     13  C   LIG d   1       9.159   7.622  -2.261  0.00  0.00    -0.046 C 
ATOM     14  C   LIG d   1       8.844   8.047  -0.824  0.00  0.00    -0.031 C 
ATOM     15  C   LIG d   1      10.123   8.481  -0.148  0.00  0.00    -0.062 C 
ATOM     16  C   LIG d   1      10.267   9.721   0.289  0.00  0.00    -0.037 C 
ATOM     17  C   LIG d   1      11.509  10.159   0.937  0.00  0.00     0.080 C 
ATOM     18  N   LIG d   1      11.597  11.362   1.416  0.00  0.00    -0.089 NA
ATOM     19  C   LIG d   1      12.682   9.219   1.046  0.00  0.00    -0.006 C 
ATOM     20  C   LIG d   1      12.585   8.140  -0.033  0.00  0.00    -0.038 C 
ATOM     21  C   LIG d   1      11.224   7.459   0.016  0.00  0.00    -0.007 C 
ATOM     22  H   LIG d   1      10.788   5.725  -6.503  0.00  0.00     0.030 H 
ATOM     23  H   LIG d   1       9.438   4.675  -5.981  0.00  0.00     0.030 H 
ATOM     24  H   LIG d   1       9.724   7.352  -5.218  0.00  0.00     0.027 H 
ATOM     25  H   LIG d   1       8.825   6.146  -4.252  0.00  0.00     0.027 H 
ATOM     26  H   LIG d   1      12.353   3.722  -2.105  0.00  0.00     0.027 H 
ATOM     27  H   LIG d   1      13.269   4.832  -3.139  0.00  0.00     0.027 H 
ATOM     28  H   LIG d   1      12.741   5.247  -0.472  0.00  0.00     0.027 H 
ATOM     29  H   LIG d   1      13.180   6.509  -1.631  0.00  0.00     0.027 H 
ATOM     30  H   LIG d   1       8.969   8.463  -2.926  0.00  0.00     0.027 H 
ATOM     31  H   LIG d   1       8.513   6.790  -2.528  0.00  0.00     0.027 H 
ATOM     32  H   LIG d   1       8.143   8.879  -0.841  0.00  0.00     0.031 H 
ATOM     33  H   LIG d   1       8.408   7.209  -0.286  0.00  0.00     0.031 H 
ATOM     34  H   LIG d   1       9.457  10.425   0.166  0.00  0.00     0.064 H 
ATOM     35  H   LIG d   1      13.607   9.789   0.900  0.00  0.00     0.033 H 
ATOM     36  H   LIG d   1      12.709   8.768   2.036  0.00  0.00     0.033 H 
ATOM     37  H   LIG d   1      12.733   8.597  -1.014  0.00  0.00     0.028 H 
ATOM     38  H   LIG d   1      13.373   7.399   0.132  0.00  0.00     0.028 H 
ENDROOT
BRANCH  18  39
ATOM     39  O   LIG d   1      10.498  12.247   1.311  0.00  0.00    -0.384 OA
BRANCH  39  40
ATOM     40  C   LIG d   1      10.805  13.482   0.660  0.00  0.00     0.193 C 
ATOM     41  H   LIG d   1      10.076  14.238   0.953  0.00  0.00     0.082 H 
ATOM     42  H   LIG d   1      11.804  13.807   0.954  0.00  0.00     0.082 H 
BRANCH  40  43
ATOM     43  C   LIG d   1      10.758  13.289  -0.833  0.00  0.00     0.254 C 
ATOM     44  O   LIG d   1      11.787  13.268  -1.474  0.00  0.00    -0.272 OA
ATOM     45  N   LIG d   1       9.573  13.138  -1.457  0.00  0.00    -0.299 N 
ATOM     46  H   LIG d   1       8.749  13.155  -0.944  0.00  0.00     0.150 HD
BRANCH  45  47
ATOM     47  C   LIG d   1       9.528  12.951  -2.909  0.00  0.00     0.124 C 
ATOM     48  H   LIG d   1      10.541  12.962  -3.308  0.00  0.00     0.062 H 
BRANCH  47  49
ATOM     49  C   LIG d   1       8.869  11.608  -3.229  0.00  0.00     0.001 C 
ATOM     50  H   LIG d   1       8.717  11.047  -2.306  0.00  0.00     0.034 H 
ATOM     51  H   LIG d   1       7.906  11.780  -3.710  0.00  0.00     0.034 H 
BRANCH  49  52
ATOM     52  C   LIG d   1       9.759  10.818  -4.155  0.00  0.00    -0.039 A 
ATOM     53  C   LIG d   1       9.260  10.345  -5.354  0.00  0.00     0.018 A 
ATOM     54  C   LIG d   1      10.075   9.625  -6.206  0.00  0.00     0.266 A 
ATOM     55  H   LIG d   1       8.234  10.541  -5.627  0.00  0.00     0.069 H 
ATOM     56  C   LIG d   1      11.391   9.369  -5.853  0.00  0.00    -0.029 A 
ATOM     57  C   LIG d   1      11.888   9.840  -4.646  0.00  0.00    -0.063 A 
ATOM     58  O   LIG d   1      12.193   8.656  -6.687  0.00  0.00    -0.869 OA
ATOM     59  C   LIG d   1      11.071  10.563  -3.799  0.00  0.00    -0.059 A 
ATOM     60  H   LIG d   1      12.912   9.641  -4.369  0.00  0.00     0.061 H 
ATOM     61  H   LIG d   1      11.457  10.931  -2.860  0.00  0.00     0.062 H 
BRANCH  54  62
ATOM     62  N   LIG d   1       9.542   9.123  -7.492  0.00  0.00     0.079 N 
ATOM     63  O   LIG d   1       9.850   9.666  -8.528  0.00  0.00     0.041 OA
ATOM     64  O   LIG d   1       8.798   8.170  -7.508  0.00  0.00    -0.576 OA
ENDBRANCH  54  62
ENDBRANCH  49  52
ENDBRANCH  47  49
BRANCH  47  65
ATOM     65  C   LIG d   1       8.728  14.064  -3.534  0.00  0.00     0.328 C 
ATOM     66  O   LIG d   1       7.666  14.388  -3.058  0.00  0.00    -0.249 OA
BRANCH  65  67
ATOM     67  O   LIG d   1       9.196  14.697  -4.621  0.00  0.00    -0.467 OA
BRANCH  67  68
ATOM     68  C   LIG d   1      10.570  14.487  -4.955  0.00  0.00     0.082 C 
ATOM     69  H   LIG d   1      10.783  13.417  -4.960  0.00  0.00     0.066 H 
ATOM     70  H   LIG d   1      10.770  14.901  -5.943  0.00  0.00     0.066 H 
ATOM     71  H   LIG d   1      11.203  14.981  -4.219  0.00  0.00     0.066 H 
ENDBRANCH  67  68
ENDBRANCH  65  67
ENDBRANCH  47  65
ENDBRANCH  45  47
ENDBRANCH  40  43
ENDBRANCH  39  40
ENDBRANCH  18  39
BRANCH  21  72
ATOM     72  C   LIG d   1      11.043   6.719   1.345  0.00  0.00    -0.056 C 
ATOM     73  H   LIG d   1      10.057   6.259   1.372  0.00  0.00     0.024 H 
ATOM     74  H   LIG d   1      11.808   5.948   1.438  0.00  0.00     0.024 H 
ATOM     75  H   LIG d   1      11.137   7.426   2.169  0.00  0.00     0.024 H 
ENDBRANCH  21  72
BRANCH   6  76
ATOM     76  C   LIG d   1       9.918   4.246  -2.773  0.00  0.00    -0.056 C 
ATOM     77  H   LIG d   1      10.225   3.677  -1.895  0.00  0.00     0.024 H 
ATOM     78  H   LIG d   1       9.183   4.998  -2.480  0.00  0.00     0.024 H 
ATOM     79  H   LIG d   1       9.475   3.573  -3.506  0.00  0.00     0.024 H 
ENDBRANCH   6  76
BRANCH   1  80
ATOM     80  C   LIG d   1      10.874   2.965  -4.890  0.00  0.00     0.162 C 
ATOM     81  O   LIG d   1      11.631   2.116  -4.482  0.00  0.00    -0.295 OA
BRANCH  80  82
ATOM     82  C   LIG d   1       9.535   2.571  -5.458  0.00  0.00    -0.003 C 
ATOM     83  H   LIG d   1       8.865   3.430  -5.435  0.00  0.00     0.031 H 
ATOM     84  H   LIG d   1       9.662   2.237  -6.487  0.00  0.00     0.031 H 
ATOM     85  H   LIG d   1       9.111   1.763  -4.862  0.00  0.00     0.031 H 
ENDBRANCH  80  82
ENDBRANCH   1  80
BRANCH   1  86
ATOM     86  O   LIG d   1      12.600   4.599  -5.304  0.00  0.00    -0.381 OA
ATOM     87  H   LIG d   1      13.266   4.103  -4.809  0.00  0.00     0.211 HD
ENDBRANCH   1  86
TORSDOF 15
ENDMDL
MODEL 5
REMARK VINA RESULT:      -7.0      2.037      2.744
REMARK  15 active torsions:
REMARK  status: ('A' for Active; 'I' for Inactive)
REMARK    1  A    between atoms: C_1  and  C_2 
REMARK    2  A    between atoms: C_2  and  C_4 
REMARK    3  A    between atoms: C_4  and  O_49 
REMARK    4  A    between atoms: C_9  and  C_48 
REMARK    5  A    between atoms: N_21  and  O_22 
REMARK    6  A    between atoms: O_22  and  C_23 
REMARK    7  A    between atoms: C_23  and  C_24 
REMARK       I    between atoms: C_24  and  N_26 
REMARK    8  A    between atoms: N_26  and  C_27 
REMARK    9  A    between atoms: C_27  and  C_29 
REMARK   10  A    between atoms: C_27  and  C_40 
REMARK   11  A    between atoms: C_29  and  C_30 
REMARK   12  A    between atoms: C_34  and  N_36 
REMARK   13  A    between atoms: C_40  and  O_42 
REMARK   14  A    between atoms: O_42  and  C_43 
REMARK   15  A    between atoms: C_46  and  C_47 
ROOT
ATOM      1  C   LIG d   1      10.162   9.465  -3.928  0.00  0.00     0.129 C 
ATOM      2  C   LIG d   1       9.601   9.872  -5.313  0.00  0.00    -0.016 C 
ATOM      3  C   LIG d   1       9.432   8.553  -6.119  0.00  0.00    -0.046 C 
ATOM      4  C   LIG d   1       9.347   7.503  -4.998  0.00  0.00    -0.029 C 
ATOM      5  H   LIG d   1       8.382   7.638  -4.475  0.00  0.00     0.031 H 
ATOM      6  C   LIG d   1      10.492   7.963  -4.069  0.00  0.00     0.007 C 
ATOM      7  C   LIG d   1      10.456   7.187  -2.777  0.00  0.00    -0.044 C 
ATOM      8  C   LIG d   1      10.182   5.700  -3.027  0.00  0.00    -0.049 C 
ATOM      9  C   LIG d   1      10.398   5.288  -4.475  0.00  0.00    -0.029 C 
ATOM     10  H   LIG d   1      11.441   5.432  -4.758  0.00  0.00     0.031 H 
ATOM     11  C   LIG d   1       9.485   6.069  -5.416  0.00  0.00    -0.034 C 
ATOM     12  H   LIG d   1       8.480   5.606  -5.337  0.00  0.00     0.031 H 
ATOM     13  C   LIG d   1       9.914   5.910  -6.868  0.00  0.00    -0.046 C 
ATOM     14  C   LIG d   1      10.400   4.481  -7.126  0.00  0.00    -0.031 C 
ATOM     15  C   LIG d   1       9.778   3.558  -6.104  0.00  0.00    -0.062 C 
ATOM     16  C   LIG d   1       8.975   2.578  -6.482  0.00  0.00    -0.037 C 
ATOM     17  C   LIG d   1       8.356   1.681  -5.499  0.00  0.00     0.080 C 
ATOM     18  N   LIG d   1       7.626   0.687  -5.903  0.00  0.00    -0.089 NA
ATOM     19  C   LIG d   1       8.560   1.912  -4.024  0.00  0.00    -0.006 C 
ATOM     20  C   LIG d   1       8.926   3.376  -3.774  0.00  0.00    -0.038 C 
ATOM     21  C   LIG d   1      10.104   3.787  -4.647  0.00  0.00    -0.007 C 
ATOM     22  H   LIG d   1       8.637  10.362  -5.196  0.00  0.00     0.030 H 
ATOM     23  H   LIG d   1      10.304  10.532  -5.821  0.00  0.00     0.030 H 
ATOM     24  H   LIG d   1       8.499   8.575  -6.685  0.00  0.00     0.027 H 
ATOM     25  H   LIG d   1      10.275   8.384  -6.777  0.00  0.00     0.027 H 
ATOM     26  H   LIG d   1      11.419   7.294  -2.257  0.00  0.00     0.027 H 
ATOM     27  H   LIG d   1       9.677   7.588  -2.117  0.00  0.00     0.027 H 
ATOM     28  H   LIG d   1      10.833   5.106  -2.376  0.00  0.00     0.027 H 
ATOM     29  H   LIG d   1       9.144   5.486  -2.741  0.00  0.00     0.027 H 
ATOM     30  H   LIG d   1       9.066   6.117  -7.518  0.00  0.00     0.027 H 
ATOM     31  H   LIG d   1      10.724   6.599  -7.092  0.00  0.00     0.027 H 
ATOM     32  H   LIG d   1      10.094   4.174  -8.125  0.00  0.00     0.031 H 
ATOM     33  H   LIG d   1      11.483   4.446  -7.045  0.00  0.00     0.031 H 
ATOM     34  H   LIG d   1       8.770   2.435  -7.534  0.00  0.00     0.064 H 
ATOM     35  H   LIG d   1       7.628   1.682  -3.497  0.00  0.00     0.033 H 
ATOM     36  H   LIG d   1       9.340   1.254  -3.648  0.00  0.00     0.033 H 
ATOM     37  H   LIG d   1       8.063   4.007  -3.999  0.00  0.00     0.028 H 
ATOM     38  H   LIG d   1       9.188   3.502  -2.719  0.00  0.00     0.028 H 
ENDROOT
BRANCH  18  39
ATOM     39  O   LIG d   1       7.428   0.471  -7.288  0.00  0.00    -0.384 OA
BRANCH  39  40
ATOM     40  C   LIG d   1       6.065   0.573  -7.705  0.00  0.00     0.193 C 
ATOM     41  H   LIG d   1       5.722   1.600  -7.575  0.00  0.00     0.082 H 
ATOM     42  H   LIG d   1       5.986   0.293  -8.756  0.00  0.00     0.082 H 
BRANCH  40  43
ATOM     43  C   LIG d   1       5.215  -0.351  -6.873  0.00  0.00     0.254 C 
ATOM     44  O   LIG d   1       4.798  -1.384  -7.349  0.00  0.00    -0.272 OA
ATOM     45  N   LIG d   1       4.917  -0.028  -5.598  0.00  0.00    -0.299 N 
ATOM     46  H   LIG d   1       5.250   0.799  -5.216  0.00  0.00     0.150 HD
BRANCH  45  47
ATOM     47  C   LIG d   1       4.090  -0.927  -4.789  0.00  0.00     0.124 C 
ATOM     48  H   LIG d   1       3.629  -1.675  -5.434  0.00  0.00     0.062 H 
BRANCH  47  49
ATOM     49  C   LIG d   1       4.965  -1.623  -3.745  0.00  0.00     0.001 C 
ATOM     50  H   LIG d   1       5.751  -0.943  -3.417  0.00  0.00     0.034 H 
ATOM     51  H   LIG d   1       4.353  -1.908  -2.889  0.00  0.00     0.034 H 
BRANCH  49  52
ATOM     52  C   LIG d   1       5.587  -2.856  -4.350  0.00  0.00    -0.039 A 
ATOM     53  C   LIG d   1       4.780  -3.862  -4.849  0.00  0.00     0.018 A 
ATOM     54  C   LIG d   1       5.347  -4.991  -5.407  0.00  0.00     0.266 A 
ATOM     55  H   LIG d   1       3.705  -3.763  -4.805  0.00  0.00     0.069 H 
ATOM     56  C   LIG d   1       6.727  -5.118  -5.459  0.00  0.00    -0.029 A 
ATOM     57  C   LIG d   1       7.535  -4.110  -4.953  0.00  0.00    -0.063 A 
ATOM     58  O   LIG d   1       7.288  -6.230  -6.003  0.00  0.00    -0.869 OA
ATOM     59  C   LIG d   1       6.963  -2.981  -4.399  0.00  0.00    -0.059 A 
ATOM     60  H   LIG d   1       8.609  -4.208  -4.991  0.00  0.00     0.061 H 
ATOM     61  H   LIG d   1       7.590  -2.196  -4.005  0.00  0.00     0.062 H 
BRANCH  54  62
ATOM     62  N   LIG d   1       4.483  -6.064  -5.946  0.00  0.00     0.079 N 
ATOM     63  O   LIG d   1       4.293  -7.070  -5.301  0.00  0.00     0.041 OA
ATOM     64  O   LIG d   1       3.966  -5.936  -7.032  0.00  0.00    -0.576 OA
ENDBRANCH  54  62
ENDBRANCH  49  52
ENDBRANCH  47  49
BRANCH  47  65
ATOM     65  C   LIG d   1       3.016  -0.131  -4.095  0.00  0.00     0.328 C 
ATOM     66  O   LIG d   1       2.072   0.289  -4.722  0.00  0.00    -0.249 OA
BRANCH  65  67
ATOM     67  O   LIG d   1       3.106   0.112  -2.778  0.00  0.00    -0.467 OA
BRANCH  67  68
ATOM     68  C   LIG d   1       3.543   1.415  -2.386  0.00  0.00     0.082 C 
ATOM     69  H   LIG d   1       4.026   1.358  -1.410  0.00  0.00     0.066 H 
ATOM     70  H   LIG d   1       4.253   1.795  -3.120  0.00  0.00     0.066 H 
ATOM     71  H   LIG d   1       2.686   2.084  -2.329  0.00  0.00     0.066 H 
ENDBRANCH  67  68
ENDBRANCH  65  67
ENDBRANCH  47  65
ENDBRANCH  45  47
ENDBRANCH  40  43
ENDBRANCH  39  40
ENDBRANCH  18  39
BRANCH  21  72
ATOM     72  C   LIG d   1      11.354   2.988  -4.270  0.00  0.00    -0.056 C 
ATOM     73  H   LIG d   1      11.301   2.706  -3.219  0.00  0.00     0.024 H 
ATOM     74  H   LIG d   1      11.410   2.089  -4.885  0.00  0.00     0.024 H 
ATOM     75  H   LIG d   1      12.240   3.599  -4.438  0.00  0.00     0.024 H 
ENDBRANCH  21  72
BRANCH   6  76
ATOM     76  C   LIG d   1      11.867   7.872  -4.730  0.00  0.00    -0.056 C 
ATOM     77  H   LIG d   1      12.543   8.590  -4.265  0.00  0.00     0.024 H 
ATOM     78  H   LIG d   1      12.265   6.864  -4.603  0.00  0.00     0.024 H 
ATOM     79  H   LIG d   1      11.776   8.095  -5.793  0.00  0.00     0.024 H 
ENDBRANCH   6  76
BRANCH   1  80
ATOM     80  C   LIG d   1      11.414  10.237  -3.617  0.00  0.00     0.162 C 
ATOM     81  O   LIG d   1      12.001  10.817  -4.499  0.00  0.00    -0.295 OA
BRANCH  80  82
ATOM     82  C   LIG d   1      11.938  10.287  -2.205  0.00  0.00    -0.003 C 
ATOM     83  H   LIG d   1      11.191  10.746  -1.557  0.00  0.00     0.031 H 
ATOM     84  H   LIG d   1      12.145   9.274  -1.859  0.00  0.00     0.031 H 
ATOM     85  H   LIG d   1      12.855  10.875  -2.177  0.00  0.00     0.031 H 
ENDBRANCH  80  82
ENDBRANCH   1  80
BRANCH   1  86
ATOM     86  O   LIG d   1       9.179   9.663  -2.915  0.00  0.00    -0.381 OA
ATOM     87  H   LIG d   1       9.052  10.588  -2.665  0.00  0.00     0.211 HD
ENDBRANCH   1  86
TORSDOF 15
ENDMDL
MODEL 6
REMARK VINA RESULT:      -7.0      1.436      2.034
REMARK  15 active torsions:
REMARK  status: ('A' for Active; 'I' for Inactive)
REMARK    1  A    between atoms: C_1  and  C_2 
REMARK    2  A    between atoms: C_2  and  C_4 
REMARK    3  A    between atoms: C_4  and  O_49 
REMARK    4  A    between atoms: C_9  and  C_48 
REMARK    5  A    between atoms: N_21  and  O_22 
REMARK    6  A    between atoms: O_22  and  C_23 
REMARK    7  A    between atoms: C_23  and  C_24 
REMARK       I    between atoms: C_24  and  N_26 
REMARK    8  A    between atoms: N_26  and  C_27 
REMARK    9  A    between atoms: C_27  and  C_29 
REMARK   10  A    between atoms: C_27  and  C_40 
REMARK   11  A    between atoms: C_29  and  C_30 
REMARK   12  A    between atoms: C_34  and  N_36 
REMARK   13  A    between atoms: C_40  and  O_42 
REMARK   14  A    between atoms: O_42  and  C_43 
REMARK   15  A    between atoms: C_46  and  C_47 
ROOT
ATOM      1  C   LIG d   1      11.403   7.965   0.357  0.00  0.00     0.129 C 
ATOM      2  C   LIG d   1      10.054   8.676   0.080  0.00  0.00    -0.016 C 
ATOM      3  C   LIG d   1       9.482   8.034  -1.215  0.00  0.00    -0.046 C 
ATOM      4  C   LIG d   1      10.208   6.678  -1.247  0.00  0.00    -0.029 C 
ATOM      5  H   LIG d   1       9.806   6.056  -0.425  0.00  0.00     0.031 H 
ATOM      6  C   LIG d   1      11.651   7.102  -0.899  0.00  0.00     0.007 C 
ATOM      7  C   LIG d   1      12.509   5.884  -0.665  0.00  0.00    -0.044 C 
ATOM      8  C   LIG d   1      12.226   4.795  -1.707  0.00  0.00    -0.049 C 
ATOM      9  C   LIG d   1      11.476   5.314  -2.924  0.00  0.00    -0.029 C 
ATOM     10  H   LIG d   1      12.075   6.057  -3.451  0.00  0.00     0.031 H 
ATOM     11  C   LIG d   1      10.126   5.908  -2.532  0.00  0.00    -0.034 C 
ATOM     12  H   LIG d   1       9.443   5.052  -2.359  0.00  0.00     0.031 H 
ATOM     13  C   LIG d   1       9.520   6.714  -3.672  0.00  0.00    -0.046 C 
ATOM     14  C   LIG d   1       9.806   6.036  -5.014  0.00  0.00    -0.031 C 
ATOM     15  C   LIG d   1      10.052   4.564  -4.779  0.00  0.00    -0.062 C 
ATOM     16  C   LIG d   1       9.256   3.654  -5.314  0.00  0.00    -0.037 C 
ATOM     17  C   LIG d   1       9.477   2.221  -5.085  0.00  0.00     0.080 C 
ATOM     18  N   LIG d   1       8.721   1.349  -5.677  0.00  0.00    -0.089 NA
ATOM     19  C   LIG d   1      10.575   1.759  -4.162  0.00  0.00    -0.006 C 
ATOM     20  C   LIG d   1      10.928   2.875  -3.176  0.00  0.00    -0.038 C 
ATOM     21  C   LIG d   1      11.231   4.168  -3.922  0.00  0.00    -0.007 C 
ATOM     22  H   LIG d   1       9.369   8.513   0.910  0.00  0.00     0.030 H 
ATOM     23  H   LIG d   1      10.218   9.742  -0.073  0.00  0.00     0.030 H 
ATOM     24  H   LIG d   1       8.406   7.883  -1.116  0.00  0.00     0.027 H 
ATOM     25  H   LIG d   1       9.704   8.639  -2.085  0.00  0.00     0.027 H 
ATOM     26  H   LIG d   1      13.569   6.166  -0.716  0.00  0.00     0.027 H 
ATOM     27  H   LIG d   1      12.322   5.477   0.336  0.00  0.00     0.027 H 
ATOM     28  H   LIG d   1      13.179   4.355  -2.024  0.00  0.00     0.027 H 
ATOM     29  H   LIG d   1      11.638   4.003  -1.229  0.00  0.00     0.027 H 
ATOM     30  H   LIG d   1       8.442   6.779  -3.532  0.00  0.00     0.027 H 
ATOM     31  H   LIG d   1       9.948   7.713  -3.688  0.00  0.00     0.027 H 
ATOM     32  H   LIG d   1       8.945   6.159  -5.669  0.00  0.00     0.031 H 
ATOM     33  H   LIG d   1      10.683   6.489  -5.470  0.00  0.00     0.031 H 
ATOM     34  H   LIG d   1       8.427   3.970  -5.932  0.00  0.00     0.064 H 
ATOM     35  H   LIG d   1      10.224   0.886  -3.602  0.00  0.00     0.033 H 
ATOM     36  H   LIG d   1      11.450   1.469  -4.739  0.00  0.00     0.033 H 
ATOM     37  H   LIG d   1      10.090   3.031  -2.494  0.00  0.00     0.028 H 
ATOM     38  H   LIG d   1      11.803   2.572  -2.594  0.00  0.00     0.028 H 
ENDROOT
BRANCH  18  39
ATOM     39  O   LIG d   1       7.685   1.780  -6.541  0.00  0.00    -0.384 OA
BRANCH  39  40
ATOM     40  C   LIG d   1       7.053   0.723  -7.264  0.00  0.00     0.193 C 
ATOM     41  H   LIG d   1       6.549   1.133  -8.140  0.00  0.00     0.082 H 
ATOM     42  H   LIG d   1       7.805   0.001  -7.583  0.00  0.00     0.082 H 
BRANCH  40  43
ATOM     43  C   LIG d   1       6.044   0.040  -6.378  0.00  0.00     0.254 C 
ATOM     44  O   LIG d   1       5.239  -0.729  -6.856  0.00  0.00    -0.272 OA
ATOM     45  N   LIG d   1       6.038   0.284  -5.052  0.00  0.00    -0.299 N 
ATOM     46  H   LIG d   1       6.682   0.900  -4.668  0.00  0.00     0.150 HD
BRANCH  45  47
ATOM     47  C   LIG d   1       5.057  -0.381  -4.190  0.00  0.00     0.124 C 
ATOM     48  H   LIG d   1       4.475  -1.088  -4.781  0.00  0.00     0.062 H 
BRANCH  47  49
ATOM     49  C   LIG d   1       5.785  -1.128  -3.072  0.00  0.00     0.001 C 
ATOM     50  H   LIG d   1       6.477  -0.451  -2.572  0.00  0.00     0.034 H 
ATOM     51  H   LIG d   1       5.058  -1.501  -2.349  0.00  0.00     0.034 H 
BRANCH  49  52
ATOM     52  C   LIG d   1       6.551  -2.287  -3.656  0.00  0.00    -0.039 A 
ATOM     53  C   LIG d   1       7.874  -2.486  -3.308  0.00  0.00     0.018 A 
ATOM     54  C   LIG d   1       8.577  -3.549  -3.840  0.00  0.00     0.266 A 
ATOM     55  H   LIG d   1       8.358  -1.810  -2.618  0.00  0.00     0.069 H 
ATOM     56  C   LIG d   1       7.957  -4.413  -4.730  0.00  0.00    -0.029 A 
ATOM     57  C   LIG d   1       6.631  -4.209  -5.082  0.00  0.00    -0.063 A 
ATOM     58  O   LIG d   1       8.648  -5.457  -5.258  0.00  0.00    -0.869 OA
ATOM     59  C   LIG d   1       5.930  -3.147  -4.545  0.00  0.00    -0.059 A 
ATOM     60  H   LIG d   1       6.146  -4.880  -5.775  0.00  0.00     0.061 H 
ATOM     61  H   LIG d   1       4.898  -2.987  -4.817  0.00  0.00     0.062 H 
BRANCH  54  62
ATOM     62  N   LIG d   1       9.992  -3.764  -3.462  0.00  0.00     0.079 N 
ATOM     63  O   LIG d   1      10.264  -4.414  -2.479  0.00  0.00     0.041 OA
ATOM     64  O   LIG d   1      10.877  -3.291  -4.137  0.00  0.00    -0.576 OA
ENDBRANCH  54  62
ENDBRANCH  49  52
ENDBRANCH  47  49
BRANCH  47  65
ATOM     65  C   LIG d   1       4.136   0.650  -3.590  0.00  0.00     0.328 C 
ATOM     66  O   LIG d   1       4.595   1.628  -3.047  0.00  0.00    -0.249 OA
BRANCH  65  67
ATOM     67  O   LIG d   1       2.806   0.482  -3.657  0.00  0.00    -0.467 OA
BRANCH  67  68
ATOM     68  C   LIG d   1       2.240   0.294  -4.956  0.00  0.00     0.082 C 
ATOM     69  H   LIG d   1       1.232  -0.112  -4.858  0.00  0.00     0.066 H 
ATOM     70  H   LIG d   1       2.197   1.251  -5.474  0.00  0.00     0.066 H 
ATOM     71  H   LIG d   1       2.857  -0.401  -5.524  0.00  0.00     0.066 H 
ENDBRANCH  67  68
ENDBRANCH  65  67
ENDBRANCH  47  65
ENDBRANCH  45  47
ENDBRANCH  40  43
ENDBRANCH  39  40
ENDBRANCH  18  39
BRANCH  21  72
ATOM     72  C   LIG d   1      12.472   3.999  -4.803  0.00  0.00    -0.056 C 
ATOM     73  H   LIG d   1      12.984   3.076  -4.535  0.00  0.00     0.024 H 
ATOM     74  H   LIG d   1      12.171   3.958  -5.849  0.00  0.00     0.024 H 
ATOM     75  H   LIG d   1      13.143   4.844  -4.650  0.00  0.00     0.024 H 
ENDBRANCH  21  72
BRANCH   6  76
ATOM     76  C   LIG d   1      12.271   8.020  -1.952  0.00  0.00    -0.056 C 
ATOM     77  H   LIG d   1      13.041   8.637  -1.489  0.00  0.00     0.024 H 
ATOM     78  H   LIG d   1      12.717   7.416  -2.744  0.00  0.00     0.024 H 
ATOM     79  H   LIG d   1      11.499   8.661  -2.377  0.00  0.00     0.024 H 
ENDBRANCH   6  76
BRANCH   1  80
ATOM     80  C   LIG d   1      12.508   8.973   0.513  0.00  0.00     0.162 C 
ATOM     81  O   LIG d   1      13.610   8.613   0.853  0.00  0.00    -0.295 OA
BRANCH  80  82
ATOM     82  C   LIG d   1      12.242  10.432   0.244  0.00  0.00    -0.003 C 
ATOM     83  H   LIG d   1      13.168  10.919  -0.062  0.00  0.00     0.031 H 
ATOM     84  H   LIG d   1      11.503  10.524  -0.553  0.00  0.00     0.031 H 
ATOM     85  H   LIG d   1      11.862  10.905   1.149  0.00  0.00     0.031 H 
ENDBRANCH  80  82
ENDBRANCH   1  80
BRANCH   1  86
ATOM     86  O   LIG d   1      11.301   7.140   1.513  0.00  0.00    -0.381 OA
ATOM     87  H   LIG d   1      12.135   6.726   1.775  0.00  0.00     0.211 HD
ENDBRANCH   1  86
TORSDOF 15
ENDMDL
MODEL 7
REMARK VINA RESULT:      -6.9      6.495      8.866
REMARK  15 active torsions:
REMARK  status: ('A' for Active; 'I' for Inactive)
REMARK    1  A    between atoms: C_1  and  C_2 
REMARK    2  A    between atoms: C_2  and  C_4 
REMARK    3  A    between atoms: C_4  and  O_49 
REMARK    4  A    between atoms: C_9  and  C_48 
REMARK    5  A    between atoms: N_21  and  O_22 
REMARK    6  A    between atoms: O_22  and  C_23 
REMARK    7  A    between atoms: C_23  and  C_24 
REMARK       I    between atoms: C_24  and  N_26 
REMARK    8  A    between atoms: N_26  and  C_27 
REMARK    9  A    between atoms: C_27  and  C_29 
REMARK   10  A    between atoms: C_27  and  C_40 
REMARK   11  A    between atoms: C_29  and  C_30 
REMARK   12  A    between atoms: C_34  and  N_36 
REMARK   13  A    between atoms: C_40  and  O_42 
REMARK   14  A    between atoms: O_42  and  C_43 
REMARK   15  A    between atoms: C_46  and  C_47 
ROOT
ATOM      1  C   LIG d   1       3.938  -0.339  -3.631  0.00  0.00     0.129 C 
ATOM      2  C   LIG d   1       3.229  -0.230  -5.003  0.00  0.00    -0.016 C 
ATOM      3  C   LIG d   1       4.201  -0.848  -6.046  0.00  0.00    -0.046 C 
ATOM      4  C   LIG d   1       5.083  -1.751  -5.165  0.00  0.00    -0.029 C 
ATOM      5  H   LIG d   1       4.465  -2.600  -4.819  0.00  0.00     0.031 H 
ATOM      6  C   LIG d   1       5.368  -0.815  -3.970  0.00  0.00     0.007 C 
ATOM      7  C   LIG d   1       6.055  -1.578  -2.866  0.00  0.00    -0.044 C 
ATOM      8  C   LIG d   1       7.135  -2.513  -3.422  0.00  0.00    -0.049 C 
ATOM      9  C   LIG d   1       7.532  -2.181  -4.852  0.00  0.00    -0.029 C 
ATOM     10  H   LIG d   1       7.971  -1.184  -4.903  0.00  0.00     0.031 H 
ATOM     11  C   LIG d   1       6.337  -2.278  -5.797  0.00  0.00    -0.034 C 
ATOM     12  H   LIG d   1       6.176  -3.358  -5.992  0.00  0.00     0.031 H 
ATOM     13  C   LIG d   1       6.639  -1.640  -7.146  0.00  0.00    -0.046 C 
ATOM     14  C   LIG d   1       8.087  -1.923  -7.555  0.00  0.00    -0.031 C 
ATOM     15  C   LIG d   1       8.563  -3.171  -6.849  0.00  0.00    -0.062 C 
ATOM     16  C   LIG d   1       8.925  -4.239  -7.540  0.00  0.00    -0.037 C 
ATOM     17  C   LIG d   1       9.379  -5.461  -6.867  0.00  0.00     0.080 C 
ATOM     18  N   LIG d   1       9.791  -6.471  -7.571  0.00  0.00    -0.089 NA
ATOM     19  C   LIG d   1       9.365  -5.551  -5.362  0.00  0.00    -0.006 C 
ATOM     20  C   LIG d   1       8.355  -4.555  -4.792  0.00  0.00    -0.038 C 
ATOM     21  C   LIG d   1       8.617  -3.158  -5.340  0.00  0.00    -0.007 C 
ATOM     22  H   LIG d   1       2.296  -0.790  -4.987  0.00  0.00     0.030 H 
ATOM     23  H   LIG d   1       3.039   0.816  -5.244  0.00  0.00     0.030 H 
ATOM     24  H   LIG d   1       3.646  -1.452  -6.766  0.00  0.00     0.027 H 
ATOM     25  H   LIG d   1       4.775  -0.082  -6.553  0.00  0.00     0.027 H 
ATOM     26  H   LIG d   1       6.517  -0.871  -2.163  0.00  0.00     0.027 H 
ATOM     27  H   LIG d   1       5.323  -2.172  -2.305  0.00  0.00     0.027 H 
ATOM     28  H   LIG d   1       8.018  -2.457  -2.775  0.00  0.00     0.027 H 
ATOM     29  H   LIG d   1       6.758  -3.542  -3.380  0.00  0.00     0.027 H 
ATOM     30  H   LIG d   1       5.972  -2.058  -7.898  0.00  0.00     0.027 H 
ATOM     31  H   LIG d   1       6.497  -0.565  -7.086  0.00  0.00     0.027 H 
ATOM     32  H   LIG d   1       8.131  -2.077  -8.633  0.00  0.00     0.031 H 
ATOM     33  H   LIG d   1       8.713  -1.079  -7.277  0.00  0.00     0.031 H 
ATOM     34  H   LIG d   1       8.885  -4.212  -8.620  0.00  0.00     0.064 H 
ATOM     35  H   LIG d   1       9.070  -6.565  -5.071  0.00  0.00     0.033 H 
ATOM     36  H   LIG d   1      10.360  -5.354  -4.968  0.00  0.00     0.033 H 
ATOM     37  H   LIG d   1       7.344  -4.872  -5.062  0.00  0.00     0.028 H 
ATOM     38  H   LIG d   1       8.440  -4.544  -3.702  0.00  0.00     0.028 H 
ENDROOT
BRANCH  18  39
ATOM     39  O   LIG d   1       9.801  -6.391  -8.984  0.00  0.00    -0.384 OA
BRANCH  39  40
ATOM     40  C   LIG d   1       9.108  -7.459  -9.632  0.00  0.00     0.193 C 
ATOM     41  H   LIG d   1       8.766  -7.127 -10.613  0.00  0.00     0.082 H 
ATOM     42  H   LIG d   1       9.781  -8.309  -9.750  0.00  0.00     0.082 H 
BRANCH  40  43
ATOM     43  C   LIG d   1       7.922  -7.869  -8.798  0.00  0.00     0.254 C 
ATOM     44  O   LIG d   1       7.863  -8.988  -8.338  0.00  0.00    -0.272 OA
ATOM     45  N   LIG d   1       6.927  -6.990  -8.564  0.00  0.00    -0.299 N 
ATOM     46  H   LIG d   1       6.973  -6.094  -8.933  0.00  0.00     0.150 HD
BRANCH  45  47
ATOM     47  C   LIG d   1       5.774  -7.389  -7.753  0.00  0.00     0.124 C 
ATOM     48  H   LIG d   1       5.726  -8.476  -7.700  0.00  0.00     0.062 H 
BRANCH  47  49
ATOM     49  C   LIG d   1       5.920  -6.815  -6.342  0.00  0.00     0.001 C 
ATOM     50  H   LIG d   1       6.868  -6.284  -6.262  0.00  0.00     0.034 H 
ATOM     51  H   LIG d   1       5.100  -6.125  -6.143  0.00  0.00     0.034 H 
BRANCH  49  52
ATOM     52  C   LIG d   1       5.887  -7.937  -5.337  0.00  0.00    -0.039 A 
ATOM     53  C   LIG d   1       4.692  -8.569  -5.045  0.00  0.00     0.018 A 
ATOM     54  C   LIG d   1       4.660  -9.600  -4.127  0.00  0.00     0.266 A 
ATOM     55  H   LIG d   1       3.783  -8.257  -5.539  0.00  0.00     0.069 H 
ATOM     56  C   LIG d   1       5.827  -9.995  -3.490  0.00  0.00    -0.029 A 
ATOM     57  C   LIG d   1       7.024  -9.358  -3.780  0.00  0.00    -0.063 A 
ATOM     58  O   LIG d   1       5.797 -11.006  -2.583  0.00  0.00    -0.869 OA
ATOM     59  C   LIG d   1       7.052  -8.330  -4.702  0.00  0.00    -0.059 A 
ATOM     60  H   LIG d   1       7.933  -9.663  -3.284  0.00  0.00     0.061 H 
ATOM     61  H   LIG d   1       7.983  -7.832  -4.928  0.00  0.00     0.062 H 
BRANCH  54  62
ATOM     62  N   LIG d   1       3.381 -10.278  -3.820  0.00  0.00     0.079 N 
ATOM     63  O   LIG d   1       3.097 -11.314  -4.376  0.00  0.00     0.041 OA
ATOM     64  O   LIG d   1       2.620  -9.798  -3.013  0.00  0.00    -0.576 OA
ENDBRANCH  54  62
ENDBRANCH  49  52
ENDBRANCH  47  49
BRANCH  47  65
ATOM     65  C   LIG d   1       4.511  -6.861  -8.382  0.00  0.00     0.328 C 
ATOM     66  O   LIG d   1       3.496  -7.516  -8.344  0.00  0.00    -0.249 OA
BRANCH  65  67
ATOM     67  O   LIG d   1       4.512  -5.661  -8.984  0.00  0.00    -0.467 OA
BRANCH  67  68
ATOM     68  C   LIG d   1       3.700  -4.640  -8.400  0.00  0.00     0.082 C 
ATOM     69  H   LIG d   1       4.273  -3.715  -8.330  0.00  0.00     0.066 H 
ATOM     70  H   LIG d   1       2.821  -4.475  -9.023  0.00  0.00     0.066 H 
ATOM     71  H   LIG d   1       3.387  -4.950  -7.404  0.00  0.00     0.066 H 
ENDBRANCH  67  68
ENDBRANCH  65  67
ENDBRANCH  47  65
ENDBRANCH  45  47
ENDBRANCH  40  43
ENDBRANCH  39  40
ENDBRANCH  18  39
BRANCH  21  72
ATOM     72  C   LIG d   1       9.987  -2.652  -4.880  0.00  0.00    -0.056 C 
ATOM     73  H   LIG d   1       9.965  -1.566  -4.804  0.00  0.00     0.024 H 
ATOM     74  H   LIG d   1      10.224  -3.080  -3.906  0.00  0.00     0.024 H 
ATOM     75  H   LIG d   1      10.746  -2.951  -5.603  0.00  0.00     0.024 H 
ENDBRANCH  21  72
BRANCH   6  76
ATOM     76  C   LIG d   1       6.167   0.427  -4.364  0.00  0.00    -0.056 C 
ATOM     77  H   LIG d   1       6.403   1.006  -3.471  0.00  0.00     0.024 H 
ATOM     78  H   LIG d   1       7.093   0.122  -4.854  0.00  0.00     0.024 H 
ATOM     79  H   LIG d   1       5.578   1.037  -5.048  0.00  0.00     0.024 H 
ENDBRANCH   6  76
BRANCH   1  80
ATOM     80  C   LIG d   1       3.994   1.005  -2.957  0.00  0.00     0.162 C 
ATOM     81  O   LIG d   1       3.611   1.990  -3.541  0.00  0.00    -0.295 OA
BRANCH  80  82
ATOM     82  C   LIG d   1       4.528   1.121  -1.552  0.00  0.00    -0.003 C 
ATOM     83  H   LIG d   1       3.773   0.773  -0.847  0.00  0.00     0.031 H 
ATOM     84  H   LIG d   1       5.425   0.511  -1.454  0.00  0.00     0.031 H 
ATOM     85  H   LIG d   1       4.771   2.163  -1.341  0.00  0.00     0.031 H 
ENDBRANCH  80  82
ENDBRANCH   1  80
BRANCH   1  86
ATOM     86  O   LIG d   1       3.281  -1.295  -2.805  0.00  0.00    -0.381 OA
ATOM     87  H   LIG d   1       3.878  -1.804  -2.240  0.00  0.00     0.211 HD
ENDBRANCH   1  86
TORSDOF 15
ENDMDL
MODEL 8
REMARK VINA RESULT:      -6.9      4.977      7.284
REMARK  15 active torsions:
REMARK  status: ('A' for Active; 'I' for Inactive)
REMARK    1  A    between atoms: C_1  and  C_2 
REMARK    2  A    between atoms: C_2  and  C_4 
REMARK    3  A    between atoms: C_4  and  O_49 
REMARK    4  A    between atoms: C_9  and  C_48 
REMARK    5  A    between atoms: N_21  and  O_22 
REMARK    6  A    between atoms: O_22  and  C_23 
REMARK    7  A    between atoms: C_23  and  C_24 
REMARK       I    between atoms: C_24  and  N_26 
REMARK    8  A    between atoms: N_26  and  C_27 
REMARK    9  A    between atoms: C_27  and  C_29 
REMARK   10  A    between atoms: C_27  and  C_40 
REMARK   11  A    between atoms: C_29  and  C_30 
REMARK   12  A    between atoms: C_34  and  N_36 
REMARK   13  A    between atoms: C_40  and  O_42 
REMARK   14  A    between atoms: O_42  and  C_43 
REMARK   15  A    between atoms: C_46  and  C_47 
ROOT
ATOM      1  C   LIG d   1      12.043   6.747  -0.177  0.00  0.00     0.129 C 
ATOM      2  C   LIG d   1      11.854   5.312  -0.729  0.00  0.00    -0.016 C 
ATOM      3  C   LIG d   1      11.201   5.468  -2.131  0.00  0.00    -0.046 C 
ATOM      4  C   LIG d   1      11.591   6.908  -2.507  0.00  0.00    -0.029 C 
ATOM      5  H   LIG d   1      12.680   6.928  -2.701  0.00  0.00     0.031 H 
ATOM      6  C   LIG d   1      11.300   7.651  -1.185  0.00  0.00     0.007 C 
ATOM      7  C   LIG d   1      11.816   9.066  -1.261  0.00  0.00    -0.044 C 
ATOM      8  C   LIG d   1      11.502   9.702  -2.620  0.00  0.00    -0.049 C 
ATOM      9  C   LIG d   1      10.439   8.946  -3.402  0.00  0.00    -0.029 C 
ATOM     10  H   LIG d   1       9.492   8.957  -2.861  0.00  0.00     0.031 H 
ATOM     11  C   LIG d   1      10.871   7.509  -3.678  0.00  0.00    -0.034 C 
ATOM     12  H   LIG d   1      11.592   7.552  -4.519  0.00  0.00     0.031 H 
ATOM     13  C   LIG d   1       9.704   6.659  -4.160  0.00  0.00    -0.046 C 
ATOM     14  C   LIG d   1       8.794   7.477  -5.080  0.00  0.00    -0.031 C 
ATOM     15  C   LIG d   1       9.593   8.609  -5.682  0.00  0.00    -0.062 C 
ATOM     16  C   LIG d   1       9.768   8.688  -6.991  0.00  0.00    -0.037 C 
ATOM     17  C   LIG d   1      10.551   9.776  -7.588  0.00  0.00     0.080 C 
ATOM     18  N   LIG d   1      10.650   9.866  -8.879  0.00  0.00    -0.089 NA
ATOM     19  C   LIG d   1      11.244  10.786  -6.710  0.00  0.00    -0.006 C 
ATOM     20  C   LIG d   1      11.479  10.191  -5.320  0.00  0.00    -0.038 C 
ATOM     21  C   LIG d   1      10.178   9.643  -4.749  0.00  0.00    -0.007 C 
ATOM     22  H   LIG d   1      12.819   4.817  -0.821  0.00  0.00     0.030 H 
ATOM     23  H   LIG d   1      11.196   4.743  -0.073  0.00  0.00     0.030 H 
ATOM     24  H   LIG d   1      11.648   4.761  -2.834  0.00  0.00     0.027 H 
ATOM     25  H   LIG d   1      10.128   5.331  -2.083  0.00  0.00     0.027 H 
ATOM     26  H   LIG d   1      11.356   9.668  -0.465  0.00  0.00     0.027 H 
ATOM     27  H   LIG d   1      12.901   9.081  -1.102  0.00  0.00     0.027 H 
ATOM     28  H   LIG d   1      11.173  10.735  -2.458  0.00  0.00     0.027 H 
ATOM     29  H   LIG d   1      12.427   9.738  -3.208  0.00  0.00     0.027 H 
ATOM     30  H   LIG d   1      10.087   5.803  -4.714  0.00  0.00     0.027 H 
ATOM     31  H   LIG d   1       9.122   6.314  -3.310  0.00  0.00     0.027 H 
ATOM     32  H   LIG d   1       8.417   6.836  -5.875  0.00  0.00     0.031 H 
ATOM     33  H   LIG d   1       7.962   7.878  -4.504  0.00  0.00     0.031 H 
ATOM     34  H   LIG d   1       9.327   7.938  -7.632  0.00  0.00     0.064 H 
ATOM     35  H   LIG d   1      12.211  11.040  -7.157  0.00  0.00     0.033 H 
ATOM     36  H   LIG d   1      10.647  11.692  -6.641  0.00  0.00     0.033 H 
ATOM     37  H   LIG d   1      12.216   9.388  -5.392  0.00  0.00     0.028 H 
ATOM     38  H   LIG d   1      11.871  10.970  -4.661  0.00  0.00     0.028 H 
ENDROOT
BRANCH  18  39
ATOM     39  O   LIG d   1      10.004   8.916  -9.706  0.00  0.00    -0.384 OA
BRANCH  39  40
ATOM     40  C   LIG d   1      10.895   8.151 -10.519  0.00  0.00     0.193 C 
ATOM     41  H   LIG d   1      10.508   8.105 -11.538  0.00  0.00     0.082 H 
ATOM     42  H   LIG d   1      11.878   8.625 -10.526  0.00  0.00     0.082 H 
BRANCH  40  43
ATOM     43  C   LIG d   1      11.014   6.756  -9.962  0.00  0.00     0.254 C 
ATOM     44  O   LIG d   1      12.090   6.200  -9.944  0.00  0.00    -0.272 OA
ATOM     45  N   LIG d   1       9.922   6.127  -9.482  0.00  0.00    -0.299 N 
ATOM     46  H   LIG d   1       9.060   6.572  -9.496  0.00  0.00     0.150 HD
BRANCH  45  47
ATOM     47  C   LIG d   1      10.038   4.771  -8.940  0.00  0.00     0.124 C 
ATOM     48  H   LIG d   1      11.080   4.455  -8.971  0.00  0.00     0.062 H 
BRANCH  47  49
ATOM     49  C   LIG d   1       9.543   4.757  -7.492  0.00  0.00     0.001 C 
ATOM     50  H   LIG d   1       9.146   5.739  -7.234  0.00  0.00     0.034 H 
ATOM     51  H   LIG d   1       8.759   4.009  -7.382  0.00  0.00     0.034 H 
BRANCH  49  52
ATOM     52  C   LIG d   1      10.689   4.422  -6.572  0.00  0.00    -0.039 A 
ATOM     53  C   LIG d   1      10.562   3.394  -5.657  0.00  0.00     0.018 A 
ATOM     54  C   LIG d   1      11.612   3.083  -4.815  0.00  0.00     0.266 A 
ATOM     55  H   LIG d   1       9.641   2.832  -5.602  0.00  0.00     0.069 H 
ATOM     56  C   LIG d   1      12.791   3.809  -4.883  0.00  0.00    -0.029 A 
ATOM     57  C   LIG d   1      12.916   4.843  -5.799  0.00  0.00    -0.063 A 
ATOM     58  O   LIG d   1      13.824   3.508  -4.053  0.00  0.00    -0.869 OA
ATOM     59  C   LIG d   1      11.865   5.149  -6.641  0.00  0.00    -0.059 A 
ATOM     60  H   LIG d   1      13.833   5.410  -5.852  0.00  0.00     0.061 H 
ATOM     61  H   LIG d   1      11.960   5.954  -7.354  0.00  0.00     0.062 H 
BRANCH  54  62
ATOM     62  N   LIG d   1      11.476   1.978  -3.840  0.00  0.00     0.079 N 
ATOM     63  O   LIG d   1      10.904   2.164  -2.790  0.00  0.00     0.041 OA
ATOM     64  O   LIG d   1      11.937   0.889  -4.092  0.00  0.00    -0.576 OA
ENDBRANCH  54  62
ENDBRANCH  49  52
ENDBRANCH  47  49
BRANCH  47  65
ATOM     65  C   LIG d   1       9.202   3.828  -9.765  0.00  0.00     0.328 C 
ATOM     66  O   LIG d   1       9.576   3.492 -10.864  0.00  0.00    -0.249 OA
BRANCH  65  67
ATOM     67  O   LIG d   1       8.041   3.360  -9.280  0.00  0.00    -0.467 OA
BRANCH  67  68
ATOM     68  C   LIG d   1       7.948   1.950  -9.066  0.00  0.00     0.082 C 
ATOM     69  H   LIG d   1       7.667   1.458  -9.997  0.00  0.00     0.066 H 
ATOM     70  H   LIG d   1       8.913   1.569  -8.732  0.00  0.00     0.066 H 
ATOM     71  H   LIG d   1       7.195   1.747  -8.305  0.00  0.00     0.066 H 
ENDBRANCH  67  68
ENDBRANCH  65  67
ENDBRANCH  47  65
ENDBRANCH  45  47
ENDBRANCH  40  43
ENDBRANCH  39  40
ENDBRANCH  18  39
BRANCH  21  72
ATOM     72  C   LIG d   1       9.168  10.774  -4.538  0.00  0.00    -0.056 C 
ATOM     73  H   LIG d   1       8.555  10.883  -5.432  0.00  0.00     0.024 H 
ATOM     74  H   LIG d   1       8.531  10.538  -3.686  0.00  0.00     0.024 H 
ATOM     75  H   LIG d   1       9.701  11.705  -4.348  0.00  0.00     0.024 H 
ENDBRANCH  21  72
BRANCH   6  76
ATOM     76  C   LIG d   1       9.821   7.622  -0.800  0.00  0.00    -0.056 C 
ATOM     77  H   LIG d   1       9.210   7.710  -1.699  0.00  0.00     0.024 H 
ATOM     78  H   LIG d   1       9.595   6.681  -0.297  0.00  0.00     0.024 H 
ATOM     79  H   LIG d   1       9.603   8.454  -0.130  0.00  0.00     0.024 H 
ENDBRANCH   6  76
BRANCH   1  80
ATOM     80  C   LIG d   1      11.417   6.877   1.184  0.00  0.00     0.162 C 
ATOM     81  O   LIG d   1      11.417   7.944   1.750  0.00  0.00    -0.295 OA
BRANCH  80  82
ATOM     82  C   LIG d   1      10.789   5.675   1.842  0.00  0.00    -0.003 C 
ATOM     83  H   LIG d   1      10.579   4.917   1.087  0.00  0.00     0.031 H 
ATOM     84  H   LIG d   1      11.476   5.268   2.584  0.00  0.00     0.031 H 
ATOM     85  H   LIG d   1       9.861   5.971   2.330  0.00  0.00     0.031 H 
ENDBRANCH  80  82
ENDBRANCH   1  80
BRANCH   1  86
ATOM     86  O   LIG d   1      13.426   7.086  -0.135  0.00  0.00    -0.381 OA
ATOM     87  H   LIG d   1      13.611   8.011  -0.344  0.00  0.00     0.211 HD
ENDBRANCH   1  86
TORSDOF 15
ENDMDL
MODEL 9
REMARK VINA RESULT:      -6.8      6.228     11.432
REMARK  15 active torsions:
REMARK  status: ('A' for Active; 'I' for Inactive)
REMARK    1  A    between atoms: C_1  and  C_2 
REMARK    2  A    between atoms: C_2  and  C_4 
REMARK    3  A    between atoms: C_4  and  O_49 
REMARK    4  A    between atoms: C_9  and  C_48 
REMARK    5  A    between atoms: N_21  and  O_22 
REMARK    6  A    between atoms: O_22  and  C_23 
REMARK    7  A    between atoms: C_23  and  C_24 
REMARK       I    between atoms: C_24  and  N_26 
REMARK    8  A    between atoms: N_26  and  C_27 
REMARK    9  A    between atoms: C_27  and  C_29 
REMARK   10  A    between atoms: C_27  and  C_40 
REMARK   11  A    between atoms: C_29  and  C_30 
REMARK   12  A    between atoms: C_34  and  N_36 
REMARK   13  A    between atoms: C_40  and  O_42 
REMARK   14  A    between atoms: O_42  and  C_43 
REMARK   15  A    between atoms: C_46  and  C_47 
ROOT
ATOM      1  C   LIG d   1      11.290   7.094 -10.013  0.00  0.00     0.129 C 
ATOM      2  C   LIG d   1      11.068   8.592  -9.689  0.00  0.00    -0.016 C 
ATOM      3  C   LIG d   1      10.552   8.649  -8.224  0.00  0.00    -0.046 C 
ATOM      4  C   LIG d   1      11.056   7.311  -7.655  0.00  0.00    -0.029 C 
ATOM      5  H   LIG d   1      12.157   7.370  -7.568  0.00  0.00     0.031 H 
ATOM      6  C   LIG d   1      10.693   6.343  -8.803  0.00  0.00     0.007 C 
ATOM      7  C   LIG d   1      11.295   4.985  -8.546  0.00  0.00    -0.044 C 
ATOM      8  C   LIG d   1      11.140   4.575  -7.077  0.00  0.00    -0.049 C 
ATOM      9  C   LIG d   1      10.109   5.406  -6.331  0.00  0.00    -0.029 C 
ATOM     10  H   LIG d   1       9.119   5.264  -6.767  0.00  0.00     0.031 H 
ATOM     11  C   LIG d   1      10.479   6.887  -6.338  0.00  0.00    -0.034 C 
ATOM     12  H   LIG d   1      11.274   7.017  -5.575  0.00  0.00     0.031 H 
ATOM     13  C   LIG d   1       9.312   7.756  -5.891  0.00  0.00    -0.046 C 
ATOM     14  C   LIG d   1       8.536   7.066  -4.765  0.00  0.00    -0.031 C 
ATOM     15  C   LIG d   1       9.450   6.088  -4.065  0.00  0.00    -0.062 C 
ATOM     16  C   LIG d   1       9.744   6.239  -2.785  0.00  0.00    -0.037 C 
ATOM     17  C   LIG d   1      10.639   5.302  -2.096  0.00  0.00     0.080 C 
ATOM     18  N   LIG d   1      10.857   5.436  -0.823  0.00  0.00    -0.089 NA
ATOM     19  C   LIG d   1      11.309   4.189  -2.859  0.00  0.00    -0.006 C 
ATOM     20  C   LIG d   1      11.385   4.549  -4.343  0.00  0.00    -0.038 C 
ATOM     21  C   LIG d   1      10.009   4.937  -4.868  0.00  0.00    -0.007 C 
ATOM     22  H   LIG d   1      12.006   9.136  -9.774  0.00  0.00     0.030 H 
ATOM     23  H   LIG d   1      10.322   9.013 -10.363  0.00  0.00     0.030 H 
ATOM     24  H   LIG d   1      11.017   9.482  -7.694  0.00  0.00     0.027 H 
ATOM     25  H   LIG d   1       9.473   8.729  -8.189  0.00  0.00     0.027 H 
ATOM     26  H   LIG d   1      10.802   4.238  -9.183  0.00  0.00     0.027 H 
ATOM     27  H   LIG d   1      12.361   4.989  -8.805  0.00  0.00     0.027 H 
ATOM     28  H   LIG d   1      10.858   3.516  -7.034  0.00  0.00     0.027 H 
ATOM     29  H   LIG d   1      12.115   4.678  -6.584  0.00  0.00     0.027 H 
ATOM     30  H   LIG d   1       9.692   8.708  -5.525  0.00  0.00     0.027 H 
ATOM     31  H   LIG d   1       8.637   7.927  -6.725  0.00  0.00     0.027 H 
ATOM     32  H   LIG d   1       8.195   7.816  -4.053  0.00  0.00     0.031 H 
ATOM     33  H   LIG d   1       7.682   6.539  -5.184  0.00  0.00     0.031 H 
ATOM     34  H   LIG d   1       9.319   7.067  -2.236  0.00  0.00     0.064 H 
ATOM     35  H   LIG d   1      12.325   4.055  -2.472  0.00  0.00     0.033 H 
ATOM     36  H   LIG d   1      10.762   3.259  -2.719  0.00  0.00     0.033 H 
ATOM     37  H   LIG d   1      12.078   5.384  -4.477  0.00  0.00     0.028 H 
ATOM     38  H   LIG d   1      11.762   3.687  -4.901  0.00  0.00     0.028 H 
ENDROOT
BRANCH  18  39
ATOM     39  O   LIG d   1      10.233   6.484  -0.105  0.00  0.00    -0.384 OA
BRANCH  39  40
ATOM     40  C   LIG d   1      11.147   7.403   0.496  0.00  0.00     0.193 C 
ATOM     41  H   LIG d   1      10.711   7.801   1.413  0.00  0.00     0.082 H 
ATOM     42  H   LIG d   1      12.078   6.886   0.732  0.00  0.00     0.082 H 
BRANCH  40  43
ATOM     43  C   LIG d   1      11.428   8.532  -0.460  0.00  0.00     0.254 C 
ATOM     44  O   LIG d   1      12.566   8.764  -0.808  0.00  0.00    -0.272 OA
ATOM     45  N   LIG d   1      10.414   9.285  -0.930  0.00  0.00    -0.299 N 
ATOM     46  H   LIG d   1       9.502   9.101  -0.652  0.00  0.00     0.150 HD
BRANCH  45  47
ATOM     47  C   LIG d   1      10.687  10.383  -1.860  0.00  0.00     0.124 C 
ATOM     48  H   LIG d   1      11.689  10.269  -2.273  0.00  0.00     0.062 H 
BRANCH  47  49
ATOM     49  C   LIG d   1       9.662  10.357  -2.996  0.00  0.00     0.001 C 
ATOM     50  H   LIG d   1       9.325   9.333  -3.158  0.00  0.00     0.034 H 
ATOM     51  H   LIG d   1       8.808  10.981  -2.731  0.00  0.00     0.034 H 
BRANCH  49  52
ATOM     52  C   LIG d   1      10.295  10.883  -4.258  0.00  0.00    -0.039 A 
ATOM     53  C   LIG d   1       9.608  11.783  -5.052  0.00  0.00     0.018 A 
ATOM     54  C   LIG d   1      10.188  12.269  -6.208  0.00  0.00     0.266 A 
ATOM     55  H   LIG d   1       8.619  12.109  -4.766  0.00  0.00     0.069 H 
ATOM     56  C   LIG d   1      11.456  11.846  -6.576  0.00  0.00    -0.029 A 
ATOM     57  C   LIG d   1      12.141  10.939  -5.782  0.00  0.00    -0.063 A 
ATOM     58  O   LIG d   1      12.027  12.319  -7.715  0.00  0.00    -0.869 OA
ATOM     59  C   LIG d   1      11.559  10.458  -4.625  0.00  0.00    -0.059 A 
ATOM     60  H   LIG d   1      13.128  10.607  -6.068  0.00  0.00     0.061 H 
ATOM     61  H   LIG d   1      12.091   9.752  -4.006  0.00  0.00     0.062 H 
BRANCH  54  62
ATOM     62  N   LIG d   1       9.455  13.237  -7.053  0.00  0.00     0.079 N 
ATOM     63  O   LIG d   1       8.921  12.867  -8.074  0.00  0.00     0.041 OA
ATOM     64  O   LIG d   1       9.388  14.399  -6.723  0.00  0.00    -0.576 OA
ENDBRANCH  54  62
ENDBRANCH  49  52
ENDBRANCH  47  49
BRANCH  47  65
ATOM     65  C   LIG d   1      10.592  11.697  -1.129  0.00  0.00     0.328 C 
ATOM     66  O   LIG d   1      10.144  11.734  -0.007  0.00  0.00    -0.249 OA
BRANCH  65  67
ATOM     67  O   LIG d   1      11.006  12.827  -1.722  0.00  0.00    -0.467 OA
BRANCH  67  68
ATOM     68  C   LIG d   1      10.065  13.900  -1.805  0.00  0.00     0.082 C 
ATOM     69  H   LIG d   1      10.395  14.723  -1.170  0.00  0.00     0.066 H 
ATOM     70  H   LIG d   1       9.996  14.243  -2.837  0.00  0.00     0.066 H 
ATOM     71  H   LIG d   1       9.088  13.553  -1.471  0.00  0.00     0.066 H 
ENDBRANCH  67  68
ENDBRANCH  65  67
ENDBRANCH  47  65
ENDBRANCH  45  47
ENDBRANCH  40  43
ENDBRANCH  39  40
ENDBRANCH  18  39
BRANCH  21  72
ATOM     72  C   LIG d   1       9.052   3.745  -4.791  0.00  0.00    -0.056 C 
ATOM     73  H   LIG d   1       9.538   2.862  -5.206  0.00  0.00     0.024 H 
ATOM     74  H   LIG d   1       8.787   3.558  -3.750  0.00  0.00     0.024 H 
ATOM     75  H   LIG d   1       8.150   3.965  -5.361  0.00  0.00     0.024 H 
ENDBRANCH  21  72
BRANCH   6  76
ATOM     76  C   LIG d   1       9.187   6.243  -9.042  0.00  0.00    -0.056 C 
ATOM     77  H   LIG d   1       8.659   6.820  -8.282  0.00  0.00     0.024 H 
ATOM     78  H   LIG d   1       8.948   6.641 -10.030  0.00  0.00     0.024 H 
ATOM     79  H   LIG d   1       8.877   5.200  -8.987  0.00  0.00     0.024 H 
ENDBRANCH   6  76
BRANCH   1  80
ATOM     80  C   LIG d   1      10.554   6.709 -11.267  0.00  0.00     0.162 C 
ATOM     81  O   LIG d   1      10.596   5.571 -11.667  0.00  0.00    -0.295 OA
BRANCH  80  82
ATOM     82  C   LIG d   1       9.765   7.746 -12.025  0.00  0.00    -0.003 C 
ATOM     83  H   LIG d   1       9.100   8.268 -11.338  0.00  0.00     0.031 H 
ATOM     84  H   LIG d   1      10.450   8.460 -12.481  0.00  0.00     0.031 H 
ATOM     85  H   LIG d   1       9.177   7.258 -12.802  0.00  0.00     0.031 H 
ENDBRANCH  80  82
ENDBRANCH   1  80
BRANCH   1  86
ATOM     86  O   LIG d   1      12.681   6.812 -10.133  0.00  0.00    -0.381 OA
ATOM     87  H   LIG d   1      13.238   7.600 -10.194  0.00  0.00     0.211 HD
ENDBRANCH   1  86
TORSDOF 15
ENDMDL
