MODEL 1
REMARK VINA RESULT:      -6.0      0.000      0.000
REMARK  8 active torsions:
REMARK  status: ('A' for Active; 'I' for Inactive)
REMARK    1  A    between atoms: C_1  and  O_2 
REMARK    2  A    between atoms: O_2  and  C_3 
REMARK    3  A    between atoms: C_7  and  C_11 
REMARK    4  A    between atoms: C_8  and  O_9 
REMARK    5  A    between atoms: O_9  and  C_10 
REMARK    6  A    between atoms: C_18  and  O_22 
REMARK    7  A    between atoms: O_22  and  C_23 
REMARK    8  A    between atoms: C_23  and  C_24 
ROOT
ATOM      1  C   LIG d   1       6.773  -2.059  -4.435  0.00  0.00    -0.005 C 
ATOM      2  C   LIG d   1       6.599  -3.345  -4.833  0.00  0.00     0.176 A 
ATOM      3  C   LIG d   1       7.641  -4.240  -5.359  0.00  0.00     0.232 A 
ATOM      4  O   LIG d   1       8.822  -3.993  -5.527  0.00  0.00    -0.283 OA
ATOM      5  C   LIG d   1       6.936  -5.506  -5.633  0.00  0.00     0.068 A 
ATOM      6  C   LIG d   1       7.352  -6.740  -6.136  0.00  0.00    -0.044 A 
ATOM      7  C   LIG d   1       6.446  -7.752  -6.290  0.00  0.00    -0.019 A 
ATOM      8  C   LIG d   1       5.112  -7.555  -5.945  0.00  0.00     0.125 A 
ATOM      9  C   LIG d   1       4.685  -6.336  -5.444  0.00  0.00     0.023 A 
ATOM     10  C   LIG d   1       5.593  -5.296  -5.283  0.00  0.00     0.143 A 
ATOM     11  O   LIG d   1       5.434  -4.035  -4.824  0.00  0.00    -0.451 OA
ATOM     12  H   LIG d   1       7.723  -1.568  -4.594  0.00  0.00     0.066 H 
ATOM     13  H   LIG d   1       8.386  -6.894  -6.404  0.00  0.00     0.063 H 
ATOM     14  H   LIG d   1       6.767  -8.706  -6.679  0.00  0.00     0.065 H 
ATOM     15  H   LIG d   1       3.648  -6.193  -5.181  0.00  0.00     0.069 H 
ENDROOT
BRANCH   1  16
ATOM     16  C   LIG d   1       5.672  -1.336  -3.790  0.00  0.00     0.024 A 
ATOM     17  C   LIG d   1       5.317  -1.626  -2.467  0.00  0.00    -0.051 A 
ATOM     18  C   LIG d   1       4.282  -0.944  -1.866  0.00  0.00    -0.058 A 
ATOM     19  H   LIG d   1       5.854  -2.385  -1.917  0.00  0.00     0.062 H 
ATOM     20  C   LIG d   1       3.588   0.031  -2.564  0.00  0.00    -0.016 A 
ATOM     21  H   LIG d   1       4.012  -1.168  -0.845  0.00  0.00     0.062 H 
ATOM     22  C   LIG d   1       3.926   0.331  -3.874  0.00  0.00     0.162 A 
ATOM     23  H   LIG d   1       2.777   0.560  -2.085  0.00  0.00     0.066 H 
ATOM     24  C   LIG d   1       4.968  -0.347  -4.496  0.00  0.00     0.169 A 
BRANCH  22  25
ATOM     25  O   LIG d   1       3.238   1.290  -4.551  0.00  0.00    -0.491 OA
BRANCH  25  26
ATOM     26  C   LIG d   1       2.012   0.894  -5.168  0.00  0.00     0.079 C 
ATOM     27  H   LIG d   1       1.980  -0.192  -5.250  0.00  0.00     0.066 H 
ATOM     28  H   LIG d   1       1.173   1.238  -4.562  0.00  0.00     0.066 H 
ATOM     29  H   LIG d   1       1.947   1.336  -6.162  0.00  0.00     0.066 H 
ENDBRANCH  25  26
ENDBRANCH  22  25
BRANCH  24  30
ATOM     30  O   LIG d   1       5.302  -0.056  -5.780  0.00  0.00    -0.491 OA
BRANCH  30  31
ATOM     31  C   LIG d   1       4.690  -0.841  -6.804  0.00  0.00     0.079 C 
ATOM     32  H   LIG d   1       4.574  -0.238  -7.705  0.00  0.00     0.066 H 
ATOM     33  H   LIG d   1       5.317  -1.705  -7.024  0.00  0.00     0.066 H 
ATOM     34  H   LIG d   1       3.710  -1.181  -6.465  0.00  0.00     0.066 H 
ENDBRANCH  30  31
ENDBRANCH  24  30
ENDBRANCH   1  16
BRANCH   8  35
ATOM     35  O   LIG d   1       4.220  -8.567  -6.101  0.00  0.00    -0.486 OA
BRANCH  35  36
ATOM     36  C   LIG d   1       4.668  -9.882  -5.767  0.00  0.00     0.129 C 
ATOM     37  H   LIG d   1       4.154 -10.611  -6.393  0.00  0.00     0.076 H 
ATOM     38  H   LIG d   1       5.743  -9.952  -5.933  0.00  0.00     0.076 H 
BRANCH  36  39
ATOM     39  C   LIG d   1       4.364 -10.163  -4.317  0.00  0.00     0.079 C 
ATOM     40  O   LIG d   1       3.379  -9.689  -3.803  0.00  0.00    -0.546 OA
ATOM     41  O   LIG d   1       5.188 -10.940  -3.598  0.00  0.00    -0.546 OA
ENDBRANCH  36  39
ENDBRANCH  35  36
ENDBRANCH   8  35
TORSDOF 8
ENDMDL
MODEL 2
REMARK VINA RESULT:      -5.9      4.759      6.524
REMARK  8 active torsions:
REMARK  status: ('A' for Active; 'I' for Inactive)
REMARK    1  A    between atoms: C_1  and  O_2 
REMARK    2  A    between atoms: O_2  and  C_3 
REMARK    3  A    between atoms: C_7  and  C_11 
REMARK    4  A    between atoms: C_8  and  O_9 
REMARK    5  A    between atoms: O_9  and  C_10 
REMARK    6  A    between atoms: C_18  and  O_22 
REMARK    7  A    between atoms: O_22  and  C_23 
REMARK    8  A    between atoms: C_23  and  C_24 
ROOT
ATOM      1  C   LIG d   1       3.242   0.723  -5.695  0.00  0.00    -0.005 C 
ATOM      2  C   LIG d   1       3.112   0.191  -6.938  0.00  0.00     0.176 A 
ATOM      3  C   LIG d   1       2.783   0.926  -8.167  0.00  0.00     0.232 A 
ATOM      4  O   LIG d   1       2.573   2.120  -8.290  0.00  0.00    -0.283 OA
ATOM      5  C   LIG d   1       2.767  -0.105  -9.221  0.00  0.00     0.068 A 
ATOM      6  C   LIG d   1       2.526  -0.062 -10.596  0.00  0.00    -0.044 A 
ATOM      7  C   LIG d   1       2.576  -1.212 -11.332  0.00  0.00    -0.019 A 
ATOM      8  C   LIG d   1       2.868  -2.425 -10.715  0.00  0.00     0.125 A 
ATOM      9  C   LIG d   1       3.110  -2.483  -9.352  0.00  0.00     0.023 A 
ATOM     10  C   LIG d   1       3.061  -1.323  -8.588  0.00  0.00     0.143 A 
ATOM     11  O   LIG d   1       3.255  -1.115  -7.267  0.00  0.00    -0.451 OA
ATOM     12  H   LIG d   1       2.991   1.760  -5.523  0.00  0.00     0.066 H 
ATOM     13  H   LIG d   1       2.299   0.878 -11.076  0.00  0.00     0.063 H 
ATOM     14  H   LIG d   1       2.390  -1.179 -12.395  0.00  0.00     0.065 H 
ATOM     15  H   LIG d   1       3.334  -3.430  -8.883  0.00  0.00     0.069 H 
ENDROOT
BRANCH   1  16
ATOM     16  C   LIG d   1       3.722  -0.109  -4.587  0.00  0.00     0.024 A 
ATOM     17  C   LIG d   1       2.809  -0.759  -3.747  0.00  0.00    -0.051 A 
ATOM     18  C   LIG d   1       3.266  -1.539  -2.707  0.00  0.00    -0.058 A 
ATOM     19  H   LIG d   1       1.748  -0.649  -3.913  0.00  0.00     0.062 H 
ATOM     20  C   LIG d   1       4.625  -1.687  -2.487  0.00  0.00    -0.016 A 
ATOM     21  H   LIG d   1       2.560  -2.042  -2.063  0.00  0.00     0.062 H 
ATOM     22  C   LIG d   1       5.542  -1.051  -3.309  0.00  0.00     0.162 A 
ATOM     23  H   LIG d   1       4.974  -2.300  -1.670  0.00  0.00     0.066 H 
ATOM     24  C   LIG d   1       5.100  -0.260  -4.363  0.00  0.00     0.169 A 
BRANCH  22  25
ATOM     25  O   LIG d   1       6.875  -1.201  -3.085  0.00  0.00    -0.491 OA
BRANCH  25  26
ATOM     26  C   LIG d   1       7.457  -2.454  -3.450  0.00  0.00     0.079 C 
ATOM     27  H   LIG d   1       6.833  -2.940  -4.199  0.00  0.00     0.066 H 
ATOM     28  H   LIG d   1       8.453  -2.287  -3.860  0.00  0.00     0.066 H 
ATOM     29  H   LIG d   1       7.530  -3.091  -2.569  0.00  0.00     0.066 H 
ENDBRANCH  25  26
ENDBRANCH  22  25
BRANCH  24  30
ATOM     30  O   LIG d   1       5.995   0.365  -5.171  0.00  0.00    -0.491 OA
BRANCH  30  31
ATOM     31  C   LIG d   1       6.554  -0.404  -6.237  0.00  0.00     0.079 C 
ATOM     32  H   LIG d   1       6.603   0.207  -7.139  0.00  0.00     0.066 H 
ATOM     33  H   LIG d   1       7.558  -0.729  -5.964  0.00  0.00     0.066 H 
ATOM     34  H   LIG d   1       5.928  -1.277  -6.422  0.00  0.00     0.066 H 
ENDBRANCH  30  31
ENDBRANCH  24  30
ENDBRANCH   1  16
BRANCH   8  35
ATOM     35  O   LIG d   1       2.917  -3.562 -11.455  0.00  0.00    -0.486 OA
BRANCH  35  36
ATOM     36  C   LIG d   1       2.114  -4.658 -11.014  0.00  0.00     0.129 C 
ATOM     37  H   LIG d   1       2.453  -5.575 -11.495  0.00  0.00     0.076 H 
ATOM     38  H   LIG d   1       2.202  -4.760  -9.933  0.00  0.00     0.076 H 
BRANCH  36  39
ATOM     39  C   LIG d   1       0.673  -4.404 -11.378  0.00  0.00     0.079 C 
ATOM     40  O   LIG d   1       0.359  -4.256 -12.535  0.00  0.00    -0.546 OA
ATOM     41  O   LIG d   1      -0.260  -4.341 -10.416  0.00  0.00    -0.546 OA
ENDBRANCH  36  39
ENDBRANCH  35  36
ENDBRANCH   8  35
TORSDOF 8
ENDMDL
MODEL 3
REMARK VINA RESULT:      -5.8      1.114      2.191
REMARK  8 active torsions:
REMARK  status: ('A' for Active; 'I' for Inactive)
REMARK    1  A    between atoms: C_1  and  O_2 
REMARK    2  A    between atoms: O_2  and  C_3 
REMARK    3  A    between atoms: C_7  and  C_11 
REMARK    4  A    between atoms: C_8  and  O_9 
REMARK    5  A    between atoms: O_9  and  C_10 
REMARK    6  A    between atoms: C_18  and  O_22 
REMARK    7  A    between atoms: O_22  and  C_23 
REMARK    8  A    between atoms: C_23  and  C_24 
ROOT
ATOM      1  C   LIG d   1       6.134  -1.739  -6.040  0.00  0.00    -0.005 C 
ATOM      2  C   LIG d   1       6.109  -3.091  -5.917  0.00  0.00     0.176 A 
ATOM      3  C   LIG d   1       7.272  -3.989  -5.962  0.00  0.00     0.232 A 
ATOM      4  O   LIG d   1       8.443  -3.687  -6.113  0.00  0.00    -0.283 OA
ATOM      5  C   LIG d   1       6.704  -5.337  -5.779  0.00  0.00     0.068 A 
ATOM      6  C   LIG d   1       7.271  -6.612  -5.724  0.00  0.00    -0.044 A 
ATOM      7  C   LIG d   1       6.471  -7.705  -5.546  0.00  0.00    -0.019 A 
ATOM      8  C   LIG d   1       5.094  -7.551  -5.420  0.00  0.00     0.125 A 
ATOM      9  C   LIG d   1       4.517  -6.292  -5.473  0.00  0.00     0.023 A 
ATOM     10  C   LIG d   1       5.316  -5.170  -5.653  0.00  0.00     0.143 A 
ATOM     11  O   LIG d   1       5.007  -3.857  -5.738  0.00  0.00    -0.451 OA
ATOM     12  H   LIG d   1       7.056  -1.237  -6.297  0.00  0.00     0.066 H 
ATOM     13  H   LIG d   1       8.340  -6.734  -5.822  0.00  0.00     0.063 H 
ATOM     14  H   LIG d   1       6.909  -8.691  -5.504  0.00  0.00     0.065 H 
ATOM     15  H   LIG d   1       3.447  -6.183  -5.374  0.00  0.00     0.069 H 
ENDROOT
BRANCH   1  16
ATOM     16  C   LIG d   1       4.910  -0.960  -5.824  0.00  0.00     0.024 A 
ATOM     17  C   LIG d   1       4.122  -0.568  -6.913  0.00  0.00    -0.051 A 
ATOM     18  C   LIG d   1       2.974   0.164  -6.705  0.00  0.00    -0.058 A 
ATOM     19  H   LIG d   1       4.415  -0.839  -7.917  0.00  0.00     0.062 H 
ATOM     20  C   LIG d   1       2.591   0.516  -5.421  0.00  0.00    -0.016 A 
ATOM     21  H   LIG d   1       2.367   0.462  -7.547  0.00  0.00     0.062 H 
ATOM     22  C   LIG d   1       3.359   0.136  -4.331  0.00  0.00     0.162 A 
ATOM     23  H   LIG d   1       1.690   1.090  -5.267  0.00  0.00     0.066 H 
ATOM     24  C   LIG d   1       4.521  -0.602  -4.522  0.00  0.00     0.169 A 
BRANCH  22  25
ATOM     25  O   LIG d   1       2.976   0.487  -3.074  0.00  0.00    -0.491 OA
BRANCH  25  26
ATOM     26  C   LIG d   1       3.609   1.630  -2.498  0.00  0.00     0.079 C 
ATOM     27  H   LIG d   1       3.113   1.888  -1.563  0.00  0.00     0.066 H 
ATOM     28  H   LIG d   1       4.658   1.405  -2.302  0.00  0.00     0.066 H 
ATOM     29  H   LIG d   1       3.541   2.470  -3.189  0.00  0.00     0.066 H 
ENDBRANCH  25  26
ENDBRANCH  22  25
BRANCH  24  30
ATOM     30  O   LIG d   1       5.276  -0.976  -3.457  0.00  0.00    -0.491 OA
BRANCH  30  31
ATOM     31  C   LIG d   1       4.782  -2.052  -2.657  0.00  0.00     0.079 C 
ATOM     32  H   LIG d   1       3.962  -1.695  -2.034  0.00  0.00     0.066 H 
ATOM     33  H   LIG d   1       4.424  -2.852  -3.305  0.00  0.00     0.066 H 
ATOM     34  H   LIG d   1       5.584  -2.430  -2.023  0.00  0.00     0.066 H 
ENDBRANCH  30  31
ENDBRANCH  24  30
ENDBRANCH   1  16
BRANCH   8  35
ATOM     35  O   LIG d   1       4.307  -8.643  -5.243  0.00  0.00    -0.486 OA
BRANCH  35  36
ATOM     36  C   LIG d   1       4.869  -9.734  -4.511  0.00  0.00     0.129 C 
ATOM     37  H   LIG d   1       5.159 -10.526  -5.202  0.00  0.00     0.076 H 
ATOM     38  H   LIG d   1       5.746  -9.390  -3.963  0.00  0.00     0.076 H 
BRANCH  36  39
ATOM     39  C   LIG d   1       3.846 -10.266  -3.539  0.00  0.00     0.079 C 
ATOM     40  O   LIG d   1       3.952 -11.387  -3.104  0.00  0.00    -0.546 OA
ATOM     41  O   LIG d   1       2.818  -9.492  -3.158  0.00  0.00    -0.546 OA
ENDBRANCH  36  39
ENDBRANCH  35  36
ENDBRANCH   8  35
TORSDOF 8
ENDMDL
MODEL 4
REMARK VINA RESULT:      -5.7      6.553      8.926
REMARK  8 active torsions:
REMARK  status: ('A' for Active; 'I' for Inactive)
REMARK    1  A    between atoms: C_1  and  O_2 
REMARK    2  A    between atoms: O_2  and  C_3 
REMARK    3  A    between atoms: C_7  and  C_11 
REMARK    4  A    between atoms: C_8  and  O_9 
REMARK    5  A    between atoms: O_9  and  C_10 
REMARK    6  A    between atoms: C_18  and  O_22 
REMARK    7  A    between atoms: O_22  and  C_23 
REMARK    8  A    between atoms: C_23  and  C_24 
ROOT
ATOM      1  C   LIG d   1      10.744   4.415  -3.944  0.00  0.00    -0.005 C 
ATOM      2  C   LIG d   1       9.868   3.414  -4.215  0.00  0.00     0.176 A 
ATOM      3  C   LIG d   1       9.851   2.580  -5.425  0.00  0.00     0.232 A 
ATOM      4  O   LIG d   1      10.604   2.636  -6.382  0.00  0.00    -0.283 OA
ATOM      5  C   LIG d   1       8.719   1.656  -5.221  0.00  0.00     0.068 A 
ATOM      6  C   LIG d   1       8.178   0.625  -5.992  0.00  0.00    -0.044 A 
ATOM      7  C   LIG d   1       7.094  -0.070  -5.533  0.00  0.00    -0.019 A 
ATOM      8  C   LIG d   1       6.531   0.248  -4.300  0.00  0.00     0.125 A 
ATOM      9  C   LIG d   1       7.058   1.268  -3.525  0.00  0.00     0.023 A 
ATOM     10  C   LIG d   1       8.159   1.985  -3.977  0.00  0.00     0.143 A 
ATOM     11  O   LIG d   1       8.848   3.006  -3.423  0.00  0.00    -0.451 OA
ATOM     12  H   LIG d   1      11.448   4.736  -4.698  0.00  0.00     0.066 H 
ATOM     13  H   LIG d   1       8.614   0.378  -6.948  0.00  0.00     0.063 H 
ATOM     14  H   LIG d   1       6.675  -0.867  -6.128  0.00  0.00     0.065 H 
ATOM     15  H   LIG d   1       6.613   1.506  -2.571  0.00  0.00     0.069 H 
ENDROOT
BRANCH   1  16
ATOM     16  C   LIG d   1      10.733   5.062  -2.627  0.00  0.00     0.024 A 
ATOM     17  C   LIG d   1      11.527   4.559  -1.588  0.00  0.00    -0.051 A 
ATOM     18  C   LIG d   1      11.512   5.170  -0.353  0.00  0.00    -0.058 A 
ATOM     19  H   LIG d   1      12.149   3.693  -1.755  0.00  0.00     0.062 H 
ATOM     20  C   LIG d   1      10.717   6.282  -0.132  0.00  0.00    -0.016 A 
ATOM     21  H   LIG d   1      12.128   4.782   0.445  0.00  0.00     0.062 H 
ATOM     22  C   LIG d   1       9.926   6.793  -1.148  0.00  0.00     0.162 A 
ATOM     23  H   LIG d   1      10.712   6.754   0.839  0.00  0.00     0.066 H 
ATOM     24  C   LIG d   1       9.927   6.189  -2.401  0.00  0.00     0.169 A 
BRANCH  22  25
ATOM     25  O   LIG d   1       9.148   7.885  -0.921  0.00  0.00    -0.491 OA
BRANCH  25  26
ATOM     26  C   LIG d   1       9.821   9.124  -0.690  0.00  0.00     0.079 C 
ATOM     27  H   LIG d   1      10.319   9.092   0.279  0.00  0.00     0.066 H 
ATOM     28  H   LIG d   1      10.561   9.287  -1.473  0.00  0.00     0.066 H 
ATOM     29  H   LIG d   1       9.097   9.938  -0.699  0.00  0.00     0.066 H 
ENDBRANCH  25  26
ENDBRANCH  22  25
BRANCH  24  30
ATOM     30  O   LIG d   1       9.154   6.687  -3.400  0.00  0.00    -0.491 OA
BRANCH  30  31
ATOM     31  C   LIG d   1       9.755   7.646  -4.270  0.00  0.00     0.079 C 
ATOM     32  H   LIG d   1      10.396   7.135  -4.988  0.00  0.00     0.066 H 
ATOM     33  H   LIG d   1       8.977   8.192  -4.803  0.00  0.00     0.066 H 
ATOM     34  H   LIG d   1      10.352   8.346  -3.683  0.00  0.00     0.066 H 
ENDBRANCH  30  31
ENDBRANCH  24  30
ENDBRANCH   1  16
BRANCH   8  35
ATOM     35  O   LIG d   1       5.456  -0.450  -3.853  0.00  0.00    -0.486 OA
BRANCH  35  36
ATOM     36  C   LIG d   1       5.061  -0.233  -2.497  0.00  0.00     0.129 C 
ATOM     37  H   LIG d   1       5.130  -1.169  -1.943  0.00  0.00     0.076 H 
ATOM     38  H   LIG d   1       5.718   0.508  -2.042  0.00  0.00     0.076 H 
BRANCH  36  39
ATOM     39  C   LIG d   1       3.639   0.267  -2.462  0.00  0.00     0.079 C 
ATOM     40  O   LIG d   1       3.398   1.375  -2.044  0.00  0.00    -0.546 OA
ATOM     41  O   LIG d   1       2.641  -0.519  -2.896  0.00  0.00    -0.546 OA
ENDBRANCH  36  39
ENDBRANCH  35  36
ENDBRANCH   8  35
TORSDOF 8
ENDMDL
MODEL 5
REMARK VINA RESULT:      -5.7      5.163      9.098
REMARK  8 active torsions:
REMARK  status: ('A' for Active; 'I' for Inactive)
REMARK    1  A    between atoms: C_1  and  O_2 
REMARK    2  A    between atoms: O_2  and  C_3 
REMARK    3  A    between atoms: C_7  and  C_11 
REMARK    4  A    between atoms: C_8  and  O_9 
REMARK    5  A    between atoms: O_9  and  C_10 
REMARK    6  A    between atoms: C_18  and  O_22 
REMARK    7  A    between atoms: O_22  and  C_23 
REMARK    8  A    between atoms: C_23  and  C_24 
ROOT
ATOM      1  C   LIG d   1       7.076  -1.254  -4.602  0.00  0.00    -0.005 C 
ATOM      2  C   LIG d   1       7.966  -0.231  -4.544  0.00  0.00     0.176 A 
ATOM      3  C   LIG d   1       9.270  -0.175  -5.222  0.00  0.00     0.232 A 
ATOM      4  O   LIG d   1       9.774  -1.018  -5.942  0.00  0.00    -0.283 OA
ATOM      5  C   LIG d   1       9.830   1.134  -4.837  0.00  0.00     0.068 A 
ATOM      6  C   LIG d   1      11.024   1.788  -5.143  0.00  0.00    -0.044 A 
ATOM      7  C   LIG d   1      11.275   3.025  -4.619  0.00  0.00    -0.019 A 
ATOM      8  C   LIG d   1      10.344   3.634  -3.783  0.00  0.00     0.125 A 
ATOM      9  C   LIG d   1       9.154   2.996  -3.471  0.00  0.00     0.023 A 
ATOM     10  C   LIG d   1       8.883   1.738  -3.994  0.00  0.00     0.143 A 
ATOM     11  O   LIG d   1       7.818   0.920  -3.846  0.00  0.00    -0.451 OA
ATOM     12  H   LIG d   1       7.345  -2.177  -5.095  0.00  0.00     0.066 H 
ATOM     13  H   LIG d   1      11.748   1.318  -5.791  0.00  0.00     0.063 H 
ATOM     14  H   LIG d   1      12.200   3.532  -4.856  0.00  0.00     0.065 H 
ATOM     15  H   LIG d   1       8.438   3.477  -2.821  0.00  0.00     0.069 H 
ENDROOT
BRANCH   1  16
ATOM     16  C   LIG d   1       5.748  -1.107  -3.996  0.00  0.00     0.024 A 
ATOM     17  C   LIG d   1       5.516  -1.556  -2.689  0.00  0.00    -0.051 A 
ATOM     18  C   LIG d   1       4.267  -1.416  -2.125  0.00  0.00    -0.058 A 
ATOM     19  H   LIG d   1       6.316  -2.012  -2.125  0.00  0.00     0.062 H 
ATOM     20  C   LIG d   1       3.237  -0.831  -2.842  0.00  0.00    -0.016 A 
ATOM     21  H   LIG d   1       4.092  -1.760  -1.117  0.00  0.00     0.062 H 
ATOM     22  C   LIG d   1       3.449  -0.381  -4.136  0.00  0.00     0.162 A 
ATOM     23  H   LIG d   1       2.261  -0.725  -2.392  0.00  0.00     0.066 H 
ATOM     24  C   LIG d   1       4.702  -0.514  -4.722  0.00  0.00     0.169 A 
BRANCH  22  25
ATOM     25  O   LIG d   1       2.431   0.192  -4.832  0.00  0.00    -0.491 OA
BRANCH  25  26
ATOM     26  C   LIG d   1       2.367   1.619  -4.832  0.00  0.00     0.079 C 
ATOM     27  H   LIG d   1       1.761   1.956  -5.673  0.00  0.00     0.066 H 
ATOM     28  H   LIG d   1       1.918   1.963  -3.900  0.00  0.00     0.066 H 
ATOM     29  H   LIG d   1       3.373   2.028  -4.922  0.00  0.00     0.066 H 
ENDBRANCH  25  26
ENDBRANCH  22  25
BRANCH  24  30
ATOM     30  O   LIG d   1       4.914  -0.075  -5.989  0.00  0.00    -0.491 OA
BRANCH  30  31
ATOM     31  C   LIG d   1       4.560  -0.961  -7.051  0.00  0.00     0.079 C 
ATOM     32  H   LIG d   1       4.155  -1.884  -6.636  0.00  0.00     0.066 H 
ATOM     33  H   LIG d   1       3.809  -0.488  -7.684  0.00  0.00     0.066 H 
ATOM     34  H   LIG d   1       5.445  -1.188  -7.647  0.00  0.00     0.066 H 
ENDBRANCH  30  31
ENDBRANCH  24  30
ENDBRANCH   1  16
BRANCH   8  35
ATOM     35  O   LIG d   1      10.603   4.863  -3.269  0.00  0.00    -0.486 OA
BRANCH  35  36
ATOM     36  C   LIG d   1      10.893   4.934  -1.872  0.00  0.00     0.129 C 
ATOM     37  H   LIG d   1      10.599   4.001  -1.391  0.00  0.00     0.076 H 
ATOM     38  H   LIG d   1      11.961   5.095  -1.731  0.00  0.00     0.076 H 
BRANCH  36  39
ATOM     39  C   LIG d   1      10.126   6.077  -1.258  0.00  0.00     0.079 C 
ATOM     40  O   LIG d   1      10.245   6.321  -0.081  0.00  0.00    -0.546 OA
ATOM     41  O   LIG d   1       9.312   6.824  -2.019  0.00  0.00    -0.546 OA
ENDBRANCH  36  39
ENDBRANCH  35  36
ENDBRANCH   8  35
TORSDOF 8
ENDMDL
MODEL 6
REMARK VINA RESULT:      -5.7      4.248      6.578
REMARK  8 active torsions:
REMARK  status: ('A' for Active; 'I' for Inactive)
REMARK    1  A    between atoms: C_1  and  O_2 
REMARK    2  A    between atoms: O_2  and  C_3 
REMARK    3  A    between atoms: C_7  and  C_11 
REMARK    4  A    between atoms: C_8  and  O_9 
REMARK    5  A    between atoms: O_9  and  C_10 
REMARK    6  A    between atoms: C_18  and  O_22 
REMARK    7  A    between atoms: O_22  and  C_23 
REMARK    8  A    between atoms: C_23  and  C_24 
ROOT
ATOM      1  C   LIG d   1       2.971   0.390  -7.002  0.00  0.00    -0.005 C 
ATOM      2  C   LIG d   1       3.905  -0.200  -6.214  0.00  0.00     0.176 A 
ATOM      3  C   LIG d   1       3.748  -0.552  -4.795  0.00  0.00     0.232 A 
ATOM      4  O   LIG d   1       2.770  -0.381  -4.087  0.00  0.00    -0.283 OA
ATOM      5  C   LIG d   1       5.037  -1.161  -4.420  0.00  0.00     0.068 A 
ATOM      6  C   LIG d   1       5.528  -1.700  -3.229  0.00  0.00    -0.044 A 
ATOM      7  C   LIG d   1       6.799  -2.200  -3.182  0.00  0.00    -0.019 A 
ATOM      8  C   LIG d   1       7.604  -2.173  -4.316  0.00  0.00     0.125 A 
ATOM      9  C   LIG d   1       7.130  -1.641  -5.505  0.00  0.00     0.023 A 
ATOM     10  C   LIG d   1       5.840  -1.129  -5.571  0.00  0.00     0.143 A 
ATOM     11  O   LIG d   1       5.154  -0.566  -6.589  0.00  0.00    -0.451 OA
ATOM     12  H   LIG d   1       2.047   0.746  -6.570  0.00  0.00     0.066 H 
ATOM     13  H   LIG d   1       4.904  -1.722  -2.348  0.00  0.00     0.063 H 
ATOM     14  H   LIG d   1       7.179  -2.616  -2.261  0.00  0.00     0.065 H 
ATOM     15  H   LIG d   1       7.764  -1.625  -6.380  0.00  0.00     0.069 H 
ENDROOT
BRANCH   1  16
ATOM     16  C   LIG d   1       3.216   0.543  -8.440  0.00  0.00     0.024 A 
ATOM     17  C   LIG d   1       3.674   1.765  -8.951  0.00  0.00    -0.051 A 
ATOM     18  C   LIG d   1       3.902   1.904 -10.302  0.00  0.00    -0.058 A 
ATOM     19  H   LIG d   1       3.848   2.597  -8.285  0.00  0.00     0.062 H 
ATOM     20  C   LIG d   1       3.682   0.841 -11.162  0.00  0.00    -0.016 A 
ATOM     21  H   LIG d   1       4.258   2.846 -10.692  0.00  0.00     0.062 H 
ATOM     22  C   LIG d   1       3.229  -0.375 -10.674  0.00  0.00     0.162 A 
ATOM     23  H   LIG d   1       3.863   0.959 -12.220  0.00  0.00     0.066 H 
ATOM     24  C   LIG d   1       2.993  -0.533  -9.314  0.00  0.00     0.169 A 
BRANCH  22  25
ATOM     25  O   LIG d   1       3.015  -1.413 -11.527  0.00  0.00    -0.491 OA
BRANCH  25  26
ATOM     26  C   LIG d   1       1.778  -1.420 -12.242  0.00  0.00     0.079 C 
ATOM     27  H   LIG d   1       1.378  -0.408 -12.285  0.00  0.00     0.066 H 
ATOM     28  H   LIG d   1       1.946  -1.787 -13.255  0.00  0.00     0.066 H 
ATOM     29  H   LIG d   1       1.068  -2.071 -11.733  0.00  0.00     0.066 H 
ENDBRANCH  25  26
ENDBRANCH  22  25
BRANCH  24  30
ATOM     30  O   LIG d   1       2.549  -1.723  -8.831  0.00  0.00    -0.491 OA
BRANCH  30  31
ATOM     31  C   LIG d   1       3.501  -2.784  -8.745  0.00  0.00     0.079 C 
ATOM     32  H   LIG d   1       3.097  -3.675  -9.226  0.00  0.00     0.066 H 
ATOM     33  H   LIG d   1       4.423  -2.488  -9.247  0.00  0.00     0.066 H 
ATOM     34  H   LIG d   1       3.712  -2.999  -7.697  0.00  0.00     0.066 H 
ENDBRANCH  30  31
ENDBRANCH  24  30
ENDBRANCH   1  16
BRANCH   8  35
ATOM     35  O   LIG d   1       8.865  -2.672  -4.259  0.00  0.00    -0.486 OA
BRANCH  35  36
ATOM     36  C   LIG d   1       8.999  -4.057  -3.934  0.00  0.00     0.129 C 
ATOM     37  H   LIG d   1       8.036  -4.450  -3.607  0.00  0.00     0.076 H 
ATOM     38  H   LIG d   1       9.336  -4.605  -4.813  0.00  0.00     0.076 H 
BRANCH  36  39
ATOM     39  C   LIG d   1      10.008  -4.217  -2.825  0.00  0.00     0.079 C 
ATOM     40  O   LIG d   1      11.138  -3.818  -2.974  0.00  0.00    -0.546 OA
ATOM     41  O   LIG d   1       9.649  -4.802  -1.672  0.00  0.00    -0.546 OA
ENDBRANCH  36  39
ENDBRANCH  35  36
ENDBRANCH   8  35
TORSDOF 8
ENDMDL
MODEL 7
REMARK VINA RESULT:      -5.5      5.566      9.962
REMARK  8 active torsions:
REMARK  status: ('A' for Active; 'I' for Inactive)
REMARK    1  A    between atoms: C_1  and  O_2 
REMARK    2  A    between atoms: O_2  and  C_3 
REMARK    3  A    between atoms: C_7  and  C_11 
REMARK    4  A    between atoms: C_8  and  O_9 
REMARK    5  A    between atoms: O_9  and  C_10 
REMARK    6  A    between atoms: C_18  and  O_22 
REMARK    7  A    between atoms: O_22  and  C_23 
REMARK    8  A    between atoms: C_23  and  C_24 
ROOT
ATOM      1  C   LIG d   1       7.600   0.243  -6.231  0.00  0.00    -0.005 C 
ATOM      2  C   LIG d   1       8.210   1.410  -5.904  0.00  0.00     0.176 A 
ATOM      3  C   LIG d   1       8.842   2.352  -6.840  0.00  0.00     0.232 A 
ATOM      4  O   LIG d   1       8.929   2.254  -8.052  0.00  0.00    -0.283 OA
ATOM      5  C   LIG d   1       9.345   3.442  -5.985  0.00  0.00     0.068 A 
ATOM      6  C   LIG d   1      10.031   4.628  -6.254  0.00  0.00    -0.044 A 
ATOM      7  C   LIG d   1      10.379   5.460  -5.227  0.00  0.00    -0.019 A 
ATOM      8  C   LIG d   1      10.050   5.129  -3.916  0.00  0.00     0.125 A 
ATOM      9  C   LIG d   1       9.368   3.956  -3.634  0.00  0.00     0.023 A 
ATOM     10  C   LIG d   1       9.008   3.098  -4.666  0.00  0.00     0.143 A 
ATOM     11  O   LIG d   1       8.353   1.917  -4.656  0.00  0.00    -0.451 OA
ATOM     12  H   LIG d   1       7.644  -0.125  -7.246  0.00  0.00     0.066 H 
ATOM     13  H   LIG d   1      10.287   4.885  -7.270  0.00  0.00     0.063 H 
ATOM     14  H   LIG d   1      10.910   6.377  -5.435  0.00  0.00     0.065 H 
ATOM     15  H   LIG d   1       9.119   3.709  -2.613  0.00  0.00     0.069 H 
ENDROOT
BRANCH   1  16
ATOM     16  C   LIG d   1       6.880  -0.521  -5.206  0.00  0.00     0.024 A 
ATOM     17  C   LIG d   1       7.586  -1.314  -4.292  0.00  0.00    -0.051 A 
ATOM     18  C   LIG d   1       6.905  -2.029  -3.332  0.00  0.00    -0.058 A 
ATOM     19  H   LIG d   1       8.663  -1.364  -4.341  0.00  0.00     0.062 H 
ATOM     20  C   LIG d   1       5.523  -1.969  -3.262  0.00  0.00    -0.016 A 
ATOM     21  H   LIG d   1       7.452  -2.637  -2.627  0.00  0.00     0.062 H 
ATOM     22  C   LIG d   1       4.809  -1.189  -4.158  0.00  0.00     0.162 A 
ATOM     23  H   LIG d   1       4.998  -2.534  -2.507  0.00  0.00     0.066 H 
ATOM     24  C   LIG d   1       5.479  -0.461  -5.135  0.00  0.00     0.169 A 
BRANCH  22  25
ATOM     25  O   LIG d   1       3.452  -1.137  -4.083  0.00  0.00    -0.491 OA
BRANCH  25  26
ATOM     26  C   LIG d   1       2.890  -0.480  -2.945  0.00  0.00     0.079 C 
ATOM     27  H   LIG d   1       2.776  -1.197  -2.132  0.00  0.00     0.066 H 
ATOM     28  H   LIG d   1       3.552   0.326  -2.628  0.00  0.00     0.066 H 
ATOM     29  H   LIG d   1       1.916  -0.069  -3.207  0.00  0.00     0.066 H 
ENDBRANCH  25  26
ENDBRANCH  22  25
BRANCH  24  30
ATOM     30  O   LIG d   1       4.783   0.304  -6.014  0.00  0.00    -0.491 OA
BRANCH  30  31
ATOM     31  C   LIG d   1       4.249  -0.353  -7.165  0.00  0.00     0.079 C 
ATOM     32  H   LIG d   1       3.846   0.390  -7.854  0.00  0.00     0.066 H 
ATOM     33  H   LIG d   1       5.040  -0.916  -7.661  0.00  0.00     0.066 H 
ATOM     34  H   LIG d   1       3.455  -1.034  -6.859  0.00  0.00     0.066 H 
ENDBRANCH  30  31
ENDBRANCH  24  30
ENDBRANCH   1  16
BRANCH   8  35
ATOM     35  O   LIG d   1      10.399   5.964  -2.904  0.00  0.00    -0.486 OA
BRANCH  35  36
ATOM     36  C   LIG d   1      10.733   5.361  -1.653  0.00  0.00     0.129 C 
ATOM     37  H   LIG d   1      10.242   4.391  -1.573  0.00  0.00     0.076 H 
ATOM     38  H   LIG d   1      11.813   5.229  -1.591  0.00  0.00     0.076 H 
BRANCH  36  39
ATOM     39  C   LIG d   1      10.270   6.251  -0.527  0.00  0.00     0.079 C 
ATOM     40  O   LIG d   1      10.582   5.996   0.612  0.00  0.00    -0.546 OA
ATOM     41  O   LIG d   1       9.512   7.326  -0.792  0.00  0.00    -0.546 OA
ENDBRANCH  36  39
ENDBRANCH  35  36
ENDBRANCH   8  35
TORSDOF 8
ENDMDL
MODEL 8
REMARK VINA RESULT:      -5.5      1.872      2.804
REMARK  8 active torsions:
REMARK  status: ('A' for Active; 'I' for Inactive)
REMARK    1  A    between atoms: C_1  and  O_2 
REMARK    2  A    between atoms: O_2  and  C_3 
REMARK    3  A    between atoms: C_7  and  C_11 
REMARK    4  A    between atoms: C_8  and  O_9 
REMARK    5  A    between atoms: O_9  and  C_10 
REMARK    6  A    between atoms: C_18  and  O_22 
REMARK    7  A    between atoms: O_22  and  C_23 
REMARK    8  A    between atoms: C_23  and  C_24 
ROOT
ATOM      1  C   LIG d   1       4.632  -2.444  -6.302  0.00  0.00    -0.005 C 
ATOM      2  C   LIG d   1       4.563  -3.778  -6.544  0.00  0.00     0.176 A 
ATOM      3  C   LIG d   1       4.107  -4.411  -7.790  0.00  0.00     0.232 A 
ATOM      4  O   LIG d   1       3.719  -3.864  -8.807  0.00  0.00    -0.283 OA
ATOM      5  C   LIG d   1       4.229  -5.859  -7.534  0.00  0.00     0.068 A 
ATOM      6  C   LIG d   1       3.961  -6.990  -8.306  0.00  0.00    -0.044 A 
ATOM      7  C   LIG d   1       4.171  -8.235  -7.783  0.00  0.00    -0.019 A 
ATOM      8  C   LIG d   1       4.651  -8.377  -6.485  0.00  0.00     0.125 A 
ATOM      9  C   LIG d   1       4.921  -7.263  -5.707  0.00  0.00     0.023 A 
ATOM     10  C   LIG d   1       4.712  -5.990  -6.222  0.00  0.00     0.143 A 
ATOM     11  O   LIG d   1       4.894  -4.766  -5.679  0.00  0.00    -0.451 OA
ATOM     12  H   LIG d   1       4.232  -1.743  -7.020  0.00  0.00     0.066 H 
ATOM     13  H   LIG d   1       3.588  -6.882  -9.314  0.00  0.00     0.063 H 
ATOM     14  H   LIG d   1       3.964  -9.111  -8.381  0.00  0.00     0.065 H 
ATOM     15  H   LIG d   1       5.292  -7.385  -4.700  0.00  0.00     0.069 H 
ENDROOT
BRANCH   1  16
ATOM     16  C   LIG d   1       5.250  -1.954  -5.064  0.00  0.00     0.024 A 
ATOM     17  C   LIG d   1       6.629  -2.094  -4.861  0.00  0.00    -0.051 A 
ATOM     18  C   LIG d   1       7.203  -1.633  -3.697  0.00  0.00    -0.058 A 
ATOM     19  H   LIG d   1       7.241  -2.563  -5.617  0.00  0.00     0.062 H 
ATOM     20  C   LIG d   1       6.425  -1.029  -2.724  0.00  0.00    -0.016 A 
ATOM     21  H   LIG d   1       8.267  -1.739  -3.545  0.00  0.00     0.062 H 
ATOM     22  C   LIG d   1       5.059  -0.883  -2.908  0.00  0.00     0.162 A 
ATOM     23  H   LIG d   1       6.884  -0.671  -1.814  0.00  0.00     0.066 H 
ATOM     24  C   LIG d   1       4.462  -1.342  -4.076  0.00  0.00     0.169 A 
BRANCH  22  25
ATOM     25  O   LIG d   1       4.303  -0.289  -1.946  0.00  0.00    -0.491 OA
BRANCH  25  26
ATOM     26  C   LIG d   1       4.556   1.092  -1.682  0.00  0.00     0.079 C 
ATOM     27  H   LIG d   1       4.568   1.645  -2.621  0.00  0.00     0.066 H 
ATOM     28  H   LIG d   1       3.773   1.488  -1.036  0.00  0.00     0.066 H 
ATOM     29  H   LIG d   1       5.522   1.196  -1.187  0.00  0.00     0.066 H 
ENDBRANCH  25  26
ENDBRANCH  22  25
BRANCH  24  30
ATOM     30  O   LIG d   1       3.124  -1.201  -4.261  0.00  0.00    -0.491 OA
BRANCH  30  31
ATOM     31  C   LIG d   1       2.665   0.066  -4.735  0.00  0.00     0.079 C 
ATOM     32  H   LIG d   1       2.455   0.718  -3.888  0.00  0.00     0.066 H 
ATOM     33  H   LIG d   1       3.434   0.520  -5.361  0.00  0.00     0.066 H 
ATOM     34  H   LIG d   1       1.756  -0.073  -5.322  0.00  0.00     0.066 H 
ENDBRANCH  30  31
ENDBRANCH  24  30
ENDBRANCH   1  16
BRANCH   8  35
ATOM     35  O   LIG d   1       4.857  -9.619  -5.976  0.00  0.00    -0.486 OA
BRANCH  35  36
ATOM     36  C   LIG d   1       4.914  -9.735  -4.553  0.00  0.00     0.129 C 
ATOM     37  H   LIG d   1       5.713 -10.422  -4.275  0.00  0.00     0.076 H 
ATOM     38  H   LIG d   1       5.108  -8.755  -4.117  0.00  0.00     0.076 H 
BRANCH  36  39
ATOM     39  C   LIG d   1       3.598 -10.261  -4.039  0.00  0.00     0.079 C 
ATOM     40  O   LIG d   1       2.986  -9.645  -3.199  0.00  0.00    -0.546 OA
ATOM     41  O   LIG d   1       3.106 -11.415  -4.516  0.00  0.00    -0.546 OA
ENDBRANCH  36  39
ENDBRANCH  35  36
ENDBRANCH   8  35
TORSDOF 8
ENDMDL
MODEL 9
REMARK VINA RESULT:      -5.5      3.867      6.860
REMARK  8 active torsions:
REMARK  status: ('A' for Active; 'I' for Inactive)
REMARK    1  A    between atoms: C_1  and  O_2 
REMARK    2  A    between atoms: O_2  and  C_3 
REMARK    3  A    between atoms: C_7  and  C_11 
REMARK    4  A    between atoms: C_8  and  O_9 
REMARK    5  A    between atoms: O_9  and  C_10 
REMARK    6  A    between atoms: C_18  and  O_22 
REMARK    7  A    between atoms: O_22  and  C_23 
REMARK    8  A    between atoms: C_23  and  C_24 
ROOT
ATOM      1  C   LIG d   1       2.536   0.487  -8.087  0.00  0.00    -0.005 C 
ATOM      2  C   LIG d   1       3.283  -0.090  -7.112  0.00  0.00     0.176 A 
ATOM      3  C   LIG d   1       3.302   0.290  -5.692  0.00  0.00     0.232 A 
ATOM      4  O   LIG d   1       2.662   1.172  -5.147  0.00  0.00    -0.283 OA
ATOM      5  C   LIG d   1       4.265  -0.639  -5.073  0.00  0.00     0.068 A 
ATOM      6  C   LIG d   1       4.729  -0.804  -3.767  0.00  0.00    -0.044 A 
ATOM      7  C   LIG d   1       5.653  -1.772  -3.489  0.00  0.00    -0.019 A 
ATOM      8  C   LIG d   1       6.131  -2.594  -4.505  0.00  0.00     0.125 A 
ATOM      9  C   LIG d   1       5.680  -2.443  -5.807  0.00  0.00     0.023 A 
ATOM     10  C   LIG d   1       4.741  -1.462  -6.106  0.00  0.00     0.143 A 
ATOM     11  O   LIG d   1       4.152  -1.117  -7.272  0.00  0.00    -0.451 OA
ATOM     12  H   LIG d   1       1.962   1.377  -7.872  0.00  0.00     0.066 H 
ATOM     13  H   LIG d   1       4.359  -0.167  -2.977  0.00  0.00     0.063 H 
ATOM     14  H   LIG d   1       6.011  -1.899  -2.479  0.00  0.00     0.065 H 
ATOM     15  H   LIG d   1       6.058  -3.085  -6.588  0.00  0.00     0.069 H 
ENDROOT
BRANCH   1  16
ATOM     16  C   LIG d   1       2.508  -0.097  -9.432  0.00  0.00     0.024 A 
ATOM     17  C   LIG d   1       1.556  -1.072  -9.758  0.00  0.00    -0.051 A 
ATOM     18  C   LIG d   1       1.535  -1.617 -11.023  0.00  0.00    -0.058 A 
ATOM     19  H   LIG d   1       0.840  -1.395  -9.018  0.00  0.00     0.062 H 
ATOM     20  C   LIG d   1       2.450  -1.206 -11.978  0.00  0.00    -0.016 A 
ATOM     21  H   LIG d   1       0.798  -2.366 -11.272  0.00  0.00     0.062 H 
ATOM     22  C   LIG d   1       3.398  -0.242 -11.673  0.00  0.00     0.162 A 
ATOM     23  H   LIG d   1       2.426  -1.639 -12.967  0.00  0.00     0.066 H 
ATOM     24  C   LIG d   1       3.435   0.319 -10.401  0.00  0.00     0.169 A 
BRANCH  22  25
ATOM     25  O   LIG d   1       4.293   0.155 -12.617  0.00  0.00    -0.491 OA
BRANCH  25  26
ATOM     26  C   LIG d   1       4.737  -0.835 -13.546  0.00  0.00     0.079 C 
ATOM     27  H   LIG d   1       4.116  -1.726 -13.453  0.00  0.00     0.066 H 
ATOM     28  H   LIG d   1       4.659  -0.443 -14.560  0.00  0.00     0.066 H 
ATOM     29  H   LIG d   1       5.775  -1.092 -13.335  0.00  0.00     0.066 H 
ENDBRANCH  25  26
ENDBRANCH  22  25
BRANCH  24  30
ATOM     30  O   LIG d   1       4.362   1.264 -10.098  0.00  0.00    -0.491 OA
BRANCH  30  31
ATOM     31  C   LIG d   1       5.685   0.806  -9.810  0.00  0.00     0.079 C 
ATOM     32  H   LIG d   1       6.044   1.282  -8.898  0.00  0.00     0.066 H 
ATOM     33  H   LIG d   1       5.674  -0.276  -9.676  0.00  0.00     0.066 H 
ATOM     34  H   LIG d   1       6.346   1.061 -10.639  0.00  0.00     0.066 H 
ENDBRANCH  30  31
ENDBRANCH  24  30
ENDBRANCH   1  16
BRANCH   8  35
ATOM     35  O   LIG d   1       7.047  -3.554  -4.219  0.00  0.00    -0.486 OA
BRANCH  35  36
ATOM     36  C   LIG d   1       8.343  -3.112  -3.812  0.00  0.00     0.129 C 
ATOM     37  H   LIG d   1       8.835  -2.609  -4.645  0.00  0.00     0.076 H 
ATOM     38  H   LIG d   1       8.245  -2.420  -2.976  0.00  0.00     0.076 H 
BRANCH  36  39
ATOM     39  C   LIG d   1       9.168  -4.299  -3.386  0.00  0.00     0.079 C 
ATOM     40  O   LIG d   1       9.110  -5.331  -4.011  0.00  0.00    -0.546 OA
ATOM     41  O   LIG d   1       9.968  -4.210  -2.312  0.00  0.00    -0.546 OA
ENDBRANCH  36  39
ENDBRANCH  35  36
ENDBRANCH   8  35
TORSDOF 8
ENDMDL
MODEL 10
REMARK VINA RESULT:      -5.4      4.799      6.858
REMARK  8 active torsions:
REMARK  status: ('A' for Active; 'I' for Inactive)
REMARK    1  A    between atoms: C_1  and  O_2 
REMARK    2  A    between atoms: O_2  and  C_3 
REMARK    3  A    between atoms: C_7  and  C_11 
REMARK    4  A    between atoms: C_8  and  O_9 
REMARK    5  A    between atoms: O_9  and  C_10 
REMARK    6  A    between atoms: C_18  and  O_22 
REMARK    7  A    between atoms: O_22  and  C_23 
REMARK    8  A    between atoms: C_23  and  C_24 
ROOT
ATOM      1  C   LIG d   1       3.547   0.658  -7.681  0.00  0.00    -0.005 C 
ATOM      2  C   LIG d   1       3.039  -0.054  -8.719  0.00  0.00     0.176 A 
ATOM      3  C   LIG d   1       3.122   0.305 -10.142  0.00  0.00     0.232 A 
ATOM      4  O   LIG d   1       3.651   1.285 -10.635  0.00  0.00    -0.283 OA
ATOM      5  C   LIG d   1       2.423  -0.790 -10.840  0.00  0.00     0.068 A 
ATOM      6  C   LIG d   1       2.157  -1.047 -12.186  0.00  0.00    -0.044 A 
ATOM      7  C   LIG d   1       1.464  -2.171 -12.540  0.00  0.00    -0.019 A 
ATOM      8  C   LIG d   1       1.024  -3.058 -11.563  0.00  0.00     0.125 A 
ATOM      9  C   LIG d   1       1.281  -2.816 -10.223  0.00  0.00     0.023 A 
ATOM     10  C   LIG d   1       1.984  -1.678  -9.846  0.00  0.00     0.143 A 
ATOM     11  O   LIG d   1       2.357  -1.221  -8.630  0.00  0.00    -0.451 OA
ATOM     12  H   LIG d   1       3.971   1.637  -7.854  0.00  0.00     0.066 H 
ATOM     13  H   LIG d   1       2.497  -0.359 -12.946  0.00  0.00     0.063 H 
ATOM     14  H   LIG d   1       1.258  -2.369 -13.581  0.00  0.00     0.065 H 
ATOM     15  H   LIG d   1       0.935  -3.511  -9.472  0.00  0.00     0.069 H 
ENDROOT
BRANCH   1  16
ATOM     16  C   LIG d   1       3.519   0.100  -6.324  0.00  0.00     0.024 A 
ATOM     17  C   LIG d   1       2.496   0.456  -5.436  0.00  0.00    -0.051 A 
ATOM     18  C   LIG d   1       2.475  -0.070  -4.164  0.00  0.00    -0.058 A 
ATOM     19  H   LIG d   1       1.724   1.143  -5.750  0.00  0.00     0.062 H 
ATOM     20  C   LIG d   1       3.461  -0.953  -3.755  0.00  0.00    -0.016 A 
ATOM     21  H   LIG d   1       1.683   0.203  -3.483  0.00  0.00     0.062 H 
ATOM     22  C   LIG d   1       4.481  -1.316  -4.620  0.00  0.00     0.162 A 
ATOM     23  H   LIG d   1       3.437  -1.360  -2.755  0.00  0.00     0.066 H 
ATOM     24  C   LIG d   1       4.518  -0.794  -5.909  0.00  0.00     0.169 A 
BRANCH  22  25
ATOM     25  O   LIG d   1       5.445  -2.183  -4.210  0.00  0.00    -0.491 OA
BRANCH  25  26
ATOM     26  C   LIG d   1       6.375  -1.704  -3.237  0.00  0.00     0.079 C 
ATOM     27  H   LIG d   1       6.225  -2.237  -2.298  0.00  0.00     0.066 H 
ATOM     28  H   LIG d   1       7.392  -1.872  -3.592  0.00  0.00     0.066 H 
ATOM     29  H   LIG d   1       6.218  -0.638  -3.078  0.00  0.00     0.066 H 
ENDBRANCH  25  26
ENDBRANCH  22  25
BRANCH  24  30
ATOM     30  O   LIG d   1       5.516  -1.147  -6.760  0.00  0.00    -0.491 OA
BRANCH  30  31
ATOM     31  C   LIG d   1       6.710  -0.364  -6.721  0.00  0.00     0.079 C 
ATOM     32  H   LIG d   1       7.457  -0.808  -7.379  0.00  0.00     0.066 H 
ATOM     33  H   LIG d   1       6.490   0.651  -7.053  0.00  0.00     0.066 H 
ATOM     34  H   LIG d   1       7.093  -0.337  -5.700  0.00  0.00     0.066 H 
ENDBRANCH  30  31
ENDBRANCH  24  30
ENDBRANCH   1  16
BRANCH   8  35
ATOM     35  O   LIG d   1       0.338  -4.172 -11.925  0.00  0.00    -0.486 OA
BRANCH  35  36
ATOM     36  C   LIG d   1       0.221  -5.208 -10.948  0.00  0.00     0.129 C 
ATOM     37  H   LIG d   1       0.751  -6.095 -11.293  0.00  0.00     0.076 H 
ATOM     38  H   LIG d   1       0.653  -4.869 -10.007  0.00  0.00     0.076 H 
BRANCH  36  39
ATOM     39  C   LIG d   1      -1.235  -5.541 -10.741  0.00  0.00     0.079 C 
ATOM     40  O   LIG d   1      -1.762  -5.315  -9.678  0.00  0.00    -0.546 OA
ATOM     41  O   LIG d   1      -1.945  -6.089 -11.739  0.00  0.00    -0.546 OA
ENDBRANCH  36  39
ENDBRANCH  35  36
ENDBRANCH   8  35
TORSDOF 8
ENDMDL
