MODEL 1
REMARK VINA RESULT:      -5.5      0.000      0.000
REMARK  6 active torsions:
REMARK  status: ('A' for Active; 'I' for Inactive)
REMARK    1  A    between atoms: C_1  and  C_2 
REMARK    2  A    between atoms: N_4  and  C_11 
REMARK    3  A    between atoms: C_14  and  O_23 
REMARK    4  A    between atoms: C_16  and  C_19 
REMARK    5  A    between atoms: C_19  and  O_20 
REMARK    6  A    between atoms: O_20  and  P_21 
ROOT
ATOM      1  C   LIG d   1       4.150   0.487  -8.255  0.00  0.00     0.142 C 
ATOM      2  H   LIG d   1       4.734   1.401  -8.146  0.00  0.00     0.084 H 
ATOM      3  C   LIG d   1       2.764   0.652  -7.582  0.00  0.00     0.021 C 
ATOM      4  C   LIG d   1       3.118   0.351  -6.100  0.00  0.00     0.088 C 
ATOM      5  H   LIG d   1       3.499   1.242  -5.603  0.00  0.00     0.062 H 
ATOM      6  C   LIG d   1       4.225  -0.717  -6.239  0.00  0.00     0.111 C 
ATOM      7  H   LIG d   1       3.798  -1.711  -6.108  0.00  0.00     0.065 H 
ATOM      8  O   LIG d   1       4.781  -0.595  -7.553  0.00  0.00    -0.348 OA
ATOM      9  H   LIG d   1       2.049  -0.073  -7.971  0.00  0.00     0.034 H 
ATOM     10  H   LIG d   1       2.390   1.669  -7.697  0.00  0.00     0.034 H 
ENDROOT
BRANCH   1  11
ATOM     11  N   LIG d   1       3.990   0.150  -9.671  0.00  0.00    -0.274 N 
ATOM     12  C   LIG d   1       2.866  -0.510 -10.089  0.00  0.00     0.020 A 
ATOM     13  C   LIG d   1       2.716  -0.815 -11.395  0.00  0.00     0.030 A 
ATOM     14  H   LIG d   1       2.100  -0.783  -9.376  0.00  0.00     0.082 H 
ATOM     15  C   LIG d   1       3.735  -0.454 -12.308  0.00  0.00     0.257 A 
ATOM     16  N   LIG d   1       4.830   0.191 -11.856  0.00  0.00    -0.275 N 
ATOM     17  O   LIG d   1       3.625  -0.724 -13.491  0.00  0.00    -0.267 OA
ATOM     18  C   LIG d   1       4.951   0.488 -10.550  0.00  0.00     0.331 A 
ATOM     19  H   LIG d   1       5.554   0.450 -12.496  0.00  0.00     0.173 HD
ATOM     20  O   LIG d   1       5.944   1.070 -10.157  0.00  0.00    -0.246 OA
BRANCH  13  21
ATOM     21  C   LIG d   1       1.483  -1.537 -11.874  0.00  0.00    -0.033 C 
ATOM     22  H   LIG d   1       1.645  -1.899 -12.889  0.00  0.00     0.028 H 
ATOM     23  H   LIG d   1       1.277  -2.382 -11.215  0.00  0.00     0.028 H 
ATOM     24  H   LIG d   1       0.634  -0.854 -11.863  0.00  0.00     0.028 H 
ENDBRANCH  13  21
ENDBRANCH   1  11
BRANCH   6  25
ATOM     25  C   LIG d   1       5.313  -0.474  -5.190  0.00  0.00     0.080 C 
ATOM     26  H   LIG d   1       5.566  -1.416  -4.704  0.00  0.00     0.059 H 
ATOM     27  H   LIG d   1       6.199  -0.066  -5.675  0.00  0.00     0.059 H 
BRANCH  25  28
ATOM     28  O   LIG d   1       4.835   0.453  -4.214  0.00  0.00    -0.365 OA
BRANCH  28  29
ATOM     29  P   LIG d   1       4.473   0.028  -2.704  0.00  0.00    -0.015 P 
ATOM     30  O   LIG d   1       5.129  -1.259  -2.383  0.00  0.00    -0.638 OA
ATOM     31  O   LIG d   1       4.991   1.164  -1.688  0.00  0.00    -0.577 OA
ATOM     32  O   LIG d   1       2.877  -0.133  -2.560  0.00  0.00    -0.577 OA
ENDBRANCH  28  29
ENDBRANCH  25  28
ENDBRANCH   6  25
BRANCH   4  33
ATOM     33  O   LIG d   1       1.987  -0.177  -5.404  0.00  0.00    -0.389 OA
ATOM     34  H   LIG d   1       1.714  -1.055  -5.706  0.00  0.00     0.210 HD
ENDBRANCH   4  33
TORSDOF 6
ENDMDL
MODEL 2
REMARK VINA RESULT:      -5.4      7.258     10.156
REMARK  6 active torsions:
REMARK  status: ('A' for Active; 'I' for Inactive)
REMARK    1  A    between atoms: C_1  and  C_2 
REMARK    2  A    between atoms: N_4  and  C_11 
REMARK    3  A    between atoms: C_14  and  O_23 
REMARK    4  A    between atoms: C_16  and  C_19 
REMARK    5  A    between atoms: C_19  and  O_20 
REMARK    6  A    between atoms: O_20  and  P_21 
ROOT
ATOM      1  C   LIG d   1       9.943   4.289  -3.687  0.00  0.00     0.142 C 
ATOM      2  H   LIG d   1       9.727   4.648  -4.694  0.00  0.00     0.084 H 
ATOM      3  C   LIG d   1      11.291   3.527  -3.667  0.00  0.00     0.021 C 
ATOM      4  C   LIG d   1      10.846   2.125  -4.164  0.00  0.00     0.088 C 
ATOM      5  H   LIG d   1      10.809   2.092  -5.252  0.00  0.00     0.062 H 
ATOM      6  C   LIG d   1       9.429   2.000  -3.563  0.00  0.00     0.111 C 
ATOM      7  H   LIG d   1       9.468   1.417  -2.642  0.00  0.00     0.065 H 
ATOM      8  O   LIG d   1       8.961   3.324  -3.281  0.00  0.00    -0.348 OA
ATOM      9  H   LIG d   1      11.699   3.475  -2.657  0.00  0.00     0.034 H 
ATOM     10  H   LIG d   1      12.008   3.977  -4.354  0.00  0.00     0.034 H 
ENDROOT
BRANCH   1  11
ATOM     11  N   LIG d   1       9.978   5.408  -2.743  0.00  0.00    -0.274 N 
ATOM     12  C   LIG d   1      10.501   5.224  -1.492  0.00  0.00     0.020 A 
ATOM     13  C   LIG d   1      10.539   6.257  -0.624  0.00  0.00     0.030 A 
ATOM     14  H   LIG d   1      10.887   4.257  -1.202  0.00  0.00     0.082 H 
ATOM     15  C   LIG d   1      10.023   7.513  -1.025  0.00  0.00     0.257 A 
ATOM     16  N   LIG d   1       9.510   7.652  -2.264  0.00  0.00    -0.275 N 
ATOM     17  O   LIG d   1      10.040   8.458  -0.257  0.00  0.00    -0.267 OA
ATOM     18  C   LIG d   1       9.491   6.607  -3.111  0.00  0.00     0.331 A 
ATOM     19  H   LIG d   1       9.143   8.537  -2.555  0.00  0.00     0.173 HD
ATOM     20  O   LIG d   1       9.025   6.747  -4.226  0.00  0.00    -0.246 OA
BRANCH  13  21
ATOM     21  C   LIG d   1      11.116   6.075   0.756  0.00  0.00    -0.033 C 
ATOM     22  H   LIG d   1      11.138   7.035   1.271  0.00  0.00     0.028 H 
ATOM     23  H   LIG d   1      10.498   5.375   1.319  0.00  0.00     0.028 H 
ATOM     24  H   LIG d   1      12.130   5.681   0.677  0.00  0.00     0.028 H 
ENDBRANCH  13  21
ENDBRANCH   1  11
BRANCH   6  25
ATOM     25  C   LIG d   1       8.496   1.323  -4.569  0.00  0.00     0.080 C 
ATOM     26  H   LIG d   1       8.738   1.663  -5.576  0.00  0.00     0.059 H 
ATOM     27  H   LIG d   1       8.622   0.242  -4.510  0.00  0.00     0.059 H 
BRANCH  25  28
ATOM     28  O   LIG d   1       7.142   1.661  -4.264  0.00  0.00    -0.365 OA
BRANCH  28  29
ATOM     29  P   LIG d   1       6.130   0.648  -3.528  0.00  0.00    -0.015 P 
ATOM     30  O   LIG d   1       6.867  -0.565  -3.104  0.00  0.00    -0.638 OA
ATOM     31  O   LIG d   1       5.493   1.368  -2.238  0.00  0.00    -0.577 OA
ATOM     32  O   LIG d   1       4.954   0.230  -4.545  0.00  0.00    -0.577 OA
ENDBRANCH  28  29
ENDBRANCH  25  28
ENDBRANCH   6  25
BRANCH   4  33
ATOM     33  O   LIG d   1      11.707   1.106  -3.652  0.00  0.00    -0.389 OA
ATOM     34  H   LIG d   1      12.009   0.475  -4.319  0.00  0.00     0.210 HD
ENDBRANCH   4  33
TORSDOF 6
ENDMDL
MODEL 3
REMARK VINA RESULT:      -5.3      2.100      3.041
REMARK  6 active torsions:
REMARK  status: ('A' for Active; 'I' for Inactive)
REMARK    1  A    between atoms: C_1  and  C_2 
REMARK    2  A    between atoms: N_4  and  C_11 
REMARK    3  A    between atoms: C_14  and  O_23 
REMARK    4  A    between atoms: C_16  and  C_19 
REMARK    5  A    between atoms: C_19  and  O_20 
REMARK    6  A    between atoms: O_20  and  P_21 
ROOT
ATOM      1  C   LIG d   1       4.291  -0.815  -5.920  0.00  0.00     0.142 C 
ATOM      2  H   LIG d   1       3.588  -0.455  -5.169  0.00  0.00     0.084 H 
ATOM      3  C   LIG d   1       4.733  -2.263  -5.592  0.00  0.00     0.021 C 
ATOM      4  C   LIG d   1       5.850  -2.001  -4.546  0.00  0.00     0.088 C 
ATOM      5  H   LIG d   1       5.428  -1.872  -3.550  0.00  0.00     0.062 H 
ATOM      6  C   LIG d   1       6.471  -0.682  -5.055  0.00  0.00     0.111 C 
ATOM      7  H   LIG d   1       7.370  -0.896  -5.634  0.00  0.00     0.065 H 
ATOM      8  O   LIG d   1       5.498  -0.038  -5.885  0.00  0.00    -0.348 OA
ATOM      9  H   LIG d   1       5.130  -2.763  -6.475  0.00  0.00     0.034 H 
ATOM     10  H   LIG d   1       3.913  -2.835  -5.156  0.00  0.00     0.034 H 
ENDROOT
BRANCH   1  11
ATOM     11  N   LIG d   1       3.687  -0.758  -7.254  0.00  0.00    -0.274 N 
ATOM     12  C   LIG d   1       3.816  -1.824  -8.103  0.00  0.00     0.020 A 
ATOM     13  C   LIG d   1       3.255  -1.774  -9.329  0.00  0.00     0.030 A 
ATOM     14  H   LIG d   1       4.362  -2.703  -7.791  0.00  0.00     0.082 H 
ATOM     15  C   LIG d   1       2.551  -0.609  -9.717  0.00  0.00     0.257 A 
ATOM     16  N   LIG d   1       2.451   0.423  -8.854  0.00  0.00    -0.275 N 
ATOM     17  O   LIG d   1       2.041  -0.537 -10.821  0.00  0.00    -0.267 OA
ATOM     18  C   LIG d   1       3.015   0.343  -7.635  0.00  0.00     0.331 A 
ATOM     19  H   LIG d   1       1.955   1.249  -9.121  0.00  0.00     0.173 HD
ATOM     20  O   LIG d   1       2.917   1.281  -6.866  0.00  0.00    -0.246 OA
BRANCH  13  21
ATOM     21  C   LIG d   1       3.382  -2.939 -10.275  0.00  0.00    -0.033 C 
ATOM     22  H   LIG d   1       4.251  -3.537 -10.001  0.00  0.00     0.028 H 
ATOM     23  H   LIG d   1       2.484  -3.556 -10.216  0.00  0.00     0.028 H 
ATOM     24  H   LIG d   1       3.501  -2.570 -11.294  0.00  0.00     0.028 H 
ENDBRANCH  13  21
ENDBRANCH   1  11
BRANCH   6  25
ATOM     25  C   LIG d   1       6.818   0.219  -3.868  0.00  0.00     0.080 C 
ATOM     26  H   LIG d   1       7.867   0.088  -3.605  0.00  0.00     0.059 H 
ATOM     27  H   LIG d   1       6.638   1.260  -4.137  0.00  0.00     0.059 H 
BRANCH  25  28
ATOM     28  O   LIG d   1       6.000  -0.130  -2.750  0.00  0.00    -0.365 OA
BRANCH  28  29
ATOM     29  P   LIG d   1       4.689   0.705  -2.328  0.00  0.00    -0.015 P 
ATOM     30  O   LIG d   1       4.856   1.223  -0.951  0.00  0.00    -0.638 OA
ATOM     31  O   LIG d   1       4.487   1.936  -3.343  0.00  0.00    -0.577 OA
ATOM     32  O   LIG d   1       3.399  -0.256  -2.385  0.00  0.00    -0.577 OA
ENDBRANCH  28  29
ENDBRANCH  25  28
ENDBRANCH   6  25
BRANCH   4  33
ATOM     33  O   LIG d   1       6.816  -3.055  -4.558  0.00  0.00    -0.389 OA
ATOM     34  H   LIG d   1       7.258  -3.173  -5.410  0.00  0.00     0.210 HD
ENDBRANCH   4  33
TORSDOF 6
ENDMDL
MODEL 4
REMARK VINA RESULT:      -5.2      3.364      7.204
REMARK  6 active torsions:
REMARK  status: ('A' for Active; 'I' for Inactive)
REMARK    1  A    between atoms: C_1  and  C_2 
REMARK    2  A    between atoms: N_4  and  C_11 
REMARK    3  A    between atoms: C_14  and  O_23 
REMARK    4  A    between atoms: C_16  and  C_19 
REMARK    5  A    between atoms: C_19  and  O_20 
REMARK    6  A    between atoms: O_20  and  P_21 
ROOT
ATOM      1  C   LIG d   1       4.019  -0.621  -6.888  0.00  0.00     0.142 C 
ATOM      2  H   LIG d   1       3.979  -1.574  -7.416  0.00  0.00     0.084 H 
ATOM      3  C   LIG d   1       2.758   0.221  -7.202  0.00  0.00     0.021 C 
ATOM      4  C   LIG d   1       3.159   0.859  -8.560  0.00  0.00     0.088 C 
ATOM      5  H   LIG d   1       2.949   0.179  -9.385  0.00  0.00     0.062 H 
ATOM      6  C   LIG d   1       4.681   1.060  -8.390  0.00  0.00     0.111 C 
ATOM      7  H   LIG d   1       4.887   2.090  -8.097  0.00  0.00     0.065 H 
ATOM      8  O   LIG d   1       5.123   0.165  -7.363  0.00  0.00    -0.348 OA
ATOM      9  H   LIG d   1       2.596   0.985  -6.442  0.00  0.00     0.034 H 
ATOM     10  H   LIG d   1       1.879  -0.414  -7.311  0.00  0.00     0.034 H 
ENDROOT
BRANCH   1  11
ATOM     11  N   LIG d   1       4.136  -0.843  -5.445  0.00  0.00    -0.274 N 
ATOM     12  C   LIG d   1       3.871   0.183  -4.577  0.00  0.00     0.020 A 
ATOM     13  C   LIG d   1       3.972  -0.023  -3.247  0.00  0.00     0.030 A 
ATOM     14  H   LIG d   1       3.578   1.152  -4.956  0.00  0.00     0.082 H 
ATOM     15  C   LIG d   1       4.364  -1.298  -2.776  0.00  0.00     0.257 A 
ATOM     16  N   LIG d   1       4.623  -2.281  -3.662  0.00  0.00    -0.275 N 
ATOM     17  O   LIG d   1       4.469  -1.507  -1.580  0.00  0.00    -0.267 OA
ATOM     18  C   LIG d   1       4.507  -2.050  -4.983  0.00  0.00     0.331 A 
ATOM     19  H   LIG d   1       4.900  -3.185  -3.336  0.00  0.00     0.173 HD
ATOM     20  O   LIG d   1       4.743  -2.946  -5.771  0.00  0.00    -0.246 OA
BRANCH  13  21
ATOM     21  C   LIG d   1       3.679   1.093  -2.278  0.00  0.00    -0.033 C 
ATOM     22  H   LIG d   1       2.876   0.789  -1.606  0.00  0.00     0.028 H 
ATOM     23  H   LIG d   1       4.575   1.314  -1.696  0.00  0.00     0.028 H 
ATOM     24  H   LIG d   1       3.376   1.983  -2.828  0.00  0.00     0.028 H 
ENDBRANCH  13  21
ENDBRANCH   1  11
BRANCH   6  25
ATOM     25  C   LIG d   1       5.397   0.737  -9.703  0.00  0.00     0.080 C 
ATOM     26  H   LIG d   1       6.192   1.463  -9.872  0.00  0.00     0.059 H 
ATOM     27  H   LIG d   1       5.824  -0.264  -9.647  0.00  0.00     0.059 H 
BRANCH  25  28
ATOM     28  O   LIG d   1       4.461   0.795 -10.781  0.00  0.00    -0.365 OA
BRANCH  28  29
ATOM     29  P   LIG d   1       4.078  -0.486 -11.678  0.00  0.00    -0.015 P 
ATOM     30  O   LIG d   1       4.633  -1.709 -11.055  0.00  0.00    -0.638 OA
ATOM     31  O   LIG d   1       2.476  -0.614 -11.775  0.00  0.00    -0.577 OA
ATOM     32  O   LIG d   1       4.693  -0.311 -13.155  0.00  0.00    -0.577 OA
ENDBRANCH  28  29
ENDBRANCH  25  28
ENDBRANCH   6  25
BRANCH   4  33
ATOM     33  O   LIG d   1       2.499   2.112  -8.749  0.00  0.00    -0.389 OA
ATOM     34  H   LIG d   1       2.860   2.831  -8.212  0.00  0.00     0.210 HD
ENDBRANCH   4  33
TORSDOF 6
ENDMDL
MODEL 5
REMARK VINA RESULT:      -5.1      5.401      7.576
REMARK  6 active torsions:
REMARK  status: ('A' for Active; 'I' for Inactive)
REMARK    1  A    between atoms: C_1  and  C_2 
REMARK    2  A    between atoms: N_4  and  C_11 
REMARK    3  A    between atoms: C_14  and  O_23 
REMARK    4  A    between atoms: C_16  and  C_19 
REMARK    5  A    between atoms: C_19  and  O_20 
REMARK    6  A    between atoms: O_20  and  P_21 
ROOT
ATOM      1  C   LIG d   1       5.070  -3.515  -6.073  0.00  0.00     0.142 C 
ATOM      2  H   LIG d   1       4.935  -3.416  -7.150  0.00  0.00     0.084 H 
ATOM      3  C   LIG d   1       6.540  -3.878  -5.747  0.00  0.00     0.021 C 
ATOM      4  C   LIG d   1       6.522  -5.415  -5.972  0.00  0.00     0.088 C 
ATOM      5  H   LIG d   1       6.665  -5.654  -7.025  0.00  0.00     0.062 H 
ATOM      6  C   LIG d   1       5.099  -5.796  -5.510  0.00  0.00     0.111 C 
ATOM      7  H   LIG d   1       5.130  -6.169  -4.486  0.00  0.00     0.065 H 
ATOM      8  O   LIG d   1       4.293  -4.614  -5.572  0.00  0.00    -0.348 OA
ATOM      9  H   LIG d   1       6.785  -3.635  -4.713  0.00  0.00     0.034 H 
ATOM     10  H   LIG d   1       7.228  -3.389  -6.436  0.00  0.00     0.034 H 
ENDROOT
BRANCH   1  11
ATOM     11  N   LIG d   1       4.691  -2.273  -5.395  0.00  0.00    -0.274 N 
ATOM     12  C   LIG d   1       4.666  -2.227  -4.027  0.00  0.00     0.020 A 
ATOM     13  C   LIG d   1       4.323  -1.081  -3.403  0.00  0.00     0.030 A 
ATOM     14  H   LIG d   1       4.924  -3.104  -3.450  0.00  0.00     0.082 H 
ATOM     15  C   LIG d   1       3.983   0.052  -4.180  0.00  0.00     0.257 A 
ATOM     16  N   LIG d   1       4.014  -0.035  -5.526  0.00  0.00    -0.275 N 
ATOM     17  O   LIG d   1       3.664   1.096  -3.640  0.00  0.00    -0.267 OA
ATOM     18  C   LIG d   1       4.366  -1.189  -6.122  0.00  0.00     0.331 A 
ATOM     19  H   LIG d   1       3.776   0.761  -6.082  0.00  0.00     0.173 HD
ATOM     20  O   LIG d   1       4.390  -1.253  -7.336  0.00  0.00    -0.246 OA
BRANCH  13  21
ATOM     21  C   LIG d   1       4.295  -1.010  -1.898  0.00  0.00    -0.033 C 
ATOM     22  H   LIG d   1       3.555  -0.274  -1.582  0.00  0.00     0.028 H 
ATOM     23  H   LIG d   1       4.031  -1.987  -1.492  0.00  0.00     0.028 H 
ATOM     24  H   LIG d   1       5.278  -0.718  -1.529  0.00  0.00     0.028 H 
ENDBRANCH  13  21
ENDBRANCH   1  11
BRANCH   6  25
ATOM     25  C   LIG d   1       4.522  -6.867  -6.438  0.00  0.00     0.080 C 
ATOM     26  H   LIG d   1       3.537  -7.166  -6.080  0.00  0.00     0.059 H 
ATOM     27  H   LIG d   1       4.436  -6.464  -7.447  0.00  0.00     0.059 H 
BRANCH  25  28
ATOM     28  O   LIG d   1       5.389  -8.002  -6.451  0.00  0.00    -0.365 OA
BRANCH  28  29
ATOM     29  P   LIG d   1       5.411  -9.102  -5.275  0.00  0.00    -0.015 P 
ATOM     30  O   LIG d   1       5.606 -10.448  -5.862  0.00  0.00    -0.638 OA
ATOM     31  O   LIG d   1       6.616  -8.779  -4.260  0.00  0.00    -0.577 OA
ATOM     32  O   LIG d   1       4.012  -9.064  -4.478  0.00  0.00    -0.577 OA
ENDBRANCH  28  29
ENDBRANCH  25  28
ENDBRANCH   6  25
BRANCH   4  33
ATOM     33  O   LIG d   1       7.509  -6.059  -5.164  0.00  0.00    -0.389 OA
ATOM     34  H   LIG d   1       7.725  -5.580  -4.352  0.00  0.00     0.210 HD
ENDBRANCH   4  33
TORSDOF 6
ENDMDL
MODEL 6
REMARK VINA RESULT:      -5.0      5.092      7.276
REMARK  6 active torsions:
REMARK  status: ('A' for Active; 'I' for Inactive)
REMARK    1  A    between atoms: C_1  and  C_2 
REMARK    2  A    between atoms: N_4  and  C_11 
REMARK    3  A    between atoms: C_14  and  O_23 
REMARK    4  A    between atoms: C_16  and  C_19 
REMARK    5  A    between atoms: C_19  and  O_20 
REMARK    6  A    between atoms: O_20  and  P_21 
ROOT
ATOM      1  C   LIG d   1       7.143  -2.371  -5.055  0.00  0.00     0.142 C 
ATOM      2  H   LIG d   1       7.273  -1.574  -5.787  0.00  0.00     0.084 H 
ATOM      3  C   LIG d   1       6.391  -3.566  -5.690  0.00  0.00     0.021 C 
ATOM      4  C   LIG d   1       4.918  -3.091  -5.561  0.00  0.00     0.088 C 
ATOM      5  H   LIG d   1       4.646  -2.439  -6.390  0.00  0.00     0.062 H 
ATOM      6  C   LIG d   1       4.944  -2.306  -4.231  0.00  0.00     0.111 C 
ATOM      7  H   LIG d   1       4.579  -2.938  -3.421  0.00  0.00     0.065 H 
ATOM      8  O   LIG d   1       6.302  -1.928  -3.978  0.00  0.00    -0.348 OA
ATOM      9  H   LIG d   1       6.559  -4.483  -5.125  0.00  0.00     0.034 H 
ATOM     10  H   LIG d   1       6.670  -3.696  -6.736  0.00  0.00     0.034 H 
ENDROOT
BRANCH   1  11
ATOM     11  N   LIG d   1       8.443  -2.806  -4.538  0.00  0.00    -0.274 N 
ATOM     12  C   LIG d   1       8.505  -3.827  -3.628  0.00  0.00     0.020 A 
ATOM     13  C   LIG d   1       9.703  -4.232  -3.157  0.00  0.00     0.030 A 
ATOM     14  H   LIG d   1       7.598  -4.309  -3.292  0.00  0.00     0.082 H 
ATOM     15  C   LIG d   1      10.876  -3.581  -3.608  0.00  0.00     0.257 A 
ATOM     16  N   LIG d   1      10.773  -2.575  -4.501  0.00  0.00    -0.275 N 
ATOM     17  O   LIG d   1      11.969  -3.924  -3.193  0.00  0.00    -0.267 OA
ATOM     18  C   LIG d   1       9.566  -2.196  -4.959  0.00  0.00     0.331 A 
ATOM     19  H   LIG d   1      11.598  -2.110  -4.824  0.00  0.00     0.173 HD
ATOM     20  O   LIG d   1       9.488  -1.288  -5.764  0.00  0.00    -0.246 OA
BRANCH  13  21
ATOM     21  C   LIG d   1       9.790  -5.358  -2.159  0.00  0.00    -0.033 C 
ATOM     22  H   LIG d   1       8.888  -5.966  -2.217  0.00  0.00     0.028 H 
ATOM     23  H   LIG d   1      10.660  -5.976  -2.384  0.00  0.00     0.028 H 
ATOM     24  H   LIG d   1       9.888  -4.946  -1.155  0.00  0.00     0.028 H 
ENDBRANCH  13  21
ENDBRANCH   1  11
BRANCH   6  25
ATOM     25  C   LIG d   1       4.071  -1.055  -4.350  0.00  0.00     0.080 C 
ATOM     26  H   LIG d   1       4.512  -0.371  -5.075  0.00  0.00     0.059 H 
ATOM     27  H   LIG d   1       3.072  -1.339  -4.680  0.00  0.00     0.059 H 
BRANCH  25  28
ATOM     28  O   LIG d   1       3.986  -0.411  -3.078  0.00  0.00    -0.365 OA
BRANCH  28  29
ATOM     29  P   LIG d   1       4.563   1.067  -2.803  0.00  0.00    -0.015 P 
ATOM     30  O   LIG d   1       5.851   1.235  -3.512  0.00  0.00    -0.638 OA
ATOM     31  O   LIG d   1       3.510   2.162  -3.336  0.00  0.00    -0.577 OA
ATOM     32  O   LIG d   1       4.792   1.268  -1.222  0.00  0.00    -0.577 OA
ENDBRANCH  28  29
ENDBRANCH  25  28
ENDBRANCH   6  25
BRANCH   4  33
ATOM     33  O   LIG d   1       4.028  -4.206  -5.475  0.00  0.00    -0.389 OA
ATOM     34  H   LIG d   1       3.489  -4.217  -4.672  0.00  0.00     0.210 HD
ENDBRANCH   4  33
TORSDOF 6
ENDMDL
MODEL 7
REMARK VINA RESULT:      -5.0      5.998      7.970
REMARK  6 active torsions:
REMARK  status: ('A' for Active; 'I' for Inactive)
REMARK    1  A    between atoms: C_1  and  C_2 
REMARK    2  A    between atoms: N_4  and  C_11 
REMARK    3  A    between atoms: C_14  and  O_23 
REMARK    4  A    between atoms: C_16  and  C_19 
REMARK    5  A    between atoms: C_19  and  O_20 
REMARK    6  A    between atoms: O_20  and  P_21 
ROOT
ATOM      1  C   LIG d   1       8.148   0.837  -3.955  0.00  0.00     0.142 C 
ATOM      2  H   LIG d   1       9.007   0.234  -3.662  0.00  0.00     0.084 H 
ATOM      3  C   LIG d   1       8.129   1.036  -5.491  0.00  0.00     0.021 C 
ATOM      4  C   LIG d   1       9.123   2.219  -5.648  0.00  0.00     0.088 C 
ATOM      5  H   LIG d   1      10.151   1.862  -5.676  0.00  0.00     0.062 H 
ATOM      6  C   LIG d   1       8.861   3.038  -4.365  0.00  0.00     0.111 C 
ATOM      7  H   LIG d   1       8.185   3.865  -4.585  0.00  0.00     0.065 H 
ATOM      8  O   LIG d   1       8.258   2.160  -3.407  0.00  0.00    -0.348 OA
ATOM      9  H   LIG d   1       7.134   1.309  -5.840  0.00  0.00     0.034 H 
ATOM     10  H   LIG d   1       8.493   0.147  -6.007  0.00  0.00     0.034 H 
ENDROOT
BRANCH   1  11
ATOM     11  N   LIG d   1       6.904   0.204  -3.509  0.00  0.00    -0.274 N 
ATOM     12  C   LIG d   1       5.859   0.983  -3.091  0.00  0.00     0.020 A 
ATOM     13  C   LIG d   1       4.711   0.400  -2.686  0.00  0.00     0.030 A 
ATOM     14  H   LIG d   1       5.951   2.060  -3.088  0.00  0.00     0.082 H 
ATOM     15  C   LIG d   1       4.616  -1.012  -2.693  0.00  0.00     0.257 A 
ATOM     16  N   LIG d   1       5.670  -1.744  -3.106  0.00  0.00    -0.275 N 
ATOM     17  O   LIG d   1       3.592  -1.562  -2.325  0.00  0.00    -0.267 OA
ATOM     18  C   LIG d   1       6.801  -1.137  -3.511  0.00  0.00     0.331 A 
ATOM     19  H   LIG d   1       5.610  -2.743  -3.114  0.00  0.00     0.173 HD
ATOM     20  O   LIG d   1       7.743  -1.810  -3.881  0.00  0.00    -0.246 OA
BRANCH  13  21
ATOM     21  C   LIG d   1       3.548   1.241  -2.227  0.00  0.00    -0.033 C 
ATOM     22  H   LIG d   1       3.758   1.642  -1.236  0.00  0.00     0.028 H 
ATOM     23  H   LIG d   1       3.395   2.064  -2.927  0.00  0.00     0.028 H 
ATOM     24  H   LIG d   1       2.648   0.627  -2.188  0.00  0.00     0.028 H 
ENDBRANCH  13  21
ENDBRANCH   1  11
BRANCH   6  25
ATOM     25  C   LIG d   1      10.183   3.577  -3.815  0.00  0.00     0.080 C 
ATOM     26  H   LIG d   1      10.822   2.745  -3.522  0.00  0.00     0.059 H 
ATOM     27  H   LIG d   1      10.682   4.166  -4.584  0.00  0.00     0.059 H 
BRANCH  25  28
ATOM     28  O   LIG d   1       9.924   4.402  -2.677  0.00  0.00    -0.365 OA
BRANCH  28  29
ATOM     29  P   LIG d   1      10.007   6.010  -2.723  0.00  0.00    -0.015 P 
ATOM     30  O   LIG d   1      11.424   6.429  -2.810  0.00  0.00    -0.638 OA
ATOM     31  O   LIG d   1       9.207   6.552  -4.010  0.00  0.00    -0.577 OA
ATOM     32  O   LIG d   1       9.349   6.620  -1.386  0.00  0.00    -0.577 OA
ENDBRANCH  28  29
ENDBRANCH  25  28
ENDBRANCH   6  25
BRANCH   4  33
ATOM     33  O   LIG d   1       8.818   2.989  -6.813  0.00  0.00    -0.389 OA
ATOM     34  H   LIG d   1       8.503   2.462  -7.560  0.00  0.00     0.210 HD
ENDBRANCH   4  33
TORSDOF 6
ENDMDL
MODEL 8
REMARK VINA RESULT:      -5.0      7.201      9.177
REMARK  6 active torsions:
REMARK  status: ('A' for Active; 'I' for Inactive)
REMARK    1  A    between atoms: C_1  and  C_2 
REMARK    2  A    between atoms: N_4  and  C_11 
REMARK    3  A    between atoms: C_14  and  O_23 
REMARK    4  A    between atoms: C_16  and  C_19 
REMARK    5  A    between atoms: C_19  and  O_20 
REMARK    6  A    between atoms: O_20  and  P_21 
ROOT
ATOM      1  C   LIG d   1       9.369   3.657  -3.238  0.00  0.00     0.142 C 
ATOM      2  H   LIG d   1       8.633   3.420  -2.471  0.00  0.00     0.084 H 
ATOM      3  C   LIG d   1      10.776   3.179  -2.800  0.00  0.00     0.021 C 
ATOM      4  C   LIG d   1      11.218   4.357  -1.890  0.00  0.00     0.088 C 
ATOM      5  H   LIG d   1      10.829   4.234  -0.880  0.00  0.00     0.062 H 
ATOM      6  C   LIG d   1      10.567   5.571  -2.587  0.00  0.00     0.111 C 
ATOM      7  H   LIG d   1      11.301   6.073  -3.218  0.00  0.00     0.065 H 
ATOM      8  O   LIG d   1       9.488   5.080  -3.392  0.00  0.00    -0.348 OA
ATOM      9  H   LIG d   1      11.440   3.073  -3.658  0.00  0.00     0.034 H 
ATOM     10  H   LIG d   1      10.716   2.248  -2.236  0.00  0.00     0.034 H 
ENDROOT
BRANCH   1  11
ATOM     11  N   LIG d   1       8.996   3.038  -4.512  0.00  0.00    -0.274 N 
ATOM     12  C   LIG d   1       9.629   3.420  -5.664  0.00  0.00     0.020 A 
ATOM     13  C   LIG d   1       9.289   2.845  -6.837  0.00  0.00     0.030 A 
ATOM     14  H   LIG d   1      10.400   4.177  -5.634  0.00  0.00     0.082 H 
ATOM     15  C   LIG d   1       8.272   1.861  -6.852  0.00  0.00     0.257 A 
ATOM     16  N   LIG d   1       7.668   1.516  -5.697  0.00  0.00    -0.275 N 
ATOM     17  O   LIG d   1       7.943   1.332  -7.899  0.00  0.00    -0.267 OA
ATOM     18  C   LIG d   1       8.031   2.101  -4.541  0.00  0.00     0.331 A 
ATOM     19  H   LIG d   1       6.948   0.820  -5.700  0.00  0.00     0.173 HD
ATOM     20  O   LIG d   1       7.478   1.779  -3.506  0.00  0.00    -0.246 OA
BRANCH  13  21
ATOM     21  C   LIG d   1       9.978   3.250  -8.114  0.00  0.00    -0.033 C 
ATOM     22  H   LIG d   1      10.695   2.481  -8.400  0.00  0.00     0.028 H 
ATOM     23  H   LIG d   1       9.237   3.368  -8.906  0.00  0.00     0.028 H 
ATOM     24  H   LIG d   1      10.500   4.195  -7.962  0.00  0.00     0.028 H 
ENDBRANCH  13  21
ENDBRANCH   1  11
BRANCH   6  25
ATOM     25  C   LIG d   1      10.029   6.545  -1.537  0.00  0.00     0.080 C 
ATOM     26  H   LIG d   1      10.493   7.521  -1.673  0.00  0.00     0.059 H 
ATOM     27  H   LIG d   1       8.948   6.637  -1.647  0.00  0.00     0.059 H 
BRANCH  25  28
ATOM     28  O   LIG d   1      10.332   6.051  -0.231  0.00  0.00    -0.365 OA
BRANCH  28  29
ATOM     29  P   LIG d   1      11.328   6.808   0.783  0.00  0.00    -0.015 P 
ATOM     30  O   LIG d   1      12.729   6.585   0.358  0.00  0.00    -0.638 OA
ATOM     31  O   LIG d   1      11.009   8.385   0.771  0.00  0.00    -0.577 OA
ATOM     32  O   LIG d   1      11.122   6.229   2.271  0.00  0.00    -0.577 OA
ENDBRANCH  28  29
ENDBRANCH  25  28
ENDBRANCH   6  25
BRANCH   4  33
ATOM     33  O   LIG d   1      12.642   4.482  -1.876  0.00  0.00    -0.389 OA
ATOM     34  H   LIG d   1      13.082   4.050  -2.621  0.00  0.00     0.210 HD
ENDBRANCH   4  33
TORSDOF 6
ENDMDL
MODEL 9
REMARK VINA RESULT:      -5.0      4.297      7.472
REMARK  6 active torsions:
REMARK  status: ('A' for Active; 'I' for Inactive)
REMARK    1  A    between atoms: C_1  and  C_2 
REMARK    2  A    between atoms: N_4  and  C_11 
REMARK    3  A    between atoms: C_14  and  O_23 
REMARK    4  A    between atoms: C_16  and  C_19 
REMARK    5  A    between atoms: C_19  and  O_20 
REMARK    6  A    between atoms: O_20  and  P_21 
ROOT
ATOM      1  C   LIG d   1       5.553  -2.523  -6.165  0.00  0.00     0.142 C 
ATOM      2  H   LIG d   1       6.543  -2.795  -6.531  0.00  0.00     0.084 H 
ATOM      3  C   LIG d   1       4.856  -3.755  -5.535  0.00  0.00     0.021 C 
ATOM      4  C   LIG d   1       4.292  -4.455  -6.801  0.00  0.00     0.088 C 
ATOM      5  H   LIG d   1       5.049  -5.084  -7.268  0.00  0.00     0.062 H 
ATOM      6  C   LIG d   1       3.939  -3.256  -7.708  0.00  0.00     0.111 C 
ATOM      7  H   LIG d   1       2.875  -3.032  -7.628  0.00  0.00     0.065 H 
ATOM      8  O   LIG d   1       4.707  -2.134  -7.259  0.00  0.00    -0.348 OA
ATOM      9  H   LIG d   1       4.054  -3.452  -4.863  0.00  0.00     0.034 H 
ATOM     10  H   LIG d   1       5.576  -4.393  -5.022  0.00  0.00     0.034 H 
ENDROOT
BRANCH   1  11
ATOM     11  N   LIG d   1       5.650  -1.438  -5.186  0.00  0.00    -0.274 N 
ATOM     12  C   LIG d   1       4.962  -1.525  -4.006  0.00  0.00     0.020 A 
ATOM     13  C   LIG d   1       5.056  -0.529  -3.101  0.00  0.00     0.030 A 
ATOM     14  H   LIG d   1       4.348  -2.391  -3.798  0.00  0.00     0.082 H 
ATOM     15  C   LIG d   1       5.861   0.597  -3.399  0.00  0.00     0.257 A 
ATOM     16  N   LIG d   1       6.518   0.649  -4.575  0.00  0.00    -0.275 N 
ATOM     17  O   LIG d   1       5.957   1.513  -2.600  0.00  0.00    -0.267 OA
ATOM     18  C   LIG d   1       6.411  -0.362  -5.456  0.00  0.00     0.331 A 
ATOM     19  H   LIG d   1       7.089   1.441  -4.792  0.00  0.00     0.173 HD
ATOM     20  O   LIG d   1       7.010  -0.303  -6.513  0.00  0.00    -0.246 OA
BRANCH  13  21
ATOM     21  C   LIG d   1       4.310  -0.610  -1.795  0.00  0.00    -0.033 C 
ATOM     22  H   LIG d   1       3.930   0.377  -1.532  0.00  0.00     0.028 H 
ATOM     23  H   LIG d   1       3.476  -1.306  -1.895  0.00  0.00     0.028 H 
ATOM     24  H   LIG d   1       4.983  -0.960  -1.013  0.00  0.00     0.028 H 
ENDBRANCH  13  21
ENDBRANCH   1  11
BRANCH   6  25
ATOM     25  C   LIG d   1       4.295  -3.581  -9.160  0.00  0.00     0.080 C 
ATOM     26  H   LIG d   1       4.735  -2.703  -9.633  0.00  0.00     0.059 H 
ATOM     27  H   LIG d   1       5.010  -4.404  -9.183  0.00  0.00     0.059 H 
BRANCH  25  28
ATOM     28  O   LIG d   1       3.112  -3.961  -9.866  0.00  0.00    -0.365 OA
BRANCH  28  29
ATOM     29  P   LIG d   1       2.828  -5.468 -10.354  0.00  0.00    -0.015 P 
ATOM     30  O   LIG d   1       4.077  -6.058 -10.889  0.00  0.00    -0.638 OA
ATOM     31  O   LIG d   1       2.310  -6.346  -9.109  0.00  0.00    -0.577 OA
ATOM     32  O   LIG d   1       1.705  -5.457 -11.507  0.00  0.00    -0.577 OA
ENDBRANCH  28  29
ENDBRANCH  25  28
ENDBRANCH   6  25
BRANCH   4  33
ATOM     33  O   LIG d   1       3.123  -5.214  -6.484  0.00  0.00    -0.389 OA
ATOM     34  H   LIG d   1       3.251  -6.171  -6.530  0.00  0.00     0.210 HD
ENDBRANCH   4  33
TORSDOF 6
ENDMDL
MODEL 10
REMARK VINA RESULT:      -5.0     11.508     12.804
REMARK  6 active torsions:
REMARK  status: ('A' for Active; 'I' for Inactive)
REMARK    1  A    between atoms: C_1  and  C_2 
REMARK    2  A    between atoms: N_4  and  C_11 
REMARK    3  A    between atoms: C_14  and  O_23 
REMARK    4  A    between atoms: C_16  and  C_19 
REMARK    5  A    between atoms: C_19  and  O_20 
REMARK    6  A    between atoms: O_20  and  P_21 
ROOT
ATOM      1  C   LIG d   1      10.771   9.560  -4.284  0.00  0.00     0.142 C 
ATOM      2  H   LIG d   1      11.302   8.744  -4.773  0.00  0.00     0.084 H 
ATOM      3  C   LIG d   1      11.685  10.244  -3.238  0.00  0.00     0.021 C 
ATOM      4  C   LIG d   1      11.512   9.290  -2.024  0.00  0.00     0.088 C 
ATOM      5  H   LIG d   1      12.186   8.438  -2.102  0.00  0.00     0.062 H 
ATOM      6  C   LIG d   1      10.041   8.841  -2.169  0.00  0.00     0.111 C 
ATOM      7  H   LIG d   1       9.407   9.434  -1.510  0.00  0.00     0.065 H 
ATOM      8  O   LIG d   1       9.657   9.051  -3.533  0.00  0.00    -0.348 OA
ATOM      9  H   LIG d   1      11.331  11.248  -3.002  0.00  0.00     0.034 H 
ATOM     10  H   LIG d   1      12.721  10.266  -3.575  0.00  0.00     0.034 H 
ENDROOT
BRANCH   1  11
ATOM     11  N   LIG d   1      10.312  10.537  -5.274  0.00  0.00    -0.274 N 
ATOM     12  C   LIG d   1      10.189  11.854  -4.921  0.00  0.00     0.020 A 
ATOM     13  C   LIG d   1       9.773  12.755  -5.836  0.00  0.00     0.030 A 
ATOM     14  H   LIG d   1      10.428  12.171  -3.916  0.00  0.00     0.082 H 
ATOM     15  C   LIG d   1       9.460  12.314  -7.144  0.00  0.00     0.257 A 
ATOM     16  N   LIG d   1       9.588  11.007  -7.451  0.00  0.00    -0.275 N 
ATOM     17  O   LIG d   1       9.076  13.108  -7.985  0.00  0.00    -0.267 OA
ATOM     18  C   LIG d   1      10.012  10.131  -6.521  0.00  0.00     0.331 A 
ATOM     19  H   LIG d   1       9.369  10.689  -8.373  0.00  0.00     0.173 HD
ATOM     20  O   LIG d   1      10.124   8.956  -6.812  0.00  0.00    -0.246 OA
BRANCH  13  21
ATOM     21  C   LIG d   1       9.636  14.209  -5.467  0.00  0.00    -0.033 C 
ATOM     22  H   LIG d   1      10.014  14.365  -4.457  0.00  0.00     0.028 H 
ATOM     23  H   LIG d   1      10.210  14.818  -6.168  0.00  0.00     0.028 H 
ATOM     24  H   LIG d   1       8.586  14.499  -5.511  0.00  0.00     0.028 H 
ENDBRANCH  13  21
ENDBRANCH   1  11
BRANCH   6  25
ATOM     25  C   LIG d   1       9.915   7.357  -1.817  0.00  0.00     0.080 C 
ATOM     26  H   LIG d   1       8.946   6.985  -2.150  0.00  0.00     0.059 H 
ATOM     27  H   LIG d   1      10.709   6.798  -2.311  0.00  0.00     0.059 H 
BRANCH  25  28
ATOM     28  O   LIG d   1      10.028   7.193  -0.402  0.00  0.00    -0.365 OA
BRANCH  28  29
ATOM     29  P   LIG d   1      11.181   6.305   0.288  0.00  0.00    -0.015 P 
ATOM     30  O   LIG d   1      11.533   5.176  -0.602  0.00  0.00    -0.638 OA
ATOM     31  O   LIG d   1      12.483   7.217   0.539  0.00  0.00    -0.577 OA
ATOM     32  O   LIG d   1      10.647   5.732   1.694  0.00  0.00    -0.577 OA
ENDBRANCH  28  29
ENDBRANCH  25  28
ENDBRANCH   6  25
BRANCH   4  33
ATOM     33  O   LIG d   1      11.711   9.989  -0.794  0.00  0.00    -0.389 OA
ATOM     34  H   LIG d   1      12.441  10.623  -0.816  0.00  0.00     0.210 HD
ENDBRANCH   4  33
TORSDOF 6
ENDMDL
