MODEL 1
REMARK VINA RESULT:      -6.4      0.000      0.000
REMARK  7 active torsions:
REMARK  status: ('A' for Active; 'I' for Inactive)
REMARK    1  A    between atoms: C_1  and  C_2 
REMARK    2  A    between atoms: C_2  and  C_3 
REMARK    3  A    between atoms: C_3  and  C_5 
REMARK    4  A    between atoms: C_3  and  C_6 
REMARK    5  A    between atoms: C_6  and  C_8 
REMARK    6  A    between atoms: C_6  and  N_39 
REMARK       I    between atoms: C_8  and  N_10 
REMARK    7  A    between atoms: N_10  and  C_11 
ROOT
ATOM      1  C   LIG d   1       3.593   0.035  -5.229  0.00  0.00     0.266 C 
ATOM      2  O   LIG d   1       4.748   0.168  -5.578  0.00  0.00    -0.269 OA
ATOM      3  N   LIG d   1       2.615  -0.043  -6.153  0.00  0.00    -0.281 N 
ATOM      4  H   LIG d   1       1.703  -0.227  -5.879  0.00  0.00     0.155 HD
ENDROOT
BRANCH   1   5
ATOM      5  C   LIG d   1       3.253  -0.037  -3.762  0.00  0.00     0.056 C 
ATOM      6  H   LIG d   1       2.624   0.811  -3.495  0.00  0.00     0.095 H 
BRANCH   5   7
ATOM      7  C   LIG d   1       4.541   0.003  -2.938  0.00  0.00     0.007 C 
ATOM      8  H   LIG d   1       5.363   0.354  -3.563  0.00  0.00     0.036 H 
BRANCH   7   9
ATOM      9  C   LIG d   1       4.858  -1.401  -2.419  0.00  0.00    -0.048 C 
ATOM     10  H   LIG d   1       5.044  -1.358  -1.346  0.00  0.00     0.027 H 
ATOM     11  H   LIG d   1       4.012  -2.060  -2.615  0.00  0.00     0.027 H 
BRANCH   9  12
ATOM     12  C   LIG d   1       6.101  -1.940  -3.131  0.00  0.00    -0.065 C 
ATOM     13  H   LIG d   1       5.797  -2.499  -4.015  0.00  0.00     0.023 H 
ATOM     14  H   LIG d   1       6.739  -1.108  -3.428  0.00  0.00     0.023 H 
ATOM     15  H   LIG d   1       6.650  -2.596  -2.456  0.00  0.00     0.023 H 
ENDBRANCH   9  12
ENDBRANCH   7   9
BRANCH   7  16
ATOM     16  C   LIG d   1       4.360   0.955  -1.754  0.00  0.00    -0.057 C 
ATOM     17  H   LIG d   1       3.578   0.576  -1.098  0.00  0.00     0.023 H 
ATOM     18  H   LIG d   1       5.297   1.029  -1.200  0.00  0.00     0.023 H 
ATOM     19  H   LIG d   1       4.078   1.942  -2.122  0.00  0.00     0.023 H 
ENDBRANCH   7  16
ENDBRANCH   5   7
BRANCH   5  20
ATOM     20  N   LIG d   1       2.532  -1.286  -3.463  0.00  0.00     0.228 N 
ATOM     21  H   LIG d   1       1.546  -1.186  -3.700  0.00  0.00     0.200 HD
ATOM     22  H   LIG d   1       2.932  -2.057  -3.993  0.00  0.00     0.200 HD
ATOM     23  H   LIG d   1       2.615  -1.491  -2.460  0.00  0.00     0.200 HD
ENDBRANCH   5  20
ENDBRANCH   1   5
BRANCH   3  24
ATOM     24  C   LIG d   1       2.915   0.140  -7.507  0.00  0.00     0.034 A 
ATOM     25  C   LIG d   1       3.177  -0.955  -8.300  0.00  0.00    -0.033 A 
ATOM     26  C   LIG d   1       3.478  -0.768  -9.659  0.00  0.00    -0.016 A 
ATOM     27  H   LIG d   1       3.152  -1.950  -7.880  0.00  0.00     0.064 H 
ATOM     28  C   LIG d   1       3.507   0.545 -10.192  0.00  0.00    -0.018 A 
ATOM     29  C   LIG d   1       3.751  -1.860 -10.501  0.00  0.00    -0.054 A 
ATOM     30  C   LIG d   1       3.234   1.641  -9.353  0.00  0.00    -0.052 A 
ATOM     31  C   LIG d   1       3.808   0.729 -11.552  0.00  0.00    -0.054 A 
ATOM     32  C   LIG d   1       2.941   1.433  -8.042  0.00  0.00    -0.040 A 
ATOM     33  H   LIG d   1       3.254   2.645  -9.750  0.00  0.00     0.062 H 
ATOM     34  H   LIG d   1       2.728   2.278  -7.404  0.00  0.00     0.064 H 
ATOM     35  C   LIG d   1       4.067  -0.351 -12.337  0.00  0.00    -0.061 A 
ATOM     36  H   LIG d   1       3.834   1.724 -11.972  0.00  0.00     0.062 H 
ATOM     37  C   LIG d   1       4.038  -1.642 -11.813  0.00  0.00    -0.061 A 
ATOM     38  H   LIG d   1       4.297  -0.206 -13.383  0.00  0.00     0.062 H 
ATOM     39  H   LIG d   1       4.247  -2.482 -12.459  0.00  0.00     0.062 H 
ATOM     40  H   LIG d   1       3.733  -2.865 -10.110  0.00  0.00     0.062 H 
ENDBRANCH   3  24
TORSDOF 7
ENDMDL
MODEL 2
REMARK VINA RESULT:      -6.0      1.832      2.364
REMARK  7 active torsions:
REMARK  status: ('A' for Active; 'I' for Inactive)
REMARK    1  A    between atoms: C_1  and  C_2 
REMARK    2  A    between atoms: C_2  and  C_3 
REMARK    3  A    between atoms: C_3  and  C_5 
REMARK    4  A    between atoms: C_3  and  C_6 
REMARK    5  A    between atoms: C_6  and  C_8 
REMARK    6  A    between atoms: C_6  and  N_39 
REMARK       I    between atoms: C_8  and  N_10 
REMARK    7  A    between atoms: N_10  and  C_11 
ROOT
ATOM      1  C   LIG d   1       5.127  -1.193  -5.239  0.00  0.00     0.266 C 
ATOM      2  O   LIG d   1       5.307  -2.226  -5.849  0.00  0.00    -0.269 OA
ATOM      3  N   LIG d   1       4.592  -0.125  -5.863  0.00  0.00    -0.281 N 
ATOM      4  H   LIG d   1       4.377   0.675  -5.358  0.00  0.00     0.155 HD
ENDROOT
BRANCH   1   5
ATOM      5  C   LIG d   1       5.509  -1.103  -3.783  0.00  0.00     0.056 C 
ATOM      6  H   LIG d   1       5.973  -2.037  -3.471  0.00  0.00     0.095 H 
BRANCH   5   7
ATOM      7  C   LIG d   1       4.256  -0.850  -2.943  0.00  0.00     0.007 C 
ATOM      8  H   LIG d   1       3.441  -0.527  -3.592  0.00  0.00     0.036 H 
BRANCH   7   9
ATOM      9  C   LIG d   1       4.546   0.239  -1.908  0.00  0.00    -0.048 C 
ATOM     10  H   LIG d   1       4.311  -0.135  -0.912  0.00  0.00     0.027 H 
ATOM     11  H   LIG d   1       5.600   0.512  -1.955  0.00  0.00     0.027 H 
BRANCH   9  12
ATOM     12  C   LIG d   1       3.687   1.469  -2.207  0.00  0.00    -0.065 C 
ATOM     13  H   LIG d   1       3.915   2.255  -1.487  0.00  0.00     0.023 H 
ATOM     14  H   LIG d   1       3.901   1.826  -3.214  0.00  0.00     0.023 H 
ATOM     15  H   LIG d   1       2.633   1.203  -2.133  0.00  0.00     0.023 H 
ENDBRANCH   9  12
ENDBRANCH   7   9
BRANCH   7  16
ATOM     16  C   LIG d   1       3.854  -2.140  -2.225  0.00  0.00    -0.057 C 
ATOM     17  H   LIG d   1       2.776  -2.148  -2.067  0.00  0.00     0.023 H 
ATOM     18  H   LIG d   1       4.138  -2.999  -2.834  0.00  0.00     0.023 H 
ATOM     19  H   LIG d   1       4.362  -2.194  -1.262  0.00  0.00     0.023 H 
ENDBRANCH   7  16
ENDBRANCH   5   7
BRANCH   5  20
ATOM     20  N   LIG d   1       6.459   0.002  -3.568  0.00  0.00     0.228 N 
ATOM     21  H   LIG d   1       6.252   0.771  -4.204  0.00  0.00     0.200 HD
ATOM     22  H   LIG d   1       6.400   0.333  -2.607  0.00  0.00     0.200 HD
ATOM     23  H   LIG d   1       7.413  -0.333  -3.750  0.00  0.00     0.200 HD
ENDBRANCH   5  20
ENDBRANCH   1   5
BRANCH   3  24
ATOM     24  C   LIG d   1       4.347  -0.171  -7.240  0.00  0.00     0.034 A 
ATOM     25  C   LIG d   1       3.100  -0.533  -7.697  0.00  0.00    -0.033 A 
ATOM     26  C   LIG d   1       2.856  -0.578  -9.079  0.00  0.00    -0.016 A 
ATOM     27  H   LIG d   1       2.315  -0.782  -6.998  0.00  0.00     0.064 H 
ATOM     28  C   LIG d   1       3.899  -0.248  -9.981  0.00  0.00    -0.018 A 
ATOM     29  C   LIG d   1       1.597  -0.943  -9.585  0.00  0.00    -0.054 A 
ATOM     30  C   LIG d   1       5.161   0.118  -9.480  0.00  0.00    -0.052 A 
ATOM     31  C   LIG d   1       3.652  -0.294 -11.364  0.00  0.00    -0.054 A 
ATOM     32  C   LIG d   1       5.370   0.158  -8.137  0.00  0.00    -0.040 A 
ATOM     33  H   LIG d   1       5.961   0.371 -10.159  0.00  0.00     0.062 H 
ATOM     34  H   LIG d   1       6.339   0.444  -7.757  0.00  0.00     0.064 H 
ATOM     35  C   LIG d   1       2.420  -0.651 -11.817  0.00  0.00    -0.061 A 
ATOM     36  H   LIG d   1       4.437  -0.045 -12.063  0.00  0.00     0.062 H 
ATOM     37  C   LIG d   1       1.395  -0.975 -10.931  0.00  0.00    -0.061 A 
ATOM     38  H   LIG d   1       2.234  -0.684 -12.881  0.00  0.00     0.062 H 
ATOM     39  H   LIG d   1       0.427  -1.255 -11.317  0.00  0.00     0.062 H 
ATOM     40  H   LIG d   1       0.793  -1.196  -8.911  0.00  0.00     0.062 H 
ENDBRANCH   3  24
TORSDOF 7
ENDMDL
MODEL 3
REMARK VINA RESULT:      -5.8      1.650      2.193
REMARK  7 active torsions:
REMARK  status: ('A' for Active; 'I' for Inactive)
REMARK    1  A    between atoms: C_1  and  C_2 
REMARK    2  A    between atoms: C_2  and  C_3 
REMARK    3  A    between atoms: C_3  and  C_5 
REMARK    4  A    between atoms: C_3  and  C_6 
REMARK    5  A    between atoms: C_6  and  C_8 
REMARK    6  A    between atoms: C_6  and  N_39 
REMARK       I    between atoms: C_8  and  N_10 
REMARK    7  A    between atoms: N_10  and  C_11 
ROOT
ATOM      1  C   LIG d   1       4.754  -1.233  -5.359  0.00  0.00     0.266 C 
ATOM      2  O   LIG d   1       4.608  -2.314  -5.891  0.00  0.00    -0.269 OA
ATOM      3  N   LIG d   1       4.431  -0.106  -6.024  0.00  0.00    -0.281 N 
ATOM      4  H   LIG d   1       4.474   0.752  -5.574  0.00  0.00     0.155 HD
ENDROOT
BRANCH   1   5
ATOM      5  C   LIG d   1       5.301  -1.151  -3.957  0.00  0.00     0.056 C 
ATOM      6  H   LIG d   1       5.789  -2.092  -3.703  0.00  0.00     0.095 H 
BRANCH   5   7
ATOM      7  C   LIG d   1       4.156  -0.890  -2.977  0.00  0.00     0.007 C 
ATOM      8  H   LIG d   1       3.280  -0.542  -3.526  0.00  0.00     0.036 H 
BRANCH   7   9
ATOM      9  C   LIG d   1       4.582   0.177  -1.967  0.00  0.00    -0.048 C 
ATOM     10  H   LIG d   1       4.435  -0.201  -0.956  0.00  0.00     0.027 H 
ATOM     11  H   LIG d   1       5.635   0.417  -2.116  0.00  0.00     0.027 H 
BRANCH   9  12
ATOM     12  C   LIG d   1       3.738   1.437  -2.169  0.00  0.00    -0.065 C 
ATOM     13  H   LIG d   1       3.180   1.649  -1.258  0.00  0.00     0.023 H 
ATOM     14  H   LIG d   1       4.391   2.279  -2.399  0.00  0.00     0.023 H 
ATOM     15  H   LIG d   1       3.043   1.280  -2.993  0.00  0.00     0.023 H 
ENDBRANCH   9  12
ENDBRANCH   7   9
BRANCH   7  16
ATOM     16  C   LIG d   1       3.812  -2.184  -2.237  0.00  0.00    -0.057 C 
ATOM     17  H   LIG d   1       4.669  -2.856  -2.261  0.00  0.00     0.023 H 
ATOM     18  H   LIG d   1       3.559  -1.954  -1.201  0.00  0.00     0.023 H 
ATOM     19  H   LIG d   1       2.961  -2.664  -2.720  0.00  0.00     0.023 H 
ENDBRANCH   7  16
ENDBRANCH   5   7
BRANCH   5  20
ATOM     20  N   LIG d   1       6.281  -0.057  -3.851  0.00  0.00     0.228 N 
ATOM     21  H   LIG d   1       7.228  -0.432  -3.865  0.00  0.00     0.200 HD
ATOM     22  H   LIG d   1       6.163   0.594  -4.624  0.00  0.00     0.200 HD
ATOM     23  H   LIG d   1       6.133   0.444  -2.966  0.00  0.00     0.200 HD
ENDBRANCH   5  20
ENDBRANCH   1   5
BRANCH   3  24
ATOM     24  C   LIG d   1       4.034  -0.174  -7.364  0.00  0.00     0.034 A 
ATOM     25  C   LIG d   1       4.990  -0.227  -8.354  0.00  0.00    -0.033 A 
ATOM     26  C   LIG d   1       4.589  -0.296  -9.698  0.00  0.00    -0.016 A 
ATOM     27  H   LIG d   1       6.040  -0.216  -8.099  0.00  0.00     0.064 H 
ATOM     28  C   LIG d   1       3.207  -0.310 -10.013  0.00  0.00    -0.018 A 
ATOM     29  C   LIG d   1       5.533  -0.351 -10.738  0.00  0.00    -0.054 A 
ATOM     30  C   LIG d   1       2.258  -0.255  -8.977  0.00  0.00    -0.052 A 
ATOM     31  C   LIG d   1       2.808  -0.379 -11.360  0.00  0.00    -0.054 A 
ATOM     32  C   LIG d   1       2.671  -0.193  -7.683  0.00  0.00    -0.040 A 
ATOM     33  H   LIG d   1       1.203  -0.265  -9.207  0.00  0.00     0.062 H 
ATOM     34  H   LIG d   1       1.939  -0.156  -6.891  0.00  0.00     0.064 H 
ATOM     35  C   LIG d   1       3.751  -0.432 -12.339  0.00  0.00    -0.061 A 
ATOM     36  H   LIG d   1       1.759  -0.390 -11.614  0.00  0.00     0.062 H 
ATOM     37  C   LIG d   1       5.110  -0.418 -12.030  0.00  0.00    -0.061 A 
ATOM     38  H   LIG d   1       3.441  -0.485 -13.373  0.00  0.00     0.062 H 
ATOM     39  H   LIG d   1       5.837  -0.461 -12.827  0.00  0.00     0.062 H 
ATOM     40  H   LIG d   1       6.589  -0.342 -10.514  0.00  0.00     0.062 H 
ENDBRANCH   3  24
TORSDOF 7
ENDMDL
MODEL 4
REMARK VINA RESULT:      -5.7      5.696      7.639
REMARK  7 active torsions:
REMARK  status: ('A' for Active; 'I' for Inactive)
REMARK    1  A    between atoms: C_1  and  C_2 
REMARK    2  A    between atoms: C_2  and  C_3 
REMARK    3  A    between atoms: C_3  and  C_5 
REMARK    4  A    between atoms: C_3  and  C_6 
REMARK    5  A    between atoms: C_6  and  C_8 
REMARK    6  A    between atoms: C_6  and  N_39 
REMARK       I    between atoms: C_8  and  N_10 
REMARK    7  A    between atoms: N_10  and  C_11 
ROOT
ATOM      1  C   LIG d   1       8.700   2.149  -5.028  0.00  0.00     0.266 C 
ATOM      2  O   LIG d   1       7.873   2.010  -5.905  0.00  0.00    -0.269 OA
ATOM      3  N   LIG d   1       8.631   1.399  -3.910  0.00  0.00    -0.281 N 
ATOM      4  H   LIG d   1       9.334   1.455  -3.244  0.00  0.00     0.155 HD
ENDROOT
BRANCH   1   5
ATOM      5  C   LIG d   1       9.801   3.167  -5.187  0.00  0.00     0.056 C 
ATOM      6  H   LIG d   1      10.680   2.838  -4.634  0.00  0.00     0.095 H 
BRANCH   5   7
ATOM      7  C   LIG d   1       9.331   4.516  -4.641  0.00  0.00     0.007 C 
ATOM      8  H   LIG d   1       8.242   4.526  -4.583  0.00  0.00     0.036 H 
BRANCH   7   9
ATOM      9  C   LIG d   1       9.803   5.635  -5.571  0.00  0.00    -0.048 C 
ATOM     10  H   LIG d   1      10.892   5.654  -5.593  0.00  0.00     0.027 H 
ATOM     11  H   LIG d   1       9.422   5.456  -6.577  0.00  0.00     0.027 H 
BRANCH   9  12
ATOM     12  C   LIG d   1       9.279   6.979  -5.060  0.00  0.00    -0.065 C 
ATOM     13  H   LIG d   1       9.097   7.643  -5.905  0.00  0.00     0.023 H 
ATOM     14  H   LIG d   1       8.349   6.822  -4.514  0.00  0.00     0.023 H 
ATOM     15  H   LIG d   1      10.018   7.428  -4.397  0.00  0.00     0.023 H 
ENDBRANCH   9  12
ENDBRANCH   7   9
BRANCH   7  16
ATOM     16  C   LIG d   1       9.916   4.734  -3.244  0.00  0.00    -0.057 C 
ATOM     17  H   LIG d   1       9.143   5.124  -2.582  0.00  0.00     0.023 H 
ATOM     18  H   LIG d   1      10.285   3.785  -2.852  0.00  0.00     0.023 H 
ATOM     19  H   LIG d   1      10.738   5.447  -3.301  0.00  0.00     0.023 H 
ENDBRANCH   7  16
ENDBRANCH   5   7
BRANCH   5  20
ATOM     20  N   LIG d   1      10.156   3.323  -6.608  0.00  0.00     0.228 N 
ATOM     21  H   LIG d   1      10.148   4.309  -6.864  0.00  0.00     0.200 HD
ATOM     22  H   LIG d   1      11.081   2.935  -6.782  0.00  0.00     0.200 HD
ATOM     23  H   LIG d   1       9.468   2.823  -7.184  0.00  0.00     0.200 HD
ENDBRANCH   5  20
ENDBRANCH   1   5
BRANCH   3  24
ATOM     24  C   LIG d   1       7.545   0.540  -3.712  0.00  0.00     0.034 A 
ATOM     25  C   LIG d   1       6.337   1.055  -3.296  0.00  0.00    -0.033 A 
ATOM     26  C   LIG d   1       5.249   0.189  -3.098  0.00  0.00    -0.016 A 
ATOM     27  H   LIG d   1       6.228   2.115  -3.124  0.00  0.00     0.064 H 
ATOM     28  C   LIG d   1       5.412  -1.199  -3.329  0.00  0.00    -0.018 A 
ATOM     29  C   LIG d   1       4.000   0.676  -2.675  0.00  0.00    -0.054 A 
ATOM     30  C   LIG d   1       6.659  -1.691  -3.753  0.00  0.00    -0.052 A 
ATOM     31  C   LIG d   1       4.320  -2.063  -3.130  0.00  0.00    -0.054 A 
ATOM     32  C   LIG d   1       7.696  -0.833  -3.942  0.00  0.00    -0.040 A 
ATOM     33  H   LIG d   1       6.793  -2.748  -3.931  0.00  0.00     0.062 H 
ATOM     34  H   LIG d   1       8.651  -1.215  -4.272  0.00  0.00     0.064 H 
ATOM     35  C   LIG d   1       3.126  -1.556  -2.720  0.00  0.00    -0.061 A 
ATOM     36  H   LIG d   1       4.430  -3.124  -3.302  0.00  0.00     0.062 H 
ATOM     37  C   LIG d   1       2.966  -0.190  -2.493  0.00  0.00    -0.061 A 
ATOM     38  H   LIG d   1       2.290  -2.222  -2.568  0.00  0.00     0.062 H 
ATOM     39  H   LIG d   1       2.007   0.186  -2.168  0.00  0.00     0.062 H 
ATOM     40  H   LIG d   1       3.860   1.731  -2.495  0.00  0.00     0.062 H 
ENDBRANCH   3  24
TORSDOF 7
ENDMDL
MODEL 5
REMARK VINA RESULT:      -5.6      1.984      7.161
REMARK  7 active torsions:
REMARK  status: ('A' for Active; 'I' for Inactive)
REMARK    1  A    between atoms: C_1  and  C_2 
REMARK    2  A    between atoms: C_2  and  C_3 
REMARK    3  A    between atoms: C_3  and  C_5 
REMARK    4  A    between atoms: C_3  and  C_6 
REMARK    5  A    between atoms: C_6  and  C_8 
REMARK    6  A    between atoms: C_6  and  N_39 
REMARK       I    between atoms: C_8  and  N_10 
REMARK    7  A    between atoms: N_10  and  C_11 
ROOT
ATOM      1  C   LIG d   1       4.633  -0.988  -8.627  0.00  0.00     0.266 C 
ATOM      2  O   LIG d   1       5.624  -0.397  -8.254  0.00  0.00    -0.269 OA
ATOM      3  N   LIG d   1       3.738  -1.439  -7.725  0.00  0.00    -0.281 N 
ATOM      4  H   LIG d   1       2.908  -1.843  -8.025  0.00  0.00     0.155 HD
ENDROOT
BRANCH   1   5
ATOM      5  C   LIG d   1       4.404  -1.222 -10.098  0.00  0.00     0.056 C 
ATOM      6  H   LIG d   1       5.317  -0.996 -10.647  0.00  0.00     0.095 H 
BRANCH   5   7
ATOM      7  C   LIG d   1       3.274  -0.315 -10.589  0.00  0.00     0.007 C 
ATOM      8  H   LIG d   1       2.532  -0.198  -9.799  0.00  0.00     0.036 H 
BRANCH   7   9
ATOM      9  C   LIG d   1       2.615  -0.941 -11.820  0.00  0.00    -0.048 C 
ATOM     10  H   LIG d   1       2.787  -0.305 -12.687  0.00  0.00     0.027 H 
ATOM     11  H   LIG d   1       3.046  -1.927 -12.000  0.00  0.00     0.027 H 
BRANCH   9  12
ATOM     12  C   LIG d   1       1.111  -1.080 -11.579  0.00  0.00    -0.065 C 
ATOM     13  H   LIG d   1       0.809  -2.112 -11.754  0.00  0.00     0.023 H 
ATOM     14  H   LIG d   1       0.881  -0.804 -10.550  0.00  0.00     0.023 H 
ATOM     15  H   LIG d   1       0.572  -0.423 -12.261  0.00  0.00     0.023 H 
ENDBRANCH   9  12
ENDBRANCH   7   9
BRANCH   7  16
ATOM     16  C   LIG d   1       3.844   1.056 -10.958  0.00  0.00    -0.057 C 
ATOM     17  H   LIG d   1       4.669   0.931 -11.659  0.00  0.00     0.023 H 
ATOM     18  H   LIG d   1       3.064   1.662 -11.420  0.00  0.00     0.023 H 
ATOM     19  H   LIG d   1       4.205   1.554 -10.058  0.00  0.00     0.023 H 
ENDBRANCH   7  16
ENDBRANCH   5   7
BRANCH   5  20
ATOM     20  N   LIG d   1       4.031  -2.626 -10.343  0.00  0.00     0.228 N 
ATOM     21  H   LIG d   1       3.253  -2.672 -11.000  0.00  0.00     0.200 HD
ATOM     22  H   LIG d   1       4.825  -3.138 -10.722  0.00  0.00     0.200 HD
ATOM     23  H   LIG d   1       3.746  -3.059  -9.457  0.00  0.00     0.200 HD
ENDBRANCH   5  20
ENDBRANCH   1   5
BRANCH   3  24
ATOM     24  C   LIG d   1       4.007  -1.325  -6.357  0.00  0.00     0.034 A 
ATOM     25  C   LIG d   1       3.593  -0.203  -5.674  0.00  0.00    -0.033 A 
ATOM     26  C   LIG d   1       3.864  -0.092  -4.300  0.00  0.00    -0.016 A 
ATOM     27  H   LIG d   1       3.065   0.585  -6.190  0.00  0.00     0.064 H 
ATOM     28  C   LIG d   1       4.558  -1.137  -3.640  0.00  0.00    -0.018 A 
ATOM     29  C   LIG d   1       3.458   1.037  -3.567  0.00  0.00    -0.054 A 
ATOM     30  C   LIG d   1       4.965  -2.268  -4.368  0.00  0.00    -0.052 A 
ATOM     31  C   LIG d   1       4.827  -1.022  -2.265  0.00  0.00    -0.054 A 
ATOM     32  C   LIG d   1       4.688  -2.355  -5.696  0.00  0.00    -0.040 A 
ATOM     33  H   LIG d   1       5.494  -3.069  -3.874  0.00  0.00     0.062 H 
ATOM     34  H   LIG d   1       4.998  -3.228  -6.250  0.00  0.00     0.064 H 
ATOM     35  C   LIG d   1       4.419   0.085  -1.588  0.00  0.00    -0.061 A 
ATOM     36  H   LIG d   1       5.355  -1.811  -1.748  0.00  0.00     0.062 H 
ATOM     37  C   LIG d   1       3.736   1.112  -2.237  0.00  0.00    -0.061 A 
ATOM     38  H   LIG d   1       4.627   0.169  -0.531  0.00  0.00     0.062 H 
ATOM     39  H   LIG d   1       3.424   1.980  -1.676  0.00  0.00     0.062 H 
ATOM     40  H   LIG d   1       2.929   1.840  -4.056  0.00  0.00     0.062 H 
ENDBRANCH   3  24
TORSDOF 7
ENDMDL
MODEL 6
REMARK VINA RESULT:      -5.6      1.879      6.963
REMARK  7 active torsions:
REMARK  status: ('A' for Active; 'I' for Inactive)
REMARK    1  A    between atoms: C_1  and  C_2 
REMARK    2  A    between atoms: C_2  and  C_3 
REMARK    3  A    between atoms: C_3  and  C_5 
REMARK    4  A    between atoms: C_3  and  C_6 
REMARK    5  A    between atoms: C_6  and  C_8 
REMARK    6  A    between atoms: C_6  and  N_39 
REMARK       I    between atoms: C_8  and  N_10 
REMARK    7  A    between atoms: N_10  and  C_11 
ROOT
ATOM      1  C   LIG d   1       3.392   0.799  -8.827  0.00  0.00     0.266 C 
ATOM      2  O   LIG d   1       3.903   1.771  -8.311  0.00  0.00    -0.269 OA
ATOM      3  N   LIG d   1       2.914  -0.200  -8.058  0.00  0.00    -0.281 N 
ATOM      4  H   LIG d   1       2.438  -0.940  -8.466  0.00  0.00     0.155 HD
ENDROOT
BRANCH   1   5
ATOM      5  C   LIG d   1       3.297   0.707 -10.328  0.00  0.00     0.056 C 
ATOM      6  H   LIG d   1       2.525   1.388 -10.685  0.00  0.00     0.095 H 
BRANCH   5   7
ATOM      7  C   LIG d   1       2.940  -0.725 -10.730  0.00  0.00     0.007 C 
ATOM      8  H   LIG d   1       3.112  -1.393  -9.885  0.00  0.00     0.036 H 
BRANCH   7   9
ATOM      9  C   LIG d   1       3.814  -1.158 -11.909  0.00  0.00    -0.048 C 
ATOM     10  H   LIG d   1       4.489  -0.346 -12.178  0.00  0.00     0.027 H 
ATOM     11  H   LIG d   1       4.395  -2.036 -11.627  0.00  0.00     0.027 H 
BRANCH   9  12
ATOM     12  C   LIG d   1       2.923  -1.499 -13.105  0.00  0.00    -0.065 C 
ATOM     13  H   LIG d   1       1.876  -1.407 -12.817  0.00  0.00     0.023 H 
ATOM     14  H   LIG d   1       3.136  -0.813 -13.925  0.00  0.00     0.023 H 
ATOM     15  H   LIG d   1       3.123  -2.521 -13.427  0.00  0.00     0.023 H 
ENDBRANCH   9  12
ENDBRANCH   7   9
BRANCH   7  16
ATOM     16  C   LIG d   1       1.467  -0.789 -11.137  0.00  0.00    -0.057 C 
ATOM     17  H   LIG d   1       0.839  -0.631 -10.260  0.00  0.00     0.023 H 
ATOM     18  H   LIG d   1       1.259  -0.015 -11.876  0.00  0.00     0.023 H 
ATOM     19  H   LIG d   1       1.250  -1.767 -11.566  0.00  0.00     0.023 H 
ENDBRANCH   7  16
ENDBRANCH   5   7
BRANCH   5  20
ATOM     20  N   LIG d   1       4.583   1.071 -10.948  0.00  0.00     0.228 N 
ATOM     21  H   LIG d   1       5.276   1.264 -10.227  0.00  0.00     0.200 HD
ATOM     22  H   LIG d   1       4.913   0.312 -11.541  0.00  0.00     0.200 HD
ATOM     23  H   LIG d   1       4.454   1.913 -11.522  0.00  0.00     0.200 HD
ENDBRANCH   5  20
ENDBRANCH   1   5
BRANCH   3  24
ATOM     24  C   LIG d   1       3.107  -0.170  -6.673  0.00  0.00     0.034 A 
ATOM     25  C   LIG d   1       4.093  -0.946  -6.106  0.00  0.00    -0.033 A 
ATOM     26  C   LIG d   1       4.283  -0.913  -4.715  0.00  0.00    -0.016 A 
ATOM     27  H   LIG d   1       4.713  -1.576  -6.726  0.00  0.00     0.064 H 
ATOM     28  C   LIG d   1       3.459  -0.081  -3.918  0.00  0.00    -0.018 A 
ATOM     29  C   LIG d   1       5.279  -1.691  -4.099  0.00  0.00    -0.054 A 
ATOM     30  C   LIG d   1       2.462   0.700  -4.530  0.00  0.00    -0.052 A 
ATOM     31  C   LIG d   1       3.653  -0.050  -2.526  0.00  0.00    -0.054 A 
ATOM     32  C   LIG d   1       2.299   0.654  -5.879  0.00  0.00    -0.040 A 
ATOM     33  H   LIG d   1       1.829   1.337  -3.931  0.00  0.00     0.062 H 
ATOM     34  H   LIG d   1       1.536   1.259  -6.345  0.00  0.00     0.064 H 
ATOM     35  C   LIG d   1       4.626  -0.816  -1.964  0.00  0.00    -0.061 A 
ATOM     36  H   LIG d   1       3.032   0.580  -1.906  0.00  0.00     0.062 H 
ATOM     37  C   LIG d   1       5.437  -1.634  -2.748  0.00  0.00    -0.061 A 
ATOM     38  H   LIG d   1       4.773  -0.789  -0.894  0.00  0.00     0.062 H 
ATOM     39  H   LIG d   1       6.203  -2.232  -2.276  0.00  0.00     0.062 H 
ATOM     40  H   LIG d   1       5.915  -2.330  -4.692  0.00  0.00     0.062 H 
ENDBRANCH   3  24
TORSDOF 7
ENDMDL
MODEL 7
REMARK VINA RESULT:      -5.5      1.646      2.103
REMARK  7 active torsions:
REMARK  status: ('A' for Active; 'I' for Inactive)
REMARK    1  A    between atoms: C_1  and  C_2 
REMARK    2  A    between atoms: C_2  and  C_3 
REMARK    3  A    between atoms: C_3  and  C_5 
REMARK    4  A    between atoms: C_3  and  C_6 
REMARK    5  A    between atoms: C_6  and  C_8 
REMARK    6  A    between atoms: C_6  and  N_39 
REMARK       I    between atoms: C_8  and  N_10 
REMARK    7  A    between atoms: N_10  and  C_11 
ROOT
ATOM      1  C   LIG d   1       3.134   0.154  -6.405  0.00  0.00     0.266 C 
ATOM      2  O   LIG d   1       3.040   1.170  -7.062  0.00  0.00    -0.269 OA
ATOM      3  N   LIG d   1       3.425  -1.015  -7.009  0.00  0.00    -0.281 N 
ATOM      4  H   LIG d   1       3.576  -1.812  -6.477  0.00  0.00     0.155 HD
ENDROOT
BRANCH   1   5
ATOM      5  C   LIG d   1       2.919   0.199  -4.914  0.00  0.00     0.056 C 
ATOM      6  H   LIG d   1       3.044   1.222  -4.560  0.00  0.00     0.095 H 
BRANCH   5   7
ATOM      7  C   LIG d   1       3.940  -0.707  -4.224  0.00  0.00     0.007 C 
ATOM      8  H   LIG d   1       4.277  -1.474  -4.923  0.00  0.00     0.036 H 
BRANCH   7   9
ATOM      9  C   LIG d   1       3.291  -1.374  -3.009  0.00  0.00    -0.048 C 
ATOM     10  H   LIG d   1       2.463  -0.760  -2.656  0.00  0.00     0.027 H 
ATOM     11  H   LIG d   1       2.920  -2.359  -3.292  0.00  0.00     0.027 H 
BRANCH   9  12
ATOM     12  C   LIG d   1       4.329  -1.522  -1.894  0.00  0.00    -0.065 C 
ATOM     13  H   LIG d   1       4.600  -2.572  -1.788  0.00  0.00     0.023 H 
ATOM     14  H   LIG d   1       5.216  -0.941  -2.144  0.00  0.00     0.023 H 
ATOM     15  H   LIG d   1       3.908  -1.158  -0.957  0.00  0.00     0.023 H 
ENDBRANCH   9  12
ENDBRANCH   7   9
BRANCH   7  16
ATOM     16  C   LIG d   1       5.138   0.127  -3.768  0.00  0.00    -0.057 C 
ATOM     17  H   LIG d   1       5.552  -0.298  -2.854  0.00  0.00     0.023 H 
ATOM     18  H   LIG d   1       5.901   0.125  -4.548  0.00  0.00     0.023 H 
ATOM     19  H   LIG d   1       4.817   1.151  -3.578  0.00  0.00     0.023 H 
ENDBRANCH   7  16
ENDBRANCH   5   7
BRANCH   5  20
ATOM     20  N   LIG d   1       1.562  -0.264  -4.575  0.00  0.00     0.228 N 
ATOM     21  H   LIG d   1       0.867   0.319  -5.040  0.00  0.00     0.200 HD
ATOM     22  H   LIG d   1       1.440  -1.232  -4.866  0.00  0.00     0.200 HD
ATOM     23  H   LIG d   1       1.427  -0.199  -3.560  0.00  0.00     0.200 HD
ENDBRANCH   5  20
ENDBRANCH   1   5
BRANCH   3  24
ATOM     24  C   LIG d   1       3.509  -1.079  -8.405  0.00  0.00     0.034 A 
ATOM     25  C   LIG d   1       2.372  -1.321  -9.144  0.00  0.00    -0.033 A 
ATOM     26  C   LIG d   1       2.460  -1.385 -10.544  0.00  0.00    -0.016 A 
ATOM     27  H   LIG d   1       1.422  -1.462  -8.650  0.00  0.00     0.064 H 
ATOM     28  C   LIG d   1       3.716  -1.197 -11.173  0.00  0.00    -0.018 A 
ATOM     29  C   LIG d   1       1.323  -1.630 -11.333  0.00  0.00    -0.054 A 
ATOM     30  C   LIG d   1       4.856  -0.951 -10.387  0.00  0.00    -0.052 A 
ATOM     31  C   LIG d   1       3.800  -1.261 -12.575  0.00  0.00    -0.054 A 
ATOM     32  C   LIG d   1       4.745  -0.890  -9.033  0.00  0.00    -0.040 A 
ATOM     33  H   LIG d   1       5.817  -0.807 -10.857  0.00  0.00     0.062 H 
ATOM     34  H   LIG d   1       5.622  -0.696  -8.435  0.00  0.00     0.064 H 
ATOM     35  C   LIG d   1       2.678  -1.500 -13.307  0.00  0.00    -0.061 A 
ATOM     36  H   LIG d   1       4.750  -1.119 -13.068  0.00  0.00     0.062 H 
ATOM     37  C   LIG d   1       1.443  -1.684 -12.688  0.00  0.00    -0.061 A 
ATOM     38  H   LIG d   1       2.746  -1.547 -14.384  0.00  0.00     0.062 H 
ATOM     39  H   LIG d   1       0.569  -1.872 -13.293  0.00  0.00     0.062 H 
ATOM     40  H   LIG d   1       0.359  -1.774 -10.869  0.00  0.00     0.062 H 
ENDBRANCH   3  24
TORSDOF 7
ENDMDL
MODEL 8
REMARK VINA RESULT:      -5.4      4.256      6.970
REMARK  7 active torsions:
REMARK  status: ('A' for Active; 'I' for Inactive)
REMARK    1  A    between atoms: C_1  and  C_2 
REMARK    2  A    between atoms: C_2  and  C_3 
REMARK    3  A    between atoms: C_3  and  C_5 
REMARK    4  A    between atoms: C_3  and  C_6 
REMARK    5  A    between atoms: C_6  and  C_8 
REMARK    6  A    between atoms: C_6  and  N_39 
REMARK       I    between atoms: C_8  and  N_10 
REMARK    7  A    between atoms: N_10  and  C_11 
ROOT
ATOM      1  C   LIG d   1       5.689  -0.681  -4.577  0.00  0.00     0.266 C 
ATOM      2  O   LIG d   1       6.330  -1.339  -3.784  0.00  0.00    -0.269 OA
ATOM      3  N   LIG d   1       6.297   0.273  -5.310  0.00  0.00    -0.281 N 
ATOM      4  H   LIG d   1       5.802   0.745  -5.998  0.00  0.00     0.155 HD
ENDROOT
BRANCH   1   5
ATOM      5  C   LIG d   1       4.210  -0.928  -4.738  0.00  0.00     0.056 C 
ATOM      6  H   LIG d   1       3.975  -1.041  -5.795  0.00  0.00     0.095 H 
BRANCH   5   7
ATOM      7  C   LIG d   1       3.431   0.257  -4.165  0.00  0.00     0.007 C 
ATOM      8  H   LIG d   1       3.989   1.178  -4.339  0.00  0.00     0.036 H 
BRANCH   7   9
ATOM      9  C   LIG d   1       3.231   0.058  -2.661  0.00  0.00    -0.048 C 
ATOM     10  H   LIG d   1       2.201   0.295  -2.397  0.00  0.00     0.027 H 
ATOM     11  H   LIG d   1       3.443  -0.980  -2.402  0.00  0.00     0.027 H 
BRANCH   9  12
ATOM     12  C   LIG d   1       4.180   0.979  -1.894  0.00  0.00    -0.065 C 
ATOM     13  H   LIG d   1       5.167   0.950  -2.356  0.00  0.00     0.023 H 
ATOM     14  H   LIG d   1       3.797   1.999  -1.919  0.00  0.00     0.023 H 
ATOM     15  H   LIG d   1       4.253   0.645  -0.859  0.00  0.00     0.023 H 
ENDBRANCH   9  12
ENDBRANCH   7   9
BRANCH   7  16
ATOM     16  C   LIG d   1       2.067   0.351  -4.853  0.00  0.00    -0.057 C 
ATOM     17  H   LIG d   1       1.346   0.802  -4.171  0.00  0.00     0.023 H 
ATOM     18  H   LIG d   1       2.153   0.966  -5.749  0.00  0.00     0.023 H 
ATOM     19  H   LIG d   1       1.730  -0.648  -5.128  0.00  0.00     0.023 H 
ENDBRANCH   7  16
ENDBRANCH   5   7
BRANCH   5  20
ATOM     20  N   LIG d   1       3.813  -2.153  -4.023  0.00  0.00     0.228 N 
ATOM     21  H   LIG d   1       4.484  -2.897  -4.204  0.00  0.00     0.200 HD
ATOM     22  H   LIG d   1       3.767  -1.974  -3.022  0.00  0.00     0.200 HD
ATOM     23  H   LIG d   1       2.887  -2.451  -4.353  0.00  0.00     0.200 HD
ENDBRANCH   5  20
ENDBRANCH   1   5
BRANCH   3  24
ATOM     24  C   LIG d   1       7.642   0.581  -5.078  0.00  0.00     0.034 A 
ATOM     25  C   LIG d   1       7.965   1.625  -4.240  0.00  0.00    -0.033 A 
ATOM     26  C   LIG d   1       9.316   1.932  -4.009  0.00  0.00    -0.016 A 
ATOM     27  H   LIG d   1       7.187   2.204  -3.766  0.00  0.00     0.064 H 
ATOM     28  C   LIG d   1      10.324   1.162  -4.641  0.00  0.00    -0.018 A 
ATOM     29  C   LIG d   1       9.687   2.990  -3.161  0.00  0.00    -0.054 A 
ATOM     30  C   LIG d   1       9.958   0.102  -5.490  0.00  0.00    -0.052 A 
ATOM     31  C   LIG d   1      11.675   1.471  -4.407  0.00  0.00    -0.054 A 
ATOM     32  C   LIG d   1       8.643  -0.178  -5.695  0.00  0.00    -0.040 A 
ATOM     33  H   LIG d   1      10.718  -0.491  -5.976  0.00  0.00     0.062 H 
ATOM     34  H   LIG d   1       8.368  -0.996  -6.343  0.00  0.00     0.064 H 
ATOM     35  C   LIG d   1      11.997   2.502  -3.580  0.00  0.00    -0.061 A 
ATOM     36  H   LIG d   1      12.454   0.892  -4.882  0.00  0.00     0.062 H 
ATOM     37  C   LIG d   1      11.006   3.260  -2.958  0.00  0.00    -0.061 A 
ATOM     38  H   LIG d   1      13.036   2.737  -3.402  0.00  0.00     0.062 H 
ATOM     39  H   LIG d   1      11.289   4.072  -2.306  0.00  0.00     0.062 H 
ATOM     40  H   LIG d   1       8.931   3.586  -2.673  0.00  0.00     0.062 H 
ENDBRANCH   3  24
TORSDOF 7
ENDMDL
MODEL 9
REMARK VINA RESULT:      -5.3      5.355      7.483
REMARK  7 active torsions:
REMARK  status: ('A' for Active; 'I' for Inactive)
REMARK    1  A    between atoms: C_1  and  C_2 
REMARK    2  A    between atoms: C_2  and  C_3 
REMARK    3  A    between atoms: C_3  and  C_5 
REMARK    4  A    between atoms: C_3  and  C_6 
REMARK    5  A    between atoms: C_6  and  C_8 
REMARK    6  A    between atoms: C_6  and  N_39 
REMARK       I    between atoms: C_8  and  N_10 
REMARK    7  A    between atoms: N_10  and  C_11 
ROOT
ATOM      1  C   LIG d   1       7.152  -0.012  -4.337  0.00  0.00     0.266 C 
ATOM      2  O   LIG d   1       6.319   0.830  -4.594  0.00  0.00    -0.269 OA
ATOM      3  N   LIG d   1       8.451   0.333  -4.233  0.00  0.00    -0.281 N 
ATOM      4  H   LIG d   1       9.107  -0.324  -3.951  0.00  0.00     0.155 HD
ENDROOT
BRANCH   1   5
ATOM      5  C   LIG d   1       6.735  -1.448  -4.139  0.00  0.00     0.056 C 
ATOM      6  H   LIG d   1       6.919  -2.008  -5.055  0.00  0.00     0.095 H 
BRANCH   5   7
ATOM      7  C   LIG d   1       5.246  -1.503  -3.796  0.00  0.00     0.007 C 
ATOM      8  H   LIG d   1       4.741  -0.637  -4.225  0.00  0.00     0.036 H 
BRANCH   7   9
ATOM      9  C   LIG d   1       5.071  -1.495  -2.276  0.00  0.00    -0.048 C 
ATOM     10  H   LIG d   1       4.476  -2.357  -1.975  0.00  0.00     0.027 H 
ATOM     11  H   LIG d   1       6.050  -1.543  -1.799  0.00  0.00     0.027 H 
BRANCH   9  12
ATOM     12  C   LIG d   1       4.359  -0.209  -1.851  0.00  0.00    -0.065 C 
ATOM     13  H   LIG d   1       3.306  -0.421  -1.669  0.00  0.00     0.023 H 
ATOM     14  H   LIG d   1       4.815   0.174  -0.939  0.00  0.00     0.023 H 
ATOM     15  H   LIG d   1       4.449   0.534  -2.643  0.00  0.00     0.023 H 
ENDBRANCH   9  12
ENDBRANCH   7   9
BRANCH   7  16
ATOM     16  C   LIG d   1       4.637  -2.783  -4.373  0.00  0.00    -0.057 C 
ATOM     17  H   LIG d   1       3.552  -2.745  -4.278  0.00  0.00     0.023 H 
ATOM     18  H   LIG d   1       4.907  -2.873  -5.425  0.00  0.00     0.023 H 
ATOM     19  H   LIG d   1       5.018  -3.645  -3.825  0.00  0.00     0.023 H 
ENDBRANCH   7  16
ENDBRANCH   5   7
BRANCH   5  20
ATOM     20  N   LIG d   1       7.502  -2.059  -3.040  0.00  0.00     0.228 N 
ATOM     21  H   LIG d   1       7.653  -3.049  -3.226  0.00  0.00     0.200 HD
ATOM     22  H   LIG d   1       8.401  -1.593  -2.939  0.00  0.00     0.200 HD
ATOM     23  H   LIG d   1       6.974  -1.960  -2.164  0.00  0.00     0.200 HD
ENDBRANCH   5  20
ENDBRANCH   1   5
BRANCH   3  24
ATOM     24  C   LIG d   1       8.853   1.640  -4.531  0.00  0.00     0.034 A 
ATOM     25  C   LIG d   1       9.160   2.507  -3.506  0.00  0.00    -0.033 A 
ATOM     26  C   LIG d   1       9.563   3.818  -3.808  0.00  0.00    -0.016 A 
ATOM     27  H   LIG d   1       9.090   2.182  -2.478  0.00  0.00     0.064 H 
ATOM     28  C   LIG d   1       9.648   4.226  -5.163  0.00  0.00    -0.018 A 
ATOM     29  C   LIG d   1       9.884   4.733  -2.790  0.00  0.00    -0.054 A 
ATOM     30  C   LIG d   1       9.328   3.314  -6.184  0.00  0.00    -0.052 A 
ATOM     31  C   LIG d   1      10.053   5.539  -5.462  0.00  0.00    -0.054 A 
ATOM     32  C   LIG d   1       8.944   2.049  -5.866  0.00  0.00    -0.040 A 
ATOM     33  H   LIG d   1       9.390   3.616  -7.219  0.00  0.00     0.062 H 
ATOM     34  H   LIG d   1       8.704   1.351  -6.654  0.00  0.00     0.064 H 
ATOM     35  C   LIG d   1      10.357   6.397  -4.451  0.00  0.00    -0.061 A 
ATOM     36  H   LIG d   1      10.123   5.864  -6.489  0.00  0.00     0.062 H 
ATOM     37  C   LIG d   1      10.273   5.995  -3.119  0.00  0.00    -0.061 A 
ATOM     38  H   LIG d   1      10.668   7.405  -4.684  0.00  0.00     0.062 H 
ATOM     39  H   LIG d   1      10.520   6.697  -2.336  0.00  0.00     0.062 H 
ATOM     40  H   LIG d   1       9.825   4.437  -1.754  0.00  0.00     0.062 H 
ENDBRANCH   3  24
TORSDOF 7
ENDMDL
MODEL 10
REMARK VINA RESULT:      -5.1      4.289      6.696
REMARK  7 active torsions:
REMARK  status: ('A' for Active; 'I' for Inactive)
REMARK    1  A    between atoms: C_1  and  C_2 
REMARK    2  A    between atoms: C_2  and  C_3 
REMARK    3  A    between atoms: C_3  and  C_5 
REMARK    4  A    between atoms: C_3  and  C_6 
REMARK    5  A    between atoms: C_6  and  C_8 
REMARK    6  A    between atoms: C_6  and  N_39 
REMARK       I    between atoms: C_8  and  N_10 
REMARK    7  A    between atoms: N_10  and  C_11 
ROOT
ATOM      1  C   LIG d   1       5.770  -0.576  -4.559  0.00  0.00     0.266 C 
ATOM      2  O   LIG d   1       6.428  -1.299  -3.841  0.00  0.00    -0.269 OA
ATOM      3  N   LIG d   1       6.342   0.496  -5.143  0.00  0.00    -0.281 N 
ATOM      4  H   LIG d   1       5.838   1.030  -5.777  0.00  0.00     0.155 HD
ENDROOT
BRANCH   1   5
ATOM      5  C   LIG d   1       4.311  -0.873  -4.794  0.00  0.00     0.056 C 
ATOM      6  H   LIG d   1       4.119  -0.919  -5.865  0.00  0.00     0.095 H 
BRANCH   5   7
ATOM      7  C   LIG d   1       3.458   0.232  -4.169  0.00  0.00     0.007 C 
ATOM      8  H   LIG d   1       3.932   1.199  -4.341  0.00  0.00     0.036 H 
BRANCH   7   9
ATOM      9  C   LIG d   1       3.329  -0.013  -2.664  0.00  0.00    -0.048 C 
ATOM     10  H   LIG d   1       2.283   0.072  -2.371  0.00  0.00     0.027 H 
ATOM     11  H   LIG d   1       3.694  -1.012  -2.427  0.00  0.00     0.027 H 
BRANCH   9  12
ATOM     12  C   LIG d   1       4.157   1.026  -1.905  0.00  0.00    -0.065 C 
ATOM     13  H   LIG d   1       3.997   2.010  -2.346  0.00  0.00     0.023 H 
ATOM     14  H   LIG d   1       3.852   1.042  -0.860  0.00  0.00     0.023 H 
ATOM     15  H   LIG d   1       5.214   0.766  -1.971  0.00  0.00     0.023 H 
ENDBRANCH   9  12
ENDBRANCH   7   9
BRANCH   7  16
ATOM     16  C   LIG d   1       2.068   0.227  -4.807  0.00  0.00    -0.057 C 
ATOM     17  H   LIG d   1       1.591  -0.737  -4.634  0.00  0.00     0.023 H 
ATOM     18  H   LIG d   1       1.461   1.018  -4.365  0.00  0.00     0.023 H 
ATOM     19  H   LIG d   1       2.160   0.398  -5.880  0.00  0.00     0.023 H 
ENDBRANCH   7  16
ENDBRANCH   5   7
BRANCH   5  20
ATOM     20  N   LIG d   1       3.945  -2.163  -4.184  0.00  0.00     0.228 N 
ATOM     21  H   LIG d   1       4.656  -2.863  -4.391  0.00  0.00     0.200 HD
ATOM     22  H   LIG d   1       3.856  -2.060  -3.175  0.00  0.00     0.200 HD
ATOM     23  H   LIG d   1       3.046  -2.476  -4.569  0.00  0.00     0.200 HD
ENDBRANCH   5  20
ENDBRANCH   1   5
BRANCH   3  24
ATOM     24  C   LIG d   1       7.663   0.839  -4.833  0.00  0.00     0.034 A 
ATOM     25  C   LIG d   1       8.700   0.182  -5.457  0.00  0.00    -0.033 A 
ATOM     26  C   LIG d   1      10.024   0.529  -5.144  0.00  0.00    -0.016 A 
ATOM     27  H   LIG d   1       8.496  -0.594  -6.180  0.00  0.00     0.064 H 
ATOM     28  C   LIG d   1      10.272   1.549  -4.192  0.00  0.00    -0.018 A 
ATOM     29  C   LIG d   1      11.110  -0.118  -5.759  0.00  0.00    -0.054 A 
ATOM     30  C   LIG d   1       9.188   2.200  -3.575  0.00  0.00    -0.052 A 
ATOM     31  C   LIG d   1      11.599   1.894  -3.882  0.00  0.00    -0.054 A 
ATOM     32  C   LIG d   1       7.915   1.849  -3.897  0.00  0.00    -0.040 A 
ATOM     33  H   LIG d   1       9.367   2.978  -2.848  0.00  0.00     0.062 H 
ATOM     34  H   LIG d   1       7.087   2.355  -3.424  0.00  0.00     0.064 H 
ATOM     35  C   LIG d   1      12.624   1.247  -4.498  0.00  0.00    -0.061 A 
ATOM     36  H   LIG d   1      11.802   2.670  -3.159  0.00  0.00     0.062 H 
ATOM     37  C   LIG d   1      12.381   0.244  -5.434  0.00  0.00    -0.061 A 
ATOM     38  H   LIG d   1      13.643   1.515  -4.257  0.00  0.00     0.062 H 
ATOM     39  H   LIG d   1      13.214  -0.254  -5.908  0.00  0.00     0.062 H 
ATOM     40  H   LIG d   1      10.938  -0.897  -6.487  0.00  0.00     0.062 H 
ENDBRANCH   3  24
TORSDOF 7
ENDMDL
