MODEL 1
REMARK VINA RESULT:      -5.7      0.000      0.000
REMARK  5 active torsions:
REMARK  status: ('A' for Active; 'I' for Inactive)
REMARK    1  A    between atoms: C_1  and  C_2 
REMARK    2  A    between atoms: N_4  and  C_11 
REMARK    3  A    between atoms: C_14  and  N_21 
REMARK    4  A    between atoms: C_16  and  C_19 
REMARK    5  A    between atoms: C_19  and  O_20 
ROOT
ATOM      1  N   LIG d   1       6.032  -5.635  -5.997  0.00  0.00     0.083 NA
ATOM      2  N   LIG d   1       6.895  -6.259  -5.636  0.00  0.00    -0.014 NA
ATOM      3  N   LIG d   1       7.759  -6.882  -5.276  0.00  0.00    -0.328 N 
ENDROOT
BRANCH   1   4
ATOM      4  C   LIG d   1       6.199  -4.192  -6.183  0.00  0.00     0.162 C 
ATOM      5  C   LIG d   1       6.595  -3.497  -4.849  0.00  0.00     0.024 C 
ATOM      6  C   LIG d   1       5.223  -3.284  -4.173  0.00  0.00     0.142 C 
ATOM      7  H   LIG d   1       7.086  -2.543  -5.039  0.00  0.00     0.033 H 
ATOM      8  H   LIG d   1       7.229  -4.147  -4.245  0.00  0.00     0.033 H 
ATOM      9  H   LIG d   1       5.042  -4.077  -3.447  0.00  0.00     0.084 H 
ATOM     10  O   LIG d   1       4.223  -3.326  -5.197  0.00  0.00    -0.349 OA
ATOM     11  C   LIG d   1       4.843  -3.506  -6.481  0.00  0.00     0.113 C 
ATOM     12  H   LIG d   1       5.001  -2.542  -6.963  0.00  0.00     0.064 H 
ATOM     13  H   LIG d   1       6.927  -3.980  -6.967  0.00  0.00     0.064 H 
BRANCH   6  14
ATOM     14  N   LIG d   1       5.196  -1.982  -3.504  0.00  0.00    -0.274 N 
ATOM     15  C   LIG d   1       6.088  -1.012  -3.870  0.00  0.00     0.020 A 
ATOM     16  C   LIG d   1       6.063   0.188  -3.253  0.00  0.00     0.030 A 
ATOM     17  H   LIG d   1       6.809  -1.206  -4.650  0.00  0.00     0.082 H 
ATOM     18  C   LIG d   1       5.109   0.419  -2.234  0.00  0.00     0.257 A 
ATOM     19  N   LIG d   1       4.246  -0.563  -1.900  0.00  0.00    -0.275 N 
ATOM     20  O   LIG d   1       5.066   1.494  -1.663  0.00  0.00    -0.267 OA
ATOM     21  C   LIG d   1       4.293  -1.751  -2.532  0.00  0.00     0.331 A 
ATOM     22  H   LIG d   1       3.569  -0.409  -1.181  0.00  0.00     0.173 HD
ATOM     23  O   LIG d   1       3.510  -2.627  -2.222  0.00  0.00    -0.246 OA
BRANCH  16  24
ATOM     24  C   LIG d   1       7.034   1.271  -3.648  0.00  0.00    -0.033 C 
ATOM     25  H   LIG d   1       7.440   1.740  -2.752  0.00  0.00     0.028 H 
ATOM     26  H   LIG d   1       7.846   0.836  -4.231  0.00  0.00     0.028 H 
ATOM     27  H   LIG d   1       6.518   2.020  -4.248  0.00  0.00     0.028 H 
ENDBRANCH  16  24
ENDBRANCH   6  14
BRANCH  11  28
ATOM     28  C   LIG d   1       3.977  -4.406  -7.365  0.00  0.00     0.073 C 
ATOM     29  H   LIG d   1       3.391  -3.789  -8.047  0.00  0.00     0.058 H 
ATOM     30  H   LIG d   1       4.616  -5.075  -7.939  0.00  0.00     0.058 H 
BRANCH  28  31
ATOM     31  O   LIG d   1       3.096  -5.175  -6.544  0.00  0.00    -0.392 OA
ATOM     32  H   LIG d   1       2.204  -5.271  -6.906  0.00  0.00     0.209 HD
ENDBRANCH  28  31
ENDBRANCH  11  28
ENDBRANCH   1   4
TORSDOF 5
ENDMDL
MODEL 2
REMARK VINA RESULT:      -5.2      2.720      6.216
REMARK  5 active torsions:
REMARK  status: ('A' for Active; 'I' for Inactive)
REMARK    1  A    between atoms: C_1  and  C_2 
REMARK    2  A    between atoms: N_4  and  C_11 
REMARK    3  A    between atoms: C_14  and  N_21 
REMARK    4  A    between atoms: C_16  and  C_19 
REMARK    5  A    between atoms: C_19  and  O_20 
ROOT
ATOM      1  N   LIG d   1       6.306   1.430  -3.670  0.00  0.00     0.083 NA
ATOM      2  N   LIG d   1       7.380   1.760  -3.667  0.00  0.00    -0.014 NA
ATOM      3  N   LIG d   1       8.455   2.090  -3.664  0.00  0.00    -0.328 N 
ENDROOT
BRANCH   1   4
ATOM      4  C   LIG d   1       5.970   0.028  -3.410  0.00  0.00     0.162 C 
ATOM      5  C   LIG d   1       6.264  -0.858  -4.653  0.00  0.00     0.024 C 
ATOM      6  C   LIG d   1       4.984  -0.673  -5.495  0.00  0.00     0.142 C 
ATOM      7  H   LIG d   1       6.392  -1.901  -4.365  0.00  0.00     0.033 H 
ATOM      8  H   LIG d   1       7.139  -0.494  -5.193  0.00  0.00     0.033 H 
ATOM      9  H   LIG d   1       5.154   0.077  -6.267  0.00  0.00     0.084 H 
ATOM     10  O   LIG d   1       3.944  -0.235  -4.614  0.00  0.00    -0.349 OA
ATOM     11  C   LIG d   1       4.439  -0.163  -3.267  0.00  0.00     0.113 C 
ATOM     12  H   LIG d   1       4.219  -1.086  -2.733  0.00  0.00     0.064 H 
ATOM     13  H   LIG d   1       6.496  -0.343  -2.530  0.00  0.00     0.064 H 
BRANCH   6  14
ATOM     14  N   LIG d   1       4.607  -1.946  -6.114  0.00  0.00    -0.274 N 
ATOM     15  C   LIG d   1       4.827  -3.118  -5.442  0.00  0.00     0.020 A 
ATOM     16  C   LIG d   1       4.481  -4.291  -6.013  0.00  0.00     0.030 A 
ATOM     17  H   LIG d   1       5.275  -3.104  -4.460  0.00  0.00     0.082 H 
ATOM     18  C   LIG d   1       3.894  -4.284  -7.301  0.00  0.00     0.257 A 
ATOM     19  N   LIG d   1       3.694  -3.108  -7.931  0.00  0.00    -0.275 N 
ATOM     20  O   LIG d   1       3.573  -5.330  -7.836  0.00  0.00    -0.267 OA
ATOM     21  C   LIG d   1       4.049  -1.953  -7.339  0.00  0.00     0.331 A 
ATOM     22  H   LIG d   1       3.281  -3.095  -8.841  0.00  0.00     0.173 HD
ATOM     23  O   LIG d   1       3.864  -0.901  -7.918  0.00  0.00    -0.246 OA
BRANCH  16  24
ATOM     24  C   LIG d   1       4.709  -5.591  -5.285  0.00  0.00    -0.033 C 
ATOM     25  H   LIG d   1       5.493  -5.457  -4.540  0.00  0.00     0.028 H 
ATOM     26  H   LIG d   1       3.786  -5.898  -4.791  0.00  0.00     0.028 H 
ATOM     27  H   LIG d   1       5.011  -6.358  -5.997  0.00  0.00     0.028 H 
ENDBRANCH  16  24
ENDBRANCH   6  14
BRANCH  11  28
ATOM     28  C   LIG d   1       3.822   1.032  -2.538  0.00  0.00     0.073 C 
ATOM     29  H   LIG d   1       2.908   0.717  -2.034  0.00  0.00     0.058 H 
ATOM     30  H   LIG d   1       4.529   1.415  -1.804  0.00  0.00     0.058 H 
BRANCH  28  31
ATOM     31  O   LIG d   1       3.513   2.059  -3.483  0.00  0.00    -0.392 OA
ATOM     32  H   LIG d   1       3.985   1.976  -4.323  0.00  0.00     0.209 HD
ENDBRANCH  28  31
ENDBRANCH  11  28
ENDBRANCH   1   4
TORSDOF 5
ENDMDL
MODEL 3
REMARK VINA RESULT:      -5.1      4.801      5.634
REMARK  5 active torsions:
REMARK  status: ('A' for Active; 'I' for Inactive)
REMARK    1  A    between atoms: C_1  and  C_2 
REMARK    2  A    between atoms: N_4  and  C_11 
REMARK    3  A    between atoms: C_14  and  N_21 
REMARK    4  A    between atoms: C_16  and  C_19 
REMARK    5  A    between atoms: C_19  and  O_20 
ROOT
ATOM      1  N   LIG d   1       2.760   0.153 -10.118  0.00  0.00     0.083 NA
ATOM      2  N   LIG d   1       2.319  -0.457 -10.953  0.00  0.00    -0.014 NA
ATOM      3  N   LIG d   1       1.878  -1.068 -11.787  0.00  0.00    -0.328 N 
ENDROOT
BRANCH   1   4
ATOM      4  C   LIG d   1       3.792  -0.424  -9.255  0.00  0.00     0.162 C 
ATOM      5  C   LIG d   1       3.170  -1.023  -7.962  0.00  0.00     0.024 C 
ATOM      6  C   LIG d   1       3.057   0.218  -7.050  0.00  0.00     0.142 C 
ATOM      7  H   LIG d   1       3.833  -1.768  -7.522  0.00  0.00     0.033 H 
ATOM      8  H   LIG d   1       2.187  -1.448  -8.163  0.00  0.00     0.033 H 
ATOM      9  H   LIG d   1       2.041   0.613  -7.089  0.00  0.00     0.084 H 
ATOM     10  O   LIG d   1       3.978   1.200  -7.537  0.00  0.00    -0.349 OA
ATOM     11  C   LIG d   1       4.705   0.678  -8.660  0.00  0.00     0.113 C 
ATOM     12  H   LIG d   1       5.652   0.252  -8.333  0.00  0.00     0.064 H 
ATOM     13  H   LIG d   1       4.377  -1.172  -9.792  0.00  0.00     0.064 H 
BRANCH   6  14
ATOM     14  N   LIG d   1       3.397  -0.144  -5.673  0.00  0.00    -0.274 N 
ATOM     15  C   LIG d   1       4.096  -1.294  -5.427  0.00  0.00     0.020 A 
ATOM     16  C   LIG d   1       4.409  -1.628  -4.157  0.00  0.00     0.030 A 
ATOM     17  H   LIG d   1       4.395  -1.933  -6.245  0.00  0.00     0.082 H 
ATOM     18  C   LIG d   1       4.006  -0.776  -3.101  0.00  0.00     0.257 A 
ATOM     19  N   LIG d   1       3.319   0.350  -3.384  0.00  0.00    -0.275 N 
ATOM     20  O   LIG d   1       4.278  -1.056  -1.947  0.00  0.00    -0.267 OA
ATOM     21  C   LIG d   1       3.019   0.658  -4.660  0.00  0.00     0.331 A 
ATOM     22  H   LIG d   1       3.031   0.956  -2.645  0.00  0.00     0.173 HD
ATOM     23  O   LIG d   1       2.399   1.675  -4.901  0.00  0.00    -0.246 OA
BRANCH  16  24
ATOM     24  C   LIG d   1       5.184  -2.889  -3.867  0.00  0.00    -0.033 C 
ATOM     25  H   LIG d   1       6.251  -2.689  -3.961  0.00  0.00     0.028 H 
ATOM     26  H   LIG d   1       4.964  -3.225  -2.853  0.00  0.00     0.028 H 
ATOM     27  H   LIG d   1       4.895  -3.663  -4.577  0.00  0.00     0.028 H 
ENDBRANCH  16  24
ENDBRANCH   6  14
BRANCH  11  28
ATOM     28  C   LIG d   1       4.947   1.779  -9.694  0.00  0.00     0.073 C 
ATOM     29  H   LIG d   1       5.989   2.096  -9.649  0.00  0.00     0.058 H 
ATOM     30  H   LIG d   1       4.726   1.399 -10.690  0.00  0.00     0.058 H 
BRANCH  28  31
ATOM     31  O   LIG d   1       4.099   2.894  -9.410  0.00  0.00    -0.392 OA
ATOM     32  H   LIG d   1       4.349   3.386  -8.616  0.00  0.00     0.209 HD
ENDBRANCH  28  31
ENDBRANCH  11  28
ENDBRANCH   1   4
TORSDOF 5
ENDMDL
MODEL 4
REMARK VINA RESULT:      -5.0     11.202     13.539
REMARK  5 active torsions:
REMARK  status: ('A' for Active; 'I' for Inactive)
REMARK    1  A    between atoms: C_1  and  C_2 
REMARK    2  A    between atoms: N_4  and  C_11 
REMARK    3  A    between atoms: C_14  and  N_21 
REMARK    4  A    between atoms: C_16  and  C_19 
REMARK    5  A    between atoms: C_19  and  O_20 
ROOT
ATOM      1  N   LIG d   1      10.004  10.573  -4.918  0.00  0.00     0.083 NA
ATOM      2  N   LIG d   1      10.462  10.125  -5.842  0.00  0.00    -0.014 NA
ATOM      3  N   LIG d   1      10.921   9.677  -6.765  0.00  0.00    -0.328 N 
ENDROOT
BRANCH   1   4
ATOM      4  C   LIG d   1      10.774  10.632  -3.674  0.00  0.00     0.162 C 
ATOM      5  C   LIG d   1      11.185   9.209  -3.201  0.00  0.00     0.024 C 
ATOM      6  C   LIG d   1       9.926   8.743  -2.438  0.00  0.00     0.142 C 
ATOM      7  H   LIG d   1      12.047   9.255  -2.536  0.00  0.00     0.033 H 
ATOM      8  H   LIG d   1      11.385   8.559  -4.052  0.00  0.00     0.033 H 
ATOM      9  H   LIG d   1       9.316   8.110  -3.083  0.00  0.00     0.084 H 
ATOM     10  O   LIG d   1       9.186   9.911  -2.066  0.00  0.00    -0.349 OA
ATOM     11  C   LIG d   1       9.887  11.092  -2.489  0.00  0.00     0.113 C 
ATOM     12  H   LIG d   1      10.504  11.477  -1.678  0.00  0.00     0.064 H 
ATOM     13  H   LIG d   1      11.646  11.276  -3.785  0.00  0.00     0.064 H 
BRANCH   6  14
ATOM     14  N   LIG d   1      10.318   7.999  -1.239  0.00  0.00    -0.274 N 
ATOM     15  C   LIG d   1      10.840   8.669  -0.166  0.00  0.00     0.020 A 
ATOM     16  C   LIG d   1      11.202   7.983   0.939  0.00  0.00     0.030 A 
ATOM     17  H   LIG d   1      10.961   9.742  -0.203  0.00  0.00     0.082 H 
ATOM     18  C   LIG d   1      11.033   6.579   0.964  0.00  0.00     0.257 A 
ATOM     19  N   LIG d   1      10.515   5.955  -0.114  0.00  0.00    -0.275 N 
ATOM     20  O   LIG d   1      11.352   5.939   1.950  0.00  0.00    -0.267 OA
ATOM     21  C   LIG d   1      10.163   6.663  -1.203  0.00  0.00     0.331 A 
ATOM     22  H   LIG d   1      10.394   4.963  -0.104  0.00  0.00     0.173 HD
ATOM     23  O   LIG d   1       9.698   6.088  -2.167  0.00  0.00    -0.246 OA
BRANCH  16  24
ATOM     24  C   LIG d   1      11.772   8.705   2.133  0.00  0.00    -0.033 C 
ATOM     25  H   LIG d   1      11.966   7.990   2.932  0.00  0.00     0.028 H 
ATOM     26  H   LIG d   1      12.704   9.196   1.850  0.00  0.00     0.028 H 
ATOM     27  H   LIG d   1      11.059   9.453   2.480  0.00  0.00     0.028 H 
ENDBRANCH  16  24
ENDBRANCH   6  14
BRANCH  11  28
ATOM     28  C   LIG d   1       8.895  12.159  -2.954  0.00  0.00     0.073 C 
ATOM     29  H   LIG d   1       8.849  12.959  -2.214  0.00  0.00     0.058 H 
ATOM     30  H   LIG d   1       9.219  12.567  -3.910  0.00  0.00     0.058 H 
BRANCH  28  31
ATOM     31  O   LIG d   1       7.599  11.574  -3.100  0.00  0.00    -0.392 OA
ATOM     32  H   LIG d   1       7.320  11.040  -2.343  0.00  0.00     0.209 HD
ENDBRANCH  28  31
ENDBRANCH  11  28
ENDBRANCH   1   4
TORSDOF 5
ENDMDL
MODEL 5
REMARK VINA RESULT:      -4.9      4.012      6.401
REMARK  5 active torsions:
REMARK  status: ('A' for Active; 'I' for Inactive)
REMARK    1  A    between atoms: C_1  and  C_2 
REMARK    2  A    between atoms: N_4  and  C_11 
REMARK    3  A    between atoms: C_14  and  N_21 
REMARK    4  A    between atoms: C_16  and  C_19 
REMARK    5  A    between atoms: C_19  and  O_20 
ROOT
ATOM      1  N   LIG d   1       5.561  -0.973  -3.732  0.00  0.00     0.083 NA
ATOM      2  N   LIG d   1       6.463  -1.633  -3.607  0.00  0.00    -0.014 NA
ATOM      3  N   LIG d   1       7.363  -2.294  -3.482  0.00  0.00    -0.328 N 
ENDROOT
BRANCH   1   4
ATOM      4  C   LIG d   1       4.412  -1.442  -4.509  0.00  0.00     0.162 C 
ATOM      5  C   LIG d   1       4.792  -1.642  -6.004  0.00  0.00     0.024 C 
ATOM      6  C   LIG d   1       4.637  -0.216  -6.574  0.00  0.00     0.142 C 
ATOM      7  H   LIG d   1       4.102  -2.331  -6.491  0.00  0.00     0.033 H 
ATOM      8  H   LIG d   1       5.821  -1.989  -6.101  0.00  0.00     0.033 H 
ATOM      9  H   LIG d   1       5.612   0.271  -6.623  0.00  0.00     0.084 H 
ATOM     10  O   LIG d   1       3.775   0.513  -5.693  0.00  0.00    -0.349 OA
ATOM     11  C   LIG d   1       3.329  -0.340  -4.626  0.00  0.00     0.113 C 
ATOM     12  H   LIG d   1       2.363  -0.780  -4.872  0.00  0.00     0.064 H 
ATOM     13  H   LIG d   1       3.999  -2.356  -4.083  0.00  0.00     0.064 H 
BRANCH   6  14
ATOM     14  N   LIG d   1       4.044  -0.276  -7.912  0.00  0.00    -0.274 N 
ATOM     15  C   LIG d   1       3.302  -1.366  -8.276  0.00  0.00     0.020 A 
ATOM     16  C   LIG d   1       2.757  -1.422  -9.510  0.00  0.00     0.030 A 
ATOM     17  H   LIG d   1       3.154  -2.179  -7.580  0.00  0.00     0.082 H 
ATOM     18  C   LIG d   1       2.965  -0.346 -10.404  0.00  0.00     0.257 A 
ATOM     19  N   LIG d   1       3.703   0.711 -10.008  0.00  0.00    -0.275 N 
ATOM     20  O   LIG d   1       2.482  -0.373 -11.522  0.00  0.00    -0.267 OA
ATOM     21  C   LIG d   1       4.236   0.741  -8.772  0.00  0.00     0.331 A 
ATOM     22  H   LIG d   1       3.855   1.475 -10.634  0.00  0.00     0.173 HD
ATOM     23  O   LIG d   1       4.899   1.700  -8.428  0.00  0.00    -0.246 OA
BRANCH  16  24
ATOM     24  C   LIG d   1       1.931  -2.613  -9.926  0.00  0.00    -0.033 C 
ATOM     25  H   LIG d   1       2.155  -3.456  -9.274  0.00  0.00     0.028 H 
ATOM     26  H   LIG d   1       0.872  -2.364  -9.849  0.00  0.00     0.028 H 
ATOM     27  H   LIG d   1       2.168  -2.876 -10.956  0.00  0.00     0.028 H 
ENDBRANCH  16  24
ENDBRANCH   6  14
BRANCH  11  28
ATOM     28  C   LIG d   1       3.235   0.451  -3.320  0.00  0.00     0.073 C 
ATOM     29  H   LIG d   1       2.189   0.670  -3.103  0.00  0.00     0.058 H 
ATOM     30  H   LIG d   1       3.658  -0.138  -2.507  0.00  0.00     0.058 H 
BRANCH  28  31
ATOM     31  O   LIG d   1       3.960   1.675  -3.450  0.00  0.00    -0.392 OA
ATOM     32  H   LIG d   1       4.445   1.932  -2.654  0.00  0.00     0.209 HD
ENDBRANCH  28  31
ENDBRANCH  11  28
ENDBRANCH   1   4
TORSDOF 5
ENDMDL
MODEL 6
REMARK VINA RESULT:      -4.7     13.688     14.527
REMARK  5 active torsions:
REMARK  status: ('A' for Active; 'I' for Inactive)
REMARK    1  A    between atoms: C_1  and  C_2 
REMARK    2  A    between atoms: N_4  and  C_11 
REMARK    3  A    between atoms: C_14  and  N_21 
REMARK    4  A    between atoms: C_16  and  C_19 
REMARK    5  A    between atoms: C_19  and  O_20 
ROOT
ATOM      1  N   LIG d   1       9.738  10.100  -8.209  0.00  0.00     0.083 NA
ATOM      2  N   LIG d   1       9.621   9.058  -8.613  0.00  0.00    -0.014 NA
ATOM      3  N   LIG d   1       9.506   8.015  -9.017  0.00  0.00    -0.328 N 
ENDROOT
BRANCH   1   4
ATOM      4  C   LIG d   1      10.763  10.385  -7.203  0.00  0.00     0.162 C 
ATOM      5  C   LIG d   1      10.468   9.634  -5.874  0.00  0.00     0.024 C 
ATOM      6  C   LIG d   1       9.472  10.585  -5.176  0.00  0.00     0.142 C 
ATOM      7  H   LIG d   1      11.376   9.521  -5.282  0.00  0.00     0.033 H 
ATOM      8  H   LIG d   1      10.008   8.665  -6.069  0.00  0.00     0.033 H 
ATOM      9  H   LIG d   1       8.452  10.236  -5.339  0.00  0.00     0.084 H 
ATOM     10  O   LIG d   1       9.638  11.886  -5.750  0.00  0.00    -0.349 OA
ATOM     11  C   LIG d   1      10.688  11.859  -6.731  0.00  0.00     0.113 C 
ATOM     12  H   LIG d   1      11.633  12.164  -6.281  0.00  0.00     0.064 H 
ATOM     13  H   LIG d   1      11.757  10.143  -7.579  0.00  0.00     0.064 H 
BRANCH   6  14
ATOM     14  N   LIG d   1       9.756  10.635  -3.740  0.00  0.00    -0.274 N 
ATOM     15  C   LIG d   1      10.903  10.068  -3.255  0.00  0.00     0.020 A 
ATOM     16  C   LIG d   1      11.164  10.114  -1.931  0.00  0.00     0.030 A 
ATOM     17  H   LIG d   1      11.596   9.586  -3.928  0.00  0.00     0.082 H 
ATOM     18  C   LIG d   1      10.240  10.751  -1.069  0.00  0.00     0.257 A 
ATOM     19  N   LIG d   1       9.121  11.298  -1.585  0.00  0.00    -0.275 N 
ATOM     20  O   LIG d   1      10.455  10.806   0.129  0.00  0.00    -0.267 OA
ATOM     21  C   LIG d   1       8.885  11.238  -2.909  0.00  0.00     0.331 A 
ATOM     22  H   LIG d   1       8.463  11.750  -0.983  0.00  0.00     0.173 HD
ATOM     23  O   LIG d   1       7.872  11.734  -3.361  0.00  0.00    -0.246 OA
BRANCH  16  24
ATOM     24  C   LIG d   1      12.426   9.501  -1.380  0.00  0.00    -0.033 C 
ATOM     25  H   LIG d   1      13.267  10.166  -1.574  0.00  0.00     0.028 H 
ATOM     26  H   LIG d   1      12.318   9.354  -0.305  0.00  0.00     0.028 H 
ATOM     27  H   LIG d   1      12.603   8.540  -1.862  0.00  0.00     0.028 H 
ENDBRANCH  16  24
ENDBRANCH   6  14
BRANCH  11  28
ATOM     28  C   LIG d   1      10.340  12.775  -7.906  0.00  0.00     0.073 C 
ATOM     29  H   LIG d   1      10.779  13.759  -7.742  0.00  0.00     0.058 H 
ATOM     30  H   LIG d   1      10.734  12.350  -8.828  0.00  0.00     0.058 H 
BRANCH  28  31
ATOM     31  O   LIG d   1       8.919  12.900  -8.007  0.00  0.00    -0.392 OA
ATOM     32  H   LIG d   1       8.470  12.084  -8.269  0.00  0.00     0.209 HD
ENDBRANCH  28  31
ENDBRANCH  11  28
ENDBRANCH   1   4
TORSDOF 5
ENDMDL
MODEL 7
REMARK VINA RESULT:      -4.7      4.941      7.158
REMARK  5 active torsions:
REMARK  status: ('A' for Active; 'I' for Inactive)
REMARK    1  A    between atoms: C_1  and  C_2 
REMARK    2  A    between atoms: N_4  and  C_11 
REMARK    3  A    between atoms: C_14  and  N_21 
REMARK    4  A    between atoms: C_16  and  C_19 
REMARK    5  A    between atoms: C_19  and  O_20 
ROOT
ATOM      1  N   LIG d   1       5.245  -6.770  -8.032  0.00  0.00     0.083 NA
ATOM      2  N   LIG d   1       5.727  -6.704  -9.045  0.00  0.00    -0.014 NA
ATOM      3  N   LIG d   1       6.209  -6.638 -10.059  0.00  0.00    -0.328 N 
ENDROOT
BRANCH   1   4
ATOM      4  C   LIG d   1       6.076  -6.768  -6.825  0.00  0.00     0.162 C 
ATOM      5  C   LIG d   1       6.269  -8.210  -6.276  0.00  0.00     0.024 C 
ATOM      6  C   LIG d   1       4.990  -8.412  -5.435  0.00  0.00     0.142 C 
ATOM      7  H   LIG d   1       7.159  -8.270  -5.649  0.00  0.00     0.033 H 
ATOM      8  H   LIG d   1       6.316  -8.933  -7.089  0.00  0.00     0.033 H 
ATOM      9  H   LIG d   1       4.253  -8.970  -6.011  0.00  0.00     0.084 H 
ATOM     10  O   LIG d   1       4.473  -7.116  -5.112  0.00  0.00    -0.349 OA
ATOM     11  C   LIG d   1       5.337  -6.097  -5.640  0.00  0.00     0.113 C 
ATOM     12  H   LIG d   1       6.049  -5.774  -4.881  0.00  0.00     0.064 H 
ATOM     13  H   LIG d   1       7.036  -6.287  -7.013  0.00  0.00     0.064 H 
BRANCH   6  14
ATOM     14  N   LIG d   1       5.313  -9.139  -4.205  0.00  0.00    -0.274 N 
ATOM     15  C   LIG d   1       6.586  -9.093  -3.704  0.00  0.00     0.020 A 
ATOM     16  C   LIG d   1       6.883  -9.764  -2.571  0.00  0.00     0.030 A 
ATOM     17  H   LIG d   1       7.348  -8.523  -4.214  0.00  0.00     0.082 H 
ATOM     18  C   LIG d   1       5.867 -10.504  -1.922  0.00  0.00     0.257 A 
ATOM     19  N   LIG d   1       4.625 -10.525  -2.447  0.00  0.00    -0.275 N 
ATOM     20  O   LIG d   1       6.112 -11.116  -0.898  0.00  0.00    -0.267 OA
ATOM     21  C   LIG d   1       4.356  -9.847  -3.578  0.00  0.00     0.331 A 
ATOM     22  H   LIG d   1       3.902 -11.046  -1.994  0.00  0.00     0.173 HD
ATOM     23  O   LIG d   1       3.232  -9.875  -4.040  0.00  0.00    -0.246 OA
BRANCH  16  24
ATOM     24  C   LIG d   1       8.278  -9.719  -2.002  0.00  0.00    -0.033 C 
ATOM     25  H   LIG d   1       8.971  -9.361  -2.764  0.00  0.00     0.028 H 
ATOM     26  H   LIG d   1       8.300  -9.044  -1.146  0.00  0.00     0.028 H 
ATOM     27  H   LIG d   1       8.573 -10.718  -1.683  0.00  0.00     0.028 H 
ENDBRANCH  16  24
ENDBRANCH   6  14
BRANCH  11  28
ATOM     28  C   LIG d   1       4.513  -4.907  -6.135  0.00  0.00     0.073 C 
ATOM     29  H   LIG d   1       4.585  -4.091  -5.415  0.00  0.00     0.058 H 
ATOM     30  H   LIG d   1       4.894  -4.575  -7.099  0.00  0.00     0.058 H 
BRANCH  28  31
ATOM     31  O   LIG d   1       3.145  -5.299  -6.272  0.00  0.00    -0.392 OA
ATOM     32  H   LIG d   1       2.672  -5.377  -5.432  0.00  0.00     0.209 HD
ENDBRANCH  28  31
ENDBRANCH  11  28
ENDBRANCH   1   4
TORSDOF 5
ENDMDL
MODEL 8
REMARK VINA RESULT:      -4.7      4.338      6.367
REMARK  5 active torsions:
REMARK  status: ('A' for Active; 'I' for Inactive)
REMARK    1  A    between atoms: C_1  and  C_2 
REMARK    2  A    between atoms: N_4  and  C_11 
REMARK    3  A    between atoms: C_14  and  N_21 
REMARK    4  A    between atoms: C_16  and  C_19 
REMARK    5  A    between atoms: C_19  and  O_20 
ROOT
ATOM      1  N   LIG d   1      10.445   2.455  -5.382  0.00  0.00     0.083 NA
ATOM      2  N   LIG d   1      11.174   3.280  -5.153  0.00  0.00    -0.014 NA
ATOM      3  N   LIG d   1      11.903   4.105  -4.924  0.00  0.00    -0.328 N 
ENDROOT
BRANCH   1   4
ATOM      4  C   LIG d   1       9.014   2.658  -5.147  0.00  0.00     0.162 C 
ATOM      5  C   LIG d   1       8.549   1.927  -3.855  0.00  0.00     0.024 C 
ATOM      6  C   LIG d   1       8.296   0.492  -4.366  0.00  0.00     0.142 C 
ATOM      7  H   LIG d   1       7.631   2.369  -3.468  0.00  0.00     0.033 H 
ATOM      8  H   LIG d   1       9.334   1.936  -3.099  0.00  0.00     0.033 H 
ATOM      9  H   LIG d   1       9.158  -0.137  -4.144  0.00  0.00     0.084 H 
ATOM     10  O   LIG d   1       8.100   0.563  -5.782  0.00  0.00    -0.349 OA
ATOM     11  C   LIG d   1       8.164   1.931  -6.219  0.00  0.00     0.113 C 
ATOM     12  H   LIG d   1       7.163   2.360  -6.267  0.00  0.00     0.064 H 
ATOM     13  H   LIG d   1       8.771   3.720  -5.106  0.00  0.00     0.064 H 
BRANCH   6  14
ATOM     14  N   LIG d   1       7.100  -0.060  -3.725  0.00  0.00    -0.274 N 
ATOM     15  C   LIG d   1       6.140   0.784  -3.240  0.00  0.00     0.020 A 
ATOM     16  C   LIG d   1       5.038   0.275  -2.649  0.00  0.00     0.030 A 
ATOM     17  H   LIG d   1       6.263   1.854  -3.329  0.00  0.00     0.082 H 
ATOM     18  C   LIG d   1       4.900  -1.129  -2.543  0.00  0.00     0.257 A 
ATOM     19  N   LIG d   1       5.869  -1.928  -3.034  0.00  0.00    -0.275 N 
ATOM     20  O   LIG d   1       3.914  -1.612  -2.015  0.00  0.00    -0.267 OA
ATOM     21  C   LIG d   1       6.957  -1.394  -3.618  0.00  0.00     0.331 A 
ATOM     22  H   LIG d   1       5.779  -2.921  -2.963  0.00  0.00     0.173 HD
ATOM     23  O   LIG d   1       7.823  -2.126  -4.056  0.00  0.00    -0.246 OA
BRANCH  16  24
ATOM     24  C   LIG d   1       3.966   1.191  -2.114  0.00  0.00    -0.033 C 
ATOM     25  H   LIG d   1       3.609   0.811  -1.157  0.00  0.00     0.028 H 
ATOM     26  H   LIG d   1       4.378   2.191  -1.978  0.00  0.00     0.028 H 
ATOM     27  H   LIG d   1       3.139   1.232  -2.821  0.00  0.00     0.028 H 
ENDBRANCH  16  24
ENDBRANCH   6  14
BRANCH  11  28
ATOM     28  C   LIG d   1       8.845   2.020  -7.586  0.00  0.00     0.073 C 
ATOM     29  H   LIG d   1       9.685   1.326  -7.619  0.00  0.00     0.058 H 
ATOM     30  H   LIG d   1       8.131   1.762  -8.366  0.00  0.00     0.058 H 
BRANCH  28  31
ATOM     31  O   LIG d   1       9.320   3.351  -7.795  0.00  0.00    -0.392 OA
ATOM     32  H   LIG d   1      10.222   3.502  -7.478  0.00  0.00     0.209 HD
ENDBRANCH  28  31
ENDBRANCH  11  28
ENDBRANCH   1   4
TORSDOF 5
ENDMDL
MODEL 9
REMARK VINA RESULT:      -4.6      2.236      2.413
REMARK  5 active torsions:
REMARK  status: ('A' for Active; 'I' for Inactive)
REMARK    1  A    between atoms: C_1  and  C_2 
REMARK    2  A    between atoms: N_4  and  C_11 
REMARK    3  A    between atoms: C_14  and  N_21 
REMARK    4  A    between atoms: C_16  and  C_19 
REMARK    5  A    between atoms: C_19  and  O_20 
ROOT
ATOM      1  N   LIG d   1       7.074  -5.650  -5.199  0.00  0.00     0.083 NA
ATOM      2  N   LIG d   1       8.185  -5.655  -5.031  0.00  0.00    -0.014 NA
ATOM      3  N   LIG d   1       9.297  -5.660  -4.864  0.00  0.00    -0.328 N 
ENDROOT
BRANCH   1   4
ATOM      4  C   LIG d   1       6.476  -4.672  -6.110  0.00  0.00     0.162 C 
ATOM      5  C   LIG d   1       6.403  -3.265  -5.452  0.00  0.00     0.024 C 
ATOM      6  C   LIG d   1       5.095  -3.354  -4.636  0.00  0.00     0.142 C 
ATOM      7  H   LIG d   1       6.335  -2.485  -6.210  0.00  0.00     0.033 H 
ATOM      8  H   LIG d   1       7.258  -3.097  -4.797  0.00  0.00     0.033 H 
ATOM      9  H   LIG d   1       5.323  -3.583  -3.595  0.00  0.00     0.084 H 
ATOM     10  O   LIG d   1       4.301  -4.403  -5.201  0.00  0.00    -0.349 OA
ATOM     11  C   LIG d   1       4.972  -4.968  -6.339  0.00  0.00     0.113 C 
ATOM     12  H   LIG d   1       4.626  -4.494  -7.256  0.00  0.00     0.064 H 
ATOM     13  H   LIG d   1       7.017  -4.636  -7.055  0.00  0.00     0.064 H 
BRANCH   6  14
ATOM     14  N   LIG d   1       4.371  -2.084  -4.718  0.00  0.00    -0.274 N 
ATOM     15  C   LIG d   1       4.273  -1.435  -5.918  0.00  0.00     0.020 A 
ATOM     16  C   LIG d   1       3.606  -0.263  -5.993  0.00  0.00     0.030 A 
ATOM     17  H   LIG d   1       4.727  -1.857  -6.802  0.00  0.00     0.082 H 
ATOM     18  C   LIG d   1       3.018   0.271  -4.821  0.00  0.00     0.257 A 
ATOM     19  N   LIG d   1       3.137  -0.399  -3.656  0.00  0.00    -0.275 N 
ATOM     20  O   LIG d   1       2.411   1.326  -4.864  0.00  0.00    -0.267 OA
ATOM     21  C   LIG d   1       3.808  -1.565  -3.610  0.00  0.00     0.331 A 
ATOM     22  H   LIG d   1       2.726  -0.028  -2.825  0.00  0.00     0.173 HD
ATOM     23  O   LIG d   1       3.908  -2.158  -2.554  0.00  0.00    -0.246 OA
BRANCH  16  24
ATOM     24  C   LIG d   1       3.482   0.463  -7.308  0.00  0.00    -0.033 C 
ATOM     25  H   LIG d   1       4.203   1.279  -7.342  0.00  0.00     0.028 H 
ATOM     26  H   LIG d   1       3.679  -0.231  -8.126  0.00  0.00     0.028 H 
ATOM     27  H   LIG d   1       2.474   0.864  -7.408  0.00  0.00     0.028 H 
ENDBRANCH  16  24
ENDBRANCH   6  14
BRANCH  11  28
ATOM     28  C   LIG d   1       4.733  -6.478  -6.400  0.00  0.00     0.073 C 
ATOM     29  H   LIG d   1       3.856  -6.683  -7.015  0.00  0.00     0.058 H 
ATOM     30  H   LIG d   1       5.603  -6.968  -6.834  0.00  0.00     0.058 H 
BRANCH  28  31
ATOM     31  O   LIG d   1       4.514  -6.979  -5.079  0.00  0.00    -0.392 OA
ATOM     32  H   LIG d   1       3.857  -6.481  -4.573  0.00  0.00     0.209 HD
ENDBRANCH  28  31
ENDBRANCH  11  28
ENDBRANCH   1   4
TORSDOF 5
ENDMDL
