MODEL 1
REMARK VINA RESULT:      -5.8      0.000      0.000
REMARK  8 active torsions:
REMARK  status: ('A' for Active; 'I' for Inactive)
REMARK    1  A    between atoms: C_1  and  C_2 
REMARK    2  A    between atoms: C_2  and  C_3 
REMARK    3  A    between atoms: C_3  and  C_4 
REMARK    4  A    between atoms: C_3  and  C_5 
REMARK    5  A    between atoms: C_3  and  O_21 
REMARK    6  A    between atoms: C_6  and  C_7 
REMARK    7  A    between atoms: C_7  and  N_8 
REMARK    8  A    between atoms: C_13  and  C_15 
ROOT
ATOM      1  N   LIG d   1       5.253  -1.714  -7.592  0.00  0.00    -0.284 N 
ATOM      2  C   LIG d   1       5.331  -3.064  -7.020  0.00  0.00     0.000 C 
ATOM      3  C   LIG d   1       4.977  -4.096  -8.093  0.00  0.00    -0.040 C 
ATOM      4  C   LIG d   1       3.562  -3.822  -8.611  0.00  0.00    -0.050 C 
ATOM      5  C   LIG d   1       3.495  -2.393  -9.158  0.00  0.00    -0.033 C 
ATOM      6  C   LIG d   1       3.892  -1.411  -8.053  0.00  0.00     0.038 C 
ATOM      7  H   LIG d   1       3.198  -1.501  -7.218  0.00  0.00     0.051 H 
ATOM      8  H   LIG d   1       6.344  -3.247  -6.659  0.00  0.00     0.043 H 
ATOM      9  H   LIG d   1       4.630  -3.147  -6.190  0.00  0.00     0.043 H 
ATOM     10  H   LIG d   1       5.686  -4.023  -8.917  0.00  0.00     0.028 H 
ATOM     11  H   LIG d   1       5.019  -5.097  -7.663  0.00  0.00     0.028 H 
ATOM     12  H   LIG d   1       3.322  -4.528  -9.405  0.00  0.00     0.027 H 
ATOM     13  H   LIG d   1       2.848  -3.933  -7.794  0.00  0.00     0.027 H 
ATOM     14  H   LIG d   1       4.181  -2.293  -9.998  0.00  0.00     0.028 H 
ATOM     15  H   LIG d   1       2.479  -2.177  -9.488  0.00  0.00     0.028 H 
ENDROOT
BRANCH   1  16
ATOM     16  C   LIG d   1       5.721  -0.706  -6.632  0.00  0.00     0.061 C 
ATOM     17  H   LIG d   1       5.492   0.290  -7.010  0.00  0.00     0.056 H 
ATOM     18  H   LIG d   1       6.799  -0.804  -6.498  0.00  0.00     0.056 H 
BRANCH  16  19
ATOM     19  C   LIG d   1       5.046  -0.908  -5.340  0.00  0.00    -0.084 C 
ATOM     20  C   LIG d   1       4.506  -1.069  -4.310  0.00  0.00    -0.067 C 
BRANCH  20  21
ATOM     21  C   LIG d   1       3.831  -1.272  -3.018  0.00  0.00     0.123 C 
BRANCH  21  22
ATOM     22  C   LIG d   1       4.613  -0.553  -1.916  0.00  0.00    -0.016 C 
ATOM     23  H   LIG d   1       5.681  -0.676  -2.090  0.00  0.00     0.030 H 
ATOM     24  H   LIG d   1       4.350  -0.978  -0.947  0.00  0.00     0.030 H 
BRANCH  22  25
ATOM     25  C   LIG d   1       4.262   0.937  -1.931  0.00  0.00    -0.062 C 
ATOM     26  H   LIG d   1       5.178   1.524  -1.999  0.00  0.00     0.023 H 
ATOM     27  H   LIG d   1       3.627   1.152  -2.790  0.00  0.00     0.023 H 
ATOM     28  H   LIG d   1       3.733   1.194  -1.014  0.00  0.00     0.023 H 
ENDBRANCH  22  25
ENDBRANCH  21  22
BRANCH  21  29
ATOM     29  C   LIG d   1       2.412  -0.707  -3.089  0.00  0.00    -0.025 C 
ATOM     30  H   LIG d   1       1.747  -1.447  -3.534  0.00  0.00     0.027 H 
ATOM     31  H   LIG d   1       2.066  -0.466  -2.084  0.00  0.00     0.027 H 
ATOM     32  H   LIG d   1       2.411   0.196  -3.700  0.00  0.00     0.027 H 
ENDBRANCH  21  29
BRANCH  21  33
ATOM     33  O   LIG d   1       3.773  -2.670  -2.724  0.00  0.00    -0.377 OA
ATOM     34  H   LIG d   1       4.464  -3.191  -3.154  0.00  0.00     0.211 HD
ENDBRANCH  21  33
ENDBRANCH  20  21
ENDBRANCH  16  19
ENDBRANCH   1  16
BRANCH   6  35
ATOM     35  C   LIG d   1       3.846  -0.004  -8.593  0.00  0.00    -0.012 A 
ATOM     36  C   LIG d   1       4.661   0.368  -9.646  0.00  0.00     0.032 A 
ATOM     37  N   LIG d   1       4.622   1.595 -10.128  0.00  0.00    -0.263 NA
ATOM     38  H   LIG d   1       5.332  -0.356 -10.083  0.00  0.00     0.083 H 
ATOM     39  C   LIG d   1       3.822   2.514  -9.622  0.00  0.00     0.028 A 
ATOM     40  C   LIG d   1       2.984   2.216  -8.565  0.00  0.00    -0.043 A 
ATOM     41  H   LIG d   1       3.822   3.509 -10.040  0.00  0.00     0.083 H 
ATOM     42  C   LIG d   1       2.992   0.935  -8.035  0.00  0.00    -0.054 A 
ATOM     43  H   LIG d   1       2.330   2.973  -8.155  0.00  0.00     0.063 H 
ATOM     44  H   LIG d   1       2.348   0.673  -7.210  0.00  0.00     0.062 H 
ENDBRANCH   6  35
TORSDOF 8
ENDMDL
MODEL 2
REMARK VINA RESULT:      -5.8      2.852      6.421
REMARK  8 active torsions:
REMARK  status: ('A' for Active; 'I' for Inactive)
REMARK    1  A    between atoms: C_1  and  C_2 
REMARK    2  A    between atoms: C_2  and  C_3 
REMARK    3  A    between atoms: C_3  and  C_4 
REMARK    4  A    between atoms: C_3  and  C_5 
REMARK    5  A    between atoms: C_3  and  O_21 
REMARK    6  A    between atoms: C_6  and  C_7 
REMARK    7  A    between atoms: C_7  and  N_8 
REMARK    8  A    between atoms: C_13  and  C_15 
ROOT
ATOM      1  N   LIG d   1       4.489  -0.162  -4.515  0.00  0.00    -0.284 N 
ATOM      2  C   LIG d   1       3.179   0.268  -4.011  0.00  0.00     0.000 C 
ATOM      3  C   LIG d   1       3.360   1.462  -3.071  0.00  0.00    -0.040 C 
ATOM      4  C   LIG d   1       4.267   1.056  -1.906  0.00  0.00    -0.050 C 
ATOM      5  C   LIG d   1       5.608   0.566  -2.461  0.00  0.00    -0.033 C 
ATOM      6  C   LIG d   1       5.361  -0.602  -3.418  0.00  0.00     0.038 C 
ATOM      7  H   LIG d   1       4.883  -1.420  -2.880  0.00  0.00     0.051 H 
ATOM      8  H   LIG d   1       2.545   0.558  -4.849  0.00  0.00     0.043 H 
ATOM      9  H   LIG d   1       2.711  -0.553  -3.470  0.00  0.00     0.043 H 
ATOM     10  H   LIG d   1       3.815   2.289  -3.615  0.00  0.00     0.028 H 
ATOM     11  H   LIG d   1       2.388   1.771  -2.684  0.00  0.00     0.028 H 
ATOM     12  H   LIG d   1       4.433   1.915  -1.257  0.00  0.00     0.027 H 
ATOM     13  H   LIG d   1       3.794   0.255  -1.338  0.00  0.00     0.027 H 
ATOM     14  H   LIG d   1       6.098   1.378  -2.995  0.00  0.00     0.028 H 
ATOM     15  H   LIG d   1       6.243   0.235  -1.639  0.00  0.00     0.028 H 
ENDROOT
BRANCH   1  16
ATOM     16  C   LIG d   1       4.344  -1.216  -5.528  0.00  0.00     0.061 C 
ATOM     17  H   LIG d   1       3.633  -1.964  -5.173  0.00  0.00     0.056 H 
ATOM     18  H   LIG d   1       5.311  -1.688  -5.703  0.00  0.00     0.056 H 
BRANCH  16  19
ATOM     19  C   LIG d   1       3.851  -0.627  -6.782  0.00  0.00    -0.084 C 
ATOM     20  C   LIG d   1       3.457  -0.157  -7.784  0.00  0.00    -0.067 C 
BRANCH  20  21
ATOM     21  C   LIG d   1       2.964   0.434  -9.039  0.00  0.00     0.123 C 
BRANCH  21  22
ATOM     22  C   LIG d   1       2.736   1.934  -8.840  0.00  0.00    -0.016 C 
ATOM     23  H   LIG d   1       2.534   2.135  -7.789  0.00  0.00     0.030 H 
ATOM     24  H   LIG d   1       1.885   2.255  -9.442  0.00  0.00     0.030 H 
BRANCH  22  25
ATOM     25  C   LIG d   1       3.986   2.702  -9.275  0.00  0.00    -0.062 C 
ATOM     26  H   LIG d   1       3.757   3.766  -9.331  0.00  0.00     0.023 H 
ATOM     27  H   LIG d   1       4.783   2.539  -8.550  0.00  0.00     0.023 H 
ATOM     28  H   LIG d   1       4.307   2.348 -10.254  0.00  0.00     0.023 H 
ENDBRANCH  22  25
ENDBRANCH  21  22
BRANCH  21  29
ATOM     29  C   LIG d   1       3.996   0.217 -10.145  0.00  0.00    -0.025 C 
ATOM     30  H   LIG d   1       3.837  -0.759 -10.606  0.00  0.00     0.027 H 
ATOM     31  H   LIG d   1       3.890   0.996 -10.900  0.00  0.00     0.027 H 
ATOM     32  H   LIG d   1       4.999   0.257  -9.720  0.00  0.00     0.027 H 
ENDBRANCH  21  29
BRANCH  21  33
ATOM     33  O   LIG d   1       1.731  -0.190  -9.407  0.00  0.00    -0.377 OA
ATOM     34  H   LIG d   1       1.197  -0.480  -8.655  0.00  0.00     0.211 HD
ENDBRANCH  21  33
ENDBRANCH  20  21
ENDBRANCH  16  19
ENDBRANCH   1  16
BRANCH   6  35
ATOM     35  C   LIG d   1       6.677  -1.075  -3.982  0.00  0.00    -0.012 A 
ATOM     36  C   LIG d   1       7.478  -0.212  -4.706  0.00  0.00     0.032 A 
ATOM     37  N   LIG d   1       8.634  -0.617  -5.197  0.00  0.00    -0.263 NA
ATOM     38  H   LIG d   1       7.157   0.806  -4.867  0.00  0.00     0.083 H 
ATOM     39  C   LIG d   1       9.063  -1.852  -5.030  0.00  0.00     0.028 A 
ATOM     40  C   LIG d   1       8.313  -2.772  -4.323  0.00  0.00    -0.043 A 
ATOM     41  H   LIG d   1      10.012  -2.148  -5.451  0.00  0.00     0.083 H 
ATOM     42  C   LIG d   1       7.096  -2.382  -3.786  0.00  0.00    -0.054 A 
ATOM     43  H   LIG d   1       8.671  -3.783  -4.189  0.00  0.00     0.063 H 
ATOM     44  H   LIG d   1       6.489  -3.078  -3.228  0.00  0.00     0.062 H 
ENDBRANCH   6  35
TORSDOF 8
ENDMDL
MODEL 3
REMARK VINA RESULT:      -5.6      2.970      6.572
REMARK  8 active torsions:
REMARK  status: ('A' for Active; 'I' for Inactive)
REMARK    1  A    between atoms: C_1  and  C_2 
REMARK    2  A    between atoms: C_2  and  C_3 
REMARK    3  A    between atoms: C_3  and  C_4 
REMARK    4  A    between atoms: C_3  and  C_5 
REMARK    5  A    between atoms: C_3  and  O_21 
REMARK    6  A    between atoms: C_6  and  C_7 
REMARK    7  A    between atoms: C_7  and  N_8 
REMARK    8  A    between atoms: C_13  and  C_15 
ROOT
ATOM      1  N   LIG d   1       4.465  -0.147  -4.489  0.00  0.00    -0.284 N 
ATOM      2  C   LIG d   1       3.164   0.310  -3.986  0.00  0.00     0.000 C 
ATOM      3  C   LIG d   1       3.369   1.487  -3.030  0.00  0.00    -0.040 C 
ATOM      4  C   LIG d   1       4.261   1.045  -1.867  0.00  0.00    -0.050 C 
ATOM      5  C   LIG d   1       5.592   0.529  -2.421  0.00  0.00    -0.033 C 
ATOM      6  C   LIG d   1       5.321  -0.621  -3.394  0.00  0.00     0.038 C 
ATOM      7  H   LIG d   1       4.820  -1.433  -2.868  0.00  0.00     0.051 H 
ATOM      8  H   LIG d   1       2.541   0.625  -4.823  0.00  0.00     0.043 H 
ATOM      9  H   LIG d   1       2.673  -0.507  -3.457  0.00  0.00     0.043 H 
ATOM     10  H   LIG d   1       3.848   2.310  -3.562  0.00  0.00     0.028 H 
ATOM     11  H   LIG d   1       2.404   1.815  -2.644  0.00  0.00     0.028 H 
ATOM     12  H   LIG d   1       4.444   1.892  -1.206  0.00  0.00     0.027 H 
ATOM     13  H   LIG d   1       3.765   0.249  -1.311  0.00  0.00     0.027 H 
ATOM     14  H   LIG d   1       6.105   1.335  -2.943  0.00  0.00     0.028 H 
ATOM     15  H   LIG d   1       6.214   0.172  -1.600  0.00  0.00     0.028 H 
ENDROOT
BRANCH   1  16
ATOM     16  C   LIG d   1       4.299  -1.184  -5.515  0.00  0.00     0.061 C 
ATOM     17  H   LIG d   1       3.543  -1.899  -5.189  0.00  0.00     0.056 H 
ATOM     18  H   LIG d   1       5.247  -1.701  -5.667  0.00  0.00     0.056 H 
BRANCH  16  19
ATOM     19  C   LIG d   1       3.872  -0.562  -6.778  0.00  0.00    -0.084 C 
ATOM     20  C   LIG d   1       3.532  -0.065  -7.786  0.00  0.00    -0.067 C 
BRANCH  20  21
ATOM     21  C   LIG d   1       3.105   0.558  -9.050  0.00  0.00     0.123 C 
BRANCH  21  22
ATOM     22  C   LIG d   1       1.872  -0.172  -9.587  0.00  0.00    -0.016 C 
ATOM     23  H   LIG d   1       1.045   0.531  -9.678  0.00  0.00     0.030 H 
ATOM     24  H   LIG d   1       1.595  -0.972  -8.900  0.00  0.00     0.030 H 
BRANCH  22  25
ATOM     25  C   LIG d   1       2.189  -0.766 -10.961  0.00  0.00    -0.062 C 
ATOM     26  H   LIG d   1       3.064  -1.413 -10.883  0.00  0.00     0.023 H 
ATOM     27  H   LIG d   1       1.337  -1.347 -11.312  0.00  0.00     0.023 H 
ATOM     28  H   LIG d   1       2.395   0.039 -11.666  0.00  0.00     0.023 H 
ENDBRANCH  22  25
ENDBRANCH  21  22
BRANCH  21  29
ATOM     29  C   LIG d   1       2.760   2.027  -8.803  0.00  0.00    -0.025 C 
ATOM     30  H   LIG d   1       1.865   2.291  -9.366  0.00  0.00     0.027 H 
ATOM     31  H   LIG d   1       2.580   2.184  -7.739  0.00  0.00     0.027 H 
ATOM     32  H   LIG d   1       3.590   2.655  -9.127  0.00  0.00     0.027 H 
ENDBRANCH  21  29
BRANCH  21  33
ATOM     33  O   LIG d   1       4.164   0.471 -10.006  0.00  0.00    -0.377 OA
ATOM     34  H   LIG d   1       4.993   0.131  -9.645  0.00  0.00     0.211 HD
ENDBRANCH  21  33
ENDBRANCH  20  21
ENDBRANCH  16  19
ENDBRANCH   1  16
BRANCH   6  35
ATOM     35  C   LIG d   1       6.628  -1.119  -3.957  0.00  0.00    -0.012 A 
ATOM     36  C   LIG d   1       7.459  -0.264  -4.657  0.00  0.00     0.032 A 
ATOM     37  N   LIG d   1       8.606  -0.691  -5.148  0.00  0.00    -0.263 NA
ATOM     38  H   LIG d   1       7.168   0.766  -4.799  0.00  0.00     0.083 H 
ATOM     39  C   LIG d   1       9.000  -1.942  -5.004  0.00  0.00     0.028 A 
ATOM     40  C   LIG d   1       8.219  -2.854  -4.321  0.00  0.00    -0.043 A 
ATOM     41  H   LIG d   1       9.943  -2.255  -5.424  0.00  0.00     0.083 H 
ATOM     42  C   LIG d   1       7.008  -2.441  -3.786  0.00  0.00    -0.054 A 
ATOM     43  H   LIG d   1       8.547  -3.877  -4.206  0.00  0.00     0.063 H 
ATOM     44  H   LIG d   1       6.377  -3.132  -3.247  0.00  0.00     0.062 H 
ENDBRANCH   6  35
TORSDOF 8
ENDMDL
MODEL 4
REMARK VINA RESULT:      -5.5      2.298      3.622
REMARK  8 active torsions:
REMARK  status: ('A' for Active; 'I' for Inactive)
REMARK    1  A    between atoms: C_1  and  C_2 
REMARK    2  A    between atoms: C_2  and  C_3 
REMARK    3  A    between atoms: C_3  and  C_4 
REMARK    4  A    between atoms: C_3  and  C_5 
REMARK    5  A    between atoms: C_3  and  O_21 
REMARK    6  A    between atoms: C_6  and  C_7 
REMARK    7  A    between atoms: C_7  and  N_8 
REMARK    8  A    between atoms: C_13  and  C_15 
ROOT
ATOM      1  N   LIG d   1       6.694   0.701  -7.050  0.00  0.00    -0.284 N 
ATOM      2  C   LIG d   1       7.830   0.605  -6.125  0.00  0.00     0.000 C 
ATOM      3  C   LIG d   1       8.560   1.949  -6.069  0.00  0.00    -0.040 C 
ATOM      4  C   LIG d   1       9.049   2.317  -7.472  0.00  0.00    -0.050 C 
ATOM      5  C   LIG d   1       7.852   2.364  -8.426  0.00  0.00    -0.033 C 
ATOM      6  C   LIG d   1       7.144   1.008  -8.414  0.00  0.00     0.038 C 
ATOM      7  H   LIG d   1       7.833   0.234  -8.750  0.00  0.00     0.051 H 
ATOM      8  H   LIG d   1       7.467   0.346  -5.130  0.00  0.00     0.043 H 
ATOM      9  H   LIG d   1       8.516  -0.167  -6.473  0.00  0.00     0.043 H 
ATOM     10  H   LIG d   1       7.878   2.719  -5.708  0.00  0.00     0.028 H 
ATOM     11  H   LIG d   1       9.413   1.872  -5.394  0.00  0.00     0.028 H 
ATOM     12  H   LIG d   1       9.532   3.294  -7.444  0.00  0.00     0.027 H 
ATOM     13  H   LIG d   1       9.761   1.567  -7.818  0.00  0.00     0.027 H 
ATOM     14  H   LIG d   1       7.160   3.140  -8.102  0.00  0.00     0.028 H 
ATOM     15  H   LIG d   1       8.200   2.584  -9.436  0.00  0.00     0.028 H 
ENDROOT
BRANCH   1  16
ATOM     16  C   LIG d   1       5.888  -0.526  -7.024  0.00  0.00     0.061 C 
ATOM     17  H   LIG d   1       6.544  -1.388  -6.895  0.00  0.00     0.056 H 
ATOM     18  H   LIG d   1       5.342  -0.623  -7.963  0.00  0.00     0.056 H 
BRANCH  16  19
ATOM     19  C   LIG d   1       4.933  -0.464  -5.906  0.00  0.00    -0.084 C 
ATOM     20  C   LIG d   1       4.172  -0.414  -5.014  0.00  0.00    -0.067 C 
BRANCH  20  21
ATOM     21  C   LIG d   1       3.216  -0.351  -3.896  0.00  0.00     0.123 C 
BRANCH  21  22
ATOM     22  C   LIG d   1       3.401  -1.577  -2.998  0.00  0.00    -0.016 C 
ATOM     23  H   LIG d   1       3.768  -2.411  -3.595  0.00  0.00     0.030 H 
ATOM     24  H   LIG d   1       2.445  -1.845  -2.548  0.00  0.00     0.030 H 
BRANCH  22  25
ATOM     25  C   LIG d   1       4.411  -1.254  -1.896  0.00  0.00    -0.062 C 
ATOM     26  H   LIG d   1       4.914  -0.315  -2.127  0.00  0.00     0.023 H 
ATOM     27  H   LIG d   1       3.892  -1.164  -0.942  0.00  0.00     0.023 H 
ATOM     28  H   LIG d   1       5.148  -2.055  -1.834  0.00  0.00     0.023 H 
ENDBRANCH  22  25
ENDBRANCH  21  22
BRANCH  21  29
ATOM     29  C   LIG d   1       3.466   0.919  -3.082  0.00  0.00    -0.025 C 
ATOM     30  H   LIG d   1       2.543   1.223  -2.588  0.00  0.00     0.027 H 
ATOM     31  H   LIG d   1       4.232   0.725  -2.332  0.00  0.00     0.027 H 
ATOM     32  H   LIG d   1       3.801   1.716  -3.746  0.00  0.00     0.027 H 
ENDBRANCH  21  29
BRANCH  21  33
ATOM     33  O   LIG d   1       1.882  -0.334  -4.410  0.00  0.00    -0.377 OA
ATOM     34  H   LIG d   1       1.777  -0.808  -5.245  0.00  0.00     0.211 HD
ENDBRANCH  21  33
ENDBRANCH  20  21
ENDBRANCH  16  19
ENDBRANCH   1  16
BRANCH   6  35
ATOM     35  C   LIG d   1       5.953   1.056  -9.337  0.00  0.00    -0.012 A 
ATOM     36  C   LIG d   1       5.843   0.161 -10.384  0.00  0.00     0.032 A 
ATOM     37  N   LIG d   1       4.801   0.193 -11.192  0.00  0.00    -0.263 NA
ATOM     38  H   LIG d   1       6.616  -0.577 -10.539  0.00  0.00     0.083 H 
ATOM     39  C   LIG d   1       3.836   1.080 -11.044  0.00  0.00     0.028 A 
ATOM     40  C   LIG d   1       3.882   2.010 -10.024  0.00  0.00    -0.043 A 
ATOM     41  H   LIG d   1       3.001   1.079 -11.729  0.00  0.00     0.083 H 
ATOM     42  C   LIG d   1       4.958   2.004  -9.150  0.00  0.00    -0.054 A 
ATOM     43  H   LIG d   1       3.088   2.734  -9.908  0.00  0.00     0.063 H 
ATOM     44  H   LIG d   1       5.020   2.717  -8.343  0.00  0.00     0.062 H 
ENDBRANCH   6  35
TORSDOF 8
ENDMDL
MODEL 5
REMARK VINA RESULT:      -5.5      4.604      7.089
REMARK  8 active torsions:
REMARK  status: ('A' for Active; 'I' for Inactive)
REMARK    1  A    between atoms: C_1  and  C_2 
REMARK    2  A    between atoms: C_2  and  C_3 
REMARK    3  A    between atoms: C_3  and  C_4 
REMARK    4  A    between atoms: C_3  and  C_5 
REMARK    5  A    between atoms: C_3  and  O_21 
REMARK    6  A    between atoms: C_6  and  C_7 
REMARK    7  A    between atoms: C_7  and  N_8 
REMARK    8  A    between atoms: C_13  and  C_15 
ROOT
ATOM      1  N   LIG d   1       6.439   0.164  -3.390  0.00  0.00    -0.284 N 
ATOM      2  C   LIG d   1       5.557   1.268  -2.990  0.00  0.00     0.000 C 
ATOM      3  C   LIG d   1       4.801   0.883  -1.717  0.00  0.00    -0.040 C 
ATOM      4  C   LIG d   1       3.979  -0.382  -1.980  0.00  0.00    -0.050 C 
ATOM      5  C   LIG d   1       4.915  -1.503  -2.442  0.00  0.00    -0.033 C 
ATOM      6  C   LIG d   1       5.667  -1.048  -3.695  0.00  0.00     0.038 C 
ATOM      7  H   LIG d   1       4.954  -0.834  -4.490  0.00  0.00     0.051 H 
ATOM      8  H   LIG d   1       6.155   2.160  -2.802  0.00  0.00     0.043 H 
ATOM      9  H   LIG d   1       4.844   1.471  -3.789  0.00  0.00     0.043 H 
ATOM     10  H   LIG d   1       5.513   0.693  -0.913  0.00  0.00     0.028 H 
ATOM     11  H   LIG d   1       4.134   1.696  -1.429  0.00  0.00     0.028 H 
ATOM     12  H   LIG d   1       3.472  -0.685  -1.064  0.00  0.00     0.027 H 
ATOM     13  H   LIG d   1       3.241  -0.182  -2.757  0.00  0.00     0.027 H 
ATOM     14  H   LIG d   1       5.628  -1.730  -1.650  0.00  0.00     0.028 H 
ATOM     15  H   LIG d   1       4.331  -2.394  -2.672  0.00  0.00     0.028 H 
ENDROOT
BRANCH   1  16
ATOM     16  C   LIG d   1       7.283   0.551  -4.529  0.00  0.00     0.061 C 
ATOM     17  H   LIG d   1       6.674   1.062  -5.275  0.00  0.00     0.056 H 
ATOM     18  H   LIG d   1       7.727  -0.341  -4.971  0.00  0.00     0.056 H 
BRANCH  16  19
ATOM     19  C   LIG d   1       8.350   1.452  -4.065  0.00  0.00    -0.084 C 
ATOM     20  C   LIG d   1       9.201   2.171  -3.695  0.00  0.00    -0.067 C 
BRANCH  20  21
ATOM     21  C   LIG d   1      10.269   3.071  -3.231  0.00  0.00     0.123 C 
BRANCH  21  22
ATOM     22  C   LIG d   1      11.436   3.029  -4.220  0.00  0.00    -0.016 C 
ATOM     23  H   LIG d   1      12.078   3.895  -4.060  0.00  0.00     0.030 H 
ATOM     24  H   LIG d   1      11.050   3.047  -5.239  0.00  0.00     0.030 H 
BRANCH  22  25
ATOM     25  C   LIG d   1      12.245   1.749  -4.002  0.00  0.00    -0.062 C 
ATOM     26  H   LIG d   1      11.572   0.938  -3.720  0.00  0.00     0.023 H 
ATOM     27  H   LIG d   1      12.765   1.486  -4.923  0.00  0.00     0.023 H 
ATOM     28  H   LIG d   1      12.972   1.909  -3.206  0.00  0.00     0.023 H 
ENDBRANCH  22  25
ENDBRANCH  21  22
BRANCH  21  29
ATOM     29  C   LIG d   1       9.729   4.499  -3.139  0.00  0.00    -0.025 C 
ATOM     30  H   LIG d   1       8.822   4.507  -2.536  0.00  0.00     0.027 H 
ATOM     31  H   LIG d   1      10.478   5.142  -2.677  0.00  0.00     0.027 H 
ATOM     32  H   LIG d   1       9.503   4.866  -4.140  0.00  0.00     0.027 H 
ENDBRANCH  21  29
BRANCH  21  33
ATOM     33  O   LIG d   1      10.723   2.649  -1.942  0.00  0.00    -0.377 OA
ATOM     34  H   LIG d   1      11.673   2.478  -1.896  0.00  0.00     0.211 HD
ENDBRANCH  21  33
ENDBRANCH  20  21
ENDBRANCH  16  19
ENDBRANCH   1  16
BRANCH   6  35
ATOM     35  C   LIG d   1       6.605  -2.141  -4.141  0.00  0.00    -0.012 A 
ATOM     36  C   LIG d   1       6.407  -2.781  -5.350  0.00  0.00     0.032 A 
ATOM     37  N   LIG d   1       7.226  -3.735  -5.750  0.00  0.00    -0.263 NA
ATOM     38  H   LIG d   1       5.576  -2.495  -5.976  0.00  0.00     0.083 H 
ATOM     39  C   LIG d   1       8.251  -4.121  -5.015  0.00  0.00     0.028 A 
ATOM     40  C   LIG d   1       8.507  -3.531  -3.793  0.00  0.00    -0.043 A 
ATOM     41  H   LIG d   1       8.897  -4.909  -5.373  0.00  0.00     0.083 H 
ATOM     42  C   LIG d   1       7.671  -2.521  -3.341  0.00  0.00    -0.054 A 
ATOM     43  H   LIG d   1       9.349  -3.852  -3.195  0.00  0.00     0.063 H 
ATOM     44  H   LIG d   1       7.848  -2.041  -2.391  0.00  0.00     0.062 H 
ENDBRANCH   6  35
TORSDOF 8
ENDMDL
MODEL 6
REMARK VINA RESULT:      -5.3      2.898      6.494
REMARK  8 active torsions:
REMARK  status: ('A' for Active; 'I' for Inactive)
REMARK    1  A    between atoms: C_1  and  C_2 
REMARK    2  A    between atoms: C_2  and  C_3 
REMARK    3  A    between atoms: C_3  and  C_4 
REMARK    4  A    between atoms: C_3  and  C_5 
REMARK    5  A    between atoms: C_3  and  O_21 
REMARK    6  A    between atoms: C_6  and  C_7 
REMARK    7  A    between atoms: C_7  and  N_8 
REMARK    8  A    between atoms: C_13  and  C_15 
ROOT
ATOM      1  N   LIG d   1       4.309  -0.824  -5.144  0.00  0.00    -0.284 N 
ATOM      2  C   LIG d   1       3.214   0.115  -4.869  0.00  0.00     0.000 C 
ATOM      3  C   LIG d   1       3.426   0.762  -3.498  0.00  0.00    -0.040 C 
ATOM      4  C   LIG d   1       3.469  -0.330  -2.425  0.00  0.00    -0.050 C 
ATOM      5  C   LIG d   1       4.587  -1.322  -2.762  0.00  0.00    -0.033 C 
ATOM      6  C   LIG d   1       4.340  -1.908  -4.153  0.00  0.00     0.038 C 
ATOM      7  H   LIG d   1       3.387  -2.435  -4.163  0.00  0.00     0.051 H 
ATOM      8  H   LIG d   1       3.197   0.889  -5.637  0.00  0.00     0.043 H 
ATOM      9  H   LIG d   1       2.266  -0.422  -4.874  0.00  0.00     0.043 H 
ATOM     10  H   LIG d   1       4.368   1.311  -3.496  0.00  0.00     0.028 H 
ATOM     11  H   LIG d   1       2.605   1.447  -3.287  0.00  0.00     0.028 H 
ATOM     12  H   LIG d   1       3.663   0.123  -1.453  0.00  0.00     0.027 H 
ATOM     13  H   LIG d   1       2.514  -0.854  -2.401  0.00  0.00     0.027 H 
ATOM     14  H   LIG d   1       5.546  -0.805  -2.748  0.00  0.00     0.028 H 
ATOM     15  H   LIG d   1       4.595  -2.125  -2.025  0.00  0.00     0.028 H 
ENDROOT
BRANCH   1  16
ATOM     16  C   LIG d   1       4.213  -1.359  -6.508  0.00  0.00     0.061 C 
ATOM     17  H   LIG d   1       3.186  -1.668  -6.706  0.00  0.00     0.056 H 
ATOM     18  H   LIG d   1       4.876  -2.219  -6.609  0.00  0.00     0.056 H 
BRANCH  16  19
ATOM     19  C   LIG d   1       4.608  -0.320  -7.472  0.00  0.00    -0.084 C 
ATOM     20  C   LIG d   1       4.922   0.509  -8.242  0.00  0.00    -0.067 C 
BRANCH  20  21
ATOM     21  C   LIG d   1       5.318   1.549  -9.206  0.00  0.00     0.123 C 
BRANCH  21  22
ATOM     22  C   LIG d   1       4.296   2.688  -9.174  0.00  0.00    -0.016 C 
ATOM     23  H   LIG d   1       4.393   3.287 -10.079  0.00  0.00     0.030 H 
ATOM     24  H   LIG d   1       4.479   3.316  -8.302  0.00  0.00     0.030 H 
BRANCH  22  25
ATOM     25  C   LIG d   1       2.884   2.106  -9.096  0.00  0.00    -0.062 C 
ATOM     26  H   LIG d   1       2.371   2.269 -10.045  0.00  0.00     0.023 H 
ATOM     27  H   LIG d   1       2.942   1.036  -8.893  0.00  0.00     0.023 H 
ATOM     28  H   LIG d   1       2.332   2.599  -8.296  0.00  0.00     0.023 H 
ENDBRANCH  22  25
ENDBRANCH  21  22
BRANCH  21  29
ATOM     29  C   LIG d   1       6.698   2.091  -8.834  0.00  0.00    -0.025 C 
ATOM     30  H   LIG d   1       6.955   1.771  -7.824  0.00  0.00     0.027 H 
ATOM     31  H   LIG d   1       7.440   1.708  -9.535  0.00  0.00     0.027 H 
ATOM     32  H   LIG d   1       6.685   3.180  -8.878  0.00  0.00     0.027 H 
ENDBRANCH  21  29
BRANCH  21  33
ATOM     33  O   LIG d   1       5.363   0.988 -10.520  0.00  0.00    -0.377 OA
ATOM     34  H   LIG d   1       5.259   0.027 -10.541  0.00  0.00     0.211 HD
ENDBRANCH  21  33
ENDBRANCH  20  21
ENDBRANCH  16  19
ENDBRANCH   1  16
BRANCH   6  35
ATOM     35  C   LIG d   1       5.449  -2.869  -4.496  0.00  0.00    -0.012 A 
ATOM     36  C   LIG d   1       5.164  -4.077  -5.105  0.00  0.00     0.032 A 
ATOM     37  N   LIG d   1       6.130  -4.921  -5.413  0.00  0.00    -0.263 NA
ATOM     38  H   LIG d   1       4.140  -4.331  -5.335  0.00  0.00     0.083 H 
ATOM     39  C   LIG d   1       7.394  -4.656  -5.145  0.00  0.00     0.028 A 
ATOM     40  C   LIG d   1       7.753  -3.471  -4.533  0.00  0.00    -0.043 A 
ATOM     41  H   LIG d   1       8.156  -5.374  -5.408  0.00  0.00     0.083 H 
ATOM     42  C   LIG d   1       6.767  -2.556  -4.199  0.00  0.00    -0.054 A 
ATOM     43  H   LIG d   1       8.791  -3.260  -4.317  0.00  0.00     0.063 H 
ATOM     44  H   LIG d   1       7.018  -1.621  -3.721  0.00  0.00     0.062 H 
ENDBRANCH   6  35
TORSDOF 8
ENDMDL
MODEL 7
REMARK VINA RESULT:      -5.2      3.148      6.204
REMARK  8 active torsions:
REMARK  status: ('A' for Active; 'I' for Inactive)
REMARK    1  A    between atoms: C_1  and  C_2 
REMARK    2  A    between atoms: C_2  and  C_3 
REMARK    3  A    between atoms: C_3  and  C_4 
REMARK    4  A    between atoms: C_3  and  C_5 
REMARK    5  A    between atoms: C_3  and  O_21 
REMARK    6  A    between atoms: C_6  and  C_7 
REMARK    7  A    between atoms: C_7  and  N_8 
REMARK    8  A    between atoms: C_13  and  C_15 
ROOT
ATOM      1  N   LIG d   1       5.018  -0.635  -4.869  0.00  0.00    -0.284 N 
ATOM      2  C   LIG d   1       3.839  -1.467  -4.600  0.00  0.00     0.000 C 
ATOM      3  C   LIG d   1       3.133  -0.960  -3.340  0.00  0.00    -0.040 C 
ATOM      4  C   LIG d   1       4.104  -1.019  -2.157  0.00  0.00    -0.050 C 
ATOM      5  C   LIG d   1       5.345  -0.183  -2.484  0.00  0.00    -0.033 C 
ATOM      6  C   LIG d   1       5.987  -0.713  -3.768  0.00  0.00     0.038 C 
ATOM      7  H   LIG d   1       6.288  -1.750  -3.623  0.00  0.00     0.051 H 
ATOM      8  H   LIG d   1       3.155  -1.413  -5.447  0.00  0.00     0.043 H 
ATOM      9  H   LIG d   1       4.151  -2.500  -4.450  0.00  0.00     0.043 H 
ATOM     10  H   LIG d   1       2.808   0.069  -3.493  0.00  0.00     0.028 H 
ATOM     11  H   LIG d   1       2.267  -1.589  -3.131  0.00  0.00     0.028 H 
ATOM     12  H   LIG d   1       3.618  -0.619  -1.267  0.00  0.00     0.027 H 
ATOM     13  H   LIG d   1       4.398  -2.053  -1.979  0.00  0.00     0.027 H 
ATOM     14  H   LIG d   1       5.055   0.858  -2.623  0.00  0.00     0.028 H 
ATOM     15  H   LIG d   1       6.059  -0.256  -1.663  0.00  0.00     0.028 H 
ENDROOT
BRANCH   1  16
ATOM     16  C   LIG d   1       5.643  -1.004  -6.147  0.00  0.00     0.061 C 
ATOM     17  H   LIG d   1       5.360  -2.025  -6.407  0.00  0.00     0.056 H 
ATOM     18  H   LIG d   1       6.727  -0.940  -6.053  0.00  0.00     0.056 H 
BRANCH  16  19
ATOM     19  C   LIG d   1       5.185  -0.085  -7.200  0.00  0.00    -0.084 C 
ATOM     20  C   LIG d   1       4.820   0.649  -8.041  0.00  0.00    -0.067 C 
BRANCH  20  21
ATOM     21  C   LIG d   1       4.363   1.569  -9.096  0.00  0.00     0.123 C 
BRANCH  21  22
ATOM     22  C   LIG d   1       4.178   0.794 -10.402  0.00  0.00    -0.016 C 
ATOM     23  H   LIG d   1       4.998   0.087 -10.524  0.00  0.00     0.030 H 
ATOM     24  H   LIG d   1       4.171   1.490 -11.241  0.00  0.00     0.030 H 
BRANCH  22  25
ATOM     25  C   LIG d   1       2.851   0.033 -10.360  0.00  0.00    -0.062 C 
ATOM     26  H   LIG d   1       2.235   0.330 -11.210  0.00  0.00     0.023 H 
ATOM     27  H   LIG d   1       3.044  -1.039 -10.409  0.00  0.00     0.023 H 
ATOM     28  H   LIG d   1       2.328   0.267  -9.433  0.00  0.00     0.023 H 
ENDBRANCH  22  25
ENDBRANCH  21  22
BRANCH  21  29
ATOM     29  C   LIG d   1       3.032   2.198  -8.683  0.00  0.00    -0.025 C 
ATOM     30  H   LIG d   1       2.225   1.483  -8.847  0.00  0.00     0.027 H 
ATOM     31  H   LIG d   1       3.070   2.468  -7.628  0.00  0.00     0.027 H 
ATOM     32  H   LIG d   1       2.852   3.092  -9.281  0.00  0.00     0.027 H 
ENDBRANCH  21  29
BRANCH  21  33
ATOM     33  O   LIG d   1       5.338   2.597  -9.287  0.00  0.00    -0.377 OA
ATOM     34  H   LIG d   1       4.966   3.486  -9.344  0.00  0.00     0.211 HD
ENDBRANCH  21  33
ENDBRANCH  20  21
ENDBRANCH  16  19
ENDBRANCH   1  16
BRANCH   6  35
ATOM     35  C   LIG d   1       7.197   0.120  -4.103  0.00  0.00    -0.012 A 
ATOM     36  C   LIG d   1       8.291  -0.454  -4.725  0.00  0.00     0.032 A 
ATOM     37  N   LIG d   1       9.351   0.270  -5.027  0.00  0.00    -0.263 NA
ATOM     38  H   LIG d   1       8.274  -1.505  -4.971  0.00  0.00     0.083 H 
ATOM     39  C   LIG d   1       9.418   1.556  -4.740  0.00  0.00     0.028 A 
ATOM     40  C   LIG d   1       8.366   2.195  -4.114  0.00  0.00    -0.043 A 
ATOM     41  H   LIG d   1      10.305   2.114  -4.998  0.00  0.00     0.083 H 
ATOM     42  C   LIG d   1       7.231   1.469  -3.785  0.00  0.00    -0.054 A 
ATOM     43  H   LIG d   1       8.427   3.249  -3.881  0.00  0.00     0.063 H 
ATOM     44  H   LIG d   1       6.394   1.942  -3.297  0.00  0.00     0.062 H 
ENDBRANCH   6  35
TORSDOF 8
ENDMDL
MODEL 8
REMARK VINA RESULT:      -5.2      2.711      6.421
REMARK  8 active torsions:
REMARK  status: ('A' for Active; 'I' for Inactive)
REMARK    1  A    between atoms: C_1  and  C_2 
REMARK    2  A    between atoms: C_2  and  C_3 
REMARK    3  A    between atoms: C_3  and  C_4 
REMARK    4  A    between atoms: C_3  and  C_5 
REMARK    5  A    between atoms: C_3  and  O_21 
REMARK    6  A    between atoms: C_6  and  C_7 
REMARK    7  A    between atoms: C_7  and  N_8 
REMARK    8  A    between atoms: C_13  and  C_15 
ROOT
ATOM      1  N   LIG d   1       5.055  -0.562  -4.527  0.00  0.00    -0.284 N 
ATOM      2  C   LIG d   1       3.813   0.221  -4.522  0.00  0.00     0.000 C 
ATOM      3  C   LIG d   1       3.187   0.178  -3.127  0.00  0.00    -0.040 C 
ATOM      4  C   LIG d   1       2.897  -1.277  -2.747  0.00  0.00    -0.050 C 
ATOM      5  C   LIG d   1       4.199  -2.081  -2.807  0.00  0.00    -0.033 C 
ATOM      6  C   LIG d   1       4.795  -1.973  -4.212  0.00  0.00     0.038 C 
ATOM      7  H   LIG d   1       4.093  -2.383  -4.938  0.00  0.00     0.051 H 
ATOM      8  H   LIG d   1       4.034   1.254  -4.790  0.00  0.00     0.043 H 
ATOM      9  H   LIG d   1       3.116  -0.200  -5.246  0.00  0.00     0.043 H 
ATOM     10  H   LIG d   1       3.878   0.612  -2.404  0.00  0.00     0.028 H 
ATOM     11  H   LIG d   1       2.256   0.746  -3.127  0.00  0.00     0.028 H 
ATOM     12  H   LIG d   1       2.490  -1.315  -1.736  0.00  0.00     0.027 H 
ATOM     13  H   LIG d   1       2.176  -1.699  -3.447  0.00  0.00     0.027 H 
ATOM     14  H   LIG d   1       4.905  -1.683  -2.079  0.00  0.00     0.028 H 
ATOM     15  H   LIG d   1       3.991  -3.127  -2.579  0.00  0.00     0.028 H 
ENDROOT
BRANCH   1  16
ATOM     16  C   LIG d   1       5.756  -0.430  -5.811  0.00  0.00     0.061 C 
ATOM     17  H   LIG d   1       6.643  -1.065  -5.808  0.00  0.00     0.056 H 
ATOM     18  H   LIG d   1       6.054   0.609  -5.957  0.00  0.00     0.056 H 
BRANCH  16  19
ATOM     19  C   LIG d   1       4.861  -0.842  -6.904  0.00  0.00    -0.084 C 
ATOM     20  C   LIG d   1       4.147  -1.170  -7.776  0.00  0.00    -0.067 C 
BRANCH  20  21
ATOM     21  C   LIG d   1       3.252  -1.583  -8.869  0.00  0.00     0.123 C 
BRANCH  21  22
ATOM     22  C   LIG d   1       2.067  -0.617  -8.950  0.00  0.00    -0.016 C 
ATOM     23  H   LIG d   1       2.425   0.406  -8.841  0.00  0.00     0.030 H 
ATOM     24  H   LIG d   1       1.360  -0.842  -8.152  0.00  0.00     0.030 H 
BRANCH  22  25
ATOM     25  C   LIG d   1       1.374  -0.773 -10.306  0.00  0.00    -0.062 C 
ATOM     26  H   LIG d   1       0.907   0.172 -10.585  0.00  0.00     0.023 H 
ATOM     27  H   LIG d   1       2.109  -1.052 -11.060  0.00  0.00     0.023 H 
ATOM     28  H   LIG d   1       0.611  -1.548 -10.236  0.00  0.00     0.023 H 
ENDBRANCH  22  25
ENDBRANCH  21  22
BRANCH  21  29
ATOM     29  C   LIG d   1       4.018  -1.562 -10.192  0.00  0.00    -0.025 C 
ATOM     30  H   LIG d   1       4.103  -0.535 -10.547  0.00  0.00     0.027 H 
ATOM     31  H   LIG d   1       5.015  -1.977 -10.041  0.00  0.00     0.027 H 
ATOM     32  H   LIG d   1       3.484  -2.159 -10.931  0.00  0.00     0.027 H 
ENDBRANCH  21  29
BRANCH  21  33
ATOM     33  O   LIG d   1       2.770  -2.906  -8.618  0.00  0.00    -0.377 OA
ATOM     34  H   LIG d   1       2.006  -3.155  -9.154  0.00  0.00     0.211 HD
ENDBRANCH  21  33
ENDBRANCH  20  21
ENDBRANCH  16  19
ENDBRANCH   1  16
BRANCH   6  35
ATOM     35  C   LIG d   1       6.087  -2.747  -4.270  0.00  0.00    -0.012 A 
ATOM     36  C   LIG d   1       7.169  -2.361  -3.501  0.00  0.00     0.032 A 
ATOM     37  N   LIG d   1       8.300  -3.037  -3.541  0.00  0.00    -0.263 NA
ATOM     38  H   LIG d   1       7.084  -1.500  -2.855  0.00  0.00     0.083 H 
ATOM     39  C   LIG d   1       8.450  -4.092  -4.319  0.00  0.00     0.028 A 
ATOM     40  C   LIG d   1       7.415  -4.532  -5.120  0.00  0.00    -0.043 A 
ATOM     41  H   LIG d   1       9.394  -4.617  -4.329  0.00  0.00     0.083 H 
ATOM     42  C   LIG d   1       6.207  -3.851  -5.100  0.00  0.00    -0.054 A 
ATOM     43  H   LIG d   1       7.544  -5.398  -5.754  0.00  0.00     0.063 H 
ATOM     44  H   LIG d   1       5.380  -4.173  -5.714  0.00  0.00     0.062 H 
ENDBRANCH   6  35
TORSDOF 8
ENDMDL
MODEL 9
REMARK VINA RESULT:      -5.1      2.966      6.369
REMARK  8 active torsions:
REMARK  status: ('A' for Active; 'I' for Inactive)
REMARK    1  A    between atoms: C_1  and  C_2 
REMARK    2  A    between atoms: C_2  and  C_3 
REMARK    3  A    between atoms: C_3  and  C_4 
REMARK    4  A    between atoms: C_3  and  C_5 
REMARK    5  A    between atoms: C_3  and  O_21 
REMARK    6  A    between atoms: C_6  and  C_7 
REMARK    7  A    between atoms: C_7  and  N_8 
REMARK    8  A    between atoms: C_13  and  C_15 
ROOT
ATOM      1  N   LIG d   1       6.860  -0.688  -5.707  0.00  0.00    -0.284 N 
ATOM      2  C   LIG d   1       7.953  -0.100  -6.491  0.00  0.00     0.000 C 
ATOM      3  C   LIG d   1       9.083   0.330  -5.552  0.00  0.00    -0.040 C 
ATOM      4  C   LIG d   1       8.543   1.352  -4.547  0.00  0.00    -0.050 C 
ATOM      5  C   LIG d   1       7.373   0.730  -3.777  0.00  0.00    -0.033 C 
ATOM      6  C   LIG d   1       6.294   0.289  -4.768  0.00  0.00     0.038 C 
ATOM      7  H   LIG d   1       5.932   1.155  -5.322  0.00  0.00     0.051 H 
ATOM      8  H   LIG d   1       8.331  -0.838  -7.199  0.00  0.00     0.043 H 
ATOM      9  H   LIG d   1       7.583   0.768  -7.036  0.00  0.00     0.043 H 
ATOM     10  H   LIG d   1       9.463  -0.540  -5.017  0.00  0.00     0.028 H 
ATOM     11  H   LIG d   1       9.887   0.782  -6.133  0.00  0.00     0.028 H 
ATOM     12  H   LIG d   1       9.333   1.629  -3.849  0.00  0.00     0.027 H 
ATOM     13  H   LIG d   1       8.198   2.238  -5.079  0.00  0.00     0.027 H 
ATOM     14  H   LIG d   1       7.727  -0.133  -3.215  0.00  0.00     0.028 H 
ATOM     15  H   LIG d   1       6.957   1.468  -3.090  0.00  0.00     0.028 H 
ENDROOT
BRANCH   1  16
ATOM     16  C   LIG d   1       5.819  -1.239  -6.585  0.00  0.00     0.061 C 
ATOM     17  H   LIG d   1       4.972  -1.568  -5.982  0.00  0.00     0.056 H 
ATOM     18  H   LIG d   1       6.222  -2.088  -7.139  0.00  0.00     0.056 H 
BRANCH  16  19
ATOM     19  C   LIG d   1       5.376  -0.203  -7.531  0.00  0.00    -0.084 C 
ATOM     20  C   LIG d   1       5.022   0.624  -8.286  0.00  0.00    -0.067 C 
BRANCH  20  21
ATOM     21  C   LIG d   1       4.578   1.662  -9.231  0.00  0.00     0.123 C 
BRANCH  21  22
ATOM     22  C   LIG d   1       4.386   1.040 -10.616  0.00  0.00    -0.016 C 
ATOM     23  H   LIG d   1       5.264   0.448 -10.873  0.00  0.00     0.030 H 
ATOM     24  H   LIG d   1       4.253   1.831 -11.354  0.00  0.00     0.030 H 
BRANCH  22  25
ATOM     25  C   LIG d   1       3.150   0.138 -10.605  0.00  0.00    -0.062 C 
ATOM     26  H   LIG d   1       2.597   0.293  -9.678  0.00  0.00     0.023 H 
ATOM     27  H   LIG d   1       2.513   0.383 -11.455  0.00  0.00     0.023 H 
ATOM     28  H   LIG d   1       3.461  -0.904 -10.672  0.00  0.00     0.023 H 
ENDBRANCH  22  25
ENDBRANCH  21  22
BRANCH  21  29
ATOM     29  C   LIG d   1       3.253   2.255  -8.751  0.00  0.00    -0.025 C 
ATOM     30  H   LIG d   1       2.472   2.039  -9.480  0.00  0.00     0.027 H 
ATOM     31  H   LIG d   1       2.985   1.817  -7.790  0.00  0.00     0.027 H 
ATOM     32  H   LIG d   1       3.357   3.335  -8.641  0.00  0.00     0.027 H 
ENDBRANCH  21  29
BRANCH  21  33
ATOM     33  O   LIG d   1       5.564   2.693  -9.305  0.00  0.00    -0.377 OA
ATOM     34  H   LIG d   1       5.765   3.108  -8.455  0.00  0.00     0.211 HD
ENDBRANCH  21  33
ENDBRANCH  20  21
ENDBRANCH  16  19
ENDBRANCH   1  16
BRANCH   6  35
ATOM     35  C   LIG d   1       5.150  -0.341  -4.016  0.00  0.00    -0.012 A 
ATOM     36  C   LIG d   1       3.859   0.120  -4.191  0.00  0.00     0.032 A 
ATOM     37  N   LIG d   1       2.852  -0.430  -3.541  0.00  0.00    -0.263 NA
ATOM     38  H   LIG d   1       3.672   0.937  -4.872  0.00  0.00     0.083 H 
ATOM     39  C   LIG d   1       3.035  -1.425  -2.695  0.00  0.00     0.028 A 
ATOM     40  C   LIG d   1       4.298  -1.935  -2.465  0.00  0.00    -0.043 A 
ATOM     41  H   LIG d   1       2.187  -1.847  -2.177  0.00  0.00     0.083 H 
ATOM     42  C   LIG d   1       5.381  -1.386  -3.134  0.00  0.00    -0.054 A 
ATOM     43  H   LIG d   1       4.441  -2.751  -1.771  0.00  0.00     0.063 H 
ATOM     44  H   LIG d   1       6.379  -1.764  -2.975  0.00  0.00     0.062 H 
ENDBRANCH   6  35
TORSDOF 8
ENDMDL
MODEL 10
REMARK VINA RESULT:      -5.1      2.304      3.886
REMARK  8 active torsions:
REMARK  status: ('A' for Active; 'I' for Inactive)
REMARK    1  A    between atoms: C_1  and  C_2 
REMARK    2  A    between atoms: C_2  and  C_3 
REMARK    3  A    between atoms: C_3  and  C_4 
REMARK    4  A    between atoms: C_3  and  C_5 
REMARK    5  A    between atoms: C_3  and  O_21 
REMARK    6  A    between atoms: C_6  and  C_7 
REMARK    7  A    between atoms: C_7  and  N_8 
REMARK    8  A    between atoms: C_13  and  C_15 
ROOT
ATOM      1  N   LIG d   1       4.383  -0.286  -8.256  0.00  0.00    -0.284 N 
ATOM      2  C   LIG d   1       2.958   0.005  -8.052  0.00  0.00     0.000 C 
ATOM      3  C   LIG d   1       2.442   0.867  -9.207  0.00  0.00    -0.040 C 
ATOM      4  C   LIG d   1       3.246   2.170  -9.263  0.00  0.00    -0.050 C 
ATOM      5  C   LIG d   1       4.732   1.837  -9.427  0.00  0.00    -0.033 C 
ATOM      6  C   LIG d   1       5.181   0.947  -8.266  0.00  0.00     0.038 C 
ATOM      7  H   LIG d   1       5.040   1.477  -7.325  0.00  0.00     0.051 H 
ATOM      8  H   LIG d   1       2.398  -0.929  -8.018  0.00  0.00     0.043 H 
ATOM      9  H   LIG d   1       2.828   0.540  -7.113  0.00  0.00     0.043 H 
ATOM     10  H   LIG d   1       2.559   0.327 -10.146  0.00  0.00     0.028 H 
ATOM     11  H   LIG d   1       1.389   1.097  -9.047  0.00  0.00     0.028 H 
ATOM     12  H   LIG d   1       2.910   2.768 -10.110  0.00  0.00     0.027 H 
ATOM     13  H   LIG d   1       3.098   2.729  -8.339  0.00  0.00     0.027 H 
ATOM     14  H   LIG d   1       4.885   1.312 -10.369  0.00  0.00     0.028 H 
ATOM     15  H   LIG d   1       5.314   2.759  -9.425  0.00  0.00     0.028 H 
ENDROOT
BRANCH   1  16
ATOM     16  C   LIG d   1       4.878  -1.226  -7.242  0.00  0.00     0.061 C 
ATOM     17  H   LIG d   1       5.957  -1.345  -7.354  0.00  0.00     0.056 H 
ATOM     18  H   LIG d   1       4.391  -2.192  -7.373  0.00  0.00     0.056 H 
BRANCH  16  19
ATOM     19  C   LIG d   1       4.579  -0.703  -5.900  0.00  0.00    -0.084 C 
ATOM     20  C   LIG d   1       4.340  -0.286  -4.829  0.00  0.00    -0.067 C 
BRANCH  20  21
ATOM     21  C   LIG d   1       4.040   0.238  -3.486  0.00  0.00     0.123 C 
BRANCH  21  22
ATOM     22  C   LIG d   1       3.089  -0.720  -2.766  0.00  0.00    -0.016 C 
ATOM     23  H   LIG d   1       2.244  -0.948  -3.414  0.00  0.00     0.030 H 
ATOM     24  H   LIG d   1       2.728  -0.254  -1.849  0.00  0.00     0.030 H 
BRANCH  22  25
ATOM     25  C   LIG d   1       3.831  -2.014  -2.423  0.00  0.00    -0.062 C 
ATOM     26  H   LIG d   1       3.693  -2.242  -1.366  0.00  0.00     0.023 H 
ATOM     27  H   LIG d   1       3.435  -2.831  -3.026  0.00  0.00     0.023 H 
ATOM     28  H   LIG d   1       4.893  -1.889  -2.632  0.00  0.00     0.023 H 
ENDBRANCH  22  25
ENDBRANCH  21  22
BRANCH  21  29
ATOM     29  C   LIG d   1       5.337   0.366  -2.686  0.00  0.00    -0.025 C 
ATOM     30  H   LIG d   1       5.756   1.363  -2.828  0.00  0.00     0.027 H 
ATOM     31  H   LIG d   1       5.129   0.206  -1.629  0.00  0.00     0.027 H 
ATOM     32  H   LIG d   1       6.053  -0.380  -3.033  0.00  0.00     0.027 H 
ENDBRANCH  21  29
BRANCH  21  33
ATOM     33  O   LIG d   1       3.423   1.522  -3.603  0.00  0.00    -0.377 OA
ATOM     34  H   LIG d   1       3.214   1.777  -4.511  0.00  0.00     0.211 HD
ENDBRANCH  21  33
ENDBRANCH  20  21
ENDBRANCH  16  19
ENDBRANCH   1  16
BRANCH   6  35
ATOM     35  C   LIG d   1       6.638   0.601  -8.434  0.00  0.00    -0.012 A 
ATOM     36  C   LIG d   1       7.557   0.953  -7.464  0.00  0.00     0.032 A 
ATOM     37  N   LIG d   1       8.833   0.648  -7.602  0.00  0.00    -0.263 NA
ATOM     38  H   LIG d   1       7.227   1.479  -6.581  0.00  0.00     0.083 H 
ATOM     39  C   LIG d   1       9.283   0.012  -8.666  0.00  0.00     0.028 A 
ATOM     40  C   LIG d   1       8.424  -0.366  -9.679  0.00  0.00    -0.043 A 
ATOM     41  H   LIG d   1      10.336  -0.215  -8.746  0.00  0.00     0.083 H 
ATOM     42  C   LIG d   1       7.074  -0.069  -9.568  0.00  0.00    -0.054 A 
ATOM     43  H   LIG d   1       8.799  -0.888 -10.548  0.00  0.00     0.063 H 
ATOM     44  H   LIG d   1       6.379  -0.353 -10.343  0.00  0.00     0.062 H 
ENDBRANCH   6  35
TORSDOF 8
ENDMDL
