MODEL 1
REMARK VINA RESULT:      -6.2      0.000      0.000
REMARK  4 active torsions:
REMARK  status: ('A' for Active; 'I' for Inactive)
REMARK    1  A    between atoms: C_1  and  N_2 
REMARK    2  A    between atoms: C_6  and  C_8 
REMARK    3  A    between atoms: C_10  and  C_13 
REMARK    4  A    between atoms: C_16  and  N_19 
ROOT
ATOM      1  C   LIG d   1       3.305  -0.604  -8.550  0.00  0.00     0.086 A 
ATOM      2  C   LIG d   1       1.966  -0.352  -8.869  0.00  0.00    -0.038 A 
ATOM      3  C   LIG d   1       1.523  -0.670 -10.137  0.00  0.00     0.027 A 
ATOM      4  C   LIG d   1       2.416  -1.225 -11.050  0.00  0.00     0.272 A 
ATOM      5  N   LIG d   1       3.678  -1.450 -10.715  0.00  0.00    -0.198 N 
ATOM      6  C   LIG d   1       4.140  -1.155  -9.517  0.00  0.00     0.182 A 
ATOM      7  H   LIG d   1       1.295   0.079  -8.141  0.00  0.00     0.063 H 
ATOM      8  H   LIG d   1       0.496  -0.490 -10.419  0.00  0.00     0.070 H 
ATOM      9  H   LIG d   1       5.176  -1.349  -9.281  0.00  0.00     0.138 H 
ATOM     10  H   LIG d   1       4.278  -1.838 -11.371  0.00  0.00     0.454 HD
ENDROOT
BRANCH   1  11
ATOM     11  C   LIG d   1       3.830  -0.280  -7.200  0.00  0.00     0.208 A 
ATOM     12  N   LIG d   1       3.095  -0.167  -6.079  0.00  0.00    -0.186 NA
ATOM     13  C   LIG d   1       3.864   0.124  -5.069  0.00  0.00     0.276 A 
ATOM     14  O   LIG d   1       5.126   0.215  -5.508  0.00  0.00    -0.332 OA
ATOM     15  N   LIG d   1       5.086  -0.058  -6.901  0.00  0.00    -0.056 NA
BRANCH  13  16
ATOM     16  C   LIG d   1       3.410   0.331  -3.648  0.00  0.00     0.059 C 
ATOM     17  N   LIG d   1       3.547  -0.925  -2.888  0.00  0.00     0.242 N 
ATOM     18  C   LIG d   1       4.501  -0.705  -1.781  0.00  0.00    -0.031 C 
ATOM     19  H   LIG d   1       2.650  -1.195  -2.513  0.00  0.00     0.204 HD
ATOM     20  C   LIG d   1       4.458   0.821  -1.519  0.00  0.00    -0.007 C 
ATOM     21  H   LIG d   1       4.185  -1.252  -0.894  0.00  0.00     0.081 H 
ATOM     22  H   LIG d   1       5.505  -1.010  -2.079  0.00  0.00     0.081 H 
ATOM     23  C   LIG d   1       4.305   1.382  -2.957  0.00  0.00     0.004 C 
ATOM     24  H   LIG d   1       3.599   1.087  -0.903  0.00  0.00     0.032 H 
ATOM     25  H   LIG d   1       5.386   1.166  -1.062  0.00  0.00     0.032 H 
ATOM     26  H   LIG d   1       3.815   2.356  -2.941  0.00  0.00     0.033 H 
ATOM     27  H   LIG d   1       5.274   1.446  -3.451  0.00  0.00     0.033 H 
ATOM     28  H   LIG d   1       2.371   0.662  -3.631  0.00  0.00     0.095 H 
BRANCH  17  29
ATOM     29  C   LIG d   1       4.052  -1.984  -3.773  0.00  0.00    -0.042 C 
ATOM     30  H   LIG d   1       4.936  -2.439  -3.327  0.00  0.00     0.078 H 
ATOM     31  H   LIG d   1       3.282  -2.742  -3.909  0.00  0.00     0.078 H 
ATOM     32  H   LIG d   1       4.314  -1.555  -4.741  0.00  0.00     0.078 H 
ENDBRANCH  17  29
ENDBRANCH  13  16
ENDBRANCH   1  11
BRANCH   4  33
ATOM     33  N   LIG d   1       1.979  -1.548 -12.328  0.00  0.00    -0.274 N 
ATOM     34  C   LIG d   1       0.563  -1.853 -12.587  0.00  0.00     0.041 C 
ATOM     35  C   LIG d   1       0.483  -3.171 -13.360  0.00  0.00     0.064 C 
ATOM     36  H   LIG d   1       0.028  -1.950 -11.643  0.00  0.00     0.049 H 
ATOM     37  H   LIG d   1       0.118  -1.056 -13.182  0.00  0.00     0.049 H 
ATOM     38  O   LIG d   1       1.339  -3.102 -14.502  0.00  0.00    -0.377 OA
ATOM     39  H   LIG d   1      -0.544  -3.343 -13.683  0.00  0.00     0.058 H 
ATOM     40  H   LIG d   1       0.803  -3.988 -12.713  0.00  0.00     0.058 H 
ATOM     41  C   LIG d   1       2.723  -2.934 -14.187  0.00  0.00     0.064 C 
ATOM     42  C   LIG d   1       2.917  -1.599 -13.460  0.00  0.00     0.041 C 
ATOM     43  H   LIG d   1       3.308  -2.937 -15.107  0.00  0.00     0.058 H 
ATOM     44  H   LIG d   1       3.052  -3.751 -13.544  0.00  0.00     0.058 H 
ATOM     45  H   LIG d   1       2.713  -0.775 -14.143  0.00  0.00     0.049 H 
ATOM     46  H   LIG d   1       3.940  -1.528 -13.091  0.00  0.00     0.049 H 
ENDBRANCH   4  33
TORSDOF 4
ENDMDL
MODEL 2
REMARK VINA RESULT:      -5.8      1.631      2.237
REMARK  4 active torsions:
REMARK  status: ('A' for Active; 'I' for Inactive)
REMARK    1  A    between atoms: C_1  and  N_2 
REMARK    2  A    between atoms: C_6  and  C_8 
REMARK    3  A    between atoms: C_10  and  C_13 
REMARK    4  A    between atoms: C_16  and  N_19 
ROOT
ATOM      1  C   LIG d   1       2.940  -1.327  -8.828  0.00  0.00     0.086 A 
ATOM      2  C   LIG d   1       2.032  -0.491  -9.489  0.00  0.00    -0.038 A 
ATOM      3  C   LIG d   1       1.281  -1.021 -10.517  0.00  0.00     0.027 A 
ATOM      4  C   LIG d   1       1.449  -2.360 -10.863  0.00  0.00     0.272 A 
ATOM      5  N   LIG d   1       2.317  -3.123 -10.217  0.00  0.00    -0.198 N 
ATOM      6  C   LIG d   1       3.057  -2.653  -9.233  0.00  0.00     0.182 A 
ATOM      7  H   LIG d   1       1.922   0.543  -9.199  0.00  0.00     0.063 H 
ATOM      8  H   LIG d   1       0.570  -0.406 -11.049  0.00  0.00     0.070 H 
ATOM      9  H   LIG d   1       3.759  -3.305  -8.733  0.00  0.00     0.138 H 
ATOM     10  H   LIG d   1       2.415  -4.053 -10.478  0.00  0.00     0.454 HD
ENDROOT
BRANCH   1  11
ATOM     11  C   LIG d   1       3.771  -0.804  -7.715  0.00  0.00     0.208 A 
ATOM     12  N   LIG d   1       3.702  -1.201  -6.432  0.00  0.00    -0.186 NA
ATOM     13  C   LIG d   1       4.569  -0.544  -5.715  0.00  0.00     0.276 A 
ATOM     14  O   LIG d   1       5.225   0.306  -6.515  0.00  0.00    -0.332 OA
ATOM     15  N   LIG d   1       4.695   0.118  -7.819  0.00  0.00    -0.056 NA
BRANCH  13  16
ATOM     16  C   LIG d   1       4.792  -0.709  -4.234  0.00  0.00     0.059 C 
ATOM     17  N   LIG d   1       3.748   0.015  -3.486  0.00  0.00     0.242 N 
ATOM     18  C   LIG d   1       2.985  -0.961  -2.679  0.00  0.00    -0.031 C 
ATOM     19  H   LIG d   1       4.176   0.695  -2.877  0.00  0.00     0.204 HD
ATOM     20  C   LIG d   1       3.954  -2.152  -2.479  0.00  0.00    -0.007 C 
ATOM     21  H   LIG d   1       2.712  -0.527  -1.717  0.00  0.00     0.081 H 
ATOM     22  H   LIG d   1       2.093  -1.283  -3.217  0.00  0.00     0.081 H 
ATOM     23  C   LIG d   1       4.681  -2.200  -3.848  0.00  0.00     0.004 C 
ATOM     24  H   LIG d   1       4.657  -1.953  -1.670  0.00  0.00     0.032 H 
ATOM     25  H   LIG d   1       3.404  -3.076  -2.297  0.00  0.00     0.032 H 
ATOM     26  H   LIG d   1       5.670  -2.646  -3.745  0.00  0.00     0.033 H 
ATOM     27  H   LIG d   1       4.086  -2.743  -4.582  0.00  0.00     0.033 H 
ATOM     28  H   LIG d   1       5.776  -0.328  -3.959  0.00  0.00     0.095 H 
BRANCH  17  29
ATOM     29  C   LIG d   1       2.845   0.691  -4.427  0.00  0.00    -0.042 C 
ATOM     30  H   LIG d   1       1.870   0.206  -4.407  0.00  0.00     0.078 H 
ATOM     31  H   LIG d   1       2.737   1.737  -4.139  0.00  0.00     0.078 H 
ATOM     32  H   LIG d   1       3.259   0.634  -5.433  0.00  0.00     0.078 H 
ENDBRANCH  17  29
ENDBRANCH  13  16
ENDBRANCH   1  11
BRANCH   4  33
ATOM     33  N   LIG d   1       0.697  -2.901 -11.896  0.00  0.00    -0.274 N 
ATOM     34  C   LIG d   1       0.412  -2.124 -13.112  0.00  0.00     0.041 C 
ATOM     35  C   LIG d   1      -1.092  -2.184 -13.387  0.00  0.00     0.064 C 
ATOM     36  H   LIG d   1       0.716  -1.088 -12.966  0.00  0.00     0.049 H 
ATOM     37  H   LIG d   1       0.953  -2.550 -13.957  0.00  0.00     0.049 H 
ATOM     38  O   LIG d   1      -1.518  -3.548 -13.389  0.00  0.00    -0.377 OA
ATOM     39  H   LIG d   1      -1.304  -1.733 -14.357  0.00  0.00     0.058 H 
ATOM     40  H   LIG d   1      -1.623  -1.638 -12.607  0.00  0.00     0.058 H 
ATOM     41  C   LIG d   1      -1.337  -4.220 -12.141  0.00  0.00     0.064 C 
ATOM     42  C   LIG d   1       0.158  -4.267 -11.806  0.00  0.00     0.041 C 
ATOM     43  H   LIG d   1      -1.726  -5.235 -12.216  0.00  0.00     0.058 H 
ATOM     44  H   LIG d   1      -1.869  -3.682 -11.357  0.00  0.00     0.058 H 
ATOM     45  H   LIG d   1       0.674  -4.913 -12.516  0.00  0.00     0.049 H 
ATOM     46  H   LIG d   1       0.295  -4.649 -10.794  0.00  0.00     0.049 H 
ENDBRANCH   4  33
TORSDOF 4
ENDMDL
MODEL 3
REMARK VINA RESULT:      -5.7      6.742     10.570
REMARK  4 active torsions:
REMARK  status: ('A' for Active; 'I' for Inactive)
REMARK    1  A    between atoms: C_1  and  N_2 
REMARK    2  A    between atoms: C_6  and  C_8 
REMARK    3  A    between atoms: C_10  and  C_13 
REMARK    4  A    between atoms: C_16  and  N_19 
ROOT
ATOM      1  C   LIG d   1       8.844   2.818  -4.291  0.00  0.00     0.086 A 
ATOM      2  C   LIG d   1       9.041   3.614  -5.425  0.00  0.00    -0.038 A 
ATOM      3  C   LIG d   1      10.078   4.524  -5.414  0.00  0.00     0.027 A 
ATOM      4  C   LIG d   1      10.888   4.622  -4.285  0.00  0.00     0.272 A 
ATOM      5  N   LIG d   1      10.673   3.852  -3.228  0.00  0.00    -0.198 N 
ATOM      6  C   LIG d   1       9.690   2.975  -3.197  0.00  0.00     0.182 A 
ATOM      7  H   LIG d   1       8.399   3.518  -6.287  0.00  0.00     0.063 H 
ATOM      8  H   LIG d   1      10.261   5.155  -6.272  0.00  0.00     0.070 H 
ATOM      9  H   LIG d   1       9.543   2.368  -2.315  0.00  0.00     0.138 H 
ATOM     10  H   LIG d   1      11.252   3.940  -2.455  0.00  0.00     0.454 HD
ENDROOT
BRANCH   1  11
ATOM     11  C   LIG d   1       7.743   1.824  -4.252  0.00  0.00     0.208 A 
ATOM     12  N   LIG d   1       7.199   1.300  -3.139  0.00  0.00    -0.186 NA
ATOM     13  C   LIG d   1       6.254   0.460  -3.458  0.00  0.00     0.276 A 
ATOM     14  O   LIG d   1       6.162   0.411  -4.793  0.00  0.00    -0.332 OA
ATOM     15  N   LIG d   1       7.138   1.312  -5.295  0.00  0.00    -0.056 NA
BRANCH  13  16
ATOM     16  C   LIG d   1       5.413  -0.327  -2.488  0.00  0.00     0.059 C 
ATOM     17  N   LIG d   1       4.132   0.365  -2.257  0.00  0.00     0.242 N 
ATOM     18  C   LIG d   1       3.033  -0.516  -2.703  0.00  0.00    -0.031 C 
ATOM     19  H   LIG d   1       4.027   0.565  -1.273  0.00  0.00     0.204 HD
ATOM     20  C   LIG d   1       3.618  -1.948  -2.628  0.00  0.00    -0.007 C 
ATOM     21  H   LIG d   1       2.176  -0.421  -2.038  0.00  0.00     0.081 H 
ATOM     22  H   LIG d   1       2.746  -0.276  -3.728  0.00  0.00     0.081 H 
ATOM     23  C   LIG d   1       5.083  -1.713  -3.083  0.00  0.00     0.004 C 
ATOM     24  H   LIG d   1       3.583  -2.331  -1.609  0.00  0.00     0.032 H 
ATOM     25  H   LIG d   1       3.100  -2.619  -3.314  0.00  0.00     0.032 H 
ATOM     26  H   LIG d   1       5.742  -2.477  -2.671  0.00  0.00     0.033 H 
ATOM     27  H   LIG d   1       5.149  -1.690  -4.170  0.00  0.00     0.033 H 
ATOM     28  H   LIG d   1       5.945  -0.448  -1.543  0.00  0.00     0.095 H 
BRANCH  17  29
ATOM     29  C   LIG d   1       4.103   1.619  -3.023  0.00  0.00    -0.042 C 
ATOM     30  H   LIG d   1       5.077   1.786  -3.482  0.00  0.00     0.078 H 
ATOM     31  H   LIG d   1       3.341   1.552  -3.799  0.00  0.00     0.078 H 
ATOM     32  H   LIG d   1       3.869   2.448  -2.355  0.00  0.00     0.078 H 
ENDBRANCH  17  29
ENDBRANCH  13  16
ENDBRANCH   1  11
BRANCH   4  33
ATOM     33  N   LIG d   1      11.934   5.534  -4.267  0.00  0.00    -0.274 N 
ATOM     34  C   LIG d   1      13.325   5.086  -4.092  0.00  0.00     0.041 C 
ATOM     35  C   LIG d   1      13.966   5.915  -2.978  0.00  0.00     0.064 C 
ATOM     36  H   LIG d   1      13.340   4.032  -3.819  0.00  0.00     0.049 H 
ATOM     37  H   LIG d   1      13.878   5.234  -5.019  0.00  0.00     0.049 H 
ATOM     38  O   LIG d   1      13.774   7.304  -3.252  0.00  0.00    -0.377 OA
ATOM     39  H   LIG d   1      15.033   5.696  -2.929  0.00  0.00     0.058 H 
ATOM     40  H   LIG d   1      13.498   5.663  -2.026  0.00  0.00     0.058 H 
ATOM     41  C   LIG d   1      12.405   7.712  -3.282  0.00  0.00     0.064 C 
ATOM     42  C   LIG d   1      11.685   6.976  -4.418  0.00  0.00     0.041 C 
ATOM     43  H   LIG d   1      12.349   8.787  -3.451  0.00  0.00     0.058 H 
ATOM     44  H   LIG d   1      11.931   7.467  -2.331  0.00  0.00     0.058 H 
ATOM     45  H   LIG d   1      12.069   7.316  -5.378  0.00  0.00     0.049 H 
ATOM     46  H   LIG d   1      10.614   7.171  -4.359  0.00  0.00     0.049 H 
ENDBRANCH   4  33
TORSDOF 4
ENDMDL
MODEL 4
REMARK VINA RESULT:      -5.7      6.828     11.620
REMARK  4 active torsions:
REMARK  status: ('A' for Active; 'I' for Inactive)
REMARK    1  A    between atoms: C_1  and  N_2 
REMARK    2  A    between atoms: C_6  and  C_8 
REMARK    3  A    between atoms: C_10  and  C_13 
REMARK    4  A    between atoms: C_16  and  N_19 
ROOT
ATOM      1  C   LIG d   1       9.601   2.909  -3.421  0.00  0.00     0.086 A 
ATOM      2  C   LIG d   1       9.280   4.267  -3.541  0.00  0.00    -0.038 A 
ATOM      3  C   LIG d   1      10.180   5.198  -3.066  0.00  0.00     0.027 A 
ATOM      4  C   LIG d   1      11.369   4.761  -2.486  0.00  0.00     0.272 A 
ATOM      5  N   LIG d   1      11.642   3.468  -2.389  0.00  0.00    -0.198 N 
ATOM      6  C   LIG d   1      10.805   2.548  -2.825  0.00  0.00     0.182 A 
ATOM      7  H   LIG d   1       8.351   4.577  -3.995  0.00  0.00     0.063 H 
ATOM      8  H   LIG d   1       9.966   6.254  -3.142  0.00  0.00     0.070 H 
ATOM      9  H   LIG d   1      11.060   1.503  -2.724  0.00  0.00     0.138 H 
ATOM     10  H   LIG d   1      12.477   3.192  -1.981  0.00  0.00     0.454 HD
ENDROOT
BRANCH   1  11
ATOM     11  C   LIG d   1       8.666   1.869  -3.917  0.00  0.00     0.208 A 
ATOM     12  N   LIG d   1       7.406   1.677  -3.485  0.00  0.00    -0.186 NA
ATOM     13  C   LIG d   1       6.862   0.683  -4.127  0.00  0.00     0.276 A 
ATOM     14  O   LIG d   1       7.758   0.196  -4.995  0.00  0.00    -0.332 OA
ATOM     15  N   LIG d   1       8.928   0.986  -4.848  0.00  0.00    -0.056 NA
BRANCH  13  16
ATOM     16  C   LIG d   1       5.461   0.166  -3.924  0.00  0.00     0.059 C 
ATOM     17  N   LIG d   1       5.507  -1.207  -3.387  0.00  0.00     0.242 N 
ATOM     18  C   LIG d   1       4.856  -1.215  -2.060  0.00  0.00    -0.031 C 
ATOM     19  H   LIG d   1       5.015  -1.831  -4.009  0.00  0.00     0.204 HD
ATOM     20  C   LIG d   1       3.897   0.001  -2.082  0.00  0.00    -0.007 C 
ATOM     21  H   LIG d   1       4.295  -2.138  -1.918  0.00  0.00     0.081 H 
ATOM     22  H   LIG d   1       5.600  -1.098  -1.271  0.00  0.00     0.081 H 
ATOM     23  C   LIG d   1       4.724   1.039  -2.885  0.00  0.00     0.004 C 
ATOM     24  H   LIG d   1       2.969  -0.243  -2.598  0.00  0.00     0.032 H 
ATOM     25  H   LIG d   1       3.698   0.360  -1.071  0.00  0.00     0.032 H 
ATOM     26  H   LIG d   1       4.068   1.755  -3.380  0.00  0.00     0.033 H 
ATOM     27  H   LIG d   1       5.436   1.549  -2.238  0.00  0.00     0.033 H 
ATOM     28  H   LIG d   1       4.917   0.176  -4.869  0.00  0.00     0.095 H 
BRANCH  17  29
ATOM     29  C   LIG d   1       6.905  -1.640  -3.255  0.00  0.00    -0.042 C 
ATOM     30  H   LIG d   1       7.110  -1.891  -2.215  0.00  0.00     0.078 H 
ATOM     31  H   LIG d   1       7.074  -2.515  -3.882  0.00  0.00     0.078 H 
ATOM     32  H   LIG d   1       7.566  -0.833  -3.571  0.00  0.00     0.078 H 
ENDBRANCH  17  29
ENDBRANCH  13  16
ENDBRANCH   1  11
BRANCH   4  33
ATOM     33  N   LIG d   1      12.281   5.691  -2.007  0.00  0.00    -0.274 N 
ATOM     34  C   LIG d   1      13.726   5.413  -2.027  0.00  0.00     0.041 C 
ATOM     35  C   LIG d   1      14.295   5.694  -0.635  0.00  0.00     0.064 C 
ATOM     36  H   LIG d   1      13.896   4.370  -2.288  0.00  0.00     0.049 H 
ATOM     37  H   LIG d   1      14.215   6.059  -2.756  0.00  0.00     0.049 H 
ATOM     38  O   LIG d   1      13.905   7.005  -0.220  0.00  0.00    -0.377 OA
ATOM     39  H   LIG d   1      15.383   5.629  -0.666  0.00  0.00     0.058 H 
ATOM     40  H   LIG d   1      13.906   4.958   0.069  0.00  0.00     0.058 H 
ATOM     41  C   LIG d   1      12.492   7.182  -0.092  0.00  0.00     0.064 C 
ATOM     42  C   LIG d   1      11.832   6.981  -1.460  0.00  0.00     0.041 C 
ATOM     43  H   LIG d   1      12.284   8.189   0.270  0.00  0.00     0.058 H 
ATOM     44  H   LIG d   1      12.097   6.452   0.614  0.00  0.00     0.058 H 
ATOM     45  H   LIG d   1      12.126   7.787  -2.132  0.00  0.00     0.049 H 
ATOM     46  H   LIG d   1      10.748   6.974  -1.346  0.00  0.00     0.049 H 
ENDBRANCH   4  33
TORSDOF 4
ENDMDL
MODEL 5
REMARK VINA RESULT:      -5.7      6.045      8.365
REMARK  4 active torsions:
REMARK  status: ('A' for Active; 'I' for Inactive)
REMARK    1  A    between atoms: C_1  and  N_2 
REMARK    2  A    between atoms: C_6  and  C_8 
REMARK    3  A    between atoms: C_10  and  C_13 
REMARK    4  A    between atoms: C_16  and  N_19 
ROOT
ATOM      1  C   LIG d   1       4.579  -5.536  -6.139  0.00  0.00     0.086 A 
ATOM      2  C   LIG d   1       5.111  -4.863  -5.033  0.00  0.00    -0.038 A 
ATOM      3  C   LIG d   1       5.007  -3.488  -4.990  0.00  0.00     0.027 A 
ATOM      4  C   LIG d   1       4.383  -2.819  -6.040  0.00  0.00     0.272 A 
ATOM      5  N   LIG d   1       3.890  -3.487  -7.072  0.00  0.00    -0.198 N 
ATOM      6  C   LIG d   1       3.975  -4.800  -7.153  0.00  0.00     0.182 A 
ATOM      7  H   LIG d   1       5.590  -5.407  -4.233  0.00  0.00     0.063 H 
ATOM      8  H   LIG d   1       5.405  -2.936  -4.151  0.00  0.00     0.070 H 
ATOM      9  H   LIG d   1       3.566  -5.310  -8.014  0.00  0.00     0.138 H 
ATOM     10  H   LIG d   1       3.460  -2.996  -7.790  0.00  0.00     0.454 HD
ENDROOT
BRANCH   1  11
ATOM     11  C   LIG d   1       4.666  -7.015  -6.234  0.00  0.00     0.208 A 
ATOM     12  N   LIG d   1       4.706  -7.865  -5.192  0.00  0.00    -0.186 NA
ATOM     13  C   LIG d   1       4.779  -9.093  -5.623  0.00  0.00     0.276 A 
ATOM     14  O   LIG d   1       4.795  -9.074  -6.962  0.00  0.00    -0.332 OA
ATOM     15  N   LIG d   1       4.713  -7.709  -7.344  0.00  0.00    -0.056 NA
BRANCH  13  16
ATOM     16  C   LIG d   1       4.844 -10.326  -4.759  0.00  0.00     0.059 C 
ATOM     17  N   LIG d   1       6.250 -10.705  -4.528  0.00  0.00     0.242 N 
ATOM     18  C   LIG d   1       6.524 -10.636  -3.078  0.00  0.00    -0.031 C 
ATOM     19  H   LIG d   1       6.406 -11.645  -4.858  0.00  0.00     0.204 HD
ATOM     20  C   LIG d   1       5.140 -10.811  -2.405  0.00  0.00    -0.007 C 
ATOM     21  H   LIG d   1       7.195 -11.441  -2.780  0.00  0.00     0.081 H 
ATOM     22  H   LIG d   1       6.953  -9.668  -2.818  0.00  0.00     0.081 H 
ATOM     23  C   LIG d   1       4.216 -10.034  -3.379  0.00  0.00     0.004 C 
ATOM     24  H   LIG d   1       4.859 -11.863  -2.356  0.00  0.00     0.032 H 
ATOM     25  H   LIG d   1       5.128 -10.359  -1.412  0.00  0.00     0.032 H 
ATOM     26  H   LIG d   1       3.196 -10.415  -3.330  0.00  0.00     0.033 H 
ATOM     27  H   LIG d   1       4.240  -8.966  -3.164  0.00  0.00     0.033 H 
ATOM     28  H   LIG d   1       4.313 -11.148  -5.240  0.00  0.00     0.095 H 
BRANCH  17  29
ATOM     29  C   LIG d   1       7.135  -9.776  -5.244  0.00  0.00    -0.042 C 
ATOM     30  H   LIG d   1       7.238  -8.856  -4.668  0.00  0.00     0.078 H 
ATOM     31  H   LIG d   1       8.115 -10.235  -5.373  0.00  0.00     0.078 H 
ATOM     32  H   LIG d   1       6.709  -9.547  -6.220  0.00  0.00     0.078 H 
ENDBRANCH  17  29
ENDBRANCH  13  16
ENDBRANCH   1  11
BRANCH   4  33
ATOM     33  N   LIG d   1       4.273  -1.436  -6.003  0.00  0.00    -0.274 N 
ATOM     34  C   LIG d   1       4.216  -0.715  -4.722  0.00  0.00     0.041 C 
ATOM     35  C   LIG d   1       3.020   0.237  -4.751  0.00  0.00     0.064 C 
ATOM     36  H   LIG d   1       4.098  -1.426  -3.905  0.00  0.00     0.049 H 
ATOM     37  H   LIG d   1       5.133  -0.143  -4.581  0.00  0.00     0.049 H 
ATOM     38  O   LIG d   1       3.085   1.041  -5.931  0.00  0.00    -0.377 OA
ATOM     39  H   LIG d   1       3.043   0.879  -3.870  0.00  0.00     0.058 H 
ATOM     40  H   LIG d   1       2.097  -0.343  -4.756  0.00  0.00     0.058 H 
ATOM     41  C   LIG d   1       3.005   0.299  -7.150  0.00  0.00     0.064 C 
ATOM     42  C   LIG d   1       4.206  -0.648  -7.244  0.00  0.00     0.041 C 
ATOM     43  H   LIG d   1       3.016   0.987  -7.995  0.00  0.00     0.058 H 
ATOM     44  H   LIG d   1       2.082  -0.280  -7.164  0.00  0.00     0.058 H 
ATOM     45  H   LIG d   1       5.122  -0.070  -7.361  0.00  0.00     0.049 H 
ATOM     46  H   LIG d   1       4.081  -1.316  -8.096  0.00  0.00     0.049 H 
ENDBRANCH   4  33
TORSDOF 4
ENDMDL
MODEL 6
REMARK VINA RESULT:      -5.5      5.507      9.842
REMARK  4 active torsions:
REMARK  status: ('A' for Active; 'I' for Inactive)
REMARK    1  A    between atoms: C_1  and  N_2 
REMARK    2  A    between atoms: C_6  and  C_8 
REMARK    3  A    between atoms: C_10  and  C_13 
REMARK    4  A    between atoms: C_16  and  N_19 
ROOT
ATOM      1  C   LIG d   1       8.264   1.798  -5.062  0.00  0.00     0.086 A 
ATOM      2  C   LIG d   1       8.933   2.520  -6.057  0.00  0.00    -0.038 A 
ATOM      3  C   LIG d   1       9.835   3.490  -5.669  0.00  0.00     0.027 A 
ATOM      4  C   LIG d   1      10.047   3.718  -4.312  0.00  0.00     0.272 A 
ATOM      5  N   LIG d   1       9.396   3.017  -3.396  0.00  0.00    -0.198 N 
ATOM      6  C   LIG d   1       8.523   2.086  -3.726  0.00  0.00     0.182 A 
ATOM      7  H   LIG d   1       8.749   2.322  -7.102  0.00  0.00     0.063 H 
ATOM      8  H   LIG d   1      10.370   4.066  -6.409  0.00  0.00     0.070 H 
ATOM      9  H   LIG d   1       8.008   1.537  -2.950  0.00  0.00     0.138 H 
ATOM     10  H   LIG d   1       9.563   3.196  -2.457  0.00  0.00     0.454 HD
ENDROOT
BRANCH   1  11
ATOM     11  C   LIG d   1       7.284   0.744  -5.427  0.00  0.00     0.208 A 
ATOM     12  N   LIG d   1       6.134   0.486  -4.780  0.00  0.00    -0.186 NA
ATOM     13  C   LIG d   1       5.509  -0.500  -5.360  0.00  0.00     0.276 A 
ATOM     14  O   LIG d   1       6.242  -0.914  -6.401  0.00  0.00    -0.332 OA
ATOM     15  N   LIG d   1       7.395  -0.087  -6.433  0.00  0.00    -0.056 NA
BRANCH  13  16
ATOM     16  C   LIG d   1       4.187  -1.080  -4.927  0.00  0.00     0.059 C 
ATOM     17  N   LIG d   1       4.412  -2.218  -4.017  0.00  0.00     0.242 N 
ATOM     18  C   LIG d   1       3.805  -1.901  -2.707  0.00  0.00    -0.031 C 
ATOM     19  H   LIG d   1       3.981  -3.047  -4.398  0.00  0.00     0.204 HD
ATOM     20  C   LIG d   1       2.707  -0.855  -3.023  0.00  0.00    -0.007 C 
ATOM     21  H   LIG d   1       3.363  -2.794  -2.268  0.00  0.00     0.081 H 
ATOM     22  H   LIG d   1       4.551  -1.476  -2.035  0.00  0.00     0.081 H 
ATOM     23  C   LIG d   1       3.380  -0.021  -4.144  0.00  0.00     0.004 C 
ATOM     24  H   LIG d   1       1.800  -1.338  -3.386  0.00  0.00     0.032 H 
ATOM     25  H   LIG d   1       2.494  -0.236  -2.151  0.00  0.00     0.032 H 
ATOM     26  H   LIG d   1       2.629   0.442  -4.784  0.00  0.00     0.033 H 
ATOM     27  H   LIG d   1       4.044   0.732  -3.719  0.00  0.00     0.033 H 
ATOM     28  H   LIG d   1       3.620  -1.408  -5.798  0.00  0.00     0.095 H 
BRANCH  17  29
ATOM     29  C   LIG d   1       5.855  -2.440  -3.852  0.00  0.00    -0.042 C 
ATOM     30  H   LIG d   1       6.071  -2.662  -2.807  0.00  0.00     0.078 H 
ATOM     31  H   LIG d   1       6.166  -3.279  -4.474  0.00  0.00     0.078 H 
ATOM     32  H   LIG d   1       6.398  -1.545  -4.153  0.00  0.00     0.078 H 
ENDBRANCH  17  29
ENDBRANCH  13  16
ENDBRANCH   1  11
BRANCH   4  33
ATOM     33  N   LIG d   1      10.953   4.692  -3.913  0.00  0.00    -0.274 N 
ATOM     34  C   LIG d   1      12.233   4.322  -3.288  0.00  0.00     0.041 C 
ATOM     35  C   LIG d   1      12.396   5.130  -1.999  0.00  0.00     0.064 C 
ATOM     36  H   LIG d   1      12.235   3.258  -3.056  0.00  0.00     0.049 H 
ATOM     37  H   LIG d   1      13.054   4.552  -3.968  0.00  0.00     0.049 H 
ATOM     38  O   LIG d   1      12.203   6.517  -2.283  0.00  0.00    -0.377 OA
ATOM     39  H   LIG d   1      13.397   4.975  -1.597  0.00  0.00     0.058 H 
ATOM     40  H   LIG d   1      11.655   4.800  -1.271  0.00  0.00     0.058 H 
ATOM     41  C   LIG d   1      10.897   6.840  -2.766  0.00  0.00     0.064 C 
ATOM     42  C   LIG d   1      10.661   6.121  -4.099  0.00  0.00     0.041 C 
ATOM     43  H   LIG d   1      10.821   7.917  -2.914  0.00  0.00     0.058 H 
ATOM     44  H   LIG d   1      10.151   6.517  -2.041  0.00  0.00     0.058 H 
ATOM     45  H   LIG d   1      11.319   6.535  -4.862  0.00  0.00     0.049 H 
ATOM     46  H   LIG d   1       9.621   6.246  -4.403  0.00  0.00     0.049 H 
ENDBRANCH   4  33
TORSDOF 4
ENDMDL
MODEL 7
REMARK VINA RESULT:      -5.5      6.693      9.903
REMARK  4 active torsions:
REMARK  status: ('A' for Active; 'I' for Inactive)
REMARK    1  A    between atoms: C_1  and  N_2 
REMARK    2  A    between atoms: C_6  and  C_8 
REMARK    3  A    between atoms: C_10  and  C_13 
REMARK    4  A    between atoms: C_16  and  N_19 
ROOT
ATOM      1  C   LIG d   1       8.759   2.713  -4.549  0.00  0.00     0.086 A 
ATOM      2  C   LIG d   1       9.362   3.246  -3.404  0.00  0.00    -0.038 A 
ATOM      3  C   LIG d   1      10.387   4.156  -3.565  0.00  0.00     0.027 A 
ATOM      4  C   LIG d   1      10.787   4.510  -4.851  0.00  0.00     0.272 A 
ATOM      5  N   LIG d   1      10.195   3.986  -5.914  0.00  0.00    -0.198 N 
ATOM      6  C   LIG d   1       9.216   3.110  -5.802  0.00  0.00     0.182 A 
ATOM      7  H   LIG d   1       9.032   2.954  -2.419  0.00  0.00     0.063 H 
ATOM      8  H   LIG d   1      10.875   4.588  -2.704  0.00  0.00     0.070 H 
ATOM      9  H   LIG d   1       8.761   2.701  -6.692  0.00  0.00     0.138 H 
ATOM     10  H   LIG d   1      10.493   4.250  -6.799  0.00  0.00     0.454 HD
ENDROOT
BRANCH   1  11
ATOM     11  C   LIG d   1       7.653   1.732  -4.429  0.00  0.00     0.208 A 
ATOM     12  N   LIG d   1       7.135   1.272  -3.277  0.00  0.00    -0.186 NA
ATOM     13  C   LIG d   1       6.177   0.424  -3.526  0.00  0.00     0.276 A 
ATOM     14  O   LIG d   1       6.049   0.306  -4.853  0.00  0.00    -0.332 OA
ATOM     15  N   LIG d   1       7.016   1.171  -5.428  0.00  0.00    -0.056 NA
BRANCH  13  16
ATOM     16  C   LIG d   1       5.356  -0.305  -2.494  0.00  0.00     0.059 C 
ATOM     17  N   LIG d   1       4.038   0.341  -2.353  0.00  0.00     0.242 N 
ATOM     18  C   LIG d   1       2.993  -0.636  -2.725  0.00  0.00    -0.031 C 
ATOM     19  H   LIG d   1       3.903   0.632  -1.396  0.00  0.00     0.204 HD
ATOM     20  C   LIG d   1       3.647  -2.021  -2.497  0.00  0.00    -0.007 C 
ATOM     21  H   LIG d   1       2.119  -0.519  -2.085  0.00  0.00     0.081 H 
ATOM     22  H   LIG d   1       2.716  -0.515  -3.772  0.00  0.00     0.081 H 
ATOM     23  C   LIG d   1       5.107  -1.758  -2.951  0.00  0.00     0.004 C 
ATOM     24  H   LIG d   1       3.610  -2.302  -1.444  0.00  0.00     0.032 H 
ATOM     25  H   LIG d   1       3.176  -2.783  -3.119  0.00  0.00     0.032 H 
ATOM     26  H   LIG d   1       5.795  -2.442  -2.454  0.00  0.00     0.033 H 
ATOM     27  H   LIG d   1       5.194  -1.841  -4.034  0.00  0.00     0.033 H 
ATOM     28  H   LIG d   1       5.874  -0.302  -1.534  0.00  0.00     0.095 H 
BRANCH  17  29
ATOM     29  C   LIG d   1       3.962   1.508  -3.242  0.00  0.00    -0.042 C 
ATOM     30  H   LIG d   1       4.316   1.232  -4.235  0.00  0.00     0.078 H 
ATOM     31  H   LIG d   1       2.930   1.850  -3.305  0.00  0.00     0.078 H 
ATOM     32  H   LIG d   1       4.586   2.309  -2.844  0.00  0.00     0.078 H 
ENDBRANCH  17  29
ENDBRANCH  13  16
ENDBRANCH   1  11
BRANCH   4  33
ATOM     33  N   LIG d   1      11.817   5.424  -5.022  0.00  0.00    -0.274 N 
ATOM     34  C   LIG d   1      11.532   6.853  -5.233  0.00  0.00     0.041 C 
ATOM     35  C   LIG d   1      12.311   7.329  -6.460  0.00  0.00     0.064 C 
ATOM     36  H   LIG d   1      10.466   6.995  -5.399  0.00  0.00     0.049 H 
ATOM     37  H   LIG d   1      11.847   7.423  -4.359  0.00  0.00     0.049 H 
ATOM     38  O   LIG d   1      13.687   6.968  -6.316  0.00  0.00    -0.377 OA
ATOM     39  H   LIG d   1      12.225   8.412  -6.549  0.00  0.00     0.058 H 
ATOM     40  H   LIG d   1      11.902   6.855  -7.352  0.00  0.00     0.058 H 
ATOM     41  C   LIG d   1      13.919   5.560  -6.246  0.00  0.00     0.064 C 
ATOM     42  C   LIG d   1      13.224   4.995  -5.003  0.00  0.00     0.041 C 
ATOM     43  H   LIG d   1      14.990   5.371  -6.183  0.00  0.00     0.058 H 
ATOM     44  H   LIG d   1      13.516   5.080  -7.138  0.00  0.00     0.058 H 
ATOM     45  H   LIG d   1      13.711   5.374  -4.105  0.00  0.00     0.049 H 
ATOM     46  H   LIG d   1      13.275   3.906  -5.017  0.00  0.00     0.049 H 
ENDBRANCH   4  33
TORSDOF 4
ENDMDL
MODEL 8
REMARK VINA RESULT:      -5.5      1.736      8.762
REMARK  4 active torsions:
REMARK  status: ('A' for Active; 'I' for Inactive)
REMARK    1  A    between atoms: C_1  and  N_2 
REMARK    2  A    between atoms: C_6  and  C_8 
REMARK    3  A    between atoms: C_10  and  C_13 
REMARK    4  A    between atoms: C_16  and  N_19 
ROOT
ATOM      1  C   LIG d   1       3.347  -0.366  -8.006  0.00  0.00     0.086 A 
ATOM      2  C   LIG d   1       2.711   0.690  -7.343  0.00  0.00    -0.038 A 
ATOM      3  C   LIG d   1       2.744   0.713  -5.963  0.00  0.00     0.027 A 
ATOM      4  C   LIG d   1       3.402  -0.307  -5.281  0.00  0.00     0.272 A 
ATOM      5  N   LIG d   1       3.994  -1.293  -5.940  0.00  0.00    -0.198 N 
ATOM      6  C   LIG d   1       3.980  -1.353  -7.257  0.00  0.00     0.182 A 
ATOM      7  H   LIG d   1       2.209   1.468  -7.897  0.00  0.00     0.063 H 
ATOM      8  H   LIG d   1       2.265   1.513  -5.418  0.00  0.00     0.070 H 
ATOM      9  H   LIG d   1       4.469  -2.175  -7.759  0.00  0.00     0.138 H 
ATOM     10  H   LIG d   1       4.445  -1.991  -5.440  0.00  0.00     0.454 HD
ENDROOT
BRANCH   1  11
ATOM     11  C   LIG d   1       3.340  -0.436  -9.488  0.00  0.00     0.208 A 
ATOM     12  N   LIG d   1       3.435  -1.561 -10.220  0.00  0.00    -0.186 NA
ATOM     13  C   LIG d   1       3.396  -1.270 -11.490  0.00  0.00     0.276 A 
ATOM     14  O   LIG d   1       3.280   0.057 -11.619  0.00  0.00    -0.332 OA
ATOM     15  N   LIG d   1       3.239   0.586 -10.302  0.00  0.00    -0.056 NA
BRANCH  13  16
ATOM     16  C   LIG d   1       3.475  -2.262 -12.622  0.00  0.00     0.059 C 
ATOM     17  N   LIG d   1       2.118  -2.683 -13.016  0.00  0.00     0.242 N 
ATOM     18  C   LIG d   1       1.894  -2.290 -14.423  0.00  0.00    -0.031 C 
ATOM     19  H   LIG d   1       2.035  -3.684 -12.927  0.00  0.00     0.204 HD
ATOM     20  C   LIG d   1       3.312  -2.190 -15.037  0.00  0.00    -0.007 C 
ATOM     21  H   LIG d   1       1.309  -3.050 -14.940  0.00  0.00     0.081 H 
ATOM     22  H   LIG d   1       1.390  -1.324 -14.472  0.00  0.00     0.081 H 
ATOM     23  C   LIG d   1       4.125  -1.599 -13.855  0.00  0.00     0.004 C 
ATOM     24  H   LIG d   1       3.687  -3.174 -15.316  0.00  0.00     0.032 H 
ATOM     25  H   LIG d   1       3.321  -1.514 -15.893  0.00  0.00     0.032 H 
ATOM     26  H   LIG d   1       5.176  -1.877 -13.934  0.00  0.00     0.033 H 
ATOM     27  H   LIG d   1       4.014  -0.516 -13.814  0.00  0.00     0.033 H 
ATOM     28  H   LIG d   1       4.059  -3.131 -12.318  0.00  0.00     0.095 H 
BRANCH  17  29
ATOM     29  C   LIG d   1       1.127  -2.024 -12.154  0.00  0.00    -0.042 C 
ATOM     30  H   LIG d   1       1.115  -2.510 -11.179  0.00  0.00     0.078 H 
ATOM     31  H   LIG d   1       1.391  -0.974 -12.035  0.00  0.00     0.078 H 
ATOM     32  H   LIG d   1       0.141  -2.100 -12.611  0.00  0.00     0.078 H 
ENDBRANCH  17  29
ENDBRANCH  13  16
ENDBRANCH   1  11
BRANCH   4  33
ATOM     33  N   LIG d   1       3.440  -0.292  -3.894  0.00  0.00    -0.274 N 
ATOM     34  C   LIG d   1       3.506   0.979  -3.153  0.00  0.00     0.041 C 
ATOM     35  C   LIG d   1       4.649   0.894  -2.141  0.00  0.00     0.064 C 
ATOM     36  H   LIG d   1       3.690   1.799  -3.846  0.00  0.00     0.049 H 
ATOM     37  H   LIG d   1       2.566   1.146  -2.627  0.00  0.00     0.049 H 
ATOM     38  O   LIG d   1       4.500  -0.292  -1.358  0.00  0.00    -0.377 OA
ATOM     39  H   LIG d   1       4.624   1.767  -1.489  0.00  0.00     0.058 H 
ATOM     40  H   LIG d   1       5.600   0.862  -2.673  0.00  0.00     0.058 H 
ATOM     41  C   LIG d   1       4.574  -1.505  -2.111  0.00  0.00     0.064 C 
ATOM     42  C   LIG d   1       3.421  -1.543  -3.120  0.00  0.00     0.041 C 
ATOM     43  H   LIG d   1       4.496  -2.357  -1.436  0.00  0.00     0.058 H 
ATOM     44  H   LIG d   1       5.525  -1.545  -2.642  0.00  0.00     0.058 H 
ATOM     45  H   LIG d   1       2.473  -1.634  -2.592  0.00  0.00     0.049 H 
ATOM     46  H   LIG d   1       3.551  -2.391  -3.793  0.00  0.00     0.049 H 
ENDBRANCH   4  33
TORSDOF 4
ENDMDL
MODEL 9
REMARK VINA RESULT:      -5.4      2.023      8.522
REMARK  4 active torsions:
REMARK  status: ('A' for Active; 'I' for Inactive)
REMARK    1  A    between atoms: C_1  and  N_2 
REMARK    2  A    between atoms: C_6  and  C_8 
REMARK    3  A    between atoms: C_10  and  C_13 
REMARK    4  A    between atoms: C_16  and  N_19 
ROOT
ATOM      1  C   LIG d   1       3.014  -0.893  -8.105  0.00  0.00     0.086 A 
ATOM      2  C   LIG d   1       2.485   0.192  -7.396  0.00  0.00    -0.038 A 
ATOM      3  C   LIG d   1       2.921   0.408  -6.105  0.00  0.00     0.027 A 
ATOM      4  C   LIG d   1       3.865  -0.454  -5.553  0.00  0.00     0.272 A 
ATOM      5  N   LIG d   1       4.346  -1.472  -6.251  0.00  0.00    -0.198 N 
ATOM      6  C   LIG d   1       3.950  -1.715  -7.485  0.00  0.00     0.182 A 
ATOM      7  H   LIG d   1       1.754   0.844  -7.849  0.00  0.00     0.063 H 
ATOM      8  H   LIG d   1       2.535   1.235  -5.529  0.00  0.00     0.070 H 
ATOM      9  H   LIG d   1       4.362  -2.557  -8.022  0.00  0.00     0.138 H 
ATOM     10  H   LIG d   1       5.003  -2.057  -5.842  0.00  0.00     0.454 HD
ENDROOT
BRANCH   1  11
ATOM     11  C   LIG d   1       2.578  -1.168  -9.496  0.00  0.00     0.208 A 
ATOM     12  N   LIG d   1       1.941  -2.277  -9.913  0.00  0.00    -0.186 NA
ATOM     13  C   LIG d   1       1.701  -2.199 -11.192  0.00  0.00     0.276 A 
ATOM     14  O   LIG d   1       2.182  -1.034 -11.644  0.00  0.00    -0.332 OA
ATOM     15  N   LIG d   1       2.746  -0.370 -10.522  0.00  0.00    -0.056 NA
BRANCH  13  16
ATOM     16  C   LIG d   1       1.006  -3.246 -12.022  0.00  0.00     0.059 C 
ATOM     17  N   LIG d   1       2.003  -4.133 -12.649  0.00  0.00     0.242 N 
ATOM     18  C   LIG d   1       1.783  -5.510 -12.157  0.00  0.00    -0.031 C 
ATOM     19  H   LIG d   1       1.894  -4.111 -13.652  0.00  0.00     0.204 HD
ATOM     20  C   LIG d   1       0.297  -5.543 -11.723  0.00  0.00    -0.007 C 
ATOM     21  H   LIG d   1       1.962  -6.231 -12.954  0.00  0.00     0.081 H 
ATOM     22  H   LIG d   1       2.432  -5.717 -11.305  0.00  0.00     0.081 H 
ATOM     23  C   LIG d   1       0.114  -4.125 -11.119  0.00  0.00     0.004 C 
ATOM     24  H   LIG d   1      -0.358  -5.688 -12.583  0.00  0.00     0.032 H 
ATOM     25  H   LIG d   1       0.126  -6.313 -10.970  0.00  0.00     0.032 H 
ATOM     26  H   LIG d   1      -0.928  -3.811 -11.182  0.00  0.00     0.033 H 
ATOM     27  H   LIG d   1       0.465  -4.098 -10.088  0.00  0.00     0.033 H 
ATOM     28  H   LIG d   1       0.398  -2.770 -12.792  0.00  0.00     0.095 H 
BRANCH  17  29
ATOM     29  C   LIG d   1       3.356  -3.689 -12.287  0.00  0.00    -0.042 C 
ATOM     30  H   LIG d   1       3.892  -3.389 -13.187  0.00  0.00     0.078 H 
ATOM     31  H   LIG d   1       3.290  -2.842 -11.604  0.00  0.00     0.078 H 
ATOM     32  H   LIG d   1       3.889  -4.506 -11.802  0.00  0.00     0.078 H 
ENDBRANCH  17  29
ENDBRANCH  13  16
ENDBRANCH   1  11
BRANCH   4  33
ATOM     33  N   LIG d   1       4.310  -0.244  -4.255  0.00  0.00    -0.274 N 
ATOM     34  C   LIG d   1       3.358  -0.001  -3.159  0.00  0.00     0.041 C 
ATOM     35  C   LIG d   1       3.801   1.250  -2.398  0.00  0.00     0.064 C 
ATOM     36  H   LIG d   1       2.360   0.153  -3.567  0.00  0.00     0.049 H 
ATOM     37  H   LIG d   1       3.351  -0.855  -2.482  0.00  0.00     0.049 H 
ATOM     38  O   LIG d   1       5.176   1.118  -2.030  0.00  0.00    -0.377 OA
ATOM     39  H   LIG d   1       3.192   1.367  -1.502  0.00  0.00     0.058 H 
ATOM     40  H   LIG d   1       3.678   2.124  -3.039  0.00  0.00     0.058 H 
ATOM     41  C   LIG d   1       6.072   1.015  -3.138  0.00  0.00     0.064 C 
ATOM     42  C   LIG d   1       5.746  -0.254  -3.935  0.00  0.00     0.041 C 
ATOM     43  H   LIG d   1       7.097   0.963  -2.773  0.00  0.00     0.058 H 
ATOM     44  H   LIG d   1       5.958   1.888  -3.781  0.00  0.00     0.058 H 
ATOM     45  H   LIG d   1       5.983  -1.133  -3.338  0.00  0.00     0.049 H 
ATOM     46  H   LIG d   1       6.327  -0.266  -4.857  0.00  0.00     0.049 H 
ENDBRANCH   4  33
TORSDOF 4
ENDMDL
