MODEL 1
REMARK VINA RESULT:      -6.5      0.000      0.000
REMARK  7 active torsions:
REMARK  status: ('A' for Active; 'I' for Inactive)
REMARK    1  A    between atoms: C_1  and  C_2 
REMARK    2  A    between atoms: C_7  and  C_34 
REMARK    3  A    between atoms: C_12  and  C_32 
REMARK    4  A    between atoms: C_12  and  C_33 
REMARK    5  A    between atoms: C_14  and  O_31 
REMARK    6  A    between atoms: C_17  and  C_30 
REMARK    7  A    between atoms: C_23  and  C_25 
ROOT
ATOM      1  C   LIG d   1       9.100  -3.377  -4.937  0.00  0.00     0.007 C 
ATOM      2  C   LIG d   1       7.957  -4.336  -5.196  0.00  0.00    -0.044 C 
ATOM      3  C   LIG d   1       6.596  -3.634  -5.238  0.00  0.00    -0.048 C 
ATOM      4  C   LIG d   1       6.634  -2.290  -4.539  0.00  0.00    -0.013 C 
ATOM      5  H   LIG d   1       7.101  -2.464  -3.542  0.00  0.00     0.032 H 
ATOM      6  C   LIG d   1       5.272  -1.714  -4.194  0.00  0.00     0.016 C 
ATOM      7  C   LIG d   1       4.678  -2.577  -3.091  0.00  0.00    -0.070 C 
ATOM      8  C   LIG d   1       3.618  -2.113  -2.417  0.00  0.00    -0.021 C 
ATOM      9  C   LIG d   1       3.122  -0.782  -2.802  0.00  0.00     0.166 C 
ATOM     10  O   LIG d   1       1.943  -0.557  -2.962  0.00  0.00    -0.292 OA
ATOM     11  C   LIG d   1       4.166   0.303  -2.988  0.00  0.00     0.053 C 
ATOM     12  C   LIG d   1       5.371  -0.296  -3.685  0.00  0.00    -0.002 C 
ATOM     13  C   LIG d   1       6.489   0.428  -3.787  0.00  0.00     0.161 C 
ATOM     14  C   LIG d   1       7.724  -0.129  -4.376  0.00  0.00     0.206 C 
ATOM     15  O   LIG d   1       8.809   0.353  -4.159  0.00  0.00    -0.288 OA
ATOM     16  C   LIG d   1       7.531  -1.311  -5.301  0.00  0.00     0.070 C 
ATOM     17  C   LIG d   1       8.834  -2.022  -5.619  0.00  0.00     0.115 A 
ATOM     18  C   LIG d   1      10.185  -1.447  -5.997  0.00  0.00     0.090 A 
ATOM     19  H   LIG d   1      10.444  -0.400  -5.891  0.00  0.00     0.063 H 
ATOM     20  O   LIG d   1       9.256  -1.884  -6.999  0.00  0.00    -0.363 OA
ATOM     21  C   LIG d   1      11.243  -2.526  -5.618  0.00  0.00    -0.016 C 
ATOM     22  C   LIG d   1      10.409  -3.840  -5.638  0.00  0.00    -0.002 C 
ATOM     23  H   LIG d   1      10.203  -4.165  -6.654  0.00  0.00     0.036 H 
ATOM     24  H   LIG d   1       8.120  -4.847  -6.152  0.00  0.00     0.027 H 
ATOM     25  H   LIG d   1       7.936  -5.096  -4.407  0.00  0.00     0.027 H 
ATOM     26  H   LIG d   1       6.300  -3.509  -6.280  0.00  0.00     0.027 H 
ATOM     27  H   LIG d   1       5.858  -4.275  -4.748  0.00  0.00     0.027 H 
ATOM     28  H   LIG d   1       5.108  -3.537  -2.866  0.00  0.00     0.058 H 
ATOM     29  H   LIG d   1       3.149  -2.685  -1.632  0.00  0.00     0.065 H 
ATOM     30  H   LIG d   1      12.030  -2.562  -6.375  0.00  0.00     0.030 H 
ATOM     31  H   LIG d   1      11.666  -2.333  -4.638  0.00  0.00     0.030 H 
ENDROOT
BRANCH  22  32
ATOM     32  C   LIG d   1      11.083  -4.923  -4.837  0.00  0.00    -0.006 A 
ATOM     33  C   LIG d   1      10.763  -6.230  -4.826  0.00  0.00     0.095 A 
ATOM     34  O   LIG d   1      11.597  -6.865  -3.987  0.00  0.00    -0.471 OA
ATOM     35  H   LIG d   1       9.970  -6.690  -5.397  0.00  0.00     0.103 H 
ATOM     36  C   LIG d   1      12.450  -5.979  -3.448  0.00  0.00     0.092 A 
ATOM     37  C   LIG d   1      12.169  -4.761  -3.946  0.00  0.00    -0.021 A 
ATOM     38  H   LIG d   1      13.230  -6.205  -2.737  0.00  0.00     0.103 H 
ATOM     39  H   LIG d   1      12.675  -3.837  -3.711  0.00  0.00     0.065 H 
ENDBRANCH  22  32
BRANCH   1  40
ATOM     40  C   LIG d   1       9.396  -3.238  -3.440  0.00  0.00    -0.056 C 
ATOM     41  H   LIG d   1       8.508  -2.870  -2.926  0.00  0.00     0.024 H 
ATOM     42  H   LIG d   1       9.675  -4.210  -3.032  0.00  0.00     0.024 H 
ATOM     43  H   LIG d   1      10.217  -2.535  -3.295  0.00  0.00     0.024 H 
ENDBRANCH   1  40
BRANCH  16  44
ATOM     44  C   LIG d   1       6.932  -0.824  -6.630  0.00  0.00    -0.049 C 
ATOM     45  H   LIG d   1       6.374   0.098  -6.460  0.00  0.00     0.024 H 
ATOM     46  H   LIG d   1       7.734  -0.637  -7.343  0.00  0.00     0.024 H 
ATOM     47  H   LIG d   1       6.261  -1.586  -7.028  0.00  0.00     0.024 H 
ENDBRANCH  16  44
BRANCH   6  48
ATOM     48  C   LIG d   1       4.312  -1.787  -5.379  0.00  0.00    -0.052 C 
ATOM     49  H   LIG d   1       4.270  -0.817  -5.873  0.00  0.00     0.024 H 
ATOM     50  H   LIG d   1       4.664  -2.540  -6.085  0.00  0.00     0.024 H 
ATOM     51  H   LIG d   1       3.317  -2.058  -5.025  0.00  0.00     0.024 H 
ENDBRANCH   6  48
BRANCH  13  52
ATOM     52  O   LIG d   1       6.536   1.727  -3.382  0.00  0.00    -0.503 OA
ATOM     53  H   LIG d   1       6.248   2.359  -4.055  0.00  0.00     0.292 HD
ENDBRANCH  13  52
BRANCH  11  54
ATOM     54  C   LIG d   1       4.553   0.826  -1.601  0.00  0.00    -0.049 C 
ATOM     55  H   LIG d   1       4.212   0.124  -0.841  0.00  0.00     0.024 H 
ATOM     56  H   LIG d   1       5.637   0.927  -1.541  0.00  0.00     0.024 H 
ATOM     57  H   LIG d   1       4.088   1.798  -1.436  0.00  0.00     0.024 H 
ENDBRANCH  11  54
BRANCH  11  58
ATOM     58  C   LIG d   1       3.574   1.436  -3.824  0.00  0.00    -0.049 C 
ATOM     59  H   LIG d   1       2.496   1.301  -3.907  0.00  0.00     0.024 H 
ATOM     60  H   LIG d   1       3.785   2.391  -3.343  0.00  0.00     0.024 H 
ATOM     61  H   LIG d   1       4.019   1.425  -4.819  0.00  0.00     0.024 H 
ENDBRANCH  11  58
TORSDOF 7
ENDMDL
MODEL 2
REMARK VINA RESULT:      -6.0      2.256      7.320
REMARK  7 active torsions:
REMARK  status: ('A' for Active; 'I' for Inactive)
REMARK    1  A    between atoms: C_1  and  C_2 
REMARK    2  A    between atoms: C_7  and  C_34 
REMARK    3  A    between atoms: C_12  and  C_32 
REMARK    4  A    between atoms: C_12  and  C_33 
REMARK    5  A    between atoms: C_14  and  O_31 
REMARK    6  A    between atoms: C_17  and  C_30 
REMARK    7  A    between atoms: C_23  and  C_25 
ROOT
ATOM      1  C   LIG d   1       5.957  -1.719  -4.505  0.00  0.00     0.007 C 
ATOM      2  C   LIG d   1       7.356  -1.393  -4.026  0.00  0.00    -0.044 C 
ATOM      3  C   LIG d   1       8.373  -2.479  -4.392  0.00  0.00    -0.048 C 
ATOM      4  C   LIG d   1       7.700  -3.805  -4.685  0.00  0.00    -0.013 C 
ATOM      5  H   LIG d   1       7.008  -4.005  -3.834  0.00  0.00     0.032 H 
ATOM      6  C   LIG d   1       8.630  -5.006  -4.671  0.00  0.00     0.016 C 
ATOM      7  C   LIG d   1       9.062  -5.232  -3.230  0.00  0.00    -0.070 C 
ATOM      8  C   LIG d   1       9.647  -6.394  -2.913  0.00  0.00    -0.021 C 
ATOM      9  C   LIG d   1       9.811  -7.369  -4.003  0.00  0.00     0.166 C 
ATOM     10  O   LIG d   1      10.850  -7.967  -4.178  0.00  0.00    -0.292 OA
ATOM     11  C   LIG d   1       8.609  -7.593  -4.901  0.00  0.00     0.053 C 
ATOM     12  C   LIG d   1       7.943  -6.257  -5.163  0.00  0.00    -0.002 C 
ATOM     13  C   LIG d   1       6.756  -6.232  -5.776  0.00  0.00     0.161 C 
ATOM     14  C   LIG d   1       6.015  -4.971  -5.982  0.00  0.00     0.206 C 
ATOM     15  O   LIG d   1       4.827  -4.955  -6.193  0.00  0.00    -0.288 OA
ATOM     16  C   LIG d   1       6.851  -3.710  -5.954  0.00  0.00     0.070 C 
ATOM     17  C   LIG d   1       6.007  -2.452  -5.859  0.00  0.00     0.115 A 
ATOM     18  C   LIG d   1       4.748  -2.069  -6.612  0.00  0.00     0.090 A 
ATOM     19  H   LIG d   1       4.163  -2.768  -7.200  0.00  0.00     0.063 H 
ATOM     20  O   LIG d   1       6.041  -1.631  -7.052  0.00  0.00    -0.363 OA
ATOM     21  C   LIG d   1       4.006  -1.026  -5.726  0.00  0.00    -0.016 C 
ATOM     22  C   LIG d   1       5.158  -0.434  -4.862  0.00  0.00    -0.002 C 
ATOM     23  H   LIG d   1       5.775   0.251  -5.438  0.00  0.00     0.036 H 
ATOM     24  H   LIG d   1       7.680  -0.443  -4.466  0.00  0.00     0.027 H 
ATOM     25  H   LIG d   1       7.347  -1.274  -2.937  0.00  0.00     0.027 H 
ATOM     26  H   LIG d   1       8.942  -2.145  -5.261  0.00  0.00     0.027 H 
ATOM     27  H   LIG d   1       9.067  -2.602  -3.556  0.00  0.00     0.027 H 
ATOM     28  H   LIG d   1       8.895  -4.469  -2.491  0.00  0.00     0.058 H 
ATOM     29  H   LIG d   1       9.983  -6.606  -1.910  0.00  0.00     0.065 H 
ATOM     30  H   LIG d   1       3.562  -0.249  -6.353  0.00  0.00     0.030 H 
ATOM     31  H   LIG d   1       3.247  -1.500  -5.113  0.00  0.00     0.030 H 
ENDROOT
BRANCH  22  32
ATOM     32  C   LIG d   1       4.622   0.219  -3.615  0.00  0.00    -0.006 A 
ATOM     33  C   LIG d   1       3.328   0.346  -3.269  0.00  0.00     0.095 A 
ATOM     34  O   LIG d   1       3.264   0.983  -2.089  0.00  0.00    -0.471 OA
ATOM     35  H   LIG d   1       2.484  -0.006  -3.844  0.00  0.00     0.103 H 
ATOM     36  C   LIG d   1       4.505   1.276  -1.671  0.00  0.00     0.092 A 
ATOM     37  C   LIG d   1       5.381   0.822  -2.586  0.00  0.00    -0.021 A 
ATOM     38  H   LIG d   1       4.759   1.790  -0.755  0.00  0.00     0.103 H 
ATOM     39  H   LIG d   1       6.457   0.902  -2.542  0.00  0.00     0.065 H 
ENDBRANCH  22  32
BRANCH   1  40
ATOM     40  C   LIG d   1       5.158  -2.486  -3.445  0.00  0.00    -0.056 C 
ATOM     41  H   LIG d   1       5.464  -3.533  -3.447  0.00  0.00     0.024 H 
ATOM     42  H   LIG d   1       5.348  -2.054  -2.463  0.00  0.00     0.024 H 
ATOM     43  H   LIG d   1       4.094  -2.418  -3.673  0.00  0.00     0.024 H 
ENDBRANCH   1  40
BRANCH  16  44
ATOM     44  C   LIG d   1       7.675  -3.619  -7.249  0.00  0.00    -0.049 C 
ATOM     45  H   LIG d   1       8.256  -4.533  -7.375  0.00  0.00     0.024 H 
ATOM     46  H   LIG d   1       7.004  -3.494  -8.099  0.00  0.00     0.024 H 
ATOM     47  H   LIG d   1       8.350  -2.765  -7.191  0.00  0.00     0.024 H 
ENDBRANCH  16  44
BRANCH   6  48
ATOM     48  C   LIG d   1       9.900  -4.746  -5.478  0.00  0.00    -0.052 C 
ATOM     49  H   LIG d   1       9.905  -3.713  -5.825  0.00  0.00     0.024 H 
ATOM     50  H   LIG d   1      10.772  -4.922  -4.848  0.00  0.00     0.024 H 
ATOM     51  H   LIG d   1       9.930  -5.418  -6.336  0.00  0.00     0.024 H 
ENDBRANCH   6  48
BRANCH  13  52
ATOM     52  O   LIG d   1       6.186  -7.365  -6.270  0.00  0.00    -0.503 OA
ATOM     53  H   LIG d   1       6.820  -8.068  -6.471  0.00  0.00     0.292 HD
ENDBRANCH  13  52
BRANCH  11  54
ATOM     54  C   LIG d   1       7.648  -8.538  -4.173  0.00  0.00    -0.049 C 
ATOM     55  H   LIG d   1       7.754  -8.405  -3.096  0.00  0.00     0.024 H 
ATOM     56  H   LIG d   1       6.623  -8.311  -4.467  0.00  0.00     0.024 H 
ATOM     57  H   LIG d   1       7.882  -9.569  -4.438  0.00  0.00     0.024 H 
ENDBRANCH  11  54
BRANCH  11  58
ATOM     58  C   LIG d   1       9.068  -8.227  -6.212  0.00  0.00    -0.049 C 
ATOM     59  H   LIG d   1      10.025  -8.725  -6.059  0.00  0.00     0.024 H 
ATOM     60  H   LIG d   1       8.328  -8.956  -6.542  0.00  0.00     0.024 H 
ATOM     61  H   LIG d   1       9.179  -7.453  -6.971  0.00  0.00     0.024 H 
ENDBRANCH  11  58
TORSDOF 7
ENDMDL
MODEL 3
REMARK VINA RESULT:      -5.8      2.908      7.342
REMARK  7 active torsions:
REMARK  status: ('A' for Active; 'I' for Inactive)
REMARK    1  A    between atoms: C_1  and  C_2 
REMARK    2  A    between atoms: C_7  and  C_34 
REMARK    3  A    between atoms: C_12  and  C_32 
REMARK    4  A    between atoms: C_12  and  C_33 
REMARK    5  A    between atoms: C_14  and  O_31 
REMARK    6  A    between atoms: C_17  and  C_30 
REMARK    7  A    between atoms: C_23  and  C_25 
ROOT
ATOM      1  C   LIG d   1       5.969  -2.082  -4.916  0.00  0.00     0.007 C 
ATOM      2  C   LIG d   1       7.476  -2.075  -4.760  0.00  0.00    -0.044 C 
ATOM      3  C   LIG d   1       8.123  -3.384  -5.224  0.00  0.00    -0.048 C 
ATOM      4  C   LIG d   1       7.126  -4.526  -5.252  0.00  0.00    -0.013 C 
ATOM      5  H   LIG d   1       6.609  -4.520  -4.265  0.00  0.00     0.032 H 
ATOM      6  C   LIG d   1       7.747  -5.909  -5.316  0.00  0.00     0.016 C 
ATOM      7  C   LIG d   1       8.421  -6.170  -3.977  0.00  0.00    -0.070 C 
ATOM      8  C   LIG d   1       8.789  -7.423  -3.680  0.00  0.00    -0.021 C 
ATOM      9  C   LIG d   1       8.493  -8.455  -4.687  0.00  0.00     0.166 C 
ATOM     10  O   LIG d   1       9.310  -9.287  -5.012  0.00  0.00    -0.292 OA
ATOM     11  C   LIG d   1       7.105  -8.427  -5.300  0.00  0.00     0.053 C 
ATOM     12  C   LIG d   1       6.711  -6.984  -5.543  0.00  0.00    -0.002 C 
ATOM     13  C   LIG d   1       5.455  -6.706  -5.905  0.00  0.00     0.161 C 
ATOM     14  C   LIG d   1       4.985  -5.315  -6.071  0.00  0.00     0.206 C 
ATOM     15  O   LIG d   1       3.812  -5.029  -6.040  0.00  0.00    -0.288 OA
ATOM     16  C   LIG d   1       6.064  -4.287  -6.328  0.00  0.00     0.070 C 
ATOM     17  C   LIG d   1       5.561  -2.862  -6.180  0.00  0.00     0.115 A 
ATOM     18  C   LIG d   1       4.285  -2.226  -6.695  0.00  0.00     0.090 A 
ATOM     19  H   LIG d   1       3.447  -2.792  -7.087  0.00  0.00     0.063 H 
ATOM     20  O   LIG d   1       5.515  -2.123  -7.426  0.00  0.00    -0.363 OA
ATOM     21  C   LIG d   1       4.002  -1.001  -5.777  0.00  0.00    -0.016 C 
ATOM     22  C   LIG d   1       5.416  -0.661  -5.221  0.00  0.00    -0.002 C 
ATOM     23  H   LIG d   1       6.029  -0.165  -5.969  0.00  0.00     0.036 H 
ATOM     24  H   LIG d   1       7.898  -1.247  -5.342  0.00  0.00     0.027 H 
ATOM     25  H   LIG d   1       7.729  -1.910  -3.707  0.00  0.00     0.027 H 
ATOM     26  H   LIG d   1       8.549  -3.230  -6.216  0.00  0.00     0.027 H 
ATOM     27  H   LIG d   1       8.936  -3.632  -4.536  0.00  0.00     0.027 H 
ATOM     28  H   LIG d   1       8.592  -5.359  -3.292  0.00  0.00     0.058 H 
ATOM     29  H   LIG d   1       9.279  -7.666  -2.749  0.00  0.00     0.065 H 
ATOM     30  H   LIG d   1       3.616  -0.169  -6.371  0.00  0.00     0.030 H 
ATOM     31  H   LIG d   1       3.309  -1.256  -4.984  0.00  0.00     0.030 H 
ENDROOT
BRANCH  22  32
ATOM     32  C   LIG d   1       5.321   0.152  -3.957  0.00  0.00    -0.006 A 
ATOM     33  C   LIG d   1       6.308   0.868  -3.387  0.00  0.00     0.095 A 
ATOM     34  O   LIG d   1       5.826   1.447  -2.276  0.00  0.00    -0.471 OA
ATOM     35  H   LIG d   1       7.317   0.960  -3.762  0.00  0.00     0.103 H 
ATOM     36  C   LIG d   1       4.536   1.107  -2.117  0.00  0.00     0.092 A 
ATOM     37  C   LIG d   1       4.180   0.304  -3.136  0.00  0.00    -0.021 A 
ATOM     38  H   LIG d   1       3.894   1.425  -1.310  0.00  0.00     0.103 H 
ATOM     39  H   LIG d   1       3.209  -0.139  -3.296  0.00  0.00     0.065 H 
ENDBRANCH  22  32
BRANCH   1  40
ATOM     40  C   LIG d   1       5.270  -2.594  -3.652  0.00  0.00    -0.056 C 
ATOM     41  H   LIG d   1       4.967  -1.747  -3.035  0.00  0.00     0.024 H 
ATOM     42  H   LIG d   1       4.390  -3.172  -3.932  0.00  0.00     0.024 H 
ATOM     43  H   LIG d   1       5.956  -3.227  -3.089  0.00  0.00     0.024 H 
ENDBRANCH   1  40
BRANCH  16  44
ATOM     44  C   LIG d   1       6.587  -4.447  -7.765  0.00  0.00    -0.049 C 
ATOM     45  H   LIG d   1       5.800  -4.864  -8.393  0.00  0.00     0.024 H 
ATOM     46  H   LIG d   1       6.884  -3.473  -8.154  0.00  0.00     0.024 H 
ATOM     47  H   LIG d   1       7.446  -5.118  -7.767  0.00  0.00     0.024 H 
ENDBRANCH  16  44
BRANCH   6  48
ATOM     48  C   LIG d   1       8.838  -5.990  -6.383  0.00  0.00    -0.052 C 
ATOM     49  H   LIG d   1       9.817  -5.944  -5.906  0.00  0.00     0.024 H 
ATOM     50  H   LIG d   1       8.742  -6.930  -6.928  0.00  0.00     0.024 H 
ATOM     51  H   LIG d   1       8.731  -5.156  -7.076  0.00  0.00     0.024 H 
ENDBRANCH   6  48
BRANCH  13  52
ATOM     52  O   LIG d   1       4.555  -7.693  -6.168  0.00  0.00    -0.503 OA
ATOM     53  H   LIG d   1       4.006  -7.936  -5.410  0.00  0.00     0.292 HD
ENDBRANCH  13  52
BRANCH  11  54
ATOM     54  C   LIG d   1       6.141  -9.087  -4.310  0.00  0.00    -0.049 C 
ATOM     55  H   LIG d   1       5.888  -8.378  -3.522  0.00  0.00     0.024 H 
ATOM     56  H   LIG d   1       5.232  -9.387  -4.834  0.00  0.00     0.024 H 
ATOM     57  H   LIG d   1       6.614  -9.965  -3.872  0.00  0.00     0.024 H 
ENDBRANCH  11  54
BRANCH  11  58
ATOM     58  C   LIG d   1       7.117  -9.206  -6.613  0.00  0.00    -0.049 C 
ATOM     59  H   LIG d   1       7.281 -10.263  -6.407  0.00  0.00     0.024 H 
ATOM     60  H   LIG d   1       6.161  -9.079  -7.120  0.00  0.00     0.024 H 
ATOM     61  H   LIG d   1       7.918  -8.832  -7.251  0.00  0.00     0.024 H 
ENDBRANCH  11  58
TORSDOF 7
ENDMDL
MODEL 4
REMARK VINA RESULT:      -5.7      3.220      5.636
REMARK  7 active torsions:
REMARK  status: ('A' for Active; 'I' for Inactive)
REMARK    1  A    between atoms: C_1  and  C_2 
REMARK    2  A    between atoms: C_7  and  C_34 
REMARK    3  A    between atoms: C_12  and  C_32 
REMARK    4  A    between atoms: C_12  and  C_33 
REMARK    5  A    between atoms: C_14  and  O_31 
REMARK    6  A    between atoms: C_17  and  C_30 
REMARK    7  A    between atoms: C_23  and  C_25 
ROOT
ATOM      1  C   LIG d   1       8.860   1.015  -7.716  0.00  0.00     0.007 C 
ATOM      2  C   LIG d   1       9.584   1.179  -6.396  0.00  0.00    -0.044 C 
ATOM      3  C   LIG d   1       8.862   0.485  -5.237  0.00  0.00    -0.048 C 
ATOM      4  C   LIG d   1       7.400   0.238  -5.551  0.00  0.00    -0.013 C 
ATOM      5  H   LIG d   1       6.986   1.206  -5.918  0.00  0.00     0.032 H 
ATOM      6  C   LIG d   1       6.536  -0.078  -4.343  0.00  0.00     0.016 C 
ATOM      7  C   LIG d   1       6.425   1.194  -3.515  0.00  0.00    -0.070 C 
ATOM      8  C   LIG d   1       5.488   1.256  -2.561  0.00  0.00    -0.021 C 
ATOM      9  C   LIG d   1       4.627   0.072  -2.403  0.00  0.00     0.166 C 
ATOM     10  O   LIG d   1       4.373  -0.397  -1.316  0.00  0.00    -0.292 OA
ATOM     11  C   LIG d   1       4.066  -0.533  -3.676  0.00  0.00     0.053 C 
ATOM     12  C   LIG d   1       5.144  -0.507  -4.742  0.00  0.00    -0.002 C 
ATOM     13  C   LIG d   1       4.820  -0.819  -6.001  0.00  0.00     0.161 C 
ATOM     14  C   LIG d   1       5.803  -0.727  -7.100  0.00  0.00     0.206 C 
ATOM     15  O   LIG d   1       5.463  -0.650  -8.256  0.00  0.00    -0.288 OA
ATOM     16  C   LIG d   1       7.257  -0.781  -6.683  0.00  0.00     0.070 C 
ATOM     17  C   LIG d   1       8.200  -0.374  -7.801  0.00  0.00     0.115 A 
ATOM     18  C   LIG d   1       8.198  -0.771  -9.264  0.00  0.00     0.090 A 
ATOM     19  H   LIG d   1       7.365  -1.266  -9.752  0.00  0.00     0.063 H 
ATOM     20  O   LIG d   1       9.013  -1.462  -8.307  0.00  0.00    -0.363 OA
ATOM     21  C   LIG d   1       8.954   0.357 -10.026  0.00  0.00    -0.016 C 
ATOM     22  C   LIG d   1       9.851   0.975  -8.914  0.00  0.00    -0.002 C 
ATOM     23  H   LIG d   1      10.700   0.336  -8.686  0.00  0.00     0.036 H 
ATOM     24  H   LIG d   1      10.595   0.764  -6.482  0.00  0.00     0.027 H 
ATOM     25  H   LIG d   1       9.677   2.246  -6.164  0.00  0.00     0.027 H 
ATOM     26  H   LIG d   1       9.367  -0.459  -5.026  0.00  0.00     0.027 H 
ATOM     27  H   LIG d   1       8.939   1.119  -4.349  0.00  0.00     0.027 H 
ATOM     28  H   LIG d   1       7.089   2.018  -3.702  0.00  0.00     0.058 H 
ATOM     29  H   LIG d   1       5.370   2.128  -1.936  0.00  0.00     0.065 H 
ATOM     30  H   LIG d   1       9.571  -0.074 -10.818  0.00  0.00     0.030 H 
ATOM     31  H   LIG d   1       8.262   1.085 -10.437  0.00  0.00     0.030 H 
ENDROOT
BRANCH  22  32
ATOM     32  C   LIG d   1      10.290   2.368  -9.283  0.00  0.00    -0.006 A 
ATOM     33  C   LIG d   1       9.906   3.070 -10.365  0.00  0.00     0.095 A 
ATOM     34  O   LIG d   1      10.515   4.266 -10.333  0.00  0.00    -0.471 OA
ATOM     35  H   LIG d   1       9.222   2.729 -11.128  0.00  0.00     0.103 H 
ATOM     36  C   LIG d   1      11.297   4.342  -9.244  0.00  0.00     0.092 A 
ATOM     37  C   LIG d   1      11.189   3.187  -8.562  0.00  0.00    -0.021 A 
ATOM     38  H   LIG d   1      11.908   5.186  -8.963  0.00  0.00     0.103 H 
ATOM     39  H   LIG d   1      11.693   2.935  -7.641  0.00  0.00     0.065 H 
ENDBRANCH  22  32
BRANCH   1  40
ATOM     40  C   LIG d   1       7.869   2.157  -7.966  0.00  0.00    -0.056 C 
ATOM     41  H   LIG d   1       6.861   1.826  -7.716  0.00  0.00     0.024 H 
ATOM     42  H   LIG d   1       8.135   3.012  -7.344  0.00  0.00     0.024 H 
ATOM     43  H   LIG d   1       7.907   2.447  -9.016  0.00  0.00     0.024 H 
ENDBRANCH   1  40
BRANCH  16  44
ATOM     44  C   LIG d   1       7.614  -2.220  -6.275  0.00  0.00    -0.049 C 
ATOM     45  H   LIG d   1       8.283  -2.197  -5.414  0.00  0.00     0.024 H 
ATOM     46  H   LIG d   1       6.704  -2.760  -6.015  0.00  0.00     0.024 H 
ATOM     47  H   LIG d   1       8.110  -2.721  -7.106  0.00  0.00     0.024 H 
ENDBRANCH  16  44
BRANCH   6  48
ATOM     48  C   LIG d   1       7.180  -1.134  -3.448  0.00  0.00    -0.052 C 
ATOM     49  H   LIG d   1       8.230  -0.887  -3.293  0.00  0.00     0.024 H 
ATOM     50  H   LIG d   1       6.666  -1.157  -2.487  0.00  0.00     0.024 H 
ATOM     51  H   LIG d   1       7.103  -2.111  -3.925  0.00  0.00     0.024 H 
ENDBRANCH   6  48
BRANCH  13  52
ATOM     52  O   LIG d   1       3.577  -1.266  -6.325  0.00  0.00    -0.503 OA
ATOM     53  H   LIG d   1       3.242  -1.958  -5.738  0.00  0.00     0.292 HD
ENDBRANCH  13  52
BRANCH  11  54
ATOM     54  C   LIG d   1       2.863   0.310  -4.109  0.00  0.00    -0.049 C 
ATOM     55  H   LIG d   1       2.245  -0.266  -4.797  0.00  0.00     0.024 H 
ATOM     56  H   LIG d   1       2.275   0.580  -3.231  0.00  0.00     0.024 H 
ATOM     57  H   LIG d   1       3.213   1.216  -4.604  0.00  0.00     0.024 H 
ENDBRANCH  11  54
BRANCH  11  58
ATOM     58  C   LIG d   1       3.623  -1.968  -3.401  0.00  0.00    -0.049 C 
ATOM     59  H   LIG d   1       3.365  -2.073  -2.347  0.00  0.00     0.024 H 
ATOM     60  H   LIG d   1       2.752  -2.204  -4.012  0.00  0.00     0.024 H 
ATOM     61  H   LIG d   1       4.434  -2.653  -3.645  0.00  0.00     0.024 H 
ENDBRANCH  11  58
TORSDOF 7
ENDMDL
MODEL 5
REMARK VINA RESULT:      -5.6      8.961     11.299
REMARK  7 active torsions:
REMARK  status: ('A' for Active; 'I' for Inactive)
REMARK    1  A    between atoms: C_1  and  C_2 
REMARK    2  A    between atoms: C_7  and  C_34 
REMARK    3  A    between atoms: C_12  and  C_32 
REMARK    4  A    between atoms: C_12  and  C_33 
REMARK    5  A    between atoms: C_14  and  O_31 
REMARK    6  A    between atoms: C_17  and  C_30 
REMARK    7  A    between atoms: C_23  and  C_25 
ROOT
ATOM      1  C   LIG d   1      10.287   5.829  -4.370  0.00  0.00     0.007 C 
ATOM      2  C   LIG d   1      11.009   6.312  -5.611  0.00  0.00    -0.044 C 
ATOM      3  C   LIG d   1      11.451   7.775  -5.505  0.00  0.00    -0.048 C 
ATOM      4  C   LIG d   1      10.662   8.527  -4.452  0.00  0.00    -0.013 C 
ATOM      5  H   LIG d   1       9.585   8.320  -4.654  0.00  0.00     0.032 H 
ATOM      6  C   LIG d   1      10.754  10.039  -4.549  0.00  0.00     0.016 C 
ATOM      7  C   LIG d   1      10.005  10.463  -5.803  0.00  0.00    -0.070 C 
ATOM      8  C   LIG d   1       9.696  11.757  -5.956  0.00  0.00    -0.021 C 
ATOM      9  C   LIG d   1      10.105  12.666  -4.874  0.00  0.00     0.166 C 
ATOM     10  O   LIG d   1      10.637  13.730  -5.097  0.00  0.00    -0.292 OA
ATOM     11  C   LIG d   1       9.822  12.204  -3.457  0.00  0.00     0.053 C 
ATOM     12  C   LIG d   1      10.115  10.721  -3.362  0.00  0.00    -0.002 C 
ATOM     13  C   LIG d   1       9.762  10.058  -2.256  0.00  0.00     0.161 C 
ATOM     14  C   LIG d   1       9.940   8.596  -2.138  0.00  0.00     0.206 C 
ATOM     15  O   LIG d   1       9.321   7.940  -1.335  0.00  0.00    -0.288 OA
ATOM     16  C   LIG d   1      10.978   7.987  -3.055  0.00  0.00     0.070 C 
ATOM     17  C   LIG d   1      10.894   6.472  -3.108  0.00  0.00     0.115 A 
ATOM     18  C   LIG d   1      10.731   5.470  -1.982  0.00  0.00     0.090 A 
ATOM     19  H   LIG d   1      10.449   5.742  -0.972  0.00  0.00     0.063 H 
ATOM     20  O   LIG d   1      12.027   5.800  -2.504  0.00  0.00    -0.363 OA
ATOM     21  C   LIG d   1      10.113   4.191  -2.619  0.00  0.00    -0.016 C 
ATOM     22  C   LIG d   1      10.537   4.316  -4.112  0.00  0.00    -0.002 C 
ATOM     23  H   LIG d   1      11.587   4.073  -4.249  0.00  0.00     0.036 H 
ATOM     24  H   LIG d   1      11.894   5.688  -5.783  0.00  0.00     0.027 H 
ATOM     25  H   LIG d   1      10.348   6.206  -6.478  0.00  0.00     0.027 H 
ATOM     26  H   LIG d   1      12.516   7.802  -5.270  0.00  0.00     0.027 H 
ATOM     27  H   LIG d   1      11.304   8.254  -6.477  0.00  0.00     0.027 H 
ATOM     28  H   LIG d   1       9.734   9.731  -6.543  0.00  0.00     0.058 H 
ATOM     29  H   LIG d   1       9.174  12.117  -6.830  0.00  0.00     0.065 H 
ATOM     30  H   LIG d   1      10.554   3.298  -2.171  0.00  0.00     0.030 H 
ATOM     31  H   LIG d   1       9.034   4.179  -2.507  0.00  0.00     0.030 H 
ENDROOT
BRANCH  22  32
ATOM     32  C   LIG d   1       9.655   3.477  -4.999  0.00  0.00    -0.006 A 
ATOM     33  C   LIG d   1       8.548   2.809  -4.628  0.00  0.00     0.095 A 
ATOM     34  O   LIG d   1       8.047   2.185  -5.706  0.00  0.00    -0.471 OA
ATOM     35  H   LIG d   1       8.132   2.781  -3.631  0.00  0.00     0.103 H 
ATOM     36  C   LIG d   1       8.825   2.436  -6.771  0.00  0.00     0.092 A 
ATOM     37  C   LIG d   1       9.835   3.234  -6.380  0.00  0.00    -0.021 A 
ATOM     38  H   LIG d   1       8.667   2.063  -7.772  0.00  0.00     0.103 H 
ATOM     39  H   LIG d   1      10.631   3.616  -7.002  0.00  0.00     0.065 H 
ENDBRANCH  22  32
BRANCH   1  40
ATOM     40  C   LIG d   1       8.774   6.043  -4.474  0.00  0.00    -0.056 C 
ATOM     41  H   LIG d   1       8.517   7.026  -4.080  0.00  0.00     0.024 H 
ATOM     42  H   LIG d   1       8.469   5.979  -5.518  0.00  0.00     0.024 H 
ATOM     43  H   LIG d   1       8.258   5.274  -3.898  0.00  0.00     0.024 H 
ENDBRANCH   1  40
BRANCH  16  44
ATOM     44  C   LIG d   1      12.382   8.356  -2.548  0.00  0.00    -0.049 C 
ATOM     45  H   LIG d   1      12.381   8.379  -1.458  0.00  0.00     0.024 H 
ATOM     46  H   LIG d   1      13.100   7.614  -2.896  0.00  0.00     0.024 H 
ATOM     47  H   LIG d   1      12.660   9.339  -2.931  0.00  0.00     0.024 H 
ENDBRANCH  16  44
BRANCH   6  48
ATOM     48  C   LIG d   1      12.198  10.507  -4.716  0.00  0.00    -0.052 C 
ATOM     49  H   LIG d   1      12.514  10.351  -5.747  0.00  0.00     0.024 H 
ATOM     50  H   LIG d   1      12.265  11.568  -4.472  0.00  0.00     0.024 H 
ATOM     51  H   LIG d   1      12.845   9.939  -4.047  0.00  0.00     0.024 H 
ENDBRANCH   6  48
BRANCH  13  52
ATOM     52  O   LIG d   1       9.249  10.703  -1.174  0.00  0.00    -0.503 OA
ATOM     53  H   LIG d   1       8.714  10.140  -0.598  0.00  0.00     0.292 HD
ENDBRANCH  13  52
BRANCH  11  54
ATOM     54  C   LIG d   1       8.345  12.479  -3.158  0.00  0.00    -0.049 C 
ATOM     55  H   LIG d   1       7.760  11.584  -3.367  0.00  0.00     0.024 H 
ATOM     56  H   LIG d   1       8.232  12.750  -2.108  0.00  0.00     0.024 H 
ATOM     57  H   LIG d   1       7.994  13.299  -3.784  0.00  0.00     0.024 H 
ENDBRANCH  11  54
BRANCH  11  58
ATOM     58  C   LIG d   1      10.704  12.986  -2.485  0.00  0.00    -0.049 C 
ATOM     59  H   LIG d   1      10.984  13.939  -2.935  0.00  0.00     0.024 H 
ATOM     60  H   LIG d   1      10.155  13.169  -1.562  0.00  0.00     0.024 H 
ATOM     61  H   LIG d   1      11.602  12.410  -2.265  0.00  0.00     0.024 H 
ENDBRANCH  11  58
TORSDOF 7
ENDMDL
MODEL 6
REMARK VINA RESULT:      -5.5      9.862     12.100
REMARK  7 active torsions:
REMARK  status: ('A' for Active; 'I' for Inactive)
REMARK    1  A    between atoms: C_1  and  C_2 
REMARK    2  A    between atoms: C_7  and  C_34 
REMARK    3  A    between atoms: C_12  and  C_32 
REMARK    4  A    between atoms: C_12  and  C_33 
REMARK    5  A    between atoms: C_14  and  O_31 
REMARK    6  A    between atoms: C_17  and  C_30 
REMARK    7  A    between atoms: C_23  and  C_25 
ROOT
ATOM      1  C   LIG d   1      10.113   8.414  -6.184  0.00  0.00     0.007 C 
ATOM      2  C   LIG d   1       9.168   7.344  -5.678  0.00  0.00    -0.044 C 
ATOM      3  C   LIG d   1       9.191   7.209  -4.152  0.00  0.00    -0.048 C 
ATOM      4  C   LIG d   1      10.460   7.786  -3.555  0.00  0.00    -0.013 C 
ATOM      5  H   LIG d   1      11.309   7.349  -4.131  0.00  0.00     0.032 H 
ATOM      6  C   LIG d   1      10.744   7.354  -2.128  0.00  0.00     0.016 C 
ATOM      7  C   LIG d   1      11.107   5.877  -2.161  0.00  0.00    -0.070 C 
ATOM      8  C   LIG d   1      11.675   5.334  -1.078  0.00  0.00    -0.021 C 
ATOM      9  C   LIG d   1      11.914   6.233   0.064  0.00  0.00     0.166 C 
ATOM     10  O   LIG d   1      11.638   5.915   1.199  0.00  0.00    -0.292 OA
ATOM     11  C   LIG d   1      12.528   7.584  -0.253  0.00  0.00     0.053 C 
ATOM     12  C   LIG d   1      11.903   8.114  -1.528  0.00  0.00    -0.002 C 
ATOM     13  C   LIG d   1      12.422   9.204  -2.101  0.00  0.00     0.161 C 
ATOM     14  C   LIG d   1      11.915   9.719  -3.389  0.00  0.00     0.206 C 
ATOM     15  O   LIG d   1      12.573  10.453  -4.087  0.00  0.00    -0.288 OA
ATOM     16  C   LIG d   1      10.506   9.303  -3.751  0.00  0.00     0.070 C 
ATOM     17  C   LIG d   1      10.163   9.599  -5.200  0.00  0.00     0.115 A 
ATOM     18  C   LIG d   1      10.427  10.844  -6.024  0.00  0.00     0.090 A 
ATOM     19  H   LIG d   1      11.097  11.638  -5.716  0.00  0.00     0.063 H 
ATOM     20  O   LIG d   1       9.168  10.639  -5.368  0.00  0.00    -0.363 OA
ATOM     21  C   LIG d   1      10.432  10.391  -7.514  0.00  0.00    -0.016 C 
ATOM     22  C   LIG d   1       9.575   9.091  -7.477  0.00  0.00    -0.002 C 
ATOM     23  H   LIG d   1       8.517   9.315  -7.379  0.00  0.00     0.036 H 
ATOM     24  H   LIG d   1       8.146   7.581  -5.996  0.00  0.00     0.027 H 
ATOM     25  H   LIG d   1       9.443   6.381  -6.121  0.00  0.00     0.027 H 
ATOM     26  H   LIG d   1       8.317   7.718  -3.744  0.00  0.00     0.027 H 
ATOM     27  H   LIG d   1       9.122   6.149  -3.896  0.00  0.00     0.027 H 
ATOM     28  H   LIG d   1      10.907   5.292  -3.041  0.00  0.00     0.058 H 
ATOM     29  H   LIG d   1      11.945   4.290  -1.040  0.00  0.00     0.065 H 
ATOM     30  H   LIG d   1       9.949  11.148  -8.138  0.00  0.00     0.030 H 
ATOM     31  H   LIG d   1      11.440  10.199  -7.863  0.00  0.00     0.030 H 
ENDROOT
BRANCH  22  32
ATOM     32  C   LIG d   1       9.849   8.226  -8.679  0.00  0.00    -0.006 A 
ATOM     33  C   LIG d   1      10.785   8.437  -9.623  0.00  0.00     0.095 A 
ATOM     34  O   LIG d   1      10.712   7.443 -10.522  0.00  0.00    -0.471 OA
ATOM     35  H   LIG d   1      11.478   9.265  -9.650  0.00  0.00     0.103 H 
ATOM     36  C   LIG d   1       9.731   6.594 -10.174  0.00  0.00     0.092 A 
ATOM     37  C   LIG d   1       9.168   7.040  -9.037  0.00  0.00    -0.021 A 
ATOM     38  H   LIG d   1       9.444   5.705 -10.714  0.00  0.00     0.103 H 
ATOM     39  H   LIG d   1       8.353   6.579  -8.499  0.00  0.00     0.065 H 
ENDBRANCH  22  32
BRANCH   1  40
ATOM     40  C   LIG d   1      11.501   7.845  -6.497  0.00  0.00    -0.056 C 
ATOM     41  H   LIG d   1      11.693   7.922  -7.567  0.00  0.00     0.024 H 
ATOM     42  H   LIG d   1      12.257   8.409  -5.950  0.00  0.00     0.024 H 
ATOM     43  H   LIG d   1      11.540   6.798  -6.195  0.00  0.00     0.024 H 
ENDBRANCH   1  40
BRANCH  16  44
ATOM     44  C   LIG d   1       9.507  10.075  -2.872  0.00  0.00    -0.049 C 
ATOM     45  H   LIG d   1      10.045  10.807  -2.269  0.00  0.00     0.024 H 
ATOM     46  H   LIG d   1       8.784  10.586  -3.507  0.00  0.00     0.024 H 
ATOM     47  H   LIG d   1       8.986   9.377  -2.216  0.00  0.00     0.024 H 
ENDBRANCH  16  44
BRANCH   6  48
ATOM     48  C   LIG d   1       9.507   7.486  -1.242  0.00  0.00    -0.052 C 
ATOM     49  H   LIG d   1       9.011   8.434  -1.448  0.00  0.00     0.024 H 
ATOM     50  H   LIG d   1       8.822   6.664  -1.451  0.00  0.00     0.024 H 
ATOM     51  H   LIG d   1       9.805   7.452  -0.193  0.00  0.00     0.024 H 
ENDBRANCH   6  48
BRANCH  13  52
ATOM     52  O   LIG d   1      13.422   9.911  -1.509  0.00  0.00    -0.503 OA
ATOM     53  H   LIG d   1      13.435   9.841  -0.544  0.00  0.00     0.292 HD
ENDBRANCH  13  52
BRANCH  11  54
ATOM     54  C   LIG d   1      14.035   7.384  -0.437  0.00  0.00    -0.049 C 
ATOM     55  H   LIG d   1      14.497   8.335  -0.703  0.00  0.00     0.024 H 
ATOM     56  H   LIG d   1      14.469   7.018   0.494  0.00  0.00     0.024 H 
ATOM     57  H   LIG d   1      14.211   6.658  -1.230  0.00  0.00     0.024 H 
ENDBRANCH  11  54
BRANCH  11  58
ATOM     58  C   LIG d   1      12.267   8.541   0.907  0.00  0.00    -0.049 C 
ATOM     59  H   LIG d   1      11.583   9.326   0.585  0.00  0.00     0.024 H 
ATOM     60  H   LIG d   1      11.824   7.993   1.739  0.00  0.00     0.024 H 
ATOM     61  H   LIG d   1      13.208   8.989   1.228  0.00  0.00     0.024 H 
ENDBRANCH  11  58
TORSDOF 7
ENDMDL
MODEL 7
REMARK VINA RESULT:      -5.5      7.690      9.756
REMARK  7 active torsions:
REMARK  status: ('A' for Active; 'I' for Inactive)
REMARK    1  A    between atoms: C_1  and  C_2 
REMARK    2  A    between atoms: C_7  and  C_34 
REMARK    3  A    between atoms: C_12  and  C_32 
REMARK    4  A    between atoms: C_12  and  C_33 
REMARK    5  A    between atoms: C_14  and  O_31 
REMARK    6  A    between atoms: C_17  and  C_30 
REMARK    7  A    between atoms: C_23  and  C_25 
ROOT
ATOM      1  C   LIG d   1      10.554   4.318  -4.225  0.00  0.00     0.007 C 
ATOM      2  C   LIG d   1       9.487   5.281  -4.703  0.00  0.00    -0.044 C 
ATOM      3  C   LIG d   1       9.694   6.703  -4.172  0.00  0.00    -0.048 C 
ATOM      4  C   LIG d   1      10.577   6.720  -2.940  0.00  0.00    -0.013 C 
ATOM      5  H   LIG d   1      10.161   5.958  -2.241  0.00  0.00     0.032 H 
ATOM      6  C   LIG d   1      10.516   8.006  -2.134  0.00  0.00     0.016 C 
ATOM      7  C   LIG d   1       9.142   8.074  -1.485  0.00  0.00    -0.070 C 
ATOM      8  C   LIG d   1       8.943   8.958  -0.500  0.00  0.00    -0.021 C 
ATOM      9  C   LIG d   1      10.095   9.791  -0.118  0.00  0.00     0.166 C 
ATOM     10  O   LIG d   1       9.995  10.985   0.054  0.00  0.00    -0.292 OA
ATOM     11  C   LIG d   1      11.423   9.076   0.052  0.00  0.00     0.053 C 
ATOM     12  C   LIG d   1      11.559   8.037  -1.042  0.00  0.00    -0.002 C 
ATOM     13  C   LIG d   1      12.564   7.158  -0.982  0.00  0.00     0.161 C 
ATOM     14  C   LIG d   1      12.701   6.067  -1.969  0.00  0.00     0.206 C 
ATOM     15  O   LIG d   1      13.357   5.080  -1.742  0.00  0.00    -0.288 OA
ATOM     16  C   LIG d   1      12.003   6.291  -3.292  0.00  0.00     0.070 C 
ATOM     17  C   LIG d   1      11.918   5.028  -4.129  0.00  0.00     0.115 A 
ATOM     18  C   LIG d   1      12.978   3.983  -4.418  0.00  0.00     0.090 A 
ATOM     19  H   LIG d   1      13.915   3.912  -3.877  0.00  0.00     0.063 H 
ATOM     20  O   LIG d   1      12.729   5.063  -5.330  0.00  0.00    -0.363 OA
ATOM     21  C   LIG d   1      12.217   2.675  -4.783  0.00  0.00    -0.016 C 
ATOM     22  C   LIG d   1      10.840   3.209  -5.277  0.00  0.00    -0.002 C 
ATOM     23  H   LIG d   1      10.913   3.637  -6.273  0.00  0.00     0.036 H 
ATOM     24  H   LIG d   1       9.488   5.309  -5.799  0.00  0.00     0.027 H 
ATOM     25  H   LIG d   1       8.504   4.923  -4.377  0.00  0.00     0.027 H 
ATOM     26  H   LIG d   1      10.138   7.309  -4.963  0.00  0.00     0.027 H 
ATOM     27  H   LIG d   1       8.717   7.127  -3.923  0.00  0.00     0.027 H 
ATOM     28  H   LIG d   1       8.355   7.421  -1.818  0.00  0.00     0.058 H 
ATOM     29  H   LIG d   1       7.987   9.058  -0.009  0.00  0.00     0.065 H 
ATOM     30  H   LIG d   1      12.735   2.152  -5.591  0.00  0.00     0.030 H 
ATOM     31  H   LIG d   1      12.111   2.028  -3.919  0.00  0.00     0.030 H 
ENDROOT
BRANCH  22  32
ATOM     32  C   LIG d   1       9.786   2.135  -5.212  0.00  0.00    -0.006 A 
ATOM     33  C   LIG d   1       9.959   0.865  -4.800  0.00  0.00     0.095 A 
ATOM     34  O   LIG d   1       8.782   0.226  -4.890  0.00  0.00    -0.471 OA
ATOM     35  H   LIG d   1      10.887   0.435  -4.454  0.00  0.00     0.103 H 
ATOM     36  C   LIG d   1       7.849   1.068  -5.364  0.00  0.00     0.092 A 
ATOM     37  C   LIG d   1       8.427   2.264  -5.578  0.00  0.00    -0.021 A 
ATOM     38  H   LIG d   1       6.812   0.827  -5.542  0.00  0.00     0.103 H 
ATOM     39  H   LIG d   1       7.944   3.153  -5.957  0.00  0.00     0.065 H 
ENDBRANCH  22  32
BRANCH   1  40
ATOM     40  C   LIG d   1      10.152   3.629  -2.916  0.00  0.00    -0.056 C 
ATOM     41  H   LIG d   1      10.209   2.548  -3.042  0.00  0.00     0.024 H 
ATOM     42  H   LIG d   1      10.828   3.939  -2.120  0.00  0.00     0.024 H 
ATOM     43  H   LIG d   1       9.131   3.911  -2.657  0.00  0.00     0.024 H 
ENDBRANCH   1  40
BRANCH  16  44
ATOM     44  C   LIG d   1      12.783   7.336  -4.107  0.00  0.00    -0.049 C 
ATOM     45  H   LIG d   1      13.853   7.180  -3.968  0.00  0.00     0.024 H 
ATOM     46  H   LIG d   1      12.535   7.232  -5.164  0.00  0.00     0.024 H 
ATOM     47  H   LIG d   1      12.515   8.337  -3.768  0.00  0.00     0.024 H 
ENDBRANCH  16  44
BRANCH   6  48
ATOM     48  C   LIG d   1      10.645   9.238  -3.026  0.00  0.00    -0.052 C 
ATOM     49  H   LIG d   1       9.971   9.144  -3.877  0.00  0.00     0.024 H 
ATOM     50  H   LIG d   1      10.386  10.129  -2.454  0.00  0.00     0.024 H 
ATOM     51  H   LIG d   1      11.672   9.323  -3.384  0.00  0.00     0.024 H 
ENDBRANCH   6  48
BRANCH  13  52
ATOM     52  O   LIG d   1      13.529   7.246  -0.027  0.00  0.00    -0.503 OA
ATOM     53  H   LIG d   1      14.388   6.898  -0.303  0.00  0.00     0.292 HD
ENDBRANCH  13  52
BRANCH  11  54
ATOM     54  C   LIG d   1      11.424   8.408   1.430  0.00  0.00    -0.049 C 
ATOM     55  H   LIG d   1      12.422   8.029   1.649  0.00  0.00     0.024 H 
ATOM     56  H   LIG d   1      11.139   9.138   2.189  0.00  0.00     0.024 H 
ATOM     57  H   LIG d   1      10.712   7.583   1.435  0.00  0.00     0.024 H 
ENDBRANCH  11  54
BRANCH  11  58
ATOM     58  C   LIG d   1      12.559  10.093  -0.033  0.00  0.00    -0.049 C 
ATOM     59  H   LIG d   1      12.293  10.877  -0.743  0.00  0.00     0.024 H 
ATOM     60  H   LIG d   1      12.726  10.536   0.949  0.00  0.00     0.024 H 
ATOM     61  H   LIG d   1      13.469   9.596  -0.366  0.00  0.00     0.024 H 
ENDBRANCH  11  58
TORSDOF 7
ENDMDL
MODEL 8
REMARK VINA RESULT:      -5.4      9.897     12.080
REMARK  7 active torsions:
REMARK  status: ('A' for Active; 'I' for Inactive)
REMARK    1  A    between atoms: C_1  and  C_2 
REMARK    2  A    between atoms: C_7  and  C_34 
REMARK    3  A    between atoms: C_12  and  C_32 
REMARK    4  A    between atoms: C_12  and  C_33 
REMARK    5  A    between atoms: C_14  and  O_31 
REMARK    6  A    between atoms: C_17  and  C_30 
REMARK    7  A    between atoms: C_23  and  C_25 
ROOT
ATOM      1  C   LIG d   1      10.467   6.682  -3.113  0.00  0.00     0.007 C 
ATOM      2  C   LIG d   1       9.486   6.621  -1.961  0.00  0.00    -0.044 C 
ATOM      3  C   LIG d   1       9.549   7.863  -1.066  0.00  0.00    -0.048 C 
ATOM      4  C   LIG d   1      10.862   8.604  -1.222  0.00  0.00    -0.013 C 
ATOM      5  H   LIG d   1      11.671   7.844  -1.117  0.00  0.00     0.032 H 
ATOM      6  C   LIG d   1      11.168   9.596  -0.115  0.00  0.00     0.016 C 
ATOM      7  C   LIG d   1      11.456   8.798   1.148  0.00  0.00    -0.070 C 
ATOM      8  C   LIG d   1      12.029   9.424   2.183  0.00  0.00    -0.021 C 
ATOM      9  C   LIG d   1      12.346  10.849   1.999  0.00  0.00     0.166 C 
ATOM     10  O   LIG d   1      12.090  11.678   2.844  0.00  0.00    -0.292 OA
ATOM     11  C   LIG d   1      13.017  11.232   0.693  0.00  0.00     0.053 C 
ATOM     12  C   LIG d   1      12.380  10.439  -0.430  0.00  0.00    -0.002 C 
ATOM     13  C   LIG d   1      12.935  10.474  -1.645  0.00  0.00     0.161 C 
ATOM     14  C   LIG d   1      12.416   9.655  -2.760  0.00  0.00     0.206 C 
ATOM     15  O   LIG d   1      13.088   9.395  -3.728  0.00  0.00    -0.288 OA
ATOM     16  C   LIG d   1      10.978   9.205  -2.625  0.00  0.00     0.070 C 
ATOM     17  C   LIG d   1      10.606   8.127  -3.628  0.00  0.00     0.115 A 
ATOM     18  C   LIG d   1      10.906   8.039  -5.111  0.00  0.00     0.090 A 
ATOM     19  H   LIG d   1      11.624   8.674  -5.619  0.00  0.00     0.063 H 
ATOM     20  O   LIG d   1       9.659   8.564  -4.634  0.00  0.00    -0.363 OA
ATOM     21  C   LIG d   1      10.843   6.528  -5.482  0.00  0.00    -0.016 C 
ATOM     22  C   LIG d   1       9.925   5.943  -4.369  0.00  0.00    -0.002 C 
ATOM     23  H   LIG d   1       8.882   6.196  -4.540  0.00  0.00     0.036 H 
ATOM     24  H   LIG d   1       8.468   6.521  -2.355  0.00  0.00     0.027 H 
ATOM     25  H   LIG d   1       9.700   5.736  -1.351  0.00  0.00     0.027 H 
ATOM     26  H   LIG d   1       8.714   8.518  -1.318  0.00  0.00     0.027 H 
ATOM     27  H   LIG d   1       9.434   7.547  -0.025  0.00  0.00     0.027 H 
ATOM     28  H   LIG d   1      11.200   7.754   1.196  0.00  0.00     0.058 H 
ATOM     29  H   LIG d   1      12.248   8.911   3.107  0.00  0.00     0.065 H 
ATOM     30  H   LIG d   1      10.380   6.402  -6.464  0.00  0.00     0.030 H 
ATOM     31  H   LIG d   1      11.830   6.078  -5.467  0.00  0.00     0.030 H 
ENDROOT
BRANCH  22  32
ATOM     32  C   LIG d   1      10.119   4.456  -4.231  0.00  0.00    -0.006 A 
ATOM     33  C   LIG d   1      10.944   3.683  -4.961  0.00  0.00     0.095 A 
ATOM     34  O   LIG d   1      10.830   2.416  -4.533  0.00  0.00    -0.471 OA
ATOM     35  H   LIG d   1      11.590   4.026  -5.757  0.00  0.00     0.103 H 
ATOM     36  C   LIG d   1       9.931   2.360  -3.536  0.00  0.00     0.092 A 
ATOM     37  C   LIG d   1       9.463   3.601  -3.315  0.00  0.00    -0.021 A 
ATOM     38  H   LIG d   1       9.635   1.469  -3.002  0.00  0.00     0.103 H 
ATOM     39  H   LIG d   1       8.729   3.890  -2.578  0.00  0.00     0.065 H 
ENDBRANCH  22  32
BRANCH   1  40
ATOM     40  C   LIG d   1      11.815   6.052  -2.745  0.00  0.00    -0.056 C 
ATOM     41  H   LIG d   1      12.589   6.820  -2.752  0.00  0.00     0.024 H 
ATOM     42  H   LIG d   1      11.750   5.610  -1.752  0.00  0.00     0.024 H 
ATOM     43  H   LIG d   1      12.064   5.279  -3.472  0.00  0.00     0.024 H 
ENDBRANCH   1  40
BRANCH  16  44
ATOM     44  C   LIG d   1      10.046  10.404  -2.867  0.00  0.00    -0.049 C 
ATOM     45  H   LIG d   1       9.028  10.047  -3.027  0.00  0.00     0.024 H 
ATOM     46  H   LIG d   1      10.067  11.062  -1.997  0.00  0.00     0.024 H 
ATOM     47  H   LIG d   1      10.381  10.954  -3.747  0.00  0.00     0.024 H 
ENDBRANCH  16  44
BRANCH   6  48
ATOM     48  C   LIG d   1       9.966  10.489   0.190  0.00  0.00    -0.052 C 
ATOM     49  H   LIG d   1      10.308  11.409   0.664  0.00  0.00     0.024 H 
ATOM     50  H   LIG d   1       9.448  10.729  -0.738  0.00  0.00     0.024 H 
ATOM     51  H   LIG d   1       9.285   9.965   0.861  0.00  0.00     0.024 H 
ENDBRANCH   6  48
BRANCH  13  52
ATOM     52  O   LIG d   1      13.988  11.291  -1.924  0.00  0.00    -0.503 OA
ATOM     53  H   LIG d   1      14.780  11.102  -1.403  0.00  0.00     0.292 HD
ENDBRANCH  13  52
BRANCH  11  54
ATOM     54  C   LIG d   1      14.506  10.895   0.812  0.00  0.00    -0.049 C 
ATOM     55  H   LIG d   1      14.746  10.676   1.852  0.00  0.00     0.024 H 
ATOM     56  H   LIG d   1      14.731  10.025   0.196  0.00  0.00     0.024 H 
ATOM     57  H   LIG d   1      15.099  11.744   0.472  0.00  0.00     0.024 H 
ENDBRANCH  11  54
BRANCH  11  58
ATOM     58  C   LIG d   1      12.840  12.730   0.456  0.00  0.00    -0.049 C 
ATOM     59  H   LIG d   1      12.001  12.895  -0.221  0.00  0.00     0.024 H 
ATOM     60  H   LIG d   1      12.643  13.229   1.405  0.00  0.00     0.024 H 
ATOM     61  H   LIG d   1      13.748  13.139   0.013  0.00  0.00     0.024 H 
ENDBRANCH  11  58
TORSDOF 7
ENDMDL
MODEL 9
REMARK VINA RESULT:      -5.3      4.451      7.032
REMARK  7 active torsions:
REMARK  status: ('A' for Active; 'I' for Inactive)
REMARK    1  A    between atoms: C_1  and  C_2 
REMARK    2  A    between atoms: C_7  and  C_34 
REMARK    3  A    between atoms: C_12  and  C_32 
REMARK    4  A    between atoms: C_12  and  C_33 
REMARK    5  A    between atoms: C_14  and  O_31 
REMARK    6  A    between atoms: C_17  and  C_30 
REMARK    7  A    between atoms: C_23  and  C_25 
ROOT
ATOM      1  C   LIG d   1       6.820   0.368  -7.434  0.00  0.00     0.007 C 
ATOM      2  C   LIG d   1       6.357   1.512  -8.312  0.00  0.00    -0.044 C 
ATOM      3  C   LIG d   1       4.999   1.241  -8.967  0.00  0.00    -0.048 C 
ATOM      4  C   LIG d   1       4.676  -0.240  -9.001  0.00  0.00    -0.013 C 
ATOM      5  H   LIG d   1       5.571  -0.751  -9.426  0.00  0.00     0.032 H 
ATOM      6  C   LIG d   1       3.564  -0.626  -9.960  0.00  0.00     0.016 C 
ATOM      7  C   LIG d   1       4.092  -0.431 -11.374  0.00  0.00    -0.070 C 
ATOM      8  C   LIG d   1       3.409  -0.971 -12.391  0.00  0.00    -0.021 C 
ATOM      9  C   LIG d   1       2.196  -1.728 -12.044  0.00  0.00     0.166 C 
ATOM     10  O   LIG d   1       1.156  -1.585 -12.647  0.00  0.00    -0.292 OA
ATOM     11  C   LIG d   1       2.313  -2.705 -10.889  0.00  0.00     0.053 C 
ATOM     12  C   LIG d   1       3.157  -2.071  -9.802  0.00  0.00    -0.002 C 
ATOM     13  C   LIG d   1       3.550  -2.819  -8.766  0.00  0.00     0.161 C 
ATOM     14  C   LIG d   1       4.446  -2.286  -7.719  0.00  0.00     0.206 C 
ATOM     15  O   LIG d   1       5.088  -3.010  -6.998  0.00  0.00    -0.288 OA
ATOM     16  C   LIG d   1       4.469  -0.779  -7.584  0.00  0.00     0.070 C 
ATOM     17  C   LIG d   1       5.620  -0.287  -6.724  0.00  0.00     0.115 A 
ATOM     18  C   LIG d   1       6.126  -0.807  -5.393  0.00  0.00     0.090 A 
ATOM     19  H   LIG d   1       5.832  -1.760  -4.969  0.00  0.00     0.063 H 
ATOM     20  O   LIG d   1       5.203   0.290  -5.462  0.00  0.00    -0.363 OA
ATOM     21  C   LIG d   1       7.614  -0.361  -5.285  0.00  0.00    -0.016 C 
ATOM     22  C   LIG d   1       7.668   0.874  -6.232  0.00  0.00    -0.002 C 
ATOM     23  H   LIG d   1       7.204   1.745  -5.777  0.00  0.00     0.036 H 
ATOM     24  H   LIG d   1       6.283   2.426  -7.711  0.00  0.00     0.027 H 
ATOM     25  H   LIG d   1       7.099   1.686  -9.099  0.00  0.00     0.027 H 
ATOM     26  H   LIG d   1       4.230   1.782  -8.415  0.00  0.00     0.027 H 
ATOM     27  H   LIG d   1       5.022   1.629  -9.990  0.00  0.00     0.027 H 
ATOM     28  H   LIG d   1       4.994   0.130 -11.540  0.00  0.00     0.058 H 
ATOM     29  H   LIG d   1       3.731  -0.857 -13.415  0.00  0.00     0.065 H 
ATOM     30  H   LIG d   1       7.844  -0.065  -4.259  0.00  0.00     0.030 H 
ATOM     31  H   LIG d   1       8.284  -1.148  -5.612  0.00  0.00     0.030 H 
ENDROOT
BRANCH  22  32
ATOM     32  C   LIG d   1       9.081   1.163  -6.668  0.00  0.00    -0.006 A 
ATOM     33  C   LIG d   1      10.164   0.398  -6.437  0.00  0.00     0.095 A 
ATOM     34  O   LIG d   1      11.232   0.997  -6.986  0.00  0.00    -0.471 OA
ATOM     35  H   LIG d   1      10.171  -0.540  -5.902  0.00  0.00     0.103 H 
ATOM     36  C   LIG d   1      10.852   2.148  -7.564  0.00  0.00     0.092 A 
ATOM     37  C   LIG d   1       9.525   2.293  -7.392  0.00  0.00    -0.021 A 
ATOM     38  H   LIG d   1      11.500   2.841  -8.081  0.00  0.00     0.103 H 
ATOM     39  H   LIG d   1       8.917   3.114  -7.740  0.00  0.00     0.065 H 
ENDBRANCH  22  32
BRANCH   1  40
ATOM     40  C   LIG d   1       7.669  -0.640  -8.215  0.00  0.00    -0.056 C 
ATOM     41  H   LIG d   1       8.225  -0.120  -8.995  0.00  0.00     0.024 H 
ATOM     42  H   LIG d   1       8.367  -1.130  -7.536  0.00  0.00     0.024 H 
ATOM     43  H   LIG d   1       7.018  -1.387  -8.669  0.00  0.00     0.024 H 
ENDBRANCH   1  40
BRANCH  16  44
ATOM     44  C   LIG d   1       3.163  -0.308  -6.924  0.00  0.00    -0.049 C 
ATOM     45  H   LIG d   1       3.298  -0.261  -5.843  0.00  0.00     0.024 H 
ATOM     46  H   LIG d   1       2.900   0.680  -7.301  0.00  0.00     0.024 H 
ATOM     47  H   LIG d   1       2.363  -1.012  -7.158  0.00  0.00     0.024 H 
ENDBRANCH  16  44
BRANCH   6  48
ATOM     48  C   LIG d   1       2.349   0.287  -9.812  0.00  0.00    -0.052 C 
ATOM     49  H   LIG d   1       1.724  -0.070  -8.993  0.00  0.00     0.024 H 
ATOM     50  H   LIG d   1       2.682   1.303  -9.599  0.00  0.00     0.024 H 
ATOM     51  H   LIG d   1       1.773   0.281 -10.738  0.00  0.00     0.024 H 
ENDBRANCH   6  48
BRANCH  13  52
ATOM     52  O   LIG d   1       3.118  -4.100  -8.608  0.00  0.00    -0.503 OA
ATOM     53  H   LIG d   1       3.762  -4.683  -8.183  0.00  0.00     0.292 HD
ENDBRANCH  13  52
BRANCH  11  54
ATOM     54  C   LIG d   1       2.982  -3.978 -11.415  0.00  0.00    -0.049 C 
ATOM     55  H   LIG d   1       3.205  -4.642 -10.580  0.00  0.00     0.024 H 
ATOM     56  H   LIG d   1       2.309  -4.481 -12.109  0.00  0.00     0.024 H 
ATOM     57  H   LIG d   1       3.906  -3.717 -11.930  0.00  0.00     0.024 H 
ENDBRANCH  11  54
BRANCH  11  58
ATOM     58  C   LIG d   1       0.918  -3.030 -10.360  0.00  0.00    -0.049 C 
ATOM     59  H   LIG d   1       0.501  -2.152  -9.868  0.00  0.00     0.024 H 
ATOM     60  H   LIG d   1       0.273  -3.321 -11.189  0.00  0.00     0.024 H 
ATOM     61  H   LIG d   1       0.982  -3.851  -9.645  0.00  0.00     0.024 H 
ENDBRANCH  11  58
TORSDOF 7
ENDMDL
MODEL 10
REMARK VINA RESULT:      -5.3      9.732     12.820
REMARK  7 active torsions:
REMARK  status: ('A' for Active; 'I' for Inactive)
REMARK    1  A    between atoms: C_1  and  C_2 
REMARK    2  A    between atoms: C_7  and  C_34 
REMARK    3  A    between atoms: C_12  and  C_32 
REMARK    4  A    between atoms: C_12  and  C_33 
REMARK    5  A    between atoms: C_14  and  O_31 
REMARK    6  A    between atoms: C_17  and  C_30 
REMARK    7  A    between atoms: C_23  and  C_25 
ROOT
ATOM      1  C   LIG d   1      10.594   8.922  -1.809  0.00  0.00     0.007 C 
ATOM      2  C   LIG d   1       9.751  10.031  -2.405  0.00  0.00    -0.044 C 
ATOM      3  C   LIG d   1       9.500   9.841  -3.904  0.00  0.00    -0.048 C 
ATOM      4  C   LIG d   1      10.522   8.914  -4.533  0.00  0.00    -0.013 C 
ATOM      5  H   LIG d   1      11.524   9.283  -4.214  0.00  0.00     0.032 H 
ATOM      6  C   LIG d   1      10.590   8.979  -6.048  0.00  0.00     0.016 C 
ATOM      7  C   LIG d   1      11.183  10.329  -6.422  0.00  0.00    -0.070 C 
ATOM      8  C   LIG d   1      11.610  10.514  -7.677  0.00  0.00    -0.021 C 
ATOM      9  C   LIG d   1      11.478   9.371  -8.595  0.00  0.00     0.166 C 
ATOM     10  O   LIG d   1      11.043   9.496  -9.718  0.00  0.00    -0.292 OA
ATOM     11  C   LIG d   1      11.920   8.020  -8.064  0.00  0.00     0.053 C 
ATOM     12  C   LIG d   1      11.476   7.898  -6.620  0.00  0.00    -0.002 C 
ATOM     13  C   LIG d   1      11.916   6.868  -5.890  0.00  0.00     0.161 C 
ATOM     14  C   LIG d   1      11.592   6.740  -4.455  0.00  0.00     0.206 C 
ATOM     15  O   LIG d   1      12.247   6.050  -3.711  0.00  0.00    -0.288 OA
ATOM     16  C   LIG d   1      10.364   7.492  -3.992  0.00  0.00     0.070 C 
ATOM     17  C   LIG d   1      10.264   7.574  -2.479  0.00  0.00     0.115 A 
ATOM     18  C   LIG d   1      10.481   6.499  -1.433  0.00  0.00     0.090 A 
ATOM     19  H   LIG d   1      10.944   5.541  -1.643  0.00  0.00     0.063 H 
ATOM     20  O   LIG d   1       9.168   6.809  -1.921  0.00  0.00    -0.363 OA
ATOM     21  C   LIG d   1      10.845   7.238  -0.112  0.00  0.00    -0.016 C 
ATOM     22  C   LIG d   1      10.215   8.646  -0.326  0.00  0.00    -0.002 C 
ATOM     23  H   LIG d   1       9.135   8.621  -0.206  0.00  0.00     0.036 H 
ATOM     24  H   LIG d   1       8.785  10.071  -1.888  0.00  0.00     0.027 H 
ATOM     25  H   LIG d   1      10.255  10.991  -2.251  0.00  0.00     0.027 H 
ATOM     26  H   LIG d   1       8.495   9.443  -4.043  0.00  0.00     0.027 H 
ATOM     27  H   LIG d   1       9.552  10.819  -4.392  0.00  0.00     0.027 H 
ATOM     28  H   LIG d   1      11.251  11.110  -5.686  0.00  0.00     0.058 H 
ATOM     29  H   LIG d   1      12.030  11.454  -8.002  0.00  0.00     0.065 H 
ATOM     30  H   LIG d   1      10.378   6.737   0.739  0.00  0.00     0.030 H 
ATOM     31  H   LIG d   1      11.919   7.295   0.023  0.00  0.00     0.030 H 
ENDROOT
BRANCH  22  32
ATOM     32  C   LIG d   1      10.849   9.668   0.580  0.00  0.00    -0.006 A 
ATOM     33  C   LIG d   1      10.508  10.965   0.688  0.00  0.00     0.095 A 
ATOM     34  O   LIG d   1      11.307  11.540   1.601  0.00  0.00    -0.471 OA
ATOM     35  H   LIG d   1       9.723  11.460   0.134  0.00  0.00     0.103 H 
ATOM     36  C   LIG d   1      12.168  10.627   2.080  0.00  0.00     0.092 A 
ATOM     37  C   LIG d   1      11.921   9.452   1.475  0.00  0.00    -0.021 A 
ATOM     38  H   LIG d   1      12.929  10.806   2.825  0.00  0.00     0.103 H 
ATOM     39  H   LIG d   1      12.442   8.521   1.642  0.00  0.00     0.065 H 
ENDBRANCH  22  32
BRANCH   1  40
ATOM     40  C   LIG d   1      12.088   9.257  -1.856  0.00  0.00    -0.056 C 
ATOM     41  H   LIG d   1      12.663   8.339  -1.978  0.00  0.00     0.024 H 
ATOM     42  H   LIG d   1      12.285   9.924  -2.695  0.00  0.00     0.024 H 
ATOM     43  H   LIG d   1      12.379   9.747  -0.926  0.00  0.00     0.024 H 
ENDBRANCH   1  40
BRANCH  16  44
ATOM     44  C   LIG d   1       9.105   6.769  -4.500  0.00  0.00    -0.049 C 
ATOM     45  H   LIG d   1       8.684   6.165  -3.697  0.00  0.00     0.024 H 
ATOM     46  H   LIG d   1       8.370   7.506  -4.825  0.00  0.00     0.024 H 
ATOM     47  H   LIG d   1       9.369   6.125  -5.339  0.00  0.00     0.024 H 
ENDBRANCH  16  44
BRANCH   6  48
ATOM     48  C   LIG d   1       9.201   8.915  -6.679  0.00  0.00    -0.052 C 
ATOM     49  H   LIG d   1       8.560   9.671  -6.225  0.00  0.00     0.024 H 
ATOM     50  H   LIG d   1       9.280   9.101  -7.750  0.00  0.00     0.024 H 
ATOM     51  H   LIG d   1       8.771   7.927  -6.513  0.00  0.00     0.024 H 
ENDBRANCH   6  48
BRANCH  13  52
ATOM     52  O   LIG d   1      12.659   5.871  -6.443  0.00  0.00    -0.503 OA
ATOM     53  H   LIG d   1      12.133   5.165  -6.844  0.00  0.00     0.292 HD
ENDBRANCH  13  52
BRANCH  11  54
ATOM     54  C   LIG d   1      13.446   7.951  -8.164  0.00  0.00    -0.049 C 
ATOM     55  H   LIG d   1      13.754   6.914  -8.304  0.00  0.00     0.024 H 
ATOM     56  H   LIG d   1      13.782   8.546  -9.014  0.00  0.00     0.024 H 
ATOM     57  H   LIG d   1      13.889   8.342  -7.249  0.00  0.00     0.024 H 
ENDBRANCH  11  54
BRANCH  11  58
ATOM     58  C   LIG d   1      11.292   6.915  -8.911  0.00  0.00    -0.049 C 
ATOM     59  H   LIG d   1      10.492   7.334  -9.520  0.00  0.00     0.024 H 
ATOM     60  H   LIG d   1      12.051   6.478  -9.559  0.00  0.00     0.024 H 
ATOM     61  H   LIG d   1      10.884   6.143  -8.258  0.00  0.00     0.024 H 
ENDBRANCH  11  58
TORSDOF 7
ENDMDL
