MODEL 1
REMARK VINA RESULT:      -6.8      0.000      0.000
REMARK  5 active torsions:
REMARK  status: ('A' for Active; 'I' for Inactive)
REMARK    1  A    between atoms: C_1  and  O_2 
REMARK    2  A    between atoms: O_2  and  C_3 
REMARK    3  A    between atoms: C_6  and  C_11 
REMARK    4  A    between atoms: C_7  and  O_9 
REMARK    5  A    between atoms: O_9  and  C_10 
ROOT
ATOM      1  C   LIG d   1       3.370  -0.239 -11.478  0.00  0.00     0.124 A 
ATOM      2  C   LIG d   1       2.257  -0.614 -10.729  0.00  0.00    -0.019 A 
ATOM      3  C   LIG d   1       2.069  -0.115  -9.474  0.00  0.00    -0.048 A 
ATOM      4  C   LIG d   1       2.992   0.793  -8.934  0.00  0.00     0.018 A 
ATOM      5  C   LIG d   1       4.117   1.175  -9.690  0.00  0.00     0.131 A 
ATOM      6  C   LIG d   1       4.297   0.654 -10.958  0.00  0.00     0.022 A 
ATOM      7  H   LIG d   1       1.541  -1.310 -11.143  0.00  0.00     0.065 H 
ATOM      8  H   LIG d   1       1.206  -0.415  -8.897  0.00  0.00     0.063 H 
ATOM      9  H   LIG d   1       5.157   0.942 -11.544  0.00  0.00     0.069 H 
ENDROOT
BRANCH   4  10
ATOM     10  C   LIG d   1       2.796   1.320  -7.631  0.00  0.00    -0.037 C 
ATOM     11  C   LIG d   1       3.111   0.559  -6.525  0.00  0.00     0.070 A 
ATOM     12  C   LIG d   1       2.819   0.890  -5.119  0.00  0.00     0.198 A 
ATOM     13  C   LIG d   1       3.805  -0.741  -6.523  0.00  0.00     0.198 A 
ATOM     14  C   LIG d   1       3.341  -0.216  -4.279  0.00  0.00     0.033 A 
ATOM     15  O   LIG d   1       2.253   1.889  -4.720  0.00  0.00    -0.286 OA
ATOM     16  C   LIG d   1       3.926  -1.184  -5.112  0.00  0.00     0.033 A 
ATOM     17  C   LIG d   1       3.330  -0.409  -2.901  0.00  0.00    -0.050 A 
ATOM     18  C   LIG d   1       4.484  -2.327  -4.550  0.00  0.00    -0.050 A 
ATOM     19  C   LIG d   1       4.471  -2.503  -3.177  0.00  0.00    -0.061 A 
ATOM     20  H   LIG d   1       4.936  -3.076  -5.186  0.00  0.00     0.062 H 
ATOM     21  C   LIG d   1       3.895  -1.550  -2.358  0.00  0.00    -0.061 A 
ATOM     22  H   LIG d   1       4.907  -3.391  -2.745  0.00  0.00     0.062 H 
ATOM     23  H   LIG d   1       3.885  -1.698  -1.288  0.00  0.00     0.062 H 
ATOM     24  H   LIG d   1       2.883   0.332  -2.256  0.00  0.00     0.062 H 
ATOM     25  O   LIG d   1       4.207  -1.342  -7.500  0.00  0.00    -0.286 OA
ATOM     26  H   LIG d   1       2.399   2.317  -7.505  0.00  0.00     0.063 H 
ENDBRANCH   4  10
BRANCH   5  27
ATOM     27  O   LIG d   1       5.020   2.048  -9.177  0.00  0.00    -0.494 OA
BRANCH  27  28
ATOM     28  C   LIG d   1       6.310   1.530  -8.849  0.00  0.00     0.079 C 
ATOM     29  H   LIG d   1       7.077   2.131  -9.335  0.00  0.00     0.066 H 
ATOM     30  H   LIG d   1       6.451   1.564  -7.769  0.00  0.00     0.066 H 
ATOM     31  H   LIG d   1       6.385   0.499  -9.192  0.00  0.00     0.066 H 
ENDBRANCH  27  28
ENDBRANCH   5  27
BRANCH   1  32
ATOM     32  O   LIG d   1       3.548  -0.748 -12.723  0.00  0.00    -0.495 OA
BRANCH  32  33
ATOM     33  C   LIG d   1       2.688  -1.820 -13.115  0.00  0.00     0.079 C 
ATOM     34  H   LIG d   1       2.875  -2.073 -14.158  0.00  0.00     0.066 H 
ATOM     35  H   LIG d   1       2.885  -2.691 -12.489  0.00  0.00     0.066 H 
ATOM     36  H   LIG d   1       1.649  -1.514 -12.996  0.00  0.00     0.066 H 
ENDBRANCH  32  33
ENDBRANCH   1  32
TORSDOF 5
ENDMDL
MODEL 2
REMARK VINA RESULT:      -6.1      5.299      7.442
REMARK  5 active torsions:
REMARK  status: ('A' for Active; 'I' for Inactive)
REMARK    1  A    between atoms: C_1  and  O_2 
REMARK    2  A    between atoms: O_2  and  C_3 
REMARK    3  A    between atoms: C_6  and  C_11 
REMARK    4  A    between atoms: C_7  and  O_9 
REMARK    5  A    between atoms: O_9  and  C_10 
ROOT
ATOM      1  C   LIG d   1       9.977   4.714  -4.117  0.00  0.00     0.124 A 
ATOM      2  C   LIG d   1      10.103   3.836  -3.042  0.00  0.00    -0.019 A 
ATOM      3  C   LIG d   1       9.761   2.523  -3.179  0.00  0.00    -0.048 A 
ATOM      4  C   LIG d   1       9.292   2.044  -4.412  0.00  0.00     0.018 A 
ATOM      5  C   LIG d   1       9.165   2.929  -5.500  0.00  0.00     0.131 A 
ATOM      6  C   LIG d   1       9.509   4.260  -5.342  0.00  0.00     0.022 A 
ATOM      7  H   LIG d   1      10.468   4.200  -2.092  0.00  0.00     0.065 H 
ATOM      8  H   LIG d   1       9.857   1.850  -2.340  0.00  0.00     0.063 H 
ATOM      9  H   LIG d   1       9.414   4.944  -6.172  0.00  0.00     0.069 H 
ENDROOT
BRANCH   4  10
ATOM     10  C   LIG d   1       8.942   0.677  -4.560  0.00  0.00    -0.037 C 
ATOM     11  C   LIG d   1       7.733   0.220  -4.080  0.00  0.00     0.070 A 
ATOM     12  C   LIG d   1       7.292  -1.185  -4.007  0.00  0.00     0.198 A 
ATOM     13  C   LIG d   1       6.634   1.040  -3.541  0.00  0.00     0.198 A 
ATOM     14  C   LIG d   1       5.929  -1.198  -3.424  0.00  0.00     0.033 A 
ATOM     15  O   LIG d   1       7.931  -2.156  -4.362  0.00  0.00    -0.286 OA
ATOM     16  C   LIG d   1       5.538   0.122  -3.147  0.00  0.00     0.033 A 
ATOM     17  C   LIG d   1       5.060  -2.247  -3.139  0.00  0.00    -0.050 A 
ATOM     18  C   LIG d   1       4.289   0.366  -2.586  0.00  0.00    -0.050 A 
ATOM     19  C   LIG d   1       3.434  -0.687  -2.312  0.00  0.00    -0.061 A 
ATOM     20  H   LIG d   1       3.983   1.380  -2.370  0.00  0.00     0.062 H 
ATOM     21  C   LIG d   1       3.818  -1.986  -2.585  0.00  0.00    -0.061 A 
ATOM     22  H   LIG d   1       2.464  -0.493  -1.879  0.00  0.00     0.062 H 
ATOM     23  H   LIG d   1       3.146  -2.802  -2.363  0.00  0.00     0.062 H 
ATOM     24  H   LIG d   1       5.353  -3.265  -3.350  0.00  0.00     0.062 H 
ATOM     25  O   LIG d   1       6.628   2.252  -3.437  0.00  0.00    -0.286 OA
ATOM     26  H   LIG d   1       9.623  -0.005  -5.048  0.00  0.00     0.063 H 
ENDBRANCH   4  10
BRANCH   5  27
ATOM     27  O   LIG d   1       8.708   2.481  -6.696  0.00  0.00    -0.494 OA
BRANCH  27  28
ATOM     28  C   LIG d   1       9.166   3.163  -7.864  0.00  0.00     0.079 C 
ATOM     29  H   LIG d   1       9.921   3.896  -7.583  0.00  0.00     0.066 H 
ATOM     30  H   LIG d   1       9.597   2.445  -8.560  0.00  0.00     0.066 H 
ATOM     31  H   LIG d   1       8.327   3.671  -8.340  0.00  0.00     0.066 H 
ENDBRANCH  27  28
ENDBRANCH   5  27
BRANCH   1  32
ATOM     32  O   LIG d   1      10.314   6.019  -3.965  0.00  0.00    -0.495 OA
BRANCH  32  33
ATOM     33  C   LIG d   1       9.667   6.738  -2.914  0.00  0.00     0.079 C 
ATOM     34  H   LIG d   1       9.098   6.044  -2.296  0.00  0.00     0.066 H 
ATOM     35  H   LIG d   1      10.416   7.238  -2.300  0.00  0.00     0.066 H 
ATOM     36  H   LIG d   1       8.993   7.480  -3.341  0.00  0.00     0.066 H 
ENDBRANCH  32  33
ENDBRANCH   1  32
TORSDOF 5
ENDMDL
MODEL 3
REMARK VINA RESULT:      -6.0      5.183      7.486
REMARK  5 active torsions:
REMARK  status: ('A' for Active; 'I' for Inactive)
REMARK    1  A    between atoms: C_1  and  O_2 
REMARK    2  A    between atoms: O_2  and  C_3 
REMARK    3  A    between atoms: C_6  and  C_11 
REMARK    4  A    between atoms: C_7  and  O_9 
REMARK    5  A    between atoms: O_9  and  C_10 
ROOT
ATOM      1  C   LIG d   1      11.343  -3.284  -3.997  0.00  0.00     0.124 A 
ATOM      2  C   LIG d   1      10.549  -3.917  -3.041  0.00  0.00    -0.019 A 
ATOM      3  C   LIG d   1       9.207  -4.051  -3.238  0.00  0.00    -0.048 A 
ATOM      4  C   LIG d   1       8.616  -3.563  -4.414  0.00  0.00     0.018 A 
ATOM      5  C   LIG d   1       9.416  -2.924  -5.381  0.00  0.00     0.131 A 
ATOM      6  C   LIG d   1      10.776  -2.790  -5.163  0.00  0.00     0.022 A 
ATOM      7  H   LIG d   1      11.001  -4.298  -2.137  0.00  0.00     0.065 H 
ATOM      8  H   LIG d   1       8.598  -4.539  -2.491  0.00  0.00     0.063 H 
ATOM      9  H   LIG d   1      11.395  -2.300  -5.900  0.00  0.00     0.069 H 
ENDROOT
BRANCH   4  10
ATOM     10  C   LIG d   1       7.221  -3.707  -4.625  0.00  0.00    -0.037 C 
ATOM     11  C   LIG d   1       6.348  -2.765  -4.124  0.00  0.00     0.070 A 
ATOM     12  C   LIG d   1       4.876  -2.849  -4.114  0.00  0.00     0.198 A 
ATOM     13  C   LIG d   1       6.706  -1.480  -3.498  0.00  0.00     0.198 A 
ATOM     14  C   LIG d   1       4.359  -1.612  -3.480  0.00  0.00     0.033 A 
ATOM     15  O   LIG d   1       4.207  -3.767  -4.547  0.00  0.00    -0.286 OA
ATOM     16  C   LIG d   1       5.445  -0.799  -3.114  0.00  0.00     0.033 A 
ATOM     17  C   LIG d   1       3.061  -1.184  -3.221  0.00  0.00    -0.050 A 
ATOM     18  C   LIG d   1       5.210   0.423  -2.492  0.00  0.00    -0.050 A 
ATOM     19  C   LIG d   1       3.913   0.837  -2.245  0.00  0.00    -0.061 A 
ATOM     20  H   LIG d   1       6.042   1.052  -2.208  0.00  0.00     0.062 H 
ATOM     21  C   LIG d   1       2.845   0.037  -2.605  0.00  0.00    -0.061 A 
ATOM     22  H   LIG d   1       3.735   1.787  -1.764  0.00  0.00     0.062 H 
ATOM     23  H   LIG d   1       1.836   0.367  -2.404  0.00  0.00     0.062 H 
ATOM     24  H   LIG d   1       2.222  -1.803  -3.500  0.00  0.00     0.062 H 
ATOM     25  O   LIG d   1       7.832  -1.054  -3.327  0.00  0.00    -0.286 OA
ATOM     26  H   LIG d   1       6.843  -4.555  -5.177  0.00  0.00     0.063 H 
ENDBRANCH   4  10
BRANCH   5  27
ATOM     27  O   LIG d   1       8.858  -2.443  -6.519  0.00  0.00    -0.494 OA
BRANCH  27  28
ATOM     28  C   LIG d   1       8.874  -1.026  -6.702  0.00  0.00     0.079 C 
ATOM     29  H   LIG d   1       9.785  -0.737  -7.224  0.00  0.00     0.066 H 
ATOM     30  H   LIG d   1       8.007  -0.725  -7.290  0.00  0.00     0.066 H 
ATOM     31  H   LIG d   1       8.841  -0.534  -5.730  0.00  0.00     0.066 H 
ENDBRANCH  27  28
ENDBRANCH   5  27
BRANCH   1  32
ATOM     32  O   LIG d   1      12.676  -3.151  -3.785  0.00  0.00    -0.495 OA
BRANCH  32  33
ATOM     33  C   LIG d   1      13.506  -3.023  -4.942  0.00  0.00     0.079 C 
ATOM     34  H   LIG d   1      12.906  -3.177  -5.838  0.00  0.00     0.066 H 
ATOM     35  H   LIG d   1      13.945  -2.026  -4.966  0.00  0.00     0.066 H 
ATOM     36  H   LIG d   1      14.300  -3.768  -4.904  0.00  0.00     0.066 H 
ENDBRANCH  32  33
ENDBRANCH   1  32
TORSDOF 5
ENDMDL
MODEL 4
REMARK VINA RESULT:      -5.9      3.795      5.924
REMARK  5 active torsions:
REMARK  status: ('A' for Active; 'I' for Inactive)
REMARK    1  A    between atoms: C_1  and  O_2 
REMARK    2  A    between atoms: O_2  and  C_3 
REMARK    3  A    between atoms: C_6  and  C_11 
REMARK    4  A    between atoms: C_7  and  O_9 
REMARK    5  A    between atoms: O_9  and  C_10 
ROOT
ATOM      1  C   LIG d   1       4.599  -6.876  -6.991  0.00  0.00     0.124 A 
ATOM      2  C   LIG d   1       5.423  -6.985  -5.872  0.00  0.00    -0.019 A 
ATOM      3  C   LIG d   1       6.170  -5.923  -5.458  0.00  0.00    -0.048 A 
ATOM      4  C   LIG d   1       6.105  -4.705  -6.152  0.00  0.00     0.018 A 
ATOM      5  C   LIG d   1       5.272  -4.592  -7.283  0.00  0.00     0.131 A 
ATOM      6  C   LIG d   1       4.525  -5.682  -7.693  0.00  0.00     0.022 A 
ATOM      7  H   LIG d   1       5.473  -7.920  -5.332  0.00  0.00     0.065 H 
ATOM      8  H   LIG d   1       6.810  -6.017  -4.593  0.00  0.00     0.063 H 
ATOM      9  H   LIG d   1       3.885  -5.603  -8.559  0.00  0.00     0.069 H 
ENDROOT
BRANCH   4  10
ATOM     10  C   LIG d   1       6.876  -3.595  -5.721  0.00  0.00    -0.037 C 
ATOM     11  C   LIG d   1       6.314  -2.647  -4.892  0.00  0.00     0.070 A 
ATOM     12  C   LIG d   1       6.918  -1.364  -4.489  0.00  0.00     0.198 A 
ATOM     13  C   LIG d   1       4.995  -2.721  -4.238  0.00  0.00     0.198 A 
ATOM     14  C   LIG d   1       5.956  -0.676  -3.594  0.00  0.00     0.033 A 
ATOM     15  O   LIG d   1       8.008  -0.947  -4.829  0.00  0.00    -0.286 OA
ATOM     16  C   LIG d   1       4.815  -1.481  -3.445  0.00  0.00     0.033 A 
ATOM     17  C   LIG d   1       6.024   0.551  -2.940  0.00  0.00    -0.050 A 
ATOM     18  C   LIG d   1       3.762  -1.041  -2.650  0.00  0.00    -0.050 A 
ATOM     19  C   LIG d   1       3.846   0.179  -2.002  0.00  0.00    -0.061 A 
ATOM     20  H   LIG d   1       2.882  -1.656  -2.531  0.00  0.00     0.062 H 
ATOM     21  C   LIG d   1       4.969   0.971  -2.148  0.00  0.00    -0.061 A 
ATOM     22  H   LIG d   1       3.028   0.516  -1.382  0.00  0.00     0.062 H 
ATOM     23  H   LIG d   1       5.023   1.924  -1.642  0.00  0.00     0.062 H 
ATOM     24  H   LIG d   1       6.898   1.174  -3.050  0.00  0.00     0.062 H 
ATOM     25  O   LIG d   1       4.199  -3.635  -4.331  0.00  0.00    -0.286 OA
ATOM     26  H   LIG d   1       7.902  -3.492  -6.042  0.00  0.00     0.063 H 
ENDBRANCH   4  10
BRANCH   5  27
ATOM     27  O   LIG d   1       5.203  -3.422  -7.966  0.00  0.00    -0.494 OA
BRANCH  27  28
ATOM     28  C   LIG d   1       3.912  -2.828  -8.106  0.00  0.00     0.079 C 
ATOM     29  H   LIG d   1       3.793  -2.451  -9.122  0.00  0.00     0.066 H 
ATOM     30  H   LIG d   1       3.144  -3.573  -7.903  0.00  0.00     0.066 H 
ATOM     31  H   LIG d   1       3.813  -2.003  -7.400  0.00  0.00     0.066 H 
ENDBRANCH  27  28
ENDBRANCH   5  27
BRANCH   1  32
ATOM     32  O   LIG d   1       3.865  -7.944  -7.395  0.00  0.00    -0.495 OA
BRANCH  32  33
ATOM     33  C   LIG d   1       4.511  -9.218  -7.379  0.00  0.00     0.079 C 
ATOM     34  H   LIG d   1       5.586  -9.082  -7.499  0.00  0.00     0.066 H 
ATOM     35  H   LIG d   1       4.312  -9.714  -6.428  0.00  0.00     0.066 H 
ATOM     36  H   LIG d   1       4.129  -9.831  -8.195  0.00  0.00     0.066 H 
ENDBRANCH  32  33
ENDBRANCH   1  32
TORSDOF 5
ENDMDL
MODEL 5
REMARK VINA RESULT:      -5.9      1.887      2.824
REMARK  5 active torsions:
REMARK  status: ('A' for Active; 'I' for Inactive)
REMARK    1  A    between atoms: C_1  and  O_2 
REMARK    2  A    between atoms: O_2  and  C_3 
REMARK    3  A    between atoms: C_6  and  C_11 
REMARK    4  A    between atoms: C_7  and  O_9 
REMARK    5  A    between atoms: O_9  and  C_10 
ROOT
ATOM      1  C   LIG d   1       4.219  -0.398 -10.723  0.00  0.00     0.124 A 
ATOM      2  C   LIG d   1       3.038  -0.869 -10.150  0.00  0.00    -0.019 A 
ATOM      3  C   LIG d   1       3.071  -1.585  -8.991  0.00  0.00    -0.048 A 
ATOM      4  C   LIG d   1       4.296  -1.842  -8.358  0.00  0.00     0.018 A 
ATOM      5  C   LIG d   1       5.491  -1.367  -8.934  0.00  0.00     0.131 A 
ATOM      6  C   LIG d   1       5.441  -0.647 -10.114  0.00  0.00     0.022 A 
ATOM      7  H   LIG d   1       2.092  -0.669 -10.632  0.00  0.00     0.065 H 
ATOM      8  H   LIG d   1       2.152  -1.951  -8.556  0.00  0.00     0.063 H 
ATOM      9  H   LIG d   1       6.352  -0.280 -10.562  0.00  0.00     0.069 H 
ENDROOT
BRANCH   4  10
ATOM     10  C   LIG d   1       4.334  -2.582  -7.148  0.00  0.00    -0.037 C 
ATOM     11  C   LIG d   1       4.320  -1.921  -5.937  0.00  0.00     0.070 A 
ATOM     12  C   LIG d   1       4.517  -2.524  -4.606  0.00  0.00     0.198 A 
ATOM     13  C   LIG d   1       4.106  -0.479  -5.725  0.00  0.00     0.198 A 
ATOM     14  C   LIG d   1       4.419  -1.437  -3.602  0.00  0.00     0.033 A 
ATOM     15  O   LIG d   1       4.722  -3.699  -4.374  0.00  0.00    -0.286 OA
ATOM     16  C   LIG d   1       4.175  -0.223  -4.265  0.00  0.00     0.033 A 
ATOM     17  C   LIG d   1       4.526  -1.454  -2.214  0.00  0.00    -0.050 A 
ATOM     18  C   LIG d   1       4.049   0.950  -3.529  0.00  0.00    -0.050 A 
ATOM     19  C   LIG d   1       4.154   0.917  -2.149  0.00  0.00    -0.061 A 
ATOM     20  H   LIG d   1       3.862   1.887  -4.034  0.00  0.00     0.062 H 
ATOM     21  C   LIG d   1       4.393  -0.278  -1.496  0.00  0.00    -0.061 A 
ATOM     22  H   LIG d   1       4.053   1.829  -1.580  0.00  0.00     0.062 H 
ATOM     23  H   LIG d   1       4.478  -0.293  -0.419  0.00  0.00     0.062 H 
ATOM     24  H   LIG d   1       4.712  -2.383  -1.698  0.00  0.00     0.062 H 
ATOM     25  O   LIG d   1       3.908   0.352  -6.590  0.00  0.00    -0.286 OA
ATOM     26  H   LIG d   1       4.374  -3.661  -7.174  0.00  0.00     0.063 H 
ENDBRANCH   4  10
BRANCH   5  27
ATOM     27  O   LIG d   1       6.683  -1.613  -8.335  0.00  0.00    -0.494 OA
BRANCH  27  28
ATOM     28  C   LIG d   1       7.358  -0.498  -7.751  0.00  0.00     0.079 C 
ATOM     29  H   LIG d   1       8.290  -0.316  -8.287  0.00  0.00     0.066 H 
ATOM     30  H   LIG d   1       6.724   0.386  -7.815  0.00  0.00     0.066 H 
ATOM     31  H   LIG d   1       7.578  -0.713  -6.705  0.00  0.00     0.066 H 
ENDBRANCH  27  28
ENDBRANCH   5  27
BRANCH   1  32
ATOM     32  O   LIG d   1       4.172   0.309 -11.880  0.00  0.00    -0.495 OA
BRANCH  32  33
ATOM     33  C   LIG d   1       4.352  -0.424 -13.094  0.00  0.00     0.079 C 
ATOM     34  H   LIG d   1       3.389  -0.804 -13.434  0.00  0.00     0.066 H 
ATOM     35  H   LIG d   1       4.771   0.234 -13.856  0.00  0.00     0.066 H 
ATOM     36  H   LIG d   1       5.031  -1.257 -12.920  0.00  0.00     0.066 H 
ENDBRANCH  32  33
ENDBRANCH   1  32
TORSDOF 5
ENDMDL
MODEL 6
REMARK VINA RESULT:      -5.7      4.025      5.520
REMARK  5 active torsions:
REMARK  status: ('A' for Active; 'I' for Inactive)
REMARK    1  A    between atoms: C_1  and  O_2 
REMARK    2  A    between atoms: O_2  and  C_3 
REMARK    3  A    between atoms: C_6  and  C_11 
REMARK    4  A    between atoms: C_7  and  O_9 
REMARK    5  A    between atoms: O_9  and  C_10 
ROOT
ATOM      1  C   LIG d   1       4.430  -6.436  -7.555  0.00  0.00     0.124 A 
ATOM      2  C   LIG d   1       3.617  -5.336  -7.822  0.00  0.00    -0.019 A 
ATOM      3  C   LIG d   1       4.077  -4.070  -7.611  0.00  0.00    -0.048 A 
ATOM      4  C   LIG d   1       5.381  -3.866  -7.135  0.00  0.00     0.018 A 
ATOM      5  C   LIG d   1       6.205  -4.976  -6.865  0.00  0.00     0.131 A 
ATOM      6  C   LIG d   1       5.721  -6.254  -7.078  0.00  0.00     0.022 A 
ATOM      7  H   LIG d   1       2.613  -5.489  -8.193  0.00  0.00     0.065 H 
ATOM      8  H   LIG d   1       3.438  -3.223  -7.816  0.00  0.00     0.063 H 
ATOM      9  H   LIG d   1       6.347  -7.110  -6.873  0.00  0.00     0.069 H 
ENDROOT
BRANCH   4  10
ATOM     10  C   LIG d   1       5.865  -2.550  -6.921  0.00  0.00    -0.037 C 
ATOM     11  C   LIG d   1       5.580  -1.894  -5.742  0.00  0.00     0.070 A 
ATOM     12  C   LIG d   1       5.864  -0.481  -5.432  0.00  0.00     0.198 A 
ATOM     13  C   LIG d   1       4.932  -2.471  -4.550  0.00  0.00     0.198 A 
ATOM     14  C   LIG d   1       5.385  -0.218  -4.053  0.00  0.00     0.033 A 
ATOM     15  O   LIG d   1       6.395   0.323  -6.173  0.00  0.00    -0.286 OA
ATOM     16  C   LIG d   1       4.832  -1.399  -3.530  0.00  0.00     0.033 A 
ATOM     17  C   LIG d   1       5.406   0.936  -3.276  0.00  0.00    -0.050 A 
ATOM     18  C   LIG d   1       4.307  -1.400  -2.242  0.00  0.00    -0.050 A 
ATOM     19  C   LIG d   1       4.339  -0.245  -1.479  0.00  0.00    -0.061 A 
ATOM     20  H   LIG d   1       3.880  -2.305  -1.834  0.00  0.00     0.062 H 
ATOM     21  C   LIG d   1       4.883   0.916  -1.994  0.00  0.00    -0.061 A 
ATOM     22  H   LIG d   1       3.933  -0.251  -0.478  0.00  0.00     0.062 H 
ATOM     23  H   LIG d   1       4.900   1.813  -1.393  0.00  0.00     0.062 H 
ATOM     24  H   LIG d   1       5.830   1.846  -3.672  0.00  0.00     0.062 H 
ATOM     25  O   LIG d   1       4.550  -3.618  -4.426  0.00  0.00    -0.286 OA
ATOM     26  H   LIG d   1       6.456  -2.061  -7.682  0.00  0.00     0.063 H 
ENDBRANCH   4  10
BRANCH   5  27
ATOM     27  O   LIG d   1       7.466  -4.793  -6.400  0.00  0.00    -0.494 OA
BRANCH  27  28
ATOM     28  C   LIG d   1       7.784  -5.383  -5.139  0.00  0.00     0.079 C 
ATOM     29  H   LIG d   1       7.450  -6.420  -5.128  0.00  0.00     0.066 H 
ATOM     30  H   LIG d   1       8.861  -5.346  -4.981  0.00  0.00     0.066 H 
ATOM     31  H   LIG d   1       7.282  -4.833  -4.343  0.00  0.00     0.066 H 
ENDBRANCH  27  28
ENDBRANCH   5  27
BRANCH   1  32
ATOM     32  O   LIG d   1       3.958  -7.691  -7.763  0.00  0.00    -0.495 OA
BRANCH  32  33
ATOM     33  C   LIG d   1       4.635  -8.757  -7.095  0.00  0.00     0.079 C 
ATOM     34  H   LIG d   1       4.332  -9.709  -7.531  0.00  0.00     0.066 H 
ATOM     35  H   LIG d   1       5.712  -8.633  -7.210  0.00  0.00     0.066 H 
ATOM     36  H   LIG d   1       4.379  -8.745  -6.036  0.00  0.00     0.066 H 
ENDBRANCH  32  33
ENDBRANCH   1  32
TORSDOF 5
ENDMDL
MODEL 7
REMARK VINA RESULT:      -5.7      1.575      2.259
REMARK  5 active torsions:
REMARK  status: ('A' for Active; 'I' for Inactive)
REMARK    1  A    between atoms: C_1  and  O_2 
REMARK    2  A    between atoms: O_2  and  C_3 
REMARK    3  A    between atoms: C_6  and  C_11 
REMARK    4  A    between atoms: C_7  and  O_9 
REMARK    5  A    between atoms: O_9  and  C_10 
ROOT
ATOM      1  C   LIG d   1       3.954   0.014 -11.626  0.00  0.00     0.124 A 
ATOM      2  C   LIG d   1       4.048   1.245 -10.980  0.00  0.00    -0.019 A 
ATOM      3  C   LIG d   1       3.601   1.389  -9.700  0.00  0.00    -0.048 A 
ATOM      4  C   LIG d   1       3.053   0.290  -9.020  0.00  0.00     0.018 A 
ATOM      5  C   LIG d   1       2.958  -0.955  -9.671  0.00  0.00     0.131 A 
ATOM      6  C   LIG d   1       3.411  -1.082 -10.972  0.00  0.00     0.022 A 
ATOM      7  H   LIG d   1       4.474   2.092 -11.499  0.00  0.00     0.065 H 
ATOM      8  H   LIG d   1       3.672   2.347  -9.207  0.00  0.00     0.063 H 
ATOM      9  H   LIG d   1       3.341  -2.034 -11.477  0.00  0.00     0.069 H 
ENDROOT
BRANCH   4  10
ATOM     10  C   LIG d   1       2.593   0.434  -7.686  0.00  0.00    -0.037 C 
ATOM     11  C   LIG d   1       3.375  -0.001  -6.637  0.00  0.00     0.070 A 
ATOM     12  C   LIG d   1       2.980  -0.074  -5.218  0.00  0.00     0.198 A 
ATOM     13  C   LIG d   1       4.766  -0.481  -6.718  0.00  0.00     0.198 A 
ATOM     14  C   LIG d   1       4.139  -0.599  -4.456  0.00  0.00     0.033 A 
ATOM     15  O   LIG d   1       1.900   0.239  -4.758  0.00  0.00    -0.286 OA
ATOM     16  C   LIG d   1       5.199  -0.840  -5.345  0.00  0.00     0.033 A 
ATOM     17  C   LIG d   1       4.305  -0.862  -3.099  0.00  0.00    -0.050 A 
ATOM     18  C   LIG d   1       6.401  -1.344  -4.861  0.00  0.00    -0.050 A 
ATOM     19  C   LIG d   1       6.553  -1.596  -3.509  0.00  0.00    -0.061 A 
ATOM     20  H   LIG d   1       7.221  -1.532  -5.541  0.00  0.00     0.062 H 
ATOM     21  C   LIG d   1       5.511  -1.359  -2.633  0.00  0.00    -0.061 A 
ATOM     22  H   LIG d   1       7.489  -1.985  -3.136  0.00  0.00     0.062 H 
ATOM     23  H   LIG d   1       5.637  -1.563  -1.580  0.00  0.00     0.062 H 
ATOM     24  H   LIG d   1       3.495  -0.677  -2.410  0.00  0.00     0.062 H 
ATOM     25  O   LIG d   1       5.438  -0.566  -7.727  0.00  0.00    -0.286 OA
ATOM     26  H   LIG d   1       1.629   0.883  -7.492  0.00  0.00     0.063 H 
ENDBRANCH   4  10
BRANCH   5  27
ATOM     27  O   LIG d   1       2.426  -2.024  -9.027  0.00  0.00    -0.494 OA
BRANCH  27  28
ATOM     28  C   LIG d   1       3.233  -3.199  -8.943  0.00  0.00     0.079 C 
ATOM     29  H   LIG d   1       2.707  -3.961  -8.368  0.00  0.00     0.066 H 
ATOM     30  H   LIG d   1       3.434  -3.575  -9.946  0.00  0.00     0.066 H 
ATOM     31  H   LIG d   1       4.175  -2.959  -8.450  0.00  0.00     0.066 H 
ENDBRANCH  27  28
ENDBRANCH   5  27
BRANCH   1  32
ATOM     32  O   LIG d   1       4.398  -0.114 -12.903  0.00  0.00    -0.495 OA
BRANCH  32  33
ATOM     33  C   LIG d   1       5.600  -0.860 -13.099  0.00  0.00     0.079 C 
ATOM     34  H   LIG d   1       6.348  -0.226 -13.575  0.00  0.00     0.066 H 
ATOM     35  H   LIG d   1       5.977  -1.203 -12.136  0.00  0.00     0.066 H 
ATOM     36  H   LIG d   1       5.395  -1.720 -13.736  0.00  0.00     0.066 H 
ENDBRANCH  32  33
ENDBRANCH   1  32
TORSDOF 5
ENDMDL
MODEL 8
REMARK VINA RESULT:      -5.7      5.583      7.596
REMARK  5 active torsions:
REMARK  status: ('A' for Active; 'I' for Inactive)
REMARK    1  A    between atoms: C_1  and  O_2 
REMARK    2  A    between atoms: O_2  and  C_3 
REMARK    3  A    between atoms: C_6  and  C_11 
REMARK    4  A    between atoms: C_7  and  O_9 
REMARK    5  A    between atoms: O_9  and  C_10 
ROOT
ATOM      1  C   LIG d   1      11.348  -2.854  -5.273  0.00  0.00     0.124 A 
ATOM      2  C   LIG d   1      10.470  -2.516  -6.302  0.00  0.00    -0.019 A 
ATOM      3  C   LIG d   1       9.131  -2.727  -6.163  0.00  0.00    -0.048 A 
ATOM      4  C   LIG d   1       8.624  -3.275  -4.975  0.00  0.00     0.018 A 
ATOM      5  C   LIG d   1       9.509  -3.616  -3.934  0.00  0.00     0.131 A 
ATOM      6  C   LIG d   1      10.867  -3.402  -4.093  0.00  0.00     0.022 A 
ATOM      7  H   LIG d   1      10.855  -2.089  -7.217  0.00  0.00     0.065 H 
ATOM      8  H   LIG d   1       8.457  -2.467  -6.967  0.00  0.00     0.063 H 
ATOM      9  H   LIG d   1      11.551  -3.662  -3.299  0.00  0.00     0.069 H 
ENDROOT
BRANCH   4  10
ATOM     10  C   LIG d   1       7.230  -3.490  -4.825  0.00  0.00    -0.037 C 
ATOM     11  C   LIG d   1       6.439  -2.510  -4.264  0.00  0.00     0.070 A 
ATOM     12  C   LIG d   1       5.019  -2.634  -3.890  0.00  0.00     0.198 A 
ATOM     13  C   LIG d   1       6.851  -1.136  -3.922  0.00  0.00     0.198 A 
ATOM     14  C   LIG d   1       4.586  -1.333  -3.326  0.00  0.00     0.033 A 
ATOM     15  O   LIG d   1       4.327  -3.625  -4.021  0.00  0.00    -0.286 OA
ATOM     16  C   LIG d   1       5.673  -0.443  -3.345  0.00  0.00     0.033 A 
ATOM     17  C   LIG d   1       3.359  -0.909  -2.825  0.00  0.00    -0.050 A 
ATOM     18  C   LIG d   1       5.513   0.849  -2.858  0.00  0.00    -0.050 A 
ATOM     19  C   LIG d   1       4.285   1.257  -2.367  0.00  0.00    -0.061 A 
ATOM     20  H   LIG d   1       6.345   1.538  -2.869  0.00  0.00     0.062 H 
ATOM     21  C   LIG d   1       3.215   0.382  -2.348  0.00  0.00    -0.061 A 
ATOM     22  H   LIG d   1       4.163   2.263  -1.991  0.00  0.00     0.062 H 
ATOM     23  H   LIG d   1       2.262   0.709  -1.958  0.00  0.00     0.062 H 
ATOM     24  H   LIG d   1       2.519  -1.588  -2.808  0.00  0.00     0.062 H 
ATOM     25  O   LIG d   1       7.956  -0.658  -4.085  0.00  0.00    -0.286 OA
ATOM     26  H   LIG d   1       6.789  -4.421  -5.149  0.00  0.00     0.063 H 
ENDBRANCH   4  10
BRANCH   5  27
ATOM     27  O   LIG d   1       9.034  -4.152  -2.782  0.00  0.00    -0.494 OA
BRANCH  27  28
ATOM     28  C   LIG d   1       9.874  -5.090  -2.107  0.00  0.00     0.079 C 
ATOM     29  H   LIG d   1       9.608  -5.122  -1.051  0.00  0.00     0.066 H 
ATOM     30  H   LIG d   1       9.740  -6.079  -2.545  0.00  0.00     0.066 H 
ATOM     31  H   LIG d   1      10.915  -4.786  -2.210  0.00  0.00     0.066 H 
ENDBRANCH  27  28
ENDBRANCH   5  27
BRANCH   1  32
ATOM     32  O   LIG d   1      12.680  -2.644  -5.426  0.00  0.00    -0.495 OA
BRANCH  32  33
ATOM     33  C   LIG d   1      13.386  -2.115  -4.302  0.00  0.00     0.079 C 
ATOM     34  H   LIG d   1      12.689  -1.591  -3.649  0.00  0.00     0.066 H 
ATOM     35  H   LIG d   1      13.856  -2.930  -3.752  0.00  0.00     0.066 H 
ATOM     36  H   LIG d   1      14.152  -1.421  -4.647  0.00  0.00     0.066 H 
ENDBRANCH  32  33
ENDBRANCH   1  32
TORSDOF 5
ENDMDL
MODEL 9
REMARK VINA RESULT:      -5.7      5.601      7.202
REMARK  5 active torsions:
REMARK  status: ('A' for Active; 'I' for Inactive)
REMARK    1  A    between atoms: C_1  and  O_2 
REMARK    2  A    between atoms: O_2  and  C_3 
REMARK    3  A    between atoms: C_6  and  C_11 
REMARK    4  A    between atoms: C_7  and  O_9 
REMARK    5  A    between atoms: O_9  and  C_10 
ROOT
ATOM      1  C   LIG d   1      10.631   4.170  -6.244  0.00  0.00     0.124 A 
ATOM      2  C   LIG d   1       9.682   3.627  -7.107  0.00  0.00    -0.019 A 
ATOM      3  C   LIG d   1       9.184   2.377  -6.888  0.00  0.00    -0.048 A 
ATOM      4  C   LIG d   1       9.618   1.632  -5.781  0.00  0.00     0.018 A 
ATOM      5  C   LIG d   1      10.577   2.179  -4.906  0.00  0.00     0.131 A 
ATOM      6  C   LIG d   1      11.076   3.447  -5.146  0.00  0.00     0.022 A 
ATOM      7  H   LIG d   1       9.342   4.199  -7.959  0.00  0.00     0.065 H 
ATOM      8  H   LIG d   1       8.452   1.961  -7.565  0.00  0.00     0.063 H 
ATOM      9  H   LIG d   1      11.811   3.873  -4.480  0.00  0.00     0.069 H 
ENDROOT
BRANCH   4  10
ATOM     10  C   LIG d   1       9.098   0.333  -5.546  0.00  0.00    -0.037 C 
ATOM     11  C   LIG d   1       8.017   0.166  -4.706  0.00  0.00     0.070 A 
ATOM     12  C   LIG d   1       7.463  -1.115  -4.232  0.00  0.00     0.198 A 
ATOM     13  C   LIG d   1       7.194   1.233  -4.109  0.00  0.00     0.198 A 
ATOM     14  C   LIG d   1       6.309  -0.809  -3.353  0.00  0.00     0.033 A 
ATOM     15  O   LIG d   1       7.878  -2.223  -4.511  0.00  0.00    -0.286 OA
ATOM     16  C   LIG d   1       6.149   0.586  -3.280  0.00  0.00     0.033 A 
ATOM     17  C   LIG d   1       5.440  -1.639  -2.651  0.00  0.00    -0.050 A 
ATOM     18  C   LIG d   1       5.126   1.120  -2.503  0.00  0.00    -0.050 A 
ATOM     19  C   LIG d   1       4.267   0.281  -1.815  0.00  0.00    -0.061 A 
ATOM     20  H   LIG d   1       4.998   2.192  -2.443  0.00  0.00     0.062 H 
ATOM     21  C   LIG d   1       4.424  -1.090  -1.887  0.00  0.00    -0.061 A 
ATOM     22  H   LIG d   1       3.472   0.700  -1.216  0.00  0.00     0.062 H 
ATOM     23  H   LIG d   1       3.751  -1.736  -1.343  0.00  0.00     0.062 H 
ATOM     24  H   LIG d   1       5.557  -2.711  -2.704  0.00  0.00     0.062 H 
ATOM     25  O   LIG d   1       7.344   2.429  -4.269  0.00  0.00    -0.286 OA
ATOM     26  H   LIG d   1       9.548  -0.524  -6.024  0.00  0.00     0.063 H 
ENDBRANCH   4  10
BRANCH   5  27
ATOM     27  O   LIG d   1      11.008   1.468  -3.835  0.00  0.00    -0.494 OA
BRANCH  27  28
ATOM     28  C   LIG d   1      12.379   1.068  -3.831  0.00  0.00     0.079 C 
ATOM     29  H   LIG d   1      12.582   0.475  -2.939  0.00  0.00     0.066 H 
ATOM     30  H   LIG d   1      12.588   0.473  -4.719  0.00  0.00     0.066 H 
ATOM     31  H   LIG d   1      13.016   1.953  -3.830  0.00  0.00     0.066 H 
ENDBRANCH  27  28
ENDBRANCH   5  27
BRANCH   1  32
ATOM     32  O   LIG d   1      11.122   5.414  -6.477  0.00  0.00    -0.495 OA
BRANCH  32  33
ATOM     33  C   LIG d   1      10.172   6.448  -6.737  0.00  0.00     0.079 C 
ATOM     34  H   LIG d   1       9.443   6.484  -5.928  0.00  0.00     0.066 H 
ATOM     35  H   LIG d   1      10.687   7.407  -6.804  0.00  0.00     0.066 H 
ATOM     36  H   LIG d   1       9.660   6.244  -7.677  0.00  0.00     0.066 H 
ENDBRANCH  32  33
ENDBRANCH   1  32
TORSDOF 5
ENDMDL
MODEL 10
REMARK VINA RESULT:      -5.6      2.881      6.633
REMARK  5 active torsions:
REMARK  status: ('A' for Active; 'I' for Inactive)
REMARK    1  A    between atoms: C_1  and  O_2 
REMARK    2  A    between atoms: O_2  and  C_3 
REMARK    3  A    between atoms: C_6  and  C_11 
REMARK    4  A    between atoms: C_7  and  O_9 
REMARK    5  A    between atoms: O_9  and  C_10 
ROOT
ATOM      1  C   LIG d   1       7.950  -3.742  -4.172  0.00  0.00     0.124 A 
ATOM      2  C   LIG d   1       6.934  -4.312  -4.936  0.00  0.00    -0.019 A 
ATOM      3  C   LIG d   1       5.772  -3.634  -5.157  0.00  0.00    -0.048 A 
ATOM      4  C   LIG d   1       5.598  -2.347  -4.625  0.00  0.00     0.018 A 
ATOM      5  C   LIG d   1       6.624  -1.767  -3.854  0.00  0.00     0.131 A 
ATOM      6  C   LIG d   1       7.794  -2.472  -3.634  0.00  0.00     0.022 A 
ATOM      7  H   LIG d   1       7.065  -5.302  -5.351  0.00  0.00     0.065 H 
ATOM      8  H   LIG d   1       4.987  -4.085  -5.746  0.00  0.00     0.063 H 
ATOM      9  H   LIG d   1       8.585  -2.034  -3.043  0.00  0.00     0.069 H 
ENDROOT
BRANCH   4  10
ATOM     10  C   LIG d   1       4.393  -1.635  -4.859  0.00  0.00    -0.037 C 
ATOM     11  C   LIG d   1       4.285  -0.804  -5.954  0.00  0.00     0.070 A 
ATOM     12  C   LIG d   1       3.177   0.121  -6.249  0.00  0.00     0.198 A 
ATOM     13  C   LIG d   1       5.256  -0.671  -7.055  0.00  0.00     0.198 A 
ATOM     14  C   LIG d   1       3.489   0.805  -7.527  0.00  0.00     0.033 A 
ATOM     15  O   LIG d   1       2.185   0.293  -5.567  0.00  0.00    -0.286 OA
ATOM     16  C   LIG d   1       4.724   0.335  -8.006  0.00  0.00     0.033 A 
ATOM     17  C   LIG d   1       2.790   1.764  -8.253  0.00  0.00    -0.050 A 
ATOM     18  C   LIG d   1       5.235   0.837  -9.198  0.00  0.00    -0.050 A 
ATOM     19  C   LIG d   1       4.525   1.787  -9.911  0.00  0.00    -0.061 A 
ATOM     20  H   LIG d   1       6.184   0.480  -9.571  0.00  0.00     0.062 H 
ATOM     21  C   LIG d   1       3.311   2.250  -9.440  0.00  0.00    -0.061 A 
ATOM     22  H   LIG d   1       4.924   2.173 -10.838  0.00  0.00     0.062 H 
ATOM     23  H   LIG d   1       2.766   2.995 -10.001  0.00  0.00     0.062 H 
ATOM     24  H   LIG d   1       1.840   2.129  -7.891  0.00  0.00     0.062 H 
ATOM     25  O   LIG d   1       6.304  -1.277  -7.165  0.00  0.00    -0.286 OA
ATOM     26  H   LIG d   1       3.561  -1.743  -4.179  0.00  0.00     0.063 H 
ENDBRANCH   4  10
BRANCH   5  27
ATOM     27  O   LIG d   1       6.467  -0.526  -3.330  0.00  0.00    -0.494 OA
BRANCH  27  28
ATOM     28  C   LIG d   1       7.294   0.511  -3.858  0.00  0.00     0.079 C 
ATOM     29  H   LIG d   1       7.844   0.986  -3.046  0.00  0.00     0.066 H 
ATOM     30  H   LIG d   1       7.998   0.087  -4.574  0.00  0.00     0.066 H 
ATOM     31  H   LIG d   1       6.672   1.254  -4.358  0.00  0.00     0.066 H 
ENDBRANCH  27  28
ENDBRANCH   5  27
BRANCH   1  32
ATOM     32  O   LIG d   1       9.099  -4.430  -3.955  0.00  0.00    -0.495 OA
BRANCH  32  33
ATOM     33  C   LIG d   1       9.736  -4.246  -2.689  0.00  0.00     0.079 C 
ATOM     34  H   LIG d   1       9.006  -4.389  -1.892  0.00  0.00     0.066 H 
ATOM     35  H   LIG d   1      10.541  -4.973  -2.578  0.00  0.00     0.066 H 
ATOM     36  H   LIG d   1      10.145  -3.239  -2.631  0.00  0.00     0.066 H 
ENDBRANCH  32  33
ENDBRANCH   1  32
TORSDOF 5
ENDMDL
