MODEL 1
REMARK VINA RESULT:      -5.7      0.000      0.000
REMARK  8 active torsions:
REMARK  status: ('A' for Active; 'I' for Inactive)
REMARK    1  A    between atoms: C_1  and  C_2 
REMARK    2  A    between atoms: C_3  and  C_22 
REMARK    3  A    between atoms: C_4  and  C_14 
REMARK    4  A    between atoms: C_7  and  O_9 
REMARK    5  A    between atoms: O_9  and  C_10 
REMARK    6  A    between atoms: C_11  and  C_13 
REMARK    7  A    between atoms: C_22  and  O_24 
REMARK    8  A    between atoms: O_24  and  C_25 
ROOT
ATOM      1  C   LIG d   1       5.326  -1.716  -5.285  0.00  0.00    -0.035 A 
ATOM      2  C   LIG d   1       5.065  -3.051  -5.536  0.00  0.00    -0.057 A 
ATOM      3  C   LIG d   1       4.533  -3.438  -6.749  0.00  0.00    -0.044 A 
ATOM      4  C   LIG d   1       4.257  -2.477  -7.724  0.00  0.00     0.052 A 
ATOM      5  C   LIG d   1       4.523  -1.131  -7.463  0.00  0.00    -0.044 A 
ATOM      6  C   LIG d   1       5.050  -0.759  -6.245  0.00  0.00    -0.057 A 
ATOM      7  C   LIG d   1       3.705  -2.870  -8.985  0.00  0.00     0.099 C 
ATOM      8  N   LIG d   1       3.267  -3.183  -9.985  0.00  0.00    -0.191 NA
ATOM      9  H   LIG d   1       5.279  -3.793  -4.781  0.00  0.00     0.062 H 
ATOM     10  H   LIG d   1       4.331  -4.480  -6.944  0.00  0.00     0.063 H 
ATOM     11  H   LIG d   1       4.312  -0.383  -8.213  0.00  0.00     0.063 H 
ATOM     12  H   LIG d   1       5.252   0.283  -6.040  0.00  0.00     0.062 H 
ENDROOT
BRANCH   1  13
ATOM     13  C   LIG d   1       5.908  -1.302  -3.958  0.00  0.00     0.047 A 
ATOM     14  C   LIG d   1       4.816  -0.620  -3.153  0.00  0.00     0.069 A 
ATOM     15  C   LIG d   1       5.047   0.683  -2.744  0.00  0.00     0.049 A 
ATOM     16  N   LIG d   1       6.163   1.322  -3.036  0.00  0.00    -0.256 NA
ATOM     17  C   LIG d   1       7.172   0.821  -3.722  0.00  0.00     0.045 A 
ATOM     18  C   LIG d   1       7.149  -0.469  -4.228  0.00  0.00     0.013 A 
ATOM     19  C   LIG d   1       8.218  -0.980  -4.954  0.00  0.00     0.056 C 
ATOM     20  O   LIG d   1       9.242  -0.190  -5.277  0.00  0.00    -0.848 OA
ATOM     21  H   LIG d   1       6.212  -2.202  -3.425  0.00  0.00     0.045 H 
BRANCH  14  22
ATOM     22  C   LIG d   1       3.632  -1.278  -2.840  0.00  0.00     0.338 C 
ATOM     23  O   LIG d   1       3.668  -2.511  -2.337  0.00  0.00    -0.245 OA
BRANCH  22  24
ATOM     24  O   LIG d   1       2.447  -0.667  -3.044  0.00  0.00    -0.465 OA
BRANCH  24  25
ATOM     25  C   LIG d   1       2.098  -0.365  -4.396  0.00  0.00     0.082 C 
ATOM     26  H   LIG d   1       1.696   0.647  -4.451  0.00  0.00     0.066 H 
ATOM     27  H   LIG d   1       2.986  -0.436  -5.026  0.00  0.00     0.066 H 
ATOM     28  H   LIG d   1       1.348  -1.074  -4.745  0.00  0.00     0.066 H 
ENDBRANCH  24  25
ENDBRANCH  22  24
ENDBRANCH  14  22
BRANCH  15  29
ATOM     29  C   LIG d   1       3.987   1.395  -1.942  0.00  0.00    -0.022 C 
ATOM     30  H   LIG d   1       4.260   2.445  -1.830  0.00  0.00     0.029 H 
ATOM     31  H   LIG d   1       3.030   1.322  -2.459  0.00  0.00     0.029 H 
ATOM     32  H   LIG d   1       3.904   0.934  -0.959  0.00  0.00     0.029 H 
ENDBRANCH  15  29
BRANCH  17  33
ATOM     33  C   LIG d   1       8.385   1.681  -3.968  0.00  0.00    -0.022 C 
ATOM     34  H   LIG d   1       8.082   2.725  -4.037  0.00  0.00     0.029 H 
ATOM     35  H   LIG d   1       9.088   1.559  -3.144  0.00  0.00     0.029 H 
ATOM     36  H   LIG d   1       8.861   1.379  -4.901  0.00  0.00     0.029 H 
ENDBRANCH  17  33
BRANCH  19  37
ATOM     37  O   LIG d   1       8.220  -2.275  -5.331  0.00  0.00    -0.509 OA
BRANCH  37  38
ATOM     38  C   LIG d   1       9.085  -3.157  -4.613  0.00  0.00     0.077 C 
ATOM     39  H   LIG d   1       8.965  -2.992  -3.543  0.00  0.00     0.066 H 
ATOM     40  H   LIG d   1       8.829  -4.190  -4.851  0.00  0.00     0.066 H 
ATOM     41  H   LIG d   1      10.119  -2.964  -4.897  0.00  0.00     0.066 H 
ENDBRANCH  37  38
ENDBRANCH  19  37
ENDBRANCH   1  13
TORSDOF 8
ENDMDL
MODEL 2
REMARK VINA RESULT:      -5.7      2.545      4.691
REMARK  8 active torsions:
REMARK  status: ('A' for Active; 'I' for Inactive)
REMARK    1  A    between atoms: C_1  and  C_2 
REMARK    2  A    between atoms: C_3  and  C_22 
REMARK    3  A    between atoms: C_4  and  C_14 
REMARK    4  A    between atoms: C_7  and  O_9 
REMARK    5  A    between atoms: O_9  and  C_10 
REMARK    6  A    between atoms: C_11  and  C_13 
REMARK    7  A    between atoms: C_22  and  O_24 
REMARK    8  A    between atoms: O_24  and  C_25 
ROOT
ATOM      1  C   LIG d   1       5.389  -0.773  -6.572  0.00  0.00    -0.035 A 
ATOM      2  C   LIG d   1       4.023  -0.646  -6.753  0.00  0.00    -0.057 A 
ATOM      3  C   LIG d   1       3.527   0.203  -7.721  0.00  0.00    -0.044 A 
ATOM      4  C   LIG d   1       4.409   0.937  -8.518  0.00  0.00     0.052 A 
ATOM      5  C   LIG d   1       5.786   0.804  -8.330  0.00  0.00    -0.044 A 
ATOM      6  C   LIG d   1       6.267  -0.045  -7.356  0.00  0.00    -0.057 A 
ATOM      7  C   LIG d   1       3.903   1.820  -9.525  0.00  0.00     0.099 C 
ATOM      8  N   LIG d   1       3.500   2.521 -10.323  0.00  0.00    -0.191 NA
ATOM      9  H   LIG d   1       3.343  -1.213  -6.135  0.00  0.00     0.062 H 
ATOM     10  H   LIG d   1       2.462   0.301  -7.861  0.00  0.00     0.063 H 
ATOM     11  H   LIG d   1       6.473   1.368  -8.944  0.00  0.00     0.063 H 
ATOM     12  H   LIG d   1       7.333  -0.146  -7.206  0.00  0.00     0.062 H 
ENDROOT
BRANCH   1  13
ATOM     13  C   LIG d   1       5.923  -1.703  -5.513  0.00  0.00     0.047 A 
ATOM     14  C   LIG d   1       5.679  -3.131  -5.969  0.00  0.00     0.069 A 
ATOM     15  C   LIG d   1       4.914  -3.940  -5.144  0.00  0.00     0.049 A 
ATOM     16  N   LIG d   1       4.407  -3.502  -4.008  0.00  0.00    -0.256 NA
ATOM     17  C   LIG d   1       4.563  -2.287  -3.521  0.00  0.00     0.045 A 
ATOM     18  C   LIG d   1       5.294  -1.316  -4.187  0.00  0.00     0.013 A 
ATOM     19  C   LIG d   1       5.444  -0.037  -3.662  0.00  0.00     0.056 C 
ATOM     20  O   LIG d   1       4.785   0.311  -2.557  0.00  0.00    -0.848 OA
ATOM     21  H   LIG d   1       6.998  -1.549  -5.438  0.00  0.00     0.045 H 
BRANCH  14  22
ATOM     22  C   LIG d   1       6.202  -3.606  -7.166  0.00  0.00     0.338 C 
ATOM     23  O   LIG d   1       7.480  -3.975  -7.234  0.00  0.00    -0.245 OA
BRANCH  22  24
ATOM     24  O   LIG d   1       5.416  -3.695  -8.258  0.00  0.00    -0.465 OA
BRANCH  24  25
ATOM     25  C   LIG d   1       5.916  -3.118  -9.466  0.00  0.00     0.082 C 
ATOM     26  H   LIG d   1       5.358  -2.209  -9.692  0.00  0.00     0.066 H 
ATOM     27  H   LIG d   1       6.971  -2.874  -9.343  0.00  0.00     0.066 H 
ATOM     28  H   LIG d   1       5.799  -3.829 -10.284  0.00  0.00     0.066 H 
ENDBRANCH  24  25
ENDBRANCH  22  24
ENDBRANCH  14  22
BRANCH  15  29
ATOM     29  C   LIG d   1       4.649  -5.364  -5.561  0.00  0.00    -0.022 C 
ATOM     30  H   LIG d   1       3.918  -5.810  -4.887  0.00  0.00     0.029 H 
ATOM     31  H   LIG d   1       4.260  -5.378  -6.579  0.00  0.00     0.029 H 
ATOM     32  H   LIG d   1       5.577  -5.933  -5.520  0.00  0.00     0.029 H 
ENDBRANCH  15  29
BRANCH  17  33
ATOM     33  C   LIG d   1       3.923  -1.943  -2.201  0.00  0.00    -0.022 C 
ATOM     34  H   LIG d   1       4.489  -1.145  -1.720  0.00  0.00     0.029 H 
ATOM     35  H   LIG d   1       2.898  -1.612  -2.369  0.00  0.00     0.029 H 
ATOM     36  H   LIG d   1       3.920  -2.823  -1.558  0.00  0.00     0.029 H 
ENDBRANCH  17  33
BRANCH  19  37
ATOM     37  O   LIG d   1       6.257   0.851  -4.270  0.00  0.00    -0.509 OA
BRANCH  37  38
ATOM     38  C   LIG d   1       7.569   1.006  -3.726  0.00  0.00     0.077 C 
ATOM     39  H   LIG d   1       8.299   1.002  -4.535  0.00  0.00     0.066 H 
ATOM     40  H   LIG d   1       7.629   1.952  -3.187  0.00  0.00     0.066 H 
ATOM     41  H   LIG d   1       7.779   0.184  -3.043  0.00  0.00     0.066 H 
ENDBRANCH  37  38
ENDBRANCH  19  37
ENDBRANCH   1  13
TORSDOF 8
ENDMDL
MODEL 3
REMARK VINA RESULT:      -5.3      2.907      4.623
REMARK  8 active torsions:
REMARK  status: ('A' for Active; 'I' for Inactive)
REMARK    1  A    between atoms: C_1  and  C_2 
REMARK    2  A    between atoms: C_3  and  C_22 
REMARK    3  A    between atoms: C_4  and  C_14 
REMARK    4  A    between atoms: C_7  and  O_9 
REMARK    5  A    between atoms: O_9  and  C_10 
REMARK    6  A    between atoms: C_11  and  C_13 
REMARK    7  A    between atoms: C_22  and  O_24 
REMARK    8  A    between atoms: O_24  and  C_25 
ROOT
ATOM      1  C   LIG d   1       4.968  -0.620  -6.915  0.00  0.00    -0.035 A 
ATOM      2  C   LIG d   1       6.297  -0.554  -6.539  0.00  0.00    -0.057 A 
ATOM      3  C   LIG d   1       7.143   0.358  -7.136  0.00  0.00    -0.044 A 
ATOM      4  C   LIG d   1       6.653   1.215  -8.124  0.00  0.00     0.052 A 
ATOM      5  C   LIG d   1       5.310   1.143  -8.498  0.00  0.00    -0.044 A 
ATOM      6  C   LIG d   1       4.478   0.222  -7.896  0.00  0.00    -0.057 A 
ATOM      7  C   LIG d   1       7.524   2.165  -8.748  0.00  0.00     0.099 C 
ATOM      8  N   LIG d   1       8.215   2.918  -9.243  0.00  0.00    -0.191 NA
ATOM      9  H   LIG d   1       6.675  -1.218  -5.775  0.00  0.00     0.062 H 
ATOM     10  H   LIG d   1       8.180   0.409  -6.840  0.00  0.00     0.063 H 
ATOM     11  H   LIG d   1       4.925   1.803  -9.261  0.00  0.00     0.063 H 
ATOM     12  H   LIG d   1       3.439   0.162  -8.189  0.00  0.00     0.062 H 
ENDROOT
BRANCH   1  13
ATOM     13  C   LIG d   1       4.050  -1.620  -6.258  0.00  0.00     0.047 A 
ATOM     14  C   LIG d   1       3.916  -1.247  -4.792  0.00  0.00     0.069 A 
ATOM     15  C   LIG d   1       4.293  -2.198  -3.857  0.00  0.00     0.049 A 
ATOM     16  N   LIG d   1       4.756  -3.381  -4.209  0.00  0.00    -0.256 NA
ATOM     17  C   LIG d   1       4.908  -3.804  -5.449  0.00  0.00     0.045 A 
ATOM     18  C   LIG d   1       4.591  -3.010  -6.540  0.00  0.00     0.013 A 
ATOM     19  C   LIG d   1       4.761  -3.469  -7.841  0.00  0.00     0.056 C 
ATOM     20  O   LIG d   1       5.346  -4.646  -8.062  0.00  0.00    -0.848 OA
ATOM     21  H   LIG d   1       3.069  -1.535  -6.723  0.00  0.00     0.045 H 
BRANCH  14  22
ATOM     22  C   LIG d   1       3.433  -0.002  -4.404  0.00  0.00     0.338 C 
ATOM     23  O   LIG d   1       2.143   0.290  -4.562  0.00  0.00    -0.245 OA
BRANCH  22  24
ATOM     24  O   LIG d   1       4.270   0.909  -3.868  0.00  0.00    -0.465 OA
BRANCH  24  25
ATOM     25  C   LIG d   1       3.828   1.581  -2.688  0.00  0.00     0.082 C 
ATOM     26  H   LIG d   1       3.171   0.923  -2.119  0.00  0.00     0.066 H 
ATOM     27  H   LIG d   1       4.690   1.849  -2.077  0.00  0.00     0.066 H 
ATOM     28  H   LIG d   1       3.285   2.484  -2.967  0.00  0.00     0.066 H 
ENDBRANCH  24  25
ENDBRANCH  22  24
ENDBRANCH  14  22
BRANCH  15  29
ATOM     29  C   LIG d   1       4.174  -1.867  -2.391  0.00  0.00    -0.022 C 
ATOM     30  H   LIG d   1       4.331  -2.770  -1.801  0.00  0.00     0.029 H 
ATOM     31  H   LIG d   1       4.926  -1.124  -2.124  0.00  0.00     0.029 H 
ATOM     32  H   LIG d   1       3.181  -1.467  -2.189  0.00  0.00     0.029 H 
ENDBRANCH  15  29
BRANCH  17  33
ATOM     33  C   LIG d   1       5.446  -5.191  -5.686  0.00  0.00    -0.022 C 
ATOM     34  H   LIG d   1       4.638  -5.916  -5.588  0.00  0.00     0.029 H 
ATOM     35  H   LIG d   1       5.868  -5.250  -6.690  0.00  0.00     0.029 H 
ATOM     36  H   LIG d   1       6.221  -5.410  -4.952  0.00  0.00     0.029 H 
ENDBRANCH  17  33
BRANCH  19  37
ATOM     37  O   LIG d   1       4.334  -2.724  -8.881  0.00  0.00    -0.509 OA
BRANCH  37  38
ATOM     38  C   LIG d   1       4.956  -2.958 -10.145  0.00  0.00     0.077 C 
ATOM     39  H   LIG d   1       5.707  -2.189 -10.327  0.00  0.00     0.066 H 
ATOM     40  H   LIG d   1       5.434  -3.938 -10.139  0.00  0.00     0.066 H 
ATOM     41  H   LIG d   1       4.204  -2.925 -10.933  0.00  0.00     0.066 H 
ENDBRANCH  37  38
ENDBRANCH  19  37
ENDBRANCH   1  13
TORSDOF 8
ENDMDL
MODEL 4
REMARK VINA RESULT:      -5.2      2.654      3.869
REMARK  8 active torsions:
REMARK  status: ('A' for Active; 'I' for Inactive)
REMARK    1  A    between atoms: C_1  and  C_2 
REMARK    2  A    between atoms: C_3  and  C_22 
REMARK    3  A    between atoms: C_4  and  C_14 
REMARK    4  A    between atoms: C_7  and  O_9 
REMARK    5  A    between atoms: O_9  and  C_10 
REMARK    6  A    between atoms: C_11  and  C_13 
REMARK    7  A    between atoms: C_22  and  O_24 
REMARK    8  A    between atoms: O_24  and  C_25 
ROOT
ATOM      1  C   LIG d   1       5.348  -3.074  -5.965  0.00  0.00    -0.035 A 
ATOM      2  C   LIG d   1       4.253  -3.662  -6.573  0.00  0.00    -0.057 A 
ATOM      3  C   LIG d   1       4.106  -5.033  -6.560  0.00  0.00    -0.044 A 
ATOM      4  C   LIG d   1       5.068  -5.829  -5.933  0.00  0.00     0.052 A 
ATOM      5  C   LIG d   1       6.170  -5.229  -5.321  0.00  0.00    -0.044 A 
ATOM      6  C   LIG d   1       6.306  -3.857  -5.346  0.00  0.00    -0.057 A 
ATOM      7  C   LIG d   1       4.922  -7.253  -5.916  0.00  0.00     0.099 C 
ATOM      8  N   LIG d   1       4.807  -8.383  -5.902  0.00  0.00    -0.191 NA
ATOM      9  H   LIG d   1       3.511  -3.045  -7.058  0.00  0.00     0.062 H 
ATOM     10  H   LIG d   1       3.251  -5.491  -7.034  0.00  0.00     0.063 H 
ATOM     11  H   LIG d   1       6.917  -5.838  -4.834  0.00  0.00     0.063 H 
ATOM     12  H   LIG d   1       7.161  -3.391  -4.877  0.00  0.00     0.062 H 
ENDROOT
BRANCH   1  13
ATOM     13  C   LIG d   1       5.501  -1.575  -5.982  0.00  0.00     0.047 A 
ATOM     14  C   LIG d   1       4.448  -0.980  -5.064  0.00  0.00     0.069 A 
ATOM     15  C   LIG d   1       3.551  -0.082  -5.622  0.00  0.00     0.049 A 
ATOM     16  N   LIG d   1       3.595   0.249  -6.898  0.00  0.00    -0.256 NA
ATOM     17  C   LIG d   1       4.469  -0.204  -7.775  0.00  0.00     0.045 A 
ATOM     18  C   LIG d   1       5.455  -1.114  -7.428  0.00  0.00     0.013 A 
ATOM     19  C   LIG d   1       6.365  -1.587  -8.366  0.00  0.00     0.056 C 
ATOM     20  O   LIG d   1       6.229  -1.258  -9.651  0.00  0.00    -0.848 OA
ATOM     21  H   LIG d   1       6.482  -1.330  -5.578  0.00  0.00     0.045 H 
BRANCH  14  22
ATOM     22  C   LIG d   1       4.386  -1.322  -3.718  0.00  0.00     0.338 C 
ATOM     23  O   LIG d   1       3.552  -2.278  -3.312  0.00  0.00    -0.245 OA
BRANCH  22  24
ATOM     24  O   LIG d   1       5.169  -0.686  -2.824  0.00  0.00    -0.465 OA
BRANCH  24  25
ATOM     25  C   LIG d   1       4.511   0.031  -1.779  0.00  0.00     0.082 C 
ATOM     26  H   LIG d   1       3.850  -0.644  -1.235  0.00  0.00     0.066 H 
ATOM     27  H   LIG d   1       5.253   0.441  -1.094  0.00  0.00     0.066 H 
ATOM     28  H   LIG d   1       3.925   0.844  -2.209  0.00  0.00     0.066 H 
ENDBRANCH  24  25
ENDBRANCH  22  24
ENDBRANCH  14  22
BRANCH  15  29
ATOM     29  C   LIG d   1       2.491   0.531  -4.744  0.00  0.00    -0.022 C 
ATOM     30  H   LIG d   1       2.948   0.901  -3.827  0.00  0.00     0.029 H 
ATOM     31  H   LIG d   1       2.016   1.358  -5.272  0.00  0.00     0.029 H 
ATOM     32  H   LIG d   1       1.741  -0.222  -4.501  0.00  0.00     0.029 H 
ENDBRANCH  15  29
BRANCH  17  33
ATOM     33  C   LIG d   1       4.389   0.279  -9.200  0.00  0.00    -0.022 C 
ATOM     34  H   LIG d   1       5.164  -0.207  -9.793  0.00  0.00     0.029 H 
ATOM     35  H   LIG d   1       3.410   0.034  -9.612  0.00  0.00     0.029 H 
ATOM     36  H   LIG d   1       4.536   1.358  -9.227  0.00  0.00     0.029 H 
ENDBRANCH  17  33
BRANCH  19  37
ATOM     37  O   LIG d   1       7.386  -2.377  -7.977  0.00  0.00    -0.509 OA
BRANCH  37  38
ATOM     38  C   LIG d   1       8.686  -1.787  -7.945  0.00  0.00     0.077 C 
ATOM     39  H   LIG d   1       9.442  -2.571  -7.994  0.00  0.00     0.066 H 
ATOM     40  H   LIG d   1       8.803  -1.117  -8.797  0.00  0.00     0.066 H 
ATOM     41  H   LIG d   1       8.807  -1.224  -7.019  0.00  0.00     0.066 H 
ENDBRANCH  37  38
ENDBRANCH  19  37
ENDBRANCH   1  13
TORSDOF 8
ENDMDL
MODEL 5
REMARK VINA RESULT:      -5.1      2.485      5.968
REMARK  8 active torsions:
REMARK  status: ('A' for Active; 'I' for Inactive)
REMARK    1  A    between atoms: C_1  and  C_2 
REMARK    2  A    between atoms: C_3  and  C_22 
REMARK    3  A    between atoms: C_4  and  C_14 
REMARK    4  A    between atoms: C_7  and  O_9 
REMARK    5  A    between atoms: O_9  and  C_10 
REMARK    6  A    between atoms: C_11  and  C_13 
REMARK    7  A    between atoms: C_22  and  O_24 
REMARK    8  A    between atoms: O_24  and  C_25 
ROOT
ATOM      1  C   LIG d   1       5.064  -0.757  -6.226  0.00  0.00    -0.035 A 
ATOM      2  C   LIG d   1       6.188  -0.194  -5.647  0.00  0.00    -0.057 A 
ATOM      3  C   LIG d   1       6.134   0.290  -4.357  0.00  0.00    -0.044 A 
ATOM      4  C   LIG d   1       4.941   0.214  -3.635  0.00  0.00     0.052 A 
ATOM      5  C   LIG d   1       3.811  -0.355  -4.226  0.00  0.00    -0.044 A 
ATOM      6  C   LIG d   1       3.878  -0.832  -5.518  0.00  0.00    -0.057 A 
ATOM      7  C   LIG d   1       4.877   0.715  -2.296  0.00  0.00     0.099 C 
ATOM      8  N   LIG d   1       4.828   1.112  -1.232  0.00  0.00    -0.191 NA
ATOM      9  H   LIG d   1       7.109  -0.135  -6.207  0.00  0.00     0.062 H 
ATOM     10  H   LIG d   1       7.012   0.728  -3.906  0.00  0.00     0.063 H 
ATOM     11  H   LIG d   1       2.885  -0.418  -3.673  0.00  0.00     0.063 H 
ATOM     12  H   LIG d   1       3.003  -1.268  -5.978  0.00  0.00     0.062 H 
ENDROOT
BRANCH   1  13
ATOM     13  C   LIG d   1       5.130  -1.285  -7.636  0.00  0.00     0.047 A 
ATOM     14  C   LIG d   1       4.176  -0.472  -8.493  0.00  0.00     0.069 A 
ATOM     15  C   LIG d   1       3.166  -1.159  -9.147  0.00  0.00     0.049 A 
ATOM     16  N   LIG d   1       3.023  -2.465  -9.037  0.00  0.00    -0.256 NA
ATOM     17  C   LIG d   1       3.797  -3.261  -8.325  0.00  0.00     0.045 A 
ATOM     18  C   LIG d   1       4.869  -2.780  -7.591  0.00  0.00     0.013 A 
ATOM     19  C   LIG d   1       5.672  -3.632  -6.841  0.00  0.00     0.056 C 
ATOM     20  O   LIG d   1       5.350  -4.920  -6.725  0.00  0.00    -0.848 OA
ATOM     21  H   LIG d   1       6.141  -1.128  -8.009  0.00  0.00     0.045 H 
BRANCH  14  22
ATOM     22  C   LIG d   1       4.311   0.906  -8.616  0.00  0.00     0.338 C 
ATOM     23  O   LIG d   1       3.521   1.718  -7.915  0.00  0.00    -0.245 OA
BRANCH  22  24
ATOM     24  O   LIG d   1       5.243   1.421  -9.444  0.00  0.00    -0.465 OA
BRANCH  24  25
ATOM     25  C   LIG d   1       6.493   1.794  -8.863  0.00  0.00     0.082 C 
ATOM     26  H   LIG d   1       6.524   1.462  -7.825  0.00  0.00     0.066 H 
ATOM     27  H   LIG d   1       7.306   1.325  -9.417  0.00  0.00     0.066 H 
ATOM     28  H   LIG d   1       6.603   2.877  -8.902  0.00  0.00     0.066 H 
ENDBRANCH  24  25
ENDBRANCH  22  24
ENDBRANCH  14  22
BRANCH  15  29
ATOM     29  C   LIG d   1       2.198  -0.388 -10.007  0.00  0.00    -0.022 C 
ATOM     30  H   LIG d   1       2.448   0.672  -9.975  0.00  0.00     0.029 H 
ATOM     31  H   LIG d   1       2.262  -0.745 -11.035  0.00  0.00     0.029 H 
ATOM     32  H   LIG d   1       1.185  -0.535  -9.635  0.00  0.00     0.029 H 
ENDBRANCH  15  29
BRANCH  17  33
ATOM     33  C   LIG d   1       3.503  -4.739  -8.308  0.00  0.00    -0.022 C 
ATOM     34  H   LIG d   1       2.453  -4.904  -8.547  0.00  0.00     0.029 H 
ATOM     35  H   LIG d   1       4.128  -5.242  -9.046  0.00  0.00     0.029 H 
ATOM     36  H   LIG d   1       3.716  -5.140  -7.317  0.00  0.00     0.029 H 
ENDBRANCH  17  33
BRANCH  19  37
ATOM     37  O   LIG d   1       6.777  -3.156  -6.233  0.00  0.00    -0.509 OA
BRANCH  37  38
ATOM     38  C   LIG d   1       7.121  -3.732  -4.972  0.00  0.00     0.077 C 
ATOM     39  H   LIG d   1       6.988  -2.989  -4.186  0.00  0.00     0.066 H 
ATOM     40  H   LIG d   1       6.476  -4.588  -4.775  0.00  0.00     0.066 H 
ATOM     41  H   LIG d   1       8.162  -4.057  -4.991  0.00  0.00     0.066 H 
ENDBRANCH  37  38
ENDBRANCH  19  37
ENDBRANCH   1  13
TORSDOF 8
ENDMDL
MODEL 6
REMARK VINA RESULT:      -5.0      2.664      5.044
REMARK  8 active torsions:
REMARK  status: ('A' for Active; 'I' for Inactive)
REMARK    1  A    between atoms: C_1  and  C_2 
REMARK    2  A    between atoms: C_3  and  C_22 
REMARK    3  A    between atoms: C_4  and  C_14 
REMARK    4  A    between atoms: C_7  and  O_9 
REMARK    5  A    between atoms: O_9  and  C_10 
REMARK    6  A    between atoms: C_11  and  C_13 
REMARK    7  A    between atoms: C_22  and  O_24 
REMARK    8  A    between atoms: O_24  and  C_25 
ROOT
ATOM      1  C   LIG d   1       6.879  -0.913  -5.828  0.00  0.00    -0.035 A 
ATOM      2  C   LIG d   1       7.286   0.262  -6.432  0.00  0.00    -0.057 A 
ATOM      3  C   LIG d   1       8.625   0.589  -6.483  0.00  0.00    -0.044 A 
ATOM      4  C   LIG d   1       9.571  -0.271  -5.919  0.00  0.00     0.052 A 
ATOM      5  C   LIG d   1       9.153  -1.456  -5.311  0.00  0.00    -0.044 A 
ATOM      6  C   LIG d   1       7.810  -1.767  -5.264  0.00  0.00    -0.057 A 
ATOM      7  C   LIG d   1      10.963   0.061  -5.967  0.00  0.00     0.099 C 
ATOM      8  N   LIG d   1      12.067   0.324  -6.006  0.00  0.00    -0.191 NA
ATOM      9  H   LIG d   1       6.553   0.926  -6.867  0.00  0.00     0.062 H 
ATOM     10  H   LIG d   1       8.942   1.506  -6.955  0.00  0.00     0.063 H 
ATOM     11  H   LIG d   1       9.879  -2.125  -4.874  0.00  0.00     0.063 H 
ATOM     12  H   LIG d   1       7.485  -2.681  -4.789  0.00  0.00     0.062 H 
ENDROOT
BRANCH   1  13
ATOM     13  C   LIG d   1       5.414  -1.263  -5.777  0.00  0.00     0.047 A 
ATOM     14  C   LIG d   1       4.941  -1.123  -4.341  0.00  0.00     0.069 A 
ATOM     15  C   LIG d   1       4.399  -2.246  -3.737  0.00  0.00     0.049 A 
ATOM     16  N   LIG d   1       4.294  -3.399  -4.368  0.00  0.00    -0.256 NA
ATOM     17  C   LIG d   1       4.668  -3.625  -5.612  0.00  0.00     0.045 A 
ATOM     18  C   LIG d   1       5.237  -2.637  -6.400  0.00  0.00     0.013 A 
ATOM     19  C   LIG d   1       5.631  -2.893  -7.709  0.00  0.00     0.056 C 
ATOM     20  O   LIG d   1       5.573  -4.135  -8.191  0.00  0.00    -0.848 OA
ATOM     21  H   LIG d   1       4.872  -0.542  -6.387  0.00  0.00     0.045 H 
BRANCH  14  22
ATOM     22  C   LIG d   1       5.049   0.085  -3.660  0.00  0.00     0.338 C 
ATOM     23  O   LIG d   1       6.089   0.307  -2.858  0.00  0.00    -0.245 OA
BRANCH  22  24
ATOM     24  O   LIG d   1       4.100   1.031  -3.812  0.00  0.00    -0.465 OA
BRANCH  24  25
ATOM     25  C   LIG d   1       3.543   1.588  -2.621  0.00  0.00     0.082 C 
ATOM     26  H   LIG d   1       4.342   1.994  -2.001  0.00  0.00     0.066 H 
ATOM     27  H   LIG d   1       2.847   2.386  -2.882  0.00  0.00     0.066 H 
ATOM     28  H   LIG d   1       3.014   0.811  -2.069  0.00  0.00     0.066 H 
ENDBRANCH  24  25
ENDBRANCH  22  24
ENDBRANCH  14  22
BRANCH  15  29
ATOM     29  C   LIG d   1       3.918  -2.147  -2.312  0.00  0.00    -0.022 C 
ATOM     30  H   LIG d   1       4.159  -3.069  -1.783  0.00  0.00     0.029 H 
ATOM     31  H   LIG d   1       4.409  -1.307  -1.820  0.00  0.00     0.029 H 
ATOM     32  H   LIG d   1       2.839  -1.993  -2.303  0.00  0.00     0.029 H 
ENDBRANCH  15  29
BRANCH  17  33
ATOM     33  C   LIG d   1       4.474  -5.002  -6.193  0.00  0.00    -0.022 C 
ATOM     34  H   LIG d   1       4.980  -5.064  -7.157  0.00  0.00     0.029 H 
ATOM     35  H   LIG d   1       4.893  -5.744  -5.514  0.00  0.00     0.029 H 
ATOM     36  H   LIG d   1       3.410  -5.192  -6.329  0.00  0.00     0.029 H 
ENDBRANCH  17  33
BRANCH  19  37
ATOM     37  O   LIG d   1       6.070  -1.886  -8.490  0.00  0.00    -0.509 OA
BRANCH  37  38
ATOM     38  C   LIG d   1       5.175  -1.409  -9.497  0.00  0.00     0.077 C 
ATOM     39  H   LIG d   1       4.325  -0.919  -9.023  0.00  0.00     0.066 H 
ATOM     40  H   LIG d   1       5.695  -0.695 -10.136  0.00  0.00     0.066 H 
ATOM     41  H   LIG d   1       4.823  -2.247 -10.097  0.00  0.00     0.066 H 
ENDBRANCH  37  38
ENDBRANCH  19  37
ENDBRANCH   1  13
TORSDOF 8
ENDMDL
MODEL 7
REMARK VINA RESULT:      -5.0      2.656      5.093
REMARK  8 active torsions:
REMARK  status: ('A' for Active; 'I' for Inactive)
REMARK    1  A    between atoms: C_1  and  C_2 
REMARK    2  A    between atoms: C_3  and  C_22 
REMARK    3  A    between atoms: C_4  and  C_14 
REMARK    4  A    between atoms: C_7  and  O_9 
REMARK    5  A    between atoms: O_9  and  C_10 
REMARK    6  A    between atoms: C_11  and  C_13 
REMARK    7  A    between atoms: C_22  and  O_24 
REMARK    8  A    between atoms: O_24  and  C_25 
ROOT
ATOM      1  C   LIG d   1       7.200  -1.971  -4.771  0.00  0.00    -0.035 A 
ATOM      2  C   LIG d   1       7.301  -2.840  -5.842  0.00  0.00    -0.057 A 
ATOM      3  C   LIG d   1       7.946  -4.051  -5.695  0.00  0.00    -0.044 A 
ATOM      4  C   LIG d   1       8.499  -4.396  -4.459  0.00  0.00     0.052 A 
ATOM      5  C   LIG d   1       8.393  -3.514  -3.383  0.00  0.00    -0.044 A 
ATOM      6  C   LIG d   1       7.749  -2.305  -3.547  0.00  0.00    -0.057 A 
ATOM      7  C   LIG d   1       9.170  -5.650  -4.297  0.00  0.00     0.099 C 
ATOM      8  N   LIG d   1       9.703  -6.646  -4.170  0.00  0.00    -0.191 NA
ATOM      9  H   LIG d   1       6.874  -2.571  -6.797  0.00  0.00     0.062 H 
ATOM     10  H   LIG d   1       8.024  -4.728  -6.531  0.00  0.00     0.063 H 
ATOM     11  H   LIG d   1       8.818  -3.775  -2.425  0.00  0.00     0.063 H 
ATOM     12  H   LIG d   1       7.670  -1.619  -2.715  0.00  0.00     0.062 H 
ENDROOT
BRANCH   1  13
ATOM     13  C   LIG d   1       6.493  -0.650  -4.941  0.00  0.00     0.047 A 
ATOM     14  C   LIG d   1       7.535   0.453  -4.915  0.00  0.00     0.069 A 
ATOM     15  C   LIG d   1       7.404   1.430  -3.941  0.00  0.00     0.049 A 
ATOM     16  N   LIG d   1       6.421   1.415  -3.062  0.00  0.00    -0.256 NA
ATOM     17  C   LIG d   1       5.465   0.508  -3.001  0.00  0.00     0.045 A 
ATOM     18  C   LIG d   1       5.407  -0.559  -3.883  0.00  0.00     0.013 A 
ATOM     19  C   LIG d   1       4.396  -1.510  -3.802  0.00  0.00     0.056 C 
ATOM     20  O   LIG d   1       3.525  -1.472  -2.793  0.00  0.00    -0.848 OA
ATOM     21  H   LIG d   1       6.015  -0.645  -5.919  0.00  0.00     0.045 H 
BRANCH  14  22
ATOM     22  C   LIG d   1       8.580   0.481  -5.832  0.00  0.00     0.338 C 
ATOM     23  O   LIG d   1       9.779   0.014  -5.490  0.00  0.00    -0.245 OA
BRANCH  22  24
ATOM     24  O   LIG d   1       8.379   0.982  -7.068  0.00  0.00    -0.465 OA
BRANCH  24  25
ATOM     25  C   LIG d   1       8.346   0.049  -8.148  0.00  0.00     0.082 C 
ATOM     26  H   LIG d   1       7.588  -0.710  -7.950  0.00  0.00     0.066 H 
ATOM     27  H   LIG d   1       8.101   0.571  -9.074  0.00  0.00     0.066 H 
ATOM     28  H   LIG d   1       9.321  -0.428  -8.246  0.00  0.00     0.066 H 
ENDBRANCH  24  25
ENDBRANCH  22  24
ENDBRANCH  14  22
BRANCH  15  29
ATOM     29  C   LIG d   1       8.418   2.543  -3.882  0.00  0.00    -0.022 C 
ATOM     30  H   LIG d   1       9.275   2.223  -3.289  0.00  0.00     0.029 H 
ATOM     31  H   LIG d   1       8.747   2.789  -4.892  0.00  0.00     0.029 H 
ATOM     32  H   LIG d   1       7.966   3.423  -3.424  0.00  0.00     0.029 H 
ENDBRANCH  15  29
BRANCH  17  33
ATOM     33  C   LIG d   1       4.406   0.635  -1.937  0.00  0.00    -0.022 C 
ATOM     34  H   LIG d   1       3.523   1.115  -2.358  0.00  0.00     0.029 H 
ATOM     35  H   LIG d   1       4.140  -0.356  -1.569  0.00  0.00     0.029 H 
ATOM     36  H   LIG d   1       4.789   1.239  -1.114  0.00  0.00     0.029 H 
ENDBRANCH  17  33
BRANCH  19  37
ATOM     37  O   LIG d   1       4.294  -2.469  -4.744  0.00  0.00    -0.509 OA
BRANCH  37  38
ATOM     38  C   LIG d   1       4.293  -3.824  -4.291  0.00  0.00     0.077 C 
ATOM     39  H   LIG d   1       4.018  -3.854  -3.237  0.00  0.00     0.066 H 
ATOM     40  H   LIG d   1       3.571  -4.400  -4.870  0.00  0.00     0.066 H 
ATOM     41  H   LIG d   1       5.287  -4.252  -4.419  0.00  0.00     0.066 H 
ENDBRANCH  37  38
ENDBRANCH  19  37
ENDBRANCH   1  13
TORSDOF 8
ENDMDL
MODEL 8
REMARK VINA RESULT:      -5.0      8.037     10.416
REMARK  8 active torsions:
REMARK  status: ('A' for Active; 'I' for Inactive)
REMARK    1  A    between atoms: C_1  and  C_2 
REMARK    2  A    between atoms: C_3  and  C_22 
REMARK    3  A    between atoms: C_4  and  C_14 
REMARK    4  A    between atoms: C_7  and  O_9 
REMARK    5  A    between atoms: O_9  and  C_10 
REMARK    6  A    between atoms: C_11  and  C_13 
REMARK    7  A    between atoms: C_22  and  O_24 
REMARK    8  A    between atoms: O_24  and  C_25 
ROOT
ATOM      1  C   LIG d   1      10.276   7.324  -4.200  0.00  0.00    -0.035 A 
ATOM      2  C   LIG d   1      11.644   7.521  -4.240  0.00  0.00    -0.057 A 
ATOM      3  C   LIG d   1      12.179   8.516  -5.031  0.00  0.00    -0.044 A 
ATOM      4  C   LIG d   1      11.335   9.325  -5.795  0.00  0.00     0.052 A 
ATOM      5  C   LIG d   1       9.954   9.121  -5.750  0.00  0.00    -0.044 A 
ATOM      6  C   LIG d   1       9.434   8.118  -4.958  0.00  0.00    -0.057 A 
ATOM      7  C   LIG d   1      11.882  10.361  -6.618  0.00  0.00     0.099 C 
ATOM      8  N   LIG d   1      12.316  11.182  -7.271  0.00  0.00    -0.191 NA
ATOM      9  H   LIG d   1      12.296   6.894  -3.649  0.00  0.00     0.062 H 
ATOM     10  H   LIG d   1      13.247   8.670  -5.060  0.00  0.00     0.063 H 
ATOM     11  H   LIG d   1       9.295   9.743  -6.337  0.00  0.00     0.063 H 
ATOM     12  H   LIG d   1       8.366   7.955  -4.926  0.00  0.00     0.062 H 
ENDROOT
BRANCH   1  13
ATOM     13  C   LIG d   1       9.699   6.234  -3.333  0.00  0.00     0.047 A 
ATOM     14  C   LIG d   1       9.930   6.612  -1.881  0.00  0.00     0.069 A 
ATOM     15  C   LIG d   1      10.659   5.727  -1.102  0.00  0.00     0.049 A 
ATOM     16  N   LIG d   1      11.144   4.601  -1.588  0.00  0.00    -0.256 NA
ATOM     17  C   LIG d   1      10.996   4.179  -2.829  0.00  0.00     0.045 A 
ATOM     18  C   LIG d   1      10.300   4.912  -3.777  0.00  0.00     0.013 A 
ATOM     19  C   LIG d   1      10.158   4.456  -5.082  0.00  0.00     0.056 C 
ATOM     20  O   LIG d   1      10.794   3.352  -5.475  0.00  0.00    -0.848 OA
ATOM     21  H   LIG d   1       8.625   6.195  -3.508  0.00  0.00     0.045 H 
BRANCH  14  22
ATOM     22  C   LIG d   1       9.430   7.797  -1.354  0.00  0.00     0.338 C 
ATOM     23  O   LIG d   1       8.172   7.853  -0.919  0.00  0.00    -0.245 OA
BRANCH  22  24
ATOM     24  O   LIG d   1      10.218   8.889  -1.282  0.00  0.00    -0.465 OA
BRANCH  24  25
ATOM     25  C   LIG d   1       9.680  10.111  -1.789  0.00  0.00     0.082 C 
ATOM     26  H   LIG d   1       9.946  10.217  -2.841  0.00  0.00     0.066 H 
ATOM     27  H   LIG d   1       8.594  10.100  -1.690  0.00  0.00     0.066 H 
ATOM     28  H   LIG d   1      10.088  10.949  -1.225  0.00  0.00     0.066 H 
ENDBRANCH  24  25
ENDBRANCH  22  24
ENDBRANCH  14  22
BRANCH  15  29
ATOM     29  C   LIG d   1      10.911   6.065   0.345  0.00  0.00    -0.022 C 
ATOM     30  H   LIG d   1      10.764   7.134   0.500  0.00  0.00     0.029 H 
ATOM     31  H   LIG d   1      10.216   5.508   0.974  0.00  0.00     0.029 H 
ATOM     32  H   LIG d   1      11.933   5.796   0.609  0.00  0.00     0.029 H 
ENDBRANCH  15  29
BRANCH  17  33
ATOM     33  C   LIG d   1      11.608   2.861  -3.229  0.00  0.00    -0.022 C 
ATOM     34  H   LIG d   1      11.019   2.416  -4.030  0.00  0.00     0.029 H 
ATOM     35  H   LIG d   1      12.628   3.025  -3.575  0.00  0.00     0.029 H 
ATOM     36  H   LIG d   1      11.618   2.191  -2.370  0.00  0.00     0.029 H 
ENDBRANCH  17  33
BRANCH  19  37
ATOM     37  O   LIG d   1       9.377   5.129  -5.951  0.00  0.00    -0.509 OA
BRANCH  37  38
ATOM     38  C   LIG d   1       9.847   5.237  -7.296  0.00  0.00     0.077 C 
ATOM     39  H   LIG d   1      10.230   4.271  -7.625  0.00  0.00     0.066 H 
ATOM     40  H   LIG d   1       9.025   5.542  -7.945  0.00  0.00     0.066 H 
ATOM     41  H   LIG d   1      10.643   5.980  -7.344  0.00  0.00     0.066 H 
ENDBRANCH  37  38
ENDBRANCH  19  37
ENDBRANCH   1  13
TORSDOF 8
ENDMDL
MODEL 9
REMARK VINA RESULT:      -4.9      2.609      3.771
REMARK  8 active torsions:
REMARK  status: ('A' for Active; 'I' for Inactive)
REMARK    1  A    between atoms: C_1  and  C_2 
REMARK    2  A    between atoms: C_3  and  C_22 
REMARK    3  A    between atoms: C_4  and  C_14 
REMARK    4  A    between atoms: C_7  and  O_9 
REMARK    5  A    between atoms: O_9  and  C_10 
REMARK    6  A    between atoms: C_11  and  C_13 
REMARK    7  A    between atoms: C_22  and  O_24 
REMARK    8  A    between atoms: O_24  and  C_25 
ROOT
ATOM      1  C   LIG d   1       6.485  -2.268  -5.087  0.00  0.00    -0.035 A 
ATOM      2  C   LIG d   1       5.841  -3.194  -5.889  0.00  0.00    -0.057 A 
ATOM      3  C   LIG d   1       6.260  -4.508  -5.906  0.00  0.00    -0.044 A 
ATOM      4  C   LIG d   1       7.339  -4.903  -5.111  0.00  0.00     0.052 A 
ATOM      5  C   LIG d   1       7.984  -3.963  -4.304  0.00  0.00    -0.044 A 
ATOM      6  C   LIG d   1       7.557  -2.652  -4.302  0.00  0.00    -0.057 A 
ATOM      7  C   LIG d   1       7.779  -6.265  -5.122  0.00  0.00     0.099 C 
ATOM      8  N   LIG d   1       8.129  -7.346  -5.132  0.00  0.00    -0.191 NA
ATOM      9  H   LIG d   1       5.008  -2.886  -6.504  0.00  0.00     0.062 H 
ATOM     10  H   LIG d   1       5.756  -5.229  -6.531  0.00  0.00     0.063 H 
ATOM     11  H   LIG d   1       8.818  -4.262  -3.687  0.00  0.00     0.063 H 
ATOM     12  H   LIG d   1       8.059  -1.923  -3.681  0.00  0.00     0.062 H 
ENDROOT
BRANCH   1  13
ATOM     13  C   LIG d   1       6.021  -0.834  -5.074  0.00  0.00     0.047 A 
ATOM     14  C   LIG d   1       4.666  -0.780  -4.393  0.00  0.00     0.069 A 
ATOM     15  C   LIG d   1       3.606  -0.267  -5.123  0.00  0.00     0.049 A 
ATOM     16  N   LIG d   1       3.751   0.157  -6.363  0.00  0.00    -0.256 NA
ATOM     17  C   LIG d   1       4.882   0.159  -7.043  0.00  0.00     0.045 A 
ATOM     18  C   LIG d   1       6.066  -0.313  -6.500  0.00  0.00     0.013 A 
ATOM     19  C   LIG d   1       7.248  -0.309  -7.231  0.00  0.00     0.056 C 
ATOM     20  O   LIG d   1       7.235   0.043  -8.517  0.00  0.00    -0.848 OA
ATOM     21  H   LIG d   1       6.726  -0.256  -4.478  0.00  0.00     0.045 H 
BRANCH  14  22
ATOM     22  C   LIG d   1       4.495  -1.228  -3.087  0.00  0.00     0.338 C 
ATOM     23  O   LIG d   1       3.787  -2.331  -2.849  0.00  0.00    -0.245 OA
BRANCH  22  24
ATOM     24  O   LIG d   1       5.046  -0.545  -2.063  0.00  0.00    -0.465 OA
BRANCH  24  25
ATOM     25  C   LIG d   1       4.505   0.746  -1.779  0.00  0.00     0.082 C 
ATOM     26  H   LIG d   1       3.657   0.938  -2.438  0.00  0.00     0.066 H 
ATOM     27  H   LIG d   1       4.172   0.782  -0.742  0.00  0.00     0.066 H 
ATOM     28  H   LIG d   1       5.270   1.505  -1.942  0.00  0.00     0.066 H 
ENDBRANCH  24  25
ENDBRANCH  22  24
ENDBRANCH  14  22
BRANCH  15  29
ATOM     29  C   LIG d   1       2.244  -0.196  -4.482  0.00  0.00    -0.022 C 
ATOM     30  H   LIG d   1       1.533  -0.773  -5.075  0.00  0.00     0.029 H 
ATOM     31  H   LIG d   1       2.295  -0.608  -3.474  0.00  0.00     0.029 H 
ATOM     32  H   LIG d   1       1.919   0.843  -4.434  0.00  0.00     0.029 H 
ENDBRANCH  15  29
BRANCH  17  33
ATOM     33  C   LIG d   1       4.883   0.686  -8.454  0.00  0.00    -0.022 C 
ATOM     34  H   LIG d   1       3.992   1.291  -8.618  0.00  0.00     0.029 H 
ATOM     35  H   LIG d   1       5.772   1.297  -8.612  0.00  0.00     0.029 H 
ATOM     36  H   LIG d   1       4.888  -0.150  -9.154  0.00  0.00     0.029 H 
ENDBRANCH  17  33
BRANCH  19  37
ATOM     37  O   LIG d   1       8.408  -0.662  -6.640  0.00  0.00    -0.509 OA
BRANCH  37  38
ATOM     38  C   LIG d   1       9.548  -0.812  -7.489  0.00  0.00     0.077 C 
ATOM     39  H   LIG d   1      10.445  -0.516  -6.946  0.00  0.00     0.066 H 
ATOM     40  H   LIG d   1       9.637  -1.854  -7.796  0.00  0.00     0.066 H 
ATOM     41  H   LIG d   1       9.432  -0.181  -8.370  0.00  0.00     0.066 H 
ENDBRANCH  37  38
ENDBRANCH  19  37
ENDBRANCH   1  13
TORSDOF 8
ENDMDL
MODEL 10
REMARK VINA RESULT:      -4.9      3.392      4.483
REMARK  8 active torsions:
REMARK  status: ('A' for Active; 'I' for Inactive)
REMARK    1  A    between atoms: C_1  and  C_2 
REMARK    2  A    between atoms: C_3  and  C_22 
REMARK    3  A    between atoms: C_4  and  C_14 
REMARK    4  A    between atoms: C_7  and  O_9 
REMARK    5  A    between atoms: O_9  and  C_10 
REMARK    6  A    between atoms: C_11  and  C_13 
REMARK    7  A    between atoms: C_22  and  O_24 
REMARK    8  A    between atoms: O_24  and  C_25 
ROOT
ATOM      1  C   LIG d   1       6.180  -0.159  -7.643  0.00  0.00    -0.035 A 
ATOM      2  C   LIG d   1       6.309  -0.266  -9.016  0.00  0.00    -0.057 A 
ATOM      3  C   LIG d   1       7.153   0.582  -9.703  0.00  0.00    -0.044 A 
ATOM      4  C   LIG d   1       7.878   1.552  -9.007  0.00  0.00     0.052 A 
ATOM      5  C   LIG d   1       7.743   1.655  -7.621  0.00  0.00    -0.044 A 
ATOM      6  C   LIG d   1       6.892   0.803  -6.949  0.00  0.00    -0.057 A 
ATOM      7  C   LIG d   1       8.756   2.436  -9.712  0.00  0.00     0.099 C 
ATOM      8  N   LIG d   1       9.453   3.137 -10.272  0.00  0.00    -0.191 NA
ATOM      9  H   LIG d   1       5.746  -1.017  -9.553  0.00  0.00     0.062 H 
ATOM     10  H   LIG d   1       7.253   0.496 -10.774  0.00  0.00     0.063 H 
ATOM     11  H   LIG d   1       8.301   2.402  -7.077  0.00  0.00     0.063 H 
ATOM     12  H   LIG d   1       6.783   0.885  -5.877  0.00  0.00     0.062 H 
ENDROOT
BRANCH   1  13
ATOM     13  C   LIG d   1       5.256  -1.090  -6.900  0.00  0.00     0.047 A 
ATOM     14  C   LIG d   1       4.004  -0.316  -6.527  0.00  0.00     0.069 A 
ATOM     15  C   LIG d   1       3.685  -0.234  -5.181  0.00  0.00     0.049 A 
ATOM     16  N   LIG d   1       4.430  -0.796  -4.249  0.00  0.00    -0.256 NA
ATOM     17  C   LIG d   1       5.530  -1.490  -4.466  0.00  0.00     0.045 A 
ATOM     18  C   LIG d   1       6.030  -1.695  -5.743  0.00  0.00     0.013 A 
ATOM     19  C   LIG d   1       7.193  -2.425  -5.955  0.00  0.00     0.056 C 
ATOM     20  O   LIG d   1       7.915  -2.845  -4.916  0.00  0.00    -0.848 OA
ATOM     21  H   LIG d   1       4.970  -1.894  -7.576  0.00  0.00     0.045 H 
BRANCH  14  22
ATOM     22  C   LIG d   1       3.209   0.285  -7.496  0.00  0.00     0.338 C 
ATOM     23  O   LIG d   1       2.329  -0.444  -8.181  0.00  0.00    -0.245 OA
BRANCH  22  24
ATOM     24  O   LIG d   1       3.330   1.605  -7.744  0.00  0.00    -0.465 OA
BRANCH  24  25
ATOM     25  C   LIG d   1       3.056   2.043  -9.075  0.00  0.00     0.082 C 
ATOM     26  H   LIG d   1       1.997   1.904  -9.293  0.00  0.00     0.066 H 
ATOM     27  H   LIG d   1       3.310   3.099  -9.171  0.00  0.00     0.066 H 
ATOM     28  H   LIG d   1       3.652   1.461  -9.779  0.00  0.00     0.066 H 
ENDBRANCH  24  25
ENDBRANCH  22  24
ENDBRANCH  14  22
BRANCH  15  29
ATOM     29  C   LIG d   1       2.450   0.524  -4.768  0.00  0.00    -0.022 C 
ATOM     30  H   LIG d   1       1.565   0.010  -5.143  0.00  0.00     0.029 H 
ATOM     31  H   LIG d   1       2.403   0.579  -3.680  0.00  0.00     0.029 H 
ATOM     32  H   LIG d   1       2.487   1.532  -5.181  0.00  0.00     0.029 H 
ENDBRANCH  15  29
BRANCH  17  33
ATOM     33  C   LIG d   1       6.268  -2.075  -3.290  0.00  0.00    -0.022 C 
ATOM     34  H   LIG d   1       5.831  -1.702  -2.364  0.00  0.00     0.029 H 
ATOM     35  H   LIG d   1       6.190  -3.162  -3.317  0.00  0.00     0.029 H 
ATOM     36  H   LIG d   1       7.317  -1.784  -3.339  0.00  0.00     0.029 H 
ENDBRANCH  17  33
BRANCH  19  37
ATOM     37  O   LIG d   1       7.591  -2.710  -7.211  0.00  0.00    -0.509 OA
BRANCH  37  38
ATOM     38  C   LIG d   1       7.677  -4.092  -7.566  0.00  0.00     0.077 C 
ATOM     39  H   LIG d   1       8.724  -4.390  -7.613  0.00  0.00     0.066 H 
ATOM     40  H   LIG d   1       7.162  -4.692  -6.816  0.00  0.00     0.066 H 
ATOM     41  H   LIG d   1       7.211  -4.247  -8.539  0.00  0.00     0.066 H 
ENDBRANCH  37  38
ENDBRANCH  19  37
ENDBRANCH   1  13
TORSDOF 8
ENDMDL
