MODEL 1
REMARK VINA RESULT:      -6.9      0.000      0.000
REMARK  1 active torsions:
REMARK  status: ('A' for Active; 'I' for Inactive)
REMARK    1  A    between atoms: C_10  and  C_22 
ROOT
ATOM      1  C   LIG d   1       2.042  -0.621  -9.430  0.00  0.00    -0.061 A 
ATOM      2  C   LIG d   1       2.671  -1.753  -9.906  0.00  0.00    -0.060 A 
ATOM      3  C   LIG d   1       3.669  -2.393  -9.187  0.00  0.00    -0.041 A 
ATOM      4  C   LIG d   1       4.019  -1.846  -7.957  0.00  0.00     0.031 A 
ATOM      5  C   LIG d   1       3.375  -0.686  -7.479  0.00  0.00    -0.022 A 
ATOM      6  C   LIG d   1       2.382  -0.062  -8.204  0.00  0.00    -0.057 A 
ATOM      7  C   LIG d   1       3.990  -0.379  -6.158  0.00  0.00     0.008 C 
ATOM      8  H   LIG d   1       4.839   0.285  -6.316  0.00  0.00     0.037 H 
ATOM      9  C   LIG d   1       3.099   0.200  -5.088  0.00  0.00    -0.020 C 
ATOM     10  C   LIG d   1       3.775  -0.010  -3.717  0.00  0.00     0.066 C 
ATOM     11  H   LIG d   1       3.296  -0.835  -3.190  0.00  0.00     0.056 H 
ATOM     12  N   LIG d   1       5.192  -0.333  -3.970  0.00  0.00    -0.288 N 
ATOM     13  C   LIG d   1       5.593  -1.566  -4.693  0.00  0.00     0.046 C 
ATOM     14  H   LIG d   1       5.668  -2.420  -4.018  0.00  0.00     0.052 H 
ATOM     15  C   LIG d   1       4.513  -1.780  -5.736  0.00  0.00     0.046 C 
ATOM     16  H   LIG d   1       3.705  -2.392  -5.335  0.00  0.00     0.052 H 
ATOM     17  N   LIG d   1       4.975  -2.294  -7.034  0.00  0.00    -0.338 N 
ATOM     18  C   LIG d   1       6.954  -1.239  -5.331  0.00  0.00    -0.024 C 
ATOM     19  C   LIG d   1       7.500  -0.177  -4.324  0.00  0.00     0.026 C 
ATOM     20  C   LIG d   1       6.263   0.414  -3.681  0.00  0.00     0.216 C 
ATOM     21  O   LIG d   1       6.246   1.419  -3.003  0.00  0.00    -0.276 OA
ATOM     22  H   LIG d   1       1.268  -0.158 -10.023  0.00  0.00     0.062 H 
ATOM     23  H   LIG d   1       2.377  -2.153 -10.866  0.00  0.00     0.062 H 
ATOM     24  H   LIG d   1       4.157  -3.278  -9.568  0.00  0.00     0.064 H 
ATOM     25  H   LIG d   1       1.889   0.824  -7.833  0.00  0.00     0.062 H 
ATOM     26  H   LIG d   1       2.134  -0.307  -5.100  0.00  0.00     0.029 H 
ATOM     27  H   LIG d   1       2.957   1.266  -5.266  0.00  0.00     0.029 H 
ATOM     28  H   LIG d   1       5.766  -2.825  -7.213  0.00  0.00     0.146 HD
ATOM     29  H   LIG d   1       7.591  -2.123  -5.370  0.00  0.00     0.029 H 
ATOM     30  H   LIG d   1       6.828  -0.806  -6.323  0.00  0.00     0.029 H 
ATOM     31  H   LIG d   1       8.065   0.597  -4.845  0.00  0.00     0.036 H 
ATOM     32  H   LIG d   1       8.125  -0.662  -3.574  0.00  0.00     0.036 H 
ENDROOT
BRANCH  10  33
ATOM     33  C   LIG d   1       3.675   1.250  -2.898  0.00  0.00     0.062 C 
ATOM     34  O   LIG d   1       3.749   1.195  -1.693  0.00  0.00    -0.548 OA
ATOM     35  O   LIG d   1       3.504   2.434  -3.505  0.00  0.00    -0.548 OA
ENDBRANCH  10  33
TORSDOF 1
ENDMDL
MODEL 2
REMARK VINA RESULT:      -6.6      3.379      5.825
REMARK  1 active torsions:
REMARK  status: ('A' for Active; 'I' for Inactive)
REMARK    1  A    between atoms: C_10  and  C_22 
ROOT
ATOM      1  C   LIG d   1       5.012  -1.320  -2.709  0.00  0.00    -0.061 A 
ATOM      2  C   LIG d   1       3.731  -0.992  -2.313  0.00  0.00    -0.060 A 
ATOM      3  C   LIG d   1       2.796  -0.491  -3.206  0.00  0.00    -0.041 A 
ATOM      4  C   LIG d   1       3.199  -0.329  -4.528  0.00  0.00     0.031 A 
ATOM      5  C   LIG d   1       4.511  -0.662  -4.923  0.00  0.00    -0.022 A 
ATOM      6  C   LIG d   1       5.430  -1.161  -4.024  0.00  0.00    -0.057 A 
ATOM      7  C   LIG d   1       4.599  -0.362  -6.378  0.00  0.00     0.008 C 
ATOM      8  H   LIG d   1       4.937   0.666  -6.501  0.00  0.00     0.037 H 
ATOM      9  C   LIG d   1       5.451  -1.269  -7.231  0.00  0.00    -0.020 C 
ATOM     10  C   LIG d   1       5.033  -1.096  -8.705  0.00  0.00     0.066 C 
ATOM     11  H   LIG d   1       4.422  -1.943  -9.019  0.00  0.00     0.056 H 
ATOM     12  N   LIG d   1       4.249   0.150  -8.797  0.00  0.00    -0.288 N 
ATOM     13  C   LIG d   1       2.948   0.305  -8.098  0.00  0.00     0.046 C 
ATOM     14  H   LIG d   1       2.124  -0.089  -8.692  0.00  0.00     0.052 H 
ATOM     15  C   LIG d   1       3.107  -0.460  -6.798  0.00  0.00     0.046 C 
ATOM     16  H   LIG d   1       2.806  -1.500  -6.925  0.00  0.00     0.052 H 
ATOM     17  N   LIG d   1       2.460   0.141  -5.623  0.00  0.00    -0.338 N 
ATOM     18  C   LIG d   1       2.793   1.817  -7.861  0.00  0.00    -0.024 C 
ATOM     19  C   LIG d   1       3.614   2.387  -9.062  0.00  0.00     0.026 C 
ATOM     20  C   LIG d   1       4.591   1.285  -9.415  0.00  0.00     0.216 C 
ATOM     21  O   LIG d   1       5.547   1.415 -10.150  0.00  0.00    -0.276 OA
ATOM     22  H   LIG d   1       5.705  -1.709  -1.978  0.00  0.00     0.062 H 
ATOM     23  H   LIG d   1       3.449  -1.129  -1.279  0.00  0.00     0.062 H 
ATOM     24  H   LIG d   1       1.796  -0.236  -2.888  0.00  0.00     0.064 H 
ATOM     25  H   LIG d   1       6.433  -1.418  -4.331  0.00  0.00     0.062 H 
ATOM     26  H   LIG d   1       5.301  -2.305  -6.927  0.00  0.00     0.029 H 
ATOM     27  H   LIG d   1       6.502  -1.001  -7.115  0.00  0.00     0.029 H 
ATOM     28  H   LIG d   1       1.691   0.732  -5.607  0.00  0.00     0.146 HD
ATOM     29  H   LIG d   1       1.745   2.116  -7.910  0.00  0.00     0.029 H 
ATOM     30  H   LIG d   1       3.238   2.113  -6.910  0.00  0.00     0.029 H 
ATOM     31  H   LIG d   1       4.147   3.292  -8.772  0.00  0.00     0.036 H 
ATOM     32  H   LIG d   1       2.950   2.590  -9.902  0.00  0.00     0.036 H 
ENDROOT
BRANCH  10  33
ATOM     33  C   LIG d   1       6.257  -0.997  -9.577  0.00  0.00     0.062 C 
ATOM     34  O   LIG d   1       7.306  -0.622  -9.107  0.00  0.00    -0.548 OA
ATOM     35  O   LIG d   1       6.185  -1.323 -10.877  0.00  0.00    -0.548 OA
ENDBRANCH  10  33
TORSDOF 1
ENDMDL
MODEL 3
REMARK VINA RESULT:      -6.5      4.336      5.964
REMARK  1 active torsions:
REMARK  status: ('A' for Active; 'I' for Inactive)
REMARK    1  A    between atoms: C_10  and  C_22 
ROOT
ATOM      1  C   LIG d   1       3.498   0.051  -2.198  0.00  0.00    -0.061 A 
ATOM      2  C   LIG d   1       4.490   1.008  -2.127  0.00  0.00    -0.060 A 
ATOM      3  C   LIG d   1       5.743   0.805  -2.687  0.00  0.00    -0.041 A 
ATOM      4  C   LIG d   1       5.965  -0.410  -3.328  0.00  0.00     0.031 A 
ATOM      5  C   LIG d   1       4.947  -1.383  -3.392  0.00  0.00    -0.022 A 
ATOM      6  C   LIG d   1       3.705  -1.167  -2.833  0.00  0.00    -0.057 A 
ATOM      7  C   LIG d   1       5.521  -2.541  -4.132  0.00  0.00     0.008 C 
ATOM      8  H   LIG d   1       5.978  -3.220  -3.413  0.00  0.00     0.037 H 
ATOM      9  C   LIG d   1       4.599  -3.322  -5.035  0.00  0.00    -0.020 C 
ATOM     10  C   LIG d   1       5.454  -4.126  -6.036  0.00  0.00     0.066 C 
ATOM     11  H   LIG d   1       5.439  -3.639  -7.011  0.00  0.00     0.056 H 
ATOM     12  N   LIG d   1       6.833  -4.156  -5.513  0.00  0.00    -0.288 N 
ATOM     13  C   LIG d   1       7.636  -2.917  -5.361  0.00  0.00     0.046 C 
ATOM     14  H   LIG d   1       8.147  -2.654  -6.288  0.00  0.00     0.052 H 
ATOM     15  C   LIG d   1       6.639  -1.848  -4.959  0.00  0.00     0.046 C 
ATOM     16  H   LIG d   1       6.223  -1.358  -5.839  0.00  0.00     0.052 H 
ATOM     17  N   LIG d   1       7.121  -0.863  -3.980  0.00  0.00    -0.338 N 
ATOM     18  C   LIG d   1       8.642  -3.219  -4.236  0.00  0.00    -0.024 C 
ATOM     19  C   LIG d   1       8.793  -4.767  -4.389  0.00  0.00     0.026 C 
ATOM     20  C   LIG d   1       7.506  -5.215  -5.050  0.00  0.00     0.216 C 
ATOM     21  O   LIG d   1       7.139  -6.367  -5.144  0.00  0.00    -0.276 OA
ATOM     22  H   LIG d   1       2.537   0.255  -1.750  0.00  0.00     0.062 H 
ATOM     23  H   LIG d   1       4.286   1.941  -1.622  0.00  0.00     0.062 H 
ATOM     24  H   LIG d   1       6.514   1.558  -2.626  0.00  0.00     0.064 H 
ATOM     25  H   LIG d   1       2.927  -1.913  -2.887  0.00  0.00     0.062 H 
ATOM     26  H   LIG d   1       3.950  -2.636  -5.578  0.00  0.00     0.029 H 
ATOM     27  H   LIG d   1       3.995  -4.006  -4.439  0.00  0.00     0.029 H 
ATOM     28  H   LIG d   1       8.037  -0.587  -3.820  0.00  0.00     0.146 HD
ATOM     29  H   LIG d   1       9.586  -2.702  -4.406  0.00  0.00     0.029 H 
ATOM     30  H   LIG d   1       8.227  -2.963  -3.261  0.00  0.00     0.029 H 
ATOM     31  H   LIG d   1       8.908  -5.242  -3.415  0.00  0.00     0.036 H 
ATOM     32  H   LIG d   1       9.648  -4.995  -5.026  0.00  0.00     0.036 H 
ENDROOT
BRANCH  10  33
ATOM     33  C   LIG d   1       4.920  -5.529  -6.156  0.00  0.00     0.062 C 
ATOM     34  O   LIG d   1       5.155  -6.183  -7.145  0.00  0.00    -0.548 OA
ATOM     35  O   LIG d   1       4.184  -6.054  -5.164  0.00  0.00    -0.548 OA
ENDBRANCH  10  33
TORSDOF 1
ENDMDL
MODEL 4
REMARK VINA RESULT:      -6.4      3.807      5.858
REMARK  1 active torsions:
REMARK  status: ('A' for Active; 'I' for Inactive)
REMARK    1  A    between atoms: C_10  and  C_22 
ROOT
ATOM      1  C   LIG d   1       4.711   1.003  -2.159  0.00  0.00    -0.061 A 
ATOM      2  C   LIG d   1       3.373   0.696  -2.308  0.00  0.00    -0.060 A 
ATOM      3  C   LIG d   1       2.952  -0.401  -3.044  0.00  0.00    -0.041 A 
ATOM      4  C   LIG d   1       3.936  -1.188  -3.634  0.00  0.00     0.031 A 
ATOM      5  C   LIG d   1       5.300  -0.866  -3.480  0.00  0.00    -0.022 A 
ATOM      6  C   LIG d   1       5.704   0.227  -2.743  0.00  0.00    -0.057 A 
ATOM      7  C   LIG d   1       6.062  -1.898  -4.235  0.00  0.00     0.008 C 
ATOM      8  H   LIG d   1       6.203  -1.548  -5.257  0.00  0.00     0.037 H 
ATOM      9  C   LIG d   1       7.391  -2.339  -3.674  0.00  0.00    -0.020 C 
ATOM     10  C   LIG d   1       7.765  -3.698  -4.301  0.00  0.00     0.066 C 
ATOM     11  H   LIG d   1       7.583  -4.499  -3.585  0.00  0.00     0.056 H 
ATOM     12  N   LIG d   1       6.910  -3.884  -5.489  0.00  0.00    -0.288 N 
ATOM     13  C   LIG d   1       5.434  -4.003  -5.377  0.00  0.00     0.046 C 
ATOM     14  H   LIG d   1       5.130  -5.030  -5.173  0.00  0.00     0.052 H 
ATOM     15  C   LIG d   1       5.051  -3.078  -4.238  0.00  0.00     0.046 C 
ATOM     16  H   LIG d   1       5.071  -3.609  -3.287  0.00  0.00     0.052 H 
ATOM     17  N   LIG d   1       3.788  -2.346  -4.412  0.00  0.00    -0.338 N 
ATOM     18  C   LIG d   1       4.884  -3.515  -6.728  0.00  0.00    -0.024 C 
ATOM     19  C   LIG d   1       6.073  -3.873  -7.675  0.00  0.00     0.026 C 
ATOM     20  C   LIG d   1       7.289  -3.897  -6.772  0.00  0.00     0.216 C 
ATOM     21  O   LIG d   1       8.439  -3.923  -7.156  0.00  0.00    -0.276 OA
ATOM     22  H   LIG d   1       4.992   1.865  -1.574  0.00  0.00     0.062 H 
ATOM     23  H   LIG d   1       2.634   1.328  -1.837  0.00  0.00     0.062 H 
ATOM     24  H   LIG d   1       1.903  -0.632  -3.157  0.00  0.00     0.064 H 
ATOM     25  H   LIG d   1       6.750   0.469  -2.625  0.00  0.00     0.062 H 
ATOM     26  H   LIG d   1       7.314  -2.445  -2.592  0.00  0.00     0.029 H 
ATOM     27  H   LIG d   1       8.155  -1.601  -3.918  0.00  0.00     0.029 H 
ATOM     28  H   LIG d   1       3.021  -2.605  -4.946  0.00  0.00     0.146 HD
ATOM     29  H   LIG d   1       3.975  -4.054  -6.998  0.00  0.00     0.029 H 
ATOM     30  H   LIG d   1       4.708  -2.439  -6.713  0.00  0.00     0.029 H 
ATOM     31  H   LIG d   1       6.190  -3.118  -8.452  0.00  0.00     0.036 H 
ATOM     32  H   LIG d   1       5.910  -4.854  -8.120  0.00  0.00     0.036 H 
ENDROOT
BRANCH  10  33
ATOM     33  C   LIG d   1       9.215  -3.693  -4.708  0.00  0.00     0.062 C 
ATOM     34  O   LIG d   1       9.777  -2.646  -4.929  0.00  0.00    -0.548 OA
ATOM     35  O   LIG d   1       9.883  -4.850  -4.827  0.00  0.00    -0.548 OA
ENDBRANCH  10  33
TORSDOF 1
ENDMDL
MODEL 5
REMARK VINA RESULT:      -6.0      4.064      5.626
REMARK  1 active torsions:
REMARK  status: ('A' for Active; 'I' for Inactive)
REMARK    1  A    between atoms: C_10  and  C_22 
ROOT
ATOM      1  C   LIG d   1       4.404   0.296  -1.739  0.00  0.00    -0.061 A 
ATOM      2  C   LIG d   1       4.218  -1.049  -1.986  0.00  0.00    -0.060 A 
ATOM      3  C   LIG d   1       4.975  -1.731  -2.927  0.00  0.00    -0.041 A 
ATOM      4  C   LIG d   1       5.938  -1.004  -3.619  0.00  0.00     0.031 A 
ATOM      5  C   LIG d   1       6.119   0.371  -3.363  0.00  0.00    -0.022 A 
ATOM      6  C   LIG d   1       5.360   1.036  -2.423  0.00  0.00    -0.057 A 
ATOM      7  C   LIG d   1       7.209   0.826  -4.270  0.00  0.00     0.008 C 
ATOM      8  H   LIG d   1       6.763   1.167  -5.204  0.00  0.00     0.037 H 
ATOM      9  C   LIG d   1       8.153   1.884  -3.755  0.00  0.00    -0.020 C 
ATOM     10  C   LIG d   1       9.437   1.856  -4.610  0.00  0.00     0.066 C 
ATOM     11  H   LIG d   1      10.237   1.361  -4.062  0.00  0.00     0.056 H 
ATOM     12  N   LIG d   1       9.131   1.102  -5.840  0.00  0.00    -0.288 N 
ATOM     13  C   LIG d   1       8.767  -0.338  -5.801  0.00  0.00     0.046 C 
ATOM     14  H   LIG d   1       9.652  -0.974  -5.802  0.00  0.00     0.052 H 
ATOM     15  C   LIG d   1       7.966  -0.506  -4.525  0.00  0.00     0.046 C 
ATOM     16  H   LIG d   1       8.621  -0.747  -3.688  0.00  0.00     0.052 H 
ATOM     17  N   LIG d   1       6.836  -1.444  -4.602  0.00  0.00    -0.338 N 
ATOM     18  C   LIG d   1       7.909  -0.574  -7.056  0.00  0.00    -0.024 C 
ATOM     19  C   LIG d   1       8.483   0.519  -8.013  0.00  0.00     0.026 C 
ATOM     20  C   LIG d   1       9.059   1.573  -7.090  0.00  0.00     0.216 C 
ATOM     21  O   LIG d   1       9.404   2.683  -7.434  0.00  0.00    -0.276 OA
ATOM     22  H   LIG d   1       3.792   0.784  -0.995  0.00  0.00     0.062 H 
ATOM     23  H   LIG d   1       3.461  -1.586  -1.432  0.00  0.00     0.062 H 
ATOM     24  H   LIG d   1       4.822  -2.784  -3.115  0.00  0.00     0.064 H 
ATOM     25  H   LIG d   1       5.504   2.088  -2.228  0.00  0.00     0.062 H 
ATOM     26  H   LIG d   1       8.403   1.677  -2.715  0.00  0.00     0.029 H 
ATOM     27  H   LIG d   1       7.683   2.864  -3.833  0.00  0.00     0.029 H 
ATOM     28  H   LIG d   1       6.734  -2.200  -5.200  0.00  0.00     0.146 HD
ATOM     29  H   LIG d   1       8.061  -1.578  -7.451  0.00  0.00     0.029 H 
ATOM     30  H   LIG d   1       6.853  -0.394  -6.848  0.00  0.00     0.029 H 
ATOM     31  H   LIG d   1       7.694   0.945  -8.633  0.00  0.00     0.036 H 
ATOM     32  H   LIG d   1       9.267   0.090  -8.637  0.00  0.00     0.036 H 
ENDROOT
BRANCH  10  33
ATOM     33  C   LIG d   1       9.849   3.262  -4.961  0.00  0.00     0.062 C 
ATOM     34  O   LIG d   1       9.032   4.152  -4.949  0.00  0.00    -0.548 OA
ATOM     35  O   LIG d   1      11.123   3.526  -5.288  0.00  0.00    -0.548 OA
ENDBRANCH  10  33
TORSDOF 1
ENDMDL
MODEL 6
REMARK VINA RESULT:      -6.0      3.373      5.219
REMARK  1 active torsions:
REMARK  status: ('A' for Active; 'I' for Inactive)
REMARK    1  A    between atoms: C_10  and  C_22 
ROOT
ATOM      1  C   LIG d   1       9.044   1.728  -7.534  0.00  0.00    -0.061 A 
ATOM      2  C   LIG d   1       9.496   2.719  -6.685  0.00  0.00    -0.060 A 
ATOM      3  C   LIG d   1       9.017   2.846  -5.390  0.00  0.00    -0.041 A 
ATOM      4  C   LIG d   1       8.055   1.932  -4.973  0.00  0.00     0.031 A 
ATOM      5  C   LIG d   1       7.596   0.925  -5.847  0.00  0.00    -0.022 A 
ATOM      6  C   LIG d   1       8.083   0.809  -7.132  0.00  0.00    -0.057 A 
ATOM      7  C   LIG d   1       6.583   0.142  -5.089  0.00  0.00     0.008 C 
ATOM      8  H   LIG d   1       5.602   0.587  -5.257  0.00  0.00     0.037 H 
ATOM      9  C   LIG d   1       6.505  -1.342  -5.350  0.00  0.00    -0.020 C 
ATOM     10  C   LIG d   1       5.775  -2.012  -4.167  0.00  0.00     0.066 C 
ATOM     11  H   LIG d   1       6.497  -2.510  -3.521  0.00  0.00     0.056 H 
ATOM     12  N   LIG d   1       5.081  -0.948  -3.417  0.00  0.00    -0.288 N 
ATOM     13  C   LIG d   1       5.829   0.136  -2.731  0.00  0.00     0.046 C 
ATOM     14  H   LIG d   1       6.144  -0.166  -1.732  0.00  0.00     0.052 H 
ATOM     15  C   LIG d   1       7.021   0.417  -3.624  0.00  0.00     0.046 C 
ATOM     16  H   LIG d   1       7.868  -0.211  -3.347  0.00  0.00     0.052 H 
ATOM     17  N   LIG d   1       7.420   1.829  -3.727  0.00  0.00    -0.338 N 
ATOM     18  C   LIG d   1       4.857   1.327  -2.674  0.00  0.00    -0.024 C 
ATOM     19  C   LIG d   1       3.484   0.582  -2.653  0.00  0.00     0.026 C 
ATOM     20  C   LIG d   1       3.763  -0.755  -3.307  0.00  0.00     0.216 C 
ATOM     21  O   LIG d   1       2.913  -1.538  -3.677  0.00  0.00    -0.276 OA
ATOM     22  H   LIG d   1       9.448   1.666  -8.533  0.00  0.00     0.062 H 
ATOM     23  H   LIG d   1      10.244   3.413  -7.039  0.00  0.00     0.062 H 
ATOM     24  H   LIG d   1       9.376   3.625  -4.733  0.00  0.00     0.064 H 
ATOM     25  H   LIG d   1       7.731   0.036  -7.798  0.00  0.00     0.062 H 
ATOM     26  H   LIG d   1       7.510  -1.751  -5.438  0.00  0.00     0.029 H 
ATOM     27  H   LIG d   1       5.951  -1.523  -6.271  0.00  0.00     0.029 H 
ATOM     28  H   LIG d   1       7.275   2.534  -3.077  0.00  0.00     0.146 HD
ATOM     29  H   LIG d   1       5.011   1.915  -1.770  0.00  0.00     0.029 H 
ATOM     30  H   LIG d   1       4.948   1.949  -3.565  0.00  0.00     0.029 H 
ATOM     31  H   LIG d   1       2.734   1.135  -3.220  0.00  0.00     0.036 H 
ATOM     32  H   LIG d   1       3.154   0.442  -1.624  0.00  0.00     0.036 H 
ENDROOT
BRANCH  10  33
ATOM     33  C   LIG d   1       4.774  -3.012  -4.683  0.00  0.00     0.062 C 
ATOM     34  O   LIG d   1       4.357  -3.881  -3.955  0.00  0.00    -0.548 OA
ATOM     35  O   LIG d   1       4.343  -2.938  -5.952  0.00  0.00    -0.548 OA
ENDBRANCH  10  33
TORSDOF 1
ENDMDL
MODEL 7
REMARK VINA RESULT:      -6.0      5.022      6.255
REMARK  1 active torsions:
REMARK  status: ('A' for Active; 'I' for Inactive)
REMARK    1  A    between atoms: C_10  and  C_22 
ROOT
ATOM      1  C   LIG d   1       4.528  -1.658  -2.326  0.00  0.00    -0.061 A 
ATOM      2  C   LIG d   1       3.963  -0.431  -2.044  0.00  0.00    -0.060 A 
ATOM      3  C   LIG d   1       4.585   0.758  -2.393  0.00  0.00    -0.041 A 
ATOM      4  C   LIG d   1       5.813   0.669  -3.042  0.00  0.00     0.031 A 
ATOM      5  C   LIG d   1       6.385  -0.589  -3.323  0.00  0.00    -0.022 A 
ATOM      6  C   LIG d   1       5.753  -1.763  -2.973  0.00  0.00    -0.057 A 
ATOM      7  C   LIG d   1       7.679  -0.317  -4.008  0.00  0.00     0.008 C 
ATOM      8  H   LIG d   1       8.463  -0.246  -3.254  0.00  0.00     0.037 H 
ATOM      9  C   LIG d   1       8.115  -1.274  -5.089  0.00  0.00    -0.020 C 
ATOM     10  C   LIG d   1       9.174  -0.577  -5.967  0.00  0.00     0.066 C 
ATOM     11  H   LIG d   1       8.725  -0.257  -6.907  0.00  0.00     0.056 H 
ATOM     12  N   LIG d   1       9.662   0.598  -5.219  0.00  0.00    -0.288 N 
ATOM     13  C   LIG d   1       8.765   1.731  -4.877  0.00  0.00     0.046 C 
ATOM     14  H   LIG d   1       8.704   2.453  -5.691  0.00  0.00     0.052 H 
ATOM     15  C   LIG d   1       7.416   1.095  -4.601  0.00  0.00     0.046 C 
ATOM     16  H   LIG d   1       6.827   1.029  -5.515  0.00  0.00     0.052 H 
ATOM     17  N   LIG d   1       6.639   1.701  -3.510  0.00  0.00    -0.338 N 
ATOM     18  C   LIG d   1       9.374   2.363  -3.614  0.00  0.00    -0.024 C 
ATOM     19  C   LIG d   1      10.883   2.012  -3.810  0.00  0.00     0.026 C 
ATOM     20  C   LIG d   1      10.879   0.786  -4.698  0.00  0.00     0.216 C 
ATOM     21  O   LIG d   1      11.840   0.076  -4.907  0.00  0.00    -0.276 OA
ATOM     22  H   LIG d   1       4.005  -2.558  -2.038  0.00  0.00     0.062 H 
ATOM     23  H   LIG d   1       3.009  -0.396  -1.538  0.00  0.00     0.062 H 
ATOM     24  H   LIG d   1       4.137   1.714  -2.168  0.00  0.00     0.064 H 
ATOM     25  H   LIG d   1       6.193  -2.724  -3.192  0.00  0.00     0.062 H 
ATOM     26  H   LIG d   1       7.257  -1.550  -5.702  0.00  0.00     0.029 H 
ATOM     27  H   LIG d   1       8.546  -2.167  -4.636  0.00  0.00     0.029 H 
ATOM     28  H   LIG d   1       6.686   2.613  -3.184  0.00  0.00     0.146 HD
ATOM     29  H   LIG d   1       9.209   3.441  -3.597  0.00  0.00     0.029 H 
ATOM     30  H   LIG d   1       8.979   1.895  -2.712  0.00  0.00     0.029 H 
ATOM     31  H   LIG d   1      11.356   1.788  -2.853  0.00  0.00     0.036 H 
ATOM     32  H   LIG d   1      11.396   2.838  -4.302  0.00  0.00     0.036 H 
ENDROOT
BRANCH  10  33
ATOM     33  C   LIG d   1      10.316  -1.520  -6.239  0.00  0.00     0.062 C 
ATOM     34  O   LIG d   1      10.984  -1.388  -7.237  0.00  0.00    -0.548 OA
ATOM     35  O   LIG d   1      10.592  -2.509  -5.374  0.00  0.00    -0.548 OA
ENDBRANCH  10  33
TORSDOF 1
ENDMDL
MODEL 8
REMARK VINA RESULT:      -5.9      2.116      3.539
REMARK  1 active torsions:
REMARK  status: ('A' for Active; 'I' for Inactive)
REMARK    1  A    between atoms: C_10  and  C_22 
ROOT
ATOM      1  C   LIG d   1       3.067  -2.237 -10.557  0.00  0.00    -0.061 A 
ATOM      2  C   LIG d   1       2.276  -1.123 -10.748  0.00  0.00    -0.060 A 
ATOM      3  C   LIG d   1       2.044  -0.207  -9.732  0.00  0.00    -0.041 A 
ATOM      4  C   LIG d   1       2.643  -0.456  -8.501  0.00  0.00     0.031 A 
ATOM      5  C   LIG d   1       3.446  -1.600  -8.313  0.00  0.00    -0.022 A 
ATOM      6  C   LIG d   1       3.669  -2.500  -9.333  0.00  0.00    -0.057 A 
ATOM      7  C   LIG d   1       3.912  -1.555  -6.900  0.00  0.00     0.008 C 
ATOM      8  H   LIG d   1       3.193  -2.088  -6.279  0.00  0.00     0.037 H 
ATOM      9  C   LIG d   1       5.299  -2.069  -6.603  0.00  0.00    -0.020 C 
ATOM     10  C   LIG d   1       5.753  -1.504  -5.241  0.00  0.00     0.066 C 
ATOM     11  H   LIG d   1       6.458  -0.688  -5.394  0.00  0.00     0.056 H 
ATOM     12  N   LIG d   1       4.550  -1.004  -4.549  0.00  0.00    -0.288 N 
ATOM     13  C   LIG d   1       3.753   0.126  -5.090  0.00  0.00     0.046 C 
ATOM     14  H   LIG d   1       4.159   1.089  -4.777  0.00  0.00     0.052 H 
ATOM     15  C   LIG d   1       3.816  -0.034  -6.597  0.00  0.00     0.046 C 
ATOM     16  H   LIG d   1       4.674   0.499  -7.006  0.00  0.00     0.052 H 
ATOM     17  N   LIG d   1       2.583   0.304  -7.324  0.00  0.00    -0.338 N 
ATOM     18  C   LIG d   1       2.330  -0.083  -4.546  0.00  0.00    -0.024 C 
ATOM     19  C   LIG d   1       2.635  -0.839  -3.214  0.00  0.00     0.026 C 
ATOM     20  C   LIG d   1       3.978  -1.499  -3.446  0.00  0.00     0.216 C 
ATOM     21  O   LIG d   1       4.464  -2.353  -2.736  0.00  0.00    -0.276 OA
ATOM     22  H   LIG d   1       3.221  -2.921 -11.378  0.00  0.00     0.062 H 
ATOM     23  H   LIG d   1       1.825  -0.958 -11.716  0.00  0.00     0.062 H 
ATOM     24  H   LIG d   1       1.423   0.662  -9.891  0.00  0.00     0.064 H 
ATOM     25  H   LIG d   1       4.287  -3.373  -9.185  0.00  0.00     0.062 H 
ATOM     26  H   LIG d   1       5.986  -1.739  -7.382  0.00  0.00     0.029 H 
ATOM     27  H   LIG d   1       5.286  -3.158  -6.561  0.00  0.00     0.029 H 
ATOM     28  H   LIG d   1       1.883   0.917  -7.051  0.00  0.00     0.146 HD
ATOM     29  H   LIG d   1       1.836   0.872  -4.365  0.00  0.00     0.029 H 
ATOM     30  H   LIG d   1       1.740  -0.704  -5.221  0.00  0.00     0.029 H 
ATOM     31  H   LIG d   1       1.871  -1.591  -3.012  0.00  0.00     0.036 H 
ATOM     32  H   LIG d   1       2.696  -0.129  -2.390  0.00  0.00     0.036 H 
ENDROOT
BRANCH  10  33
ATOM     33  C   LIG d   1       6.398  -2.593  -4.424  0.00  0.00     0.062 C 
ATOM     34  O   LIG d   1       6.145  -3.752  -4.655  0.00  0.00    -0.548 OA
ATOM     35  O   LIG d   1       7.253  -2.277  -3.439  0.00  0.00    -0.548 OA
ENDBRANCH  10  33
TORSDOF 1
ENDMDL
MODEL 9
REMARK VINA RESULT:      -5.7      8.227     10.355
REMARK  1 active torsions:
REMARK  status: ('A' for Active; 'I' for Inactive)
REMARK    1  A    between atoms: C_10  and  C_22 
ROOT
ATOM      1  C   LIG d   1       9.140   3.629  -4.760  0.00  0.00    -0.061 A 
ATOM      2  C   LIG d   1       9.743   2.517  -4.208  0.00  0.00    -0.060 A 
ATOM      3  C   LIG d   1      10.522   2.599  -3.063  0.00  0.00    -0.041 A 
ATOM      4  C   LIG d   1      10.677   3.856  -2.487  0.00  0.00     0.031 A 
ATOM      5  C   LIG d   1      10.062   4.988  -3.059  0.00  0.00    -0.022 A 
ATOM      6  C   LIG d   1       9.288   4.891  -4.196  0.00  0.00    -0.057 A 
ATOM      7  C   LIG d   1      10.437   6.147  -2.203  0.00  0.00     0.008 C 
ATOM      8  H   LIG d   1      11.357   6.582  -2.591  0.00  0.00     0.037 H 
ATOM      9  C   LIG d   1       9.413   7.238  -2.013  0.00  0.00    -0.020 C 
ATOM     10  C   LIG d   1       9.791   8.056  -0.761  0.00  0.00     0.066 C 
ATOM     11  H   LIG d   1       9.146   7.778   0.072  0.00  0.00     0.056 H 
ATOM     12  N   LIG d   1      11.195   7.740  -0.436  0.00  0.00    -0.288 N 
ATOM     13  C   LIG d   1      11.613   6.372  -0.037  0.00  0.00     0.046 C 
ATOM     14  H   LIG d   1      11.478   6.208   1.032  0.00  0.00     0.052 H 
ATOM     15  C   LIG d   1      10.739   5.440  -0.853  0.00  0.00     0.046 C 
ATOM     16  H   LIG d   1       9.817   5.211  -0.320  0.00  0.00     0.052 H 
ATOM     17  N   LIG d   1      11.393   4.214  -1.335  0.00  0.00    -0.338 N 
ATOM     18  C   LIG d   1      13.096   6.268  -0.435  0.00  0.00    -0.024 C 
ATOM     19  C   LIG d   1      13.533   7.764  -0.325  0.00  0.00     0.026 C 
ATOM     20  C   LIG d   1      12.254   8.552  -0.517  0.00  0.00     0.216 C 
ATOM     21  O   LIG d   1      12.199   9.747  -0.716  0.00  0.00    -0.276 OA
ATOM     22  H   LIG d   1       8.541   3.516  -5.650  0.00  0.00     0.062 H 
ATOM     23  H   LIG d   1       9.603   1.555  -4.679  0.00  0.00     0.062 H 
ATOM     24  H   LIG d   1      10.990   1.724  -2.638  0.00  0.00     0.064 H 
ATOM     25  H   LIG d   1       8.816   5.759  -4.630  0.00  0.00     0.062 H 
ATOM     26  H   LIG d   1       8.427   6.796  -1.877  0.00  0.00     0.029 H 
ATOM     27  H   LIG d   1       9.406   7.890  -2.887  0.00  0.00     0.029 H 
ATOM     28  H   LIG d   1      12.152   3.754  -0.944  0.00  0.00     0.146 HD
ATOM     29  H   LIG d   1      13.645   5.634   0.262  0.00  0.00     0.029 H 
ATOM     30  H   LIG d   1      13.202   5.906  -1.458  0.00  0.00     0.029 H 
ATOM     31  H   LIG d   1      14.256   8.014  -1.102  0.00  0.00     0.036 H 
ATOM     32  H   LIG d   1      13.954   7.956   0.662  0.00  0.00     0.036 H 
ENDROOT
BRANCH  10  33
ATOM     33  C   LIG d   1       9.651   9.528  -1.049  0.00  0.00     0.062 C 
ATOM     34  O   LIG d   1       9.438  10.303  -0.146  0.00  0.00    -0.548 OA
ATOM     35  O   LIG d   1       9.763   9.980  -2.307  0.00  0.00    -0.548 OA
ENDBRANCH  10  33
TORSDOF 1
ENDMDL
MODEL 10
REMARK VINA RESULT:      -5.6      2.189      3.739
REMARK  1 active torsions:
REMARK  status: ('A' for Active; 'I' for Inactive)
REMARK    1  A    between atoms: C_10  and  C_22 
ROOT
ATOM      1  C   LIG d   1       4.665  -6.440  -6.184  0.00  0.00    -0.061 A 
ATOM      2  C   LIG d   1       4.484  -6.316  -7.546  0.00  0.00    -0.060 A 
ATOM      3  C   LIG d   1       4.287  -5.082  -8.149  0.00  0.00    -0.041 A 
ATOM      4  C   LIG d   1       4.278  -3.964  -7.322  0.00  0.00     0.031 A 
ATOM      5  C   LIG d   1       4.459  -4.099  -5.930  0.00  0.00    -0.022 A 
ATOM      6  C   LIG d   1       4.657  -5.332  -5.345  0.00  0.00    -0.057 A 
ATOM      7  C   LIG d   1       4.387  -2.725  -5.363  0.00  0.00     0.008 C 
ATOM      8  H   LIG d   1       3.351  -2.511  -5.100  0.00  0.00     0.037 H 
ATOM      9  C   LIG d   1       5.274  -2.405  -4.185  0.00  0.00    -0.020 C 
ATOM     10  C   LIG d   1       5.408  -0.873  -4.071  0.00  0.00     0.066 C 
ATOM     11  H   LIG d   1       6.379  -0.556  -4.451  0.00  0.00     0.056 H 
ATOM     12  N   LIG d   1       4.332  -0.275  -4.884  0.00  0.00    -0.288 N 
ATOM     13  C   LIG d   1       4.273  -0.460  -6.356  0.00  0.00     0.046 C 
ATOM     14  H   LIG d   1       4.883   0.278  -6.877  0.00  0.00     0.052 H 
ATOM     15  C   LIG d   1       4.785  -1.867  -6.595  0.00  0.00     0.046 C 
ATOM     16  H   LIG d   1       5.866  -1.865  -6.735  0.00  0.00     0.052 H 
ATOM     17  N   LIG d   1       4.112  -2.615  -7.668  0.00  0.00    -0.338 N 
ATOM     18  C   LIG d   1       2.786  -0.317  -6.723  0.00  0.00    -0.024 C 
ATOM     19  C   LIG d   1       2.295   0.637  -5.588  0.00  0.00     0.026 C 
ATOM     20  C   LIG d   1       3.271   0.415  -4.452  0.00  0.00     0.216 C 
ATOM     21  O   LIG d   1       3.112   0.805  -3.314  0.00  0.00    -0.276 OA
ATOM     22  H   LIG d   1       4.818  -7.421  -5.760  0.00  0.00     0.062 H 
ATOM     23  H   LIG d   1       4.497  -7.205  -8.161  0.00  0.00     0.062 H 
ATOM     24  H   LIG d   1       4.145  -4.995  -9.216  0.00  0.00     0.064 H 
ATOM     25  H   LIG d   1       4.798  -5.432  -4.280  0.00  0.00     0.062 H 
ATOM     26  H   LIG d   1       6.258  -2.848  -4.337  0.00  0.00     0.029 H 
ATOM     27  H   LIG d   1       4.828  -2.802  -3.273  0.00  0.00     0.029 H 
ATOM     28  H   LIG d   1       3.655  -2.255  -8.444  0.00  0.00     0.146 HD
ATOM     29  H   LIG d   1       2.668   0.133  -7.709  0.00  0.00     0.029 H 
ATOM     30  H   LIG d   1       2.276  -1.279  -6.672  0.00  0.00     0.029 H 
ATOM     31  H   LIG d   1       1.282   0.380  -5.277  0.00  0.00     0.036 H 
ATOM     32  H   LIG d   1       2.336   1.671  -5.929  0.00  0.00     0.036 H 
ENDROOT
BRANCH  10  33
ATOM     33  C   LIG d   1       5.258  -0.451  -2.632  0.00  0.00     0.062 C 
ATOM     34  O   LIG d   1       5.723   0.600  -2.259  0.00  0.00    -0.548 OA
ATOM     35  O   LIG d   1       4.608  -1.243  -1.764  0.00  0.00    -0.548 OA
ENDBRANCH  10  33
TORSDOF 1
ENDMDL
