MODEL 1
REMARK VINA RESULT:      -6.0      0.000      0.000
REMARK  5 active torsions:
REMARK  status: ('A' for Active; 'I' for Inactive)
REMARK    1  A    between atoms: C_1  and  C_2 
REMARK    2  A    between atoms: C_2  and  O_4 
REMARK    3  A    between atoms: O_4  and  C_5 
REMARK    4  A    between atoms: C_5  and  C_28 
REMARK    5  A    between atoms: C_10  and  C_27 
ROOT
ATOM      1  C   LIG d   1       4.369  -1.160  -6.000  0.00  0.00    -0.058 C 
ATOM      2  C   LIG d   1       4.196  -1.312  -7.151  0.00  0.00    -0.115 C 
ATOM      3  H   LIG d   1       4.041  -1.447  -8.181  0.00  0.00     0.123 H 
ENDROOT
BRANCH   1   4
ATOM      4  C   LIG d   1       4.585  -0.970  -4.561  0.00  0.00     0.178 C 
ATOM      5  C   LIG d   1       5.045  -2.239  -3.844  0.00  0.00     0.022 C 
ATOM      6  C   LIG d   1       6.428  -1.976  -3.244  0.00  0.00    -0.028 C 
ATOM      7  C   LIG d   1       4.908  -3.514  -4.630  0.00  0.00    -0.043 C 
ATOM      8  C   LIG d   1       6.517  -0.429  -3.140  0.00  0.00    -0.045 C 
ATOM      9  H   LIG d   1       6.489  -2.425  -2.228  0.00  0.00     0.031 H 
ATOM     10  C   LIG d   1       7.598  -2.464  -4.087  0.00  0.00    -0.034 C 
ATOM     11  C   LIG d   1       5.682   0.091  -4.326  0.00  0.00    -0.001 C 
ATOM     12  H   LIG d   1       6.086  -0.086  -2.195  0.00  0.00     0.027 H 
ATOM     13  H   LIG d   1       7.550  -0.090  -3.210  0.00  0.00     0.027 H 
ATOM     14  H   LIG d   1       5.221   1.046  -4.070  0.00  0.00     0.031 H 
ATOM     15  H   LIG d   1       6.295   0.204  -5.216  0.00  0.00     0.031 H 
ATOM     16  C   LIG d   1       7.347  -3.884  -4.591  0.00  0.00    -0.031 C 
ATOM     17  H   LIG d   1       8.495  -2.495  -3.446  0.00  0.00     0.031 H 
ATOM     18  C   LIG d   1       7.886  -1.521  -5.251  0.00  0.00    -0.046 C 
ATOM     19  C   LIG d   1       6.117  -3.845  -5.501  0.00  0.00    -0.049 C 
ATOM     20  H   LIG d   1       7.144  -4.535  -3.737  0.00  0.00     0.031 H 
ATOM     21  C   LIG d   1       8.569  -4.409  -5.347  0.00  0.00    -0.016 C 
ATOM     22  H   LIG d   1       5.965  -4.823  -5.963  0.00  0.00     0.027 H 
ATOM     23  H   LIG d   1       6.249  -3.104  -6.282  0.00  0.00     0.027 H 
ATOM     24  C   LIG d   1       8.941  -3.426  -6.417  0.00  0.00    -0.063 C 
ATOM     25  C   LIG d   1       8.330  -5.825  -5.822  0.00  0.00    -0.039 C 
ATOM     26  H   LIG d   1       9.400  -4.438  -4.635  0.00  0.00     0.035 H 
ATOM     27  C   LIG d   1       9.146  -1.981  -5.995  0.00  0.00    -0.031 C 
ATOM     28  C   LIG d   1       9.091  -3.741  -7.699  0.00  0.00    -0.020 C 
ATOM     29  H   LIG d   1      10.007  -1.912  -5.330  0.00  0.00     0.031 H 
ATOM     30  H   LIG d   1       9.300  -1.358  -6.874  0.00  0.00     0.031 H 
ATOM     31  C   LIG d   1       8.883  -5.134  -8.115  0.00  0.00     0.156 C 
ATOM     32  H   LIG d   1       9.361  -2.992  -8.424  0.00  0.00     0.065 H 
ATOM     33  O   LIG d   1       8.513  -5.422  -9.231  0.00  0.00    -0.293 OA
ATOM     34  C   LIG d   1       9.157  -6.184  -7.057  0.00  0.00     0.010 C 
ATOM     35  H   LIG d   1      10.132  -6.189  -6.837  0.00  0.00     0.035 H 
ATOM     36  H   LIG d   1       8.863  -7.167  -7.426  0.00  0.00     0.035 H 
ATOM     37  H   LIG d   1       8.598  -6.517  -5.017  0.00  0.00     0.028 H 
ATOM     38  H   LIG d   1       7.276  -5.970  -6.053  0.00  0.00     0.028 H 
ATOM     39  H   LIG d   1       8.063  -0.509  -4.878  0.00  0.00     0.027 H 
ATOM     40  H   LIG d   1       7.052  -1.505  -5.948  0.00  0.00     0.027 H 
ATOM     41  H   LIG d   1       4.800  -4.338  -3.898  0.00  0.00     0.027 H 
ATOM     42  H   LIG d   1       4.001  -3.524  -5.223  0.00  0.00     0.027 H 
BRANCH   4  43
ATOM     43  O   LIG d   1       3.341  -0.501  -3.953  0.00  0.00    -0.445 OA
BRANCH  43  44
ATOM     44  C   LIG d   1       3.193   0.826  -3.816  0.00  0.00     0.305 C 
ATOM     45  O   LIG d   1       2.807   1.491  -4.747  0.00  0.00    -0.251 OA
BRANCH  44  46
ATOM     46  C   LIG d   1       3.507   1.486  -2.497  0.00  0.00     0.033 C 
ATOM     47  H   LIG d   1       4.301   2.221  -2.639  0.00  0.00     0.034 H 
ATOM     48  H   LIG d   1       2.614   1.984  -2.119  0.00  0.00     0.034 H 
ATOM     49  H   LIG d   1       3.834   0.732  -1.782  0.00  0.00     0.034 H 
ENDBRANCH  44  46
ENDBRANCH  43  44
ENDBRANCH   4  43
BRANCH   5  50
ATOM     50  C   LIG d   1       4.085  -2.401  -2.631  0.00  0.00    -0.055 C 
ATOM     51  H   LIG d   1       3.264  -3.064  -2.905  0.00  0.00     0.024 H 
ATOM     52  H   LIG d   1       3.686  -1.426  -2.350  0.00  0.00     0.024 H 
ATOM     53  H   LIG d   1       4.631  -2.827  -1.790  0.00  0.00     0.024 H 
ENDBRANCH   5  50
ENDBRANCH   1   4
TORSDOF 5
ENDMDL
MODEL 2
REMARK VINA RESULT:      -6.0      2.221      3.452
REMARK  5 active torsions:
REMARK  status: ('A' for Active; 'I' for Inactive)
REMARK    1  A    between atoms: C_1  and  C_2 
REMARK    2  A    between atoms: C_2  and  O_4 
REMARK    3  A    between atoms: O_4  and  C_5 
REMARK    4  A    between atoms: C_5  and  C_28 
REMARK    5  A    between atoms: C_10  and  C_27 
ROOT
ATOM      1  C   LIG d   1       4.499  -1.517  -3.574  0.00  0.00    -0.058 C 
ATOM      2  C   LIG d   1       3.882  -2.223  -2.868  0.00  0.00    -0.115 C 
ATOM      3  H   LIG d   1       3.330  -2.854  -2.235  0.00  0.00     0.123 H 
ENDROOT
BRANCH   1   4
ATOM      4  C   LIG d   1       5.270  -0.633  -4.457  0.00  0.00     0.178 C 
ATOM      5  C   LIG d   1       6.579  -1.254  -4.943  0.00  0.00     0.022 C 
ATOM      6  C   LIG d   1       6.522  -1.358  -6.469  0.00  0.00    -0.028 C 
ATOM      7  C   LIG d   1       7.013  -2.501  -4.222  0.00  0.00    -0.043 C 
ATOM      8  C   LIG d   1       5.450  -0.317  -6.889  0.00  0.00    -0.045 C 
ATOM      9  H   LIG d   1       7.508  -1.077  -6.902  0.00  0.00     0.031 H 
ATOM     10  C   LIG d   1       6.100  -2.719  -7.006  0.00  0.00    -0.034 C 
ATOM     11  C   LIG d   1       4.446  -0.297  -5.719  0.00  0.00    -0.001 C 
ATOM     12  H   LIG d   1       5.905   0.670  -7.013  0.00  0.00     0.027 H 
ATOM     13  H   LIG d   1       4.961  -0.608  -7.818  0.00  0.00     0.027 H 
ATOM     14  H   LIG d   1       4.007   0.697  -5.617  0.00  0.00     0.031 H 
ATOM     15  H   LIG d   1       3.661  -1.033  -5.865  0.00  0.00     0.031 H 
ATOM     16  C   LIG d   1       6.847  -3.840  -6.287  0.00  0.00    -0.031 C 
ATOM     17  H   LIG d   1       6.376  -2.768  -8.073  0.00  0.00     0.031 H 
ATOM     18  C   LIG d   1       4.592  -2.921  -6.902  0.00  0.00    -0.046 C 
ATOM     19  C   LIG d   1       6.451  -3.792  -4.809  0.00  0.00    -0.049 C 
ATOM     20  H   LIG d   1       7.922  -3.668  -6.378  0.00  0.00     0.031 H 
ATOM     21  C   LIG d   1       6.499  -5.197  -6.901  0.00  0.00    -0.016 C 
ATOM     22  H   LIG d   1       6.886  -4.643  -4.280  0.00  0.00     0.027 H 
ATOM     23  H   LIG d   1       5.372  -3.829  -4.707  0.00  0.00     0.027 H 
ATOM     24  C   LIG d   1       5.008  -5.357  -6.922  0.00  0.00    -0.063 C 
ATOM     25  C   LIG d   1       7.261  -6.305  -6.207  0.00  0.00    -0.039 C 
ATOM     26  H   LIG d   1       6.834  -5.174  -7.944  0.00  0.00     0.035 H 
ATOM     27  C   LIG d   1       4.198  -4.247  -7.567  0.00  0.00    -0.031 C 
ATOM     28  C   LIG d   1       4.362  -6.396  -6.404  0.00  0.00    -0.020 C 
ATOM     29  H   LIG d   1       4.424  -4.200  -8.633  0.00  0.00     0.031 H 
ATOM     30  H   LIG d   1       3.135  -4.430  -7.418  0.00  0.00     0.031 H 
ATOM     31  C   LIG d   1       5.140  -7.468  -5.768  0.00  0.00     0.156 C 
ATOM     32  H   LIG d   1       3.289  -6.458  -6.450  0.00  0.00     0.065 H 
ATOM     33  O   LIG d   1       4.683  -8.152  -4.881  0.00  0.00    -0.293 OA
ATOM     34  C   LIG d   1       6.551  -7.656  -6.290  0.00  0.00     0.010 C 
ATOM     35  H   LIG d   1       6.515  -7.976  -7.237  0.00  0.00     0.035 H 
ATOM     36  H   LIG d   1       7.077  -8.389  -5.680  0.00  0.00     0.035 H 
ATOM     37  H   LIG d   1       8.245  -6.404  -6.677  0.00  0.00     0.028 H 
ATOM     38  H   LIG d   1       7.413  -6.054  -5.159  0.00  0.00     0.028 H 
ATOM     39  H   LIG d   1       4.069  -2.114  -7.419  0.00  0.00     0.027 H 
ATOM     40  H   LIG d   1       4.278  -2.944  -5.861  0.00  0.00     0.027 H 
ATOM     41  H   LIG d   1       8.116  -2.559  -4.306  0.00  0.00     0.027 H 
ATOM     42  H   LIG d   1       6.800  -2.445  -3.161  0.00  0.00     0.027 H 
BRANCH   4  43
ATOM     43  O   LIG d   1       5.565   0.608  -3.744  0.00  0.00    -0.445 OA
BRANCH  43  44
ATOM     44  C   LIG d   1       4.567   1.151  -3.028  0.00  0.00     0.305 C 
ATOM     45  O   LIG d   1       3.675   1.743  -3.586  0.00  0.00    -0.251 OA
BRANCH  44  46
ATOM     46  C   LIG d   1       4.560   1.017  -1.526  0.00  0.00     0.033 C 
ATOM     47  H   LIG d   1       5.262   0.238  -1.227  0.00  0.00     0.034 H 
ATOM     48  H   LIG d   1       4.857   1.965  -1.076  0.00  0.00     0.034 H 
ATOM     49  H   LIG d   1       3.558   0.753  -1.189  0.00  0.00     0.034 H 
ENDBRANCH  44  46
ENDBRANCH  43  44
ENDBRANCH   4  43
BRANCH   5  50
ATOM     50  C   LIG d   1       7.678  -0.199  -4.634  0.00  0.00    -0.055 C 
ATOM     51  H   LIG d   1       8.473  -0.275  -5.376  0.00  0.00     0.024 H 
ATOM     52  H   LIG d   1       8.090  -0.382  -3.641  0.00  0.00     0.024 H 
ATOM     53  H   LIG d   1       7.244   0.800  -4.669  0.00  0.00     0.024 H 
ENDBRANCH   5  50
ENDBRANCH   1   4
TORSDOF 5
ENDMDL
MODEL 3
REMARK VINA RESULT:      -6.0      1.403      6.584
REMARK  5 active torsions:
REMARK  status: ('A' for Active; 'I' for Inactive)
REMARK    1  A    between atoms: C_1  and  C_2 
REMARK    2  A    between atoms: C_2  and  O_4 
REMARK    3  A    between atoms: O_4  and  C_5 
REMARK    4  A    between atoms: C_5  and  C_28 
REMARK    5  A    between atoms: C_10  and  C_27 
ROOT
ATOM      1  C   LIG d   1       7.332  -2.221  -7.391  0.00  0.00    -0.058 C 
ATOM      2  C   LIG d   1       6.573  -1.700  -8.118  0.00  0.00    -0.115 C 
ATOM      3  H   LIG d   1       5.893  -1.233  -8.768  0.00  0.00     0.123 H 
ENDROOT
BRANCH   1   4
ATOM      4  C   LIG d   1       8.282  -2.873  -6.480  0.00  0.00     0.178 C 
ATOM      5  C   LIG d   1       8.625  -2.027  -5.255  0.00  0.00     0.022 C 
ATOM      6  C   LIG d   1       8.180  -2.790  -4.006  0.00  0.00    -0.028 C 
ATOM      7  C   LIG d   1       8.200  -0.585  -5.322  0.00  0.00    -0.043 C 
ATOM      8  C   LIG d   1       8.095  -4.271  -4.467  0.00  0.00    -0.045 C 
ATOM      9  H   LIG d   1       8.950  -2.689  -3.209  0.00  0.00     0.031 H 
ATOM     10  C   LIG d   1       6.820  -2.385  -3.454  0.00  0.00    -0.034 C 
ATOM     11  C   LIG d   1       7.686  -4.194  -5.951  0.00  0.00    -0.001 C 
ATOM     12  H   LIG d   1       9.070  -4.757  -4.368  0.00  0.00     0.027 H 
ATOM     13  H   LIG d   1       7.357  -4.821  -3.885  0.00  0.00     0.027 H 
ATOM     14  H   LIG d   1       8.110  -5.036  -6.501  0.00  0.00     0.031 H 
ATOM     15  H   LIG d   1       6.605  -4.191  -6.058  0.00  0.00     0.031 H 
ATOM     16  C   LIG d   1       6.695  -0.864  -3.388  0.00  0.00    -0.031 C 
ATOM     17  H   LIG d   1       6.739  -2.769  -2.423  0.00  0.00     0.031 H 
ATOM     18  C   LIG d   1       5.680  -2.986  -4.269  0.00  0.00    -0.046 C 
ATOM     19  C   LIG d   1       6.784  -0.326  -4.817  0.00  0.00    -0.049 C 
ATOM     20  H   LIG d   1       7.523  -0.463  -2.799  0.00  0.00     0.031 H 
ATOM     21  C   LIG d   1       5.371  -0.463  -2.735  0.00  0.00    -0.016 C 
ATOM     22  H   LIG d   1       6.595   0.750  -4.822  0.00  0.00     0.027 H 
ATOM     23  H   LIG d   1       6.049  -0.813  -5.450  0.00  0.00     0.027 H 
ATOM     24  C   LIG d   1       4.245  -1.150  -3.449  0.00  0.00    -0.063 C 
ATOM     25  C   LIG d   1       5.259   1.043  -2.644  0.00  0.00    -0.039 C 
ATOM     26  H   LIG d   1       5.386  -0.852  -1.711  0.00  0.00     0.035 H 
ATOM     27  C   LIG d   1       4.337  -2.657  -3.606  0.00  0.00    -0.031 C 
ATOM     28  C   LIG d   1       3.190  -0.521  -3.957  0.00  0.00    -0.020 C 
ATOM     29  H   LIG d   1       4.290  -3.131  -2.625  0.00  0.00     0.031 H 
ATOM     30  H   LIG d   1       3.522  -3.014  -4.233  0.00  0.00     0.031 H 
ATOM     31  C   LIG d   1       3.102   0.939  -3.819  0.00  0.00     0.156 C 
ATOM     32  H   LIG d   1       2.411  -1.067  -4.459  0.00  0.00     0.065 H 
ATOM     33  O   LIG d   1       2.506   1.624  -4.618  0.00  0.00    -0.293 OA
ATOM     34  C   LIG d   1       3.810   1.530  -2.615  0.00  0.00     0.010 C 
ATOM     35  H   LIG d   1       3.354   1.226  -1.779  0.00  0.00     0.035 H 
ATOM     36  H   LIG d   1       3.784   2.618  -2.668  0.00  0.00     0.035 H 
ATOM     37  H   LIG d   1       5.752   1.378  -1.726  0.00  0.00     0.028 H 
ATOM     38  H   LIG d   1       5.767   1.507  -3.487  0.00  0.00     0.028 H 
ATOM     39  H   LIG d   1       5.781  -4.073  -4.310  0.00  0.00     0.027 H 
ATOM     40  H   LIG d   1       5.679  -2.588  -5.281  0.00  0.00     0.027 H 
ATOM     41  H   LIG d   1       8.887  -0.012  -4.669  0.00  0.00     0.027 H 
ATOM     42  H   LIG d   1       8.328  -0.175  -6.317  0.00  0.00     0.027 H 
BRANCH   4  43
ATOM     43  O   LIG d   1       9.511  -3.172  -7.214  0.00  0.00    -0.445 OA
BRANCH  43  44
ATOM     44  C   LIG d   1       9.570  -4.357  -7.843  0.00  0.00     0.305 C 
ATOM     45  O   LIG d   1      10.080  -5.306  -7.298  0.00  0.00    -0.251 OA
BRANCH  44  46
ATOM     46  C   LIG d   1       8.999  -4.501  -9.231  0.00  0.00     0.033 C 
ATOM     47  H   LIG d   1       7.920  -4.644  -9.167  0.00  0.00     0.034 H 
ATOM     48  H   LIG d   1       9.212  -3.600  -9.807  0.00  0.00     0.034 H 
ATOM     49  H   LIG d   1       9.452  -5.362  -9.723  0.00  0.00     0.034 H 
ENDBRANCH  44  46
ENDBRANCH  43  44
ENDBRANCH   4  43
BRANCH   5  50
ATOM     50  C   LIG d   1      10.179  -1.992  -5.196  0.00  0.00    -0.055 C 
ATOM     51  H   LIG d   1      10.581  -1.976  -6.209  0.00  0.00     0.024 H 
ATOM     52  H   LIG d   1      10.543  -2.878  -4.675  0.00  0.00     0.024 H 
ATOM     53  H   LIG d   1      10.503  -1.099  -4.662  0.00  0.00     0.024 H 
ENDBRANCH   5  50
ENDBRANCH   1   4
TORSDOF 5
ENDMDL
MODEL 4
REMARK VINA RESULT:      -5.7      1.934      6.389
REMARK  5 active torsions:
REMARK  status: ('A' for Active; 'I' for Inactive)
REMARK    1  A    between atoms: C_1  and  C_2 
REMARK    2  A    between atoms: C_2  and  O_4 
REMARK    3  A    between atoms: O_4  and  C_5 
REMARK    4  A    between atoms: C_5  and  C_28 
REMARK    5  A    between atoms: C_10  and  C_27 
ROOT
ATOM      1  C   LIG d   1       4.494  -2.830  -7.925  0.00  0.00    -0.058 C 
ATOM      2  C   LIG d   1       3.635  -2.070  -8.176  0.00  0.00    -0.115 C 
ATOM      3  H   LIG d   1       2.867  -1.390  -8.400  0.00  0.00     0.123 H 
ENDROOT
BRANCH   1   4
ATOM      4  C   LIG d   1       5.567  -3.781  -7.611  0.00  0.00     0.178 C 
ATOM      5  C   LIG d   1       6.741  -3.146  -6.866  0.00  0.00     0.022 C 
ATOM      6  C   LIG d   1       6.867  -3.827  -5.502  0.00  0.00    -0.028 C 
ATOM      7  C   LIG d   1       6.761  -1.642  -6.847  0.00  0.00    -0.043 C 
ATOM      8  C   LIG d   1       6.145  -5.190  -5.681  0.00  0.00    -0.045 C 
ATOM      9  H   LIG d   1       7.941  -4.000  -5.265  0.00  0.00     0.031 H 
ATOM     10  C   LIG d   1       6.206  -3.086  -4.348  0.00  0.00    -0.034 C 
ATOM     11  C   LIG d   1       5.027  -4.907  -6.704  0.00  0.00    -0.001 C 
ATOM     12  H   LIG d   1       6.837  -5.939  -6.075  0.00  0.00     0.027 H 
ATOM     13  H   LIG d   1       5.730  -5.542  -4.736  0.00  0.00     0.027 H 
ATOM     14  H   LIG d   1       4.831  -5.799  -7.302  0.00  0.00     0.031 H 
ATOM     15  H   LIG d   1       4.115  -4.588  -6.208  0.00  0.00     0.031 H 
ATOM     16  C   LIG d   1       6.556  -1.599  -4.389  0.00  0.00    -0.031 C 
ATOM     17  H   LIG d   1       6.603  -3.493  -3.404  0.00  0.00     0.031 H 
ATOM     18  C   LIG d   1       4.693  -3.284  -4.345  0.00  0.00    -0.046 C 
ATOM     19  C   LIG d   1       5.988  -1.021  -5.687  0.00  0.00    -0.049 C 
ATOM     20  H   LIG d   1       7.644  -1.489  -4.390  0.00  0.00     0.031 H 
ATOM     21  C   LIG d   1       5.978  -0.877  -3.171  0.00  0.00    -0.016 C 
ATOM     22  H   LIG d   1       6.129   0.062  -5.705  0.00  0.00     0.027 H 
ATOM     23  H   LIG d   1       4.928  -1.238  -5.764  0.00  0.00     0.027 H 
ATOM     24  C   LIG d   1       4.509  -1.168  -3.082  0.00  0.00    -0.063 C 
ATOM     25  C   LIG d   1       6.349   0.589  -3.197  0.00  0.00    -0.039 C 
ATOM     26  H   LIG d   1       6.445  -1.318  -2.283  0.00  0.00     0.035 H 
ATOM     27  C   LIG d   1       4.085  -2.626  -3.100  0.00  0.00    -0.031 C 
ATOM     28  C   LIG d   1       3.568  -0.234  -3.001  0.00  0.00    -0.020 C 
ATOM     29  H   LIG d   1       4.457  -3.127  -2.206  0.00  0.00     0.031 H 
ATOM     30  H   LIG d   1       2.999  -2.695  -3.143  0.00  0.00     0.031 H 
ATOM     31  C   LIG d   1       3.971   1.179  -2.996  0.00  0.00     0.156 C 
ATOM     32  H   LIG d   1       2.527  -0.502  -2.939  0.00  0.00     0.065 H 
ATOM     33  O   LIG d   1       3.247   2.054  -3.413  0.00  0.00    -0.293 OA
ATOM     34  C   LIG d   1       5.352   1.466  -2.440  0.00  0.00     0.010 C 
ATOM     35  H   LIG d   1       5.368   1.254  -1.463  0.00  0.00     0.035 H 
ATOM     36  H   LIG d   1       5.598   2.518  -2.587  0.00  0.00     0.035 H 
ATOM     37  H   LIG d   1       7.334   0.711  -2.735  0.00  0.00     0.028 H 
ATOM     38  H   LIG d   1       6.414   0.940  -4.225  0.00  0.00     0.028 H 
ATOM     39  H   LIG d   1       4.456  -4.349  -4.317  0.00  0.00     0.027 H 
ATOM     40  H   LIG d   1       4.246  -2.839  -5.231  0.00  0.00     0.027 H 
ATOM     41  H   LIG d   1       7.817  -1.331  -6.737  0.00  0.00     0.027 H 
ATOM     42  H   LIG d   1       6.426  -1.224  -7.790  0.00  0.00     0.027 H 
BRANCH   4  43
ATOM     43  O   LIG d   1       6.054  -4.373  -8.856  0.00  0.00    -0.445 OA
BRANCH  43  44
ATOM     44  C   LIG d   1       5.381  -5.434  -9.329  0.00  0.00     0.305 C 
ATOM     45  O   LIG d   1       4.321  -5.279  -9.885  0.00  0.00    -0.251 OA
BRANCH  44  46
ATOM     46  C   LIG d   1       5.952  -6.821  -9.167  0.00  0.00     0.033 C 
ATOM     47  H   LIG d   1       6.832  -6.778  -8.523  0.00  0.00     0.034 H 
ATOM     48  H   LIG d   1       5.202  -7.471  -8.714  0.00  0.00     0.034 H 
ATOM     49  H   LIG d   1       6.234  -7.214 -10.143  0.00  0.00     0.034 H 
ENDBRANCH  44  46
ENDBRANCH  43  44
ENDBRANCH   4  43
BRANCH   5  50
ATOM     50  C   LIG d   1       8.011  -3.561  -7.663  0.00  0.00    -0.055 C 
ATOM     51  H   LIG d   1       7.805  -4.473  -8.224  0.00  0.00     0.024 H 
ATOM     52  H   LIG d   1       8.833  -3.740  -6.970  0.00  0.00     0.024 H 
ATOM     53  H   LIG d   1       8.284  -2.763  -8.353  0.00  0.00     0.024 H 
ENDBRANCH   5  50
ENDBRANCH   1   4
TORSDOF 5
ENDMDL
MODEL 5
REMARK VINA RESULT:      -5.7      2.982      5.274
REMARK  5 active torsions:
REMARK  status: ('A' for Active; 'I' for Inactive)
REMARK    1  A    between atoms: C_1  and  C_2 
REMARK    2  A    between atoms: C_2  and  O_4 
REMARK    3  A    between atoms: O_4  and  C_5 
REMARK    4  A    between atoms: C_5  and  C_28 
REMARK    5  A    between atoms: C_10  and  C_27 
ROOT
ATOM      1  C   LIG d   1       6.938  -3.842  -4.879  0.00  0.00    -0.058 C 
ATOM      2  C   LIG d   1       8.032  -4.236  -4.722  0.00  0.00    -0.115 C 
ATOM      3  H   LIG d   1       9.012  -4.588  -4.582  0.00  0.00     0.123 H 
ENDROOT
BRANCH   1   4
ATOM      4  C   LIG d   1       5.569  -3.349  -5.077  0.00  0.00     0.178 C 
ATOM      5  C   LIG d   1       5.275  -2.054  -4.321  0.00  0.00     0.022 C 
ATOM      6  C   LIG d   1       4.927  -0.971  -5.343  0.00  0.00    -0.028 C 
ATOM      7  C   LIG d   1       6.291  -1.665  -3.281  0.00  0.00    -0.043 C 
ATOM      8  C   LIG d   1       4.486  -1.759  -6.607  0.00  0.00    -0.045 C 
ATOM      9  H   LIG d   1       4.077  -0.358  -4.968  0.00  0.00     0.031 H 
ATOM     10  C   LIG d   1       6.080  -0.056  -5.731  0.00  0.00    -0.034 C 
ATOM     11  C   LIG d   1       5.323  -3.053  -6.571  0.00  0.00    -0.001 C 
ATOM     12  H   LIG d   1       3.420  -1.997  -6.555  0.00  0.00     0.027 H 
ATOM     13  H   LIG d   1       4.685  -1.189  -7.514  0.00  0.00     0.027 H 
ATOM     14  H   LIG d   1       4.764  -3.874  -7.023  0.00  0.00     0.031 H 
ATOM     15  H   LIG d   1       6.268  -2.921  -7.091  0.00  0.00     0.031 H 
ATOM     16  C   LIG d   1       6.838   0.414  -4.491  0.00  0.00    -0.031 C 
ATOM     17  H   LIG d   1       5.661   0.838  -6.221  0.00  0.00     0.031 H 
ATOM     18  C   LIG d   1       7.027  -0.732  -6.718  0.00  0.00    -0.046 C 
ATOM     19  C   LIG d   1       7.442  -0.820  -3.817  0.00  0.00    -0.049 C 
ATOM     20  H   LIG d   1       6.135   0.893  -3.804  0.00  0.00     0.031 H 
ATOM     21  C   LIG d   1       7.928   1.415  -4.875  0.00  0.00    -0.016 C 
ATOM     22  H   LIG d   1       8.078  -0.514  -2.983  0.00  0.00     0.027 H 
ATOM     23  H   LIG d   1       8.041  -1.382  -4.527  0.00  0.00     0.027 H 
ATOM     24  C   LIG d   1       8.793   0.810  -5.941  0.00  0.00    -0.063 C 
ATOM     25  C   LIG d   1       8.660   1.902  -3.644  0.00  0.00    -0.039 C 
ATOM     26  H   LIG d   1       7.428   2.281  -5.322  0.00  0.00     0.035 H 
ATOM     27  C   LIG d   1       8.099   0.265  -7.176  0.00  0.00    -0.031 C 
ATOM     28  C   LIG d   1      10.117   0.716  -5.862  0.00  0.00    -0.020 C 
ATOM     29  H   LIG d   1       7.626   1.083  -7.721  0.00  0.00     0.031 H 
ATOM     30  H   LIG d   1       8.821  -0.241  -7.814  0.00  0.00     0.031 H 
ATOM     31  C   LIG d   1      10.793   1.230  -4.664  0.00  0.00     0.156 C 
ATOM     32  H   LIG d   1      10.687   0.272  -6.660  0.00  0.00     0.065 H 
ATOM     33  O   LIG d   1      11.845   0.776  -4.276  0.00  0.00    -0.293 OA
ATOM     34  C   LIG d   1      10.086   2.362  -3.945  0.00  0.00     0.010 C 
ATOM     35  H   LIG d   1      10.078   3.174  -4.529  0.00  0.00     0.035 H 
ATOM     36  H   LIG d   1      10.605   2.591  -3.014  0.00  0.00     0.035 H 
ATOM     37  H   LIG d   1       8.109   2.747  -3.218  0.00  0.00     0.028 H 
ATOM     38  H   LIG d   1       8.698   1.114  -2.895  0.00  0.00     0.028 H 
ATOM     39  H   LIG d   1       6.474  -1.064  -7.599  0.00  0.00     0.027 H 
ATOM     40  H   LIG d   1       7.516  -1.587  -6.258  0.00  0.00     0.027 H 
ATOM     41  H   LIG d   1       5.764  -1.053  -2.524  0.00  0.00     0.027 H 
ATOM     42  H   LIG d   1       6.672  -2.529  -2.749  0.00  0.00     0.027 H 
BRANCH   4  43
ATOM     43  O   LIG d   1       4.628  -4.381  -4.642  0.00  0.00    -0.445 OA
BRANCH  43  44
ATOM     44  C   LIG d   1       4.352  -5.361  -5.517  0.00  0.00     0.305 C 
ATOM     45  O   LIG d   1       3.386  -5.275  -6.237  0.00  0.00    -0.251 OA
BRANCH  44  46
ATOM     46  C   LIG d   1       5.251  -6.569  -5.603  0.00  0.00     0.033 C 
ATOM     47  H   LIG d   1       6.160  -6.307  -6.146  0.00  0.00     0.034 H 
ATOM     48  H   LIG d   1       5.511  -6.900  -4.597  0.00  0.00     0.034 H 
ATOM     49  H   LIG d   1       4.732  -7.371  -6.128  0.00  0.00     0.034 H 
ENDBRANCH  44  46
ENDBRANCH  43  44
ENDBRANCH   4  43
BRANCH   5  50
ATOM     50  C   LIG d   1       3.964  -2.324  -3.529  0.00  0.00    -0.055 C 
ATOM     51  H   LIG d   1       3.691  -1.433  -2.964  0.00  0.00     0.024 H 
ATOM     52  H   LIG d   1       4.117  -3.157  -2.843  0.00  0.00     0.024 H 
ATOM     53  H   LIG d   1       3.163  -2.571  -4.226  0.00  0.00     0.024 H 
ENDBRANCH   5  50
ENDBRANCH   1   4
TORSDOF 5
ENDMDL
MODEL 6
REMARK VINA RESULT:      -5.6      1.943      6.506
REMARK  5 active torsions:
REMARK  status: ('A' for Active; 'I' for Inactive)
REMARK    1  A    between atoms: C_1  and  C_2 
REMARK    2  A    between atoms: C_2  and  O_4 
REMARK    3  A    between atoms: O_4  and  C_5 
REMARK    4  A    between atoms: C_5  and  C_28 
REMARK    5  A    between atoms: C_10  and  C_27 
ROOT
ATOM      1  C   LIG d   1       9.256  -1.306  -5.282  0.00  0.00    -0.058 C 
ATOM      2  C   LIG d   1       9.250  -0.134  -5.228  0.00  0.00    -0.115 C 
ATOM      3  H   LIG d   1       9.246   0.916  -5.181  0.00  0.00     0.123 H 
ENDROOT
BRANCH   1   4
ATOM      4  C   LIG d   1       9.264  -2.773  -5.348  0.00  0.00     0.178 C 
ATOM      5  C   LIG d   1       8.377  -3.432  -4.294  0.00  0.00     0.022 C 
ATOM      6  C   LIG d   1       7.289  -4.232  -5.014  0.00  0.00    -0.028 C 
ATOM      7  C   LIG d   1       7.897  -2.528  -3.191  0.00  0.00    -0.043 C 
ATOM      8  C   LIG d   1       7.868  -4.481  -6.433  0.00  0.00    -0.045 C 
ATOM      9  H   LIG d   1       7.132  -5.205  -4.497  0.00  0.00     0.031 H 
ATOM     10  C   LIG d   1       5.955  -3.515  -5.163  0.00  0.00    -0.034 C 
ATOM     11  C   LIG d   1       8.739  -3.243  -6.722  0.00  0.00    -0.001 C 
ATOM     12  H   LIG d   1       8.483  -5.386  -6.441  0.00  0.00     0.027 H 
ATOM     13  H   LIG d   1       7.071  -4.579  -7.171  0.00  0.00     0.027 H 
ATOM     14  H   LIG d   1       9.579  -3.516  -7.363  0.00  0.00     0.031 H 
ATOM     15  H   LIG d   1       8.157  -2.456  -7.193  0.00  0.00     0.031 H 
ATOM     16  C   LIG d   1       5.542  -2.861  -3.846  0.00  0.00    -0.031 C 
ATOM     17  H   LIG d   1       5.187  -4.265  -5.415  0.00  0.00     0.031 H 
ATOM     18  C   LIG d   1       5.992  -2.486  -6.288  0.00  0.00    -0.046 C 
ATOM     19  C   LIG d   1       6.591  -1.802  -3.501  0.00  0.00    -0.049 C 
ATOM     20  H   LIG d   1       5.525  -3.621  -3.061  0.00  0.00     0.031 H 
ATOM     21  C   LIG d   1       4.153  -2.232  -3.970  0.00  0.00    -0.016 C 
ATOM     22  H   LIG d   1       6.278  -1.241  -2.618  0.00  0.00     0.027 H 
ATOM     23  H   LIG d   1       6.717  -1.112  -4.329  0.00  0.00     0.027 H 
ATOM     24  C   LIG d   1       4.138  -1.311  -5.154  0.00  0.00    -0.063 C 
ATOM     25  C   LIG d   1       3.732  -1.609  -2.658  0.00  0.00    -0.039 C 
ATOM     26  H   LIG d   1       3.450  -3.044  -4.187  0.00  0.00     0.035 H 
ATOM     27  C   LIG d   1       4.596  -1.879  -6.485  0.00  0.00    -0.031 C 
ATOM     28  C   LIG d   1       3.761  -0.038  -5.103  0.00  0.00    -0.020 C 
ATOM     29  H   LIG d   1       3.905  -2.658  -6.809  0.00  0.00     0.031 H 
ATOM     30  H   LIG d   1       4.643  -1.087  -7.230  0.00  0.00     0.031 H 
ATOM     31  C   LIG d   1       3.327   0.521  -3.815  0.00  0.00     0.156 C 
ATOM     32  H   LIG d   1       3.769   0.577  -5.987  0.00  0.00     0.065 H 
ATOM     33  O   LIG d   1       3.445   1.697  -3.554  0.00  0.00    -0.293 OA
ATOM     34  C   LIG d   1       2.729  -0.470  -2.836  0.00  0.00     0.010 C 
ATOM     35  H   LIG d   1       1.865  -0.817  -3.200  0.00  0.00     0.035 H 
ATOM     36  H   LIG d   1       2.550   0.018  -1.878  0.00  0.00     0.035 H 
ATOM     37  H   LIG d   1       3.269  -2.381  -2.034  0.00  0.00     0.028 H 
ATOM     38  H   LIG d   1       4.604  -1.228  -2.129  0.00  0.00     0.028 H 
ATOM     39  H   LIG d   1       6.289  -2.965  -7.224  0.00  0.00     0.027 H 
ATOM     40  H   LIG d   1       6.692  -1.687  -6.056  0.00  0.00     0.027 H 
ATOM     41  H   LIG d   1       7.711  -3.165  -2.304  0.00  0.00     0.027 H 
ATOM     42  H   LIG d   1       8.661  -1.820  -2.892  0.00  0.00     0.027 H 
BRANCH   4  43
ATOM     43  O   LIG d   1      10.637  -3.247  -5.183  0.00  0.00    -0.445 OA
BRANCH  43  44
ATOM     44  C   LIG d   1      11.407  -3.276  -6.282  0.00  0.00     0.305 C 
ATOM     45  O   LIG d   1      11.866  -2.250  -6.727  0.00  0.00    -0.251 OA
BRANCH  44  46
ATOM     46  C   LIG d   1      11.701  -4.589  -6.961  0.00  0.00     0.033 C 
ATOM     47  H   LIG d   1      12.014  -4.405  -7.990  0.00  0.00     0.034 H 
ATOM     48  H   LIG d   1      12.500  -5.104  -6.426  0.00  0.00     0.034 H 
ATOM     49  H   LIG d   1      10.804  -5.208  -6.959  0.00  0.00     0.034 H 
ENDBRANCH  44  46
ENDBRANCH  43  44
ENDBRANCH   4  43
BRANCH   5  50
ATOM     50  C   LIG d   1       9.280  -4.487  -3.593  0.00  0.00    -0.055 C 
ATOM     51  H   LIG d   1      10.186  -4.004  -3.227  0.00  0.00     0.024 H 
ATOM     52  H   LIG d   1       9.547  -5.268  -4.305  0.00  0.00     0.024 H 
ATOM     53  H   LIG d   1       8.741  -4.929  -2.755  0.00  0.00     0.024 H 
ENDBRANCH   5  50
ENDBRANCH   1   4
TORSDOF 5
ENDMDL
MODEL 7
REMARK VINA RESULT:      -5.6      2.031      3.227
REMARK  5 active torsions:
REMARK  status: ('A' for Active; 'I' for Inactive)
REMARK    1  A    between atoms: C_1  and  C_2 
REMARK    2  A    between atoms: C_2  and  O_4 
REMARK    3  A    between atoms: O_4  and  C_5 
REMARK    4  A    between atoms: C_5  and  C_28 
REMARK    5  A    between atoms: C_10  and  C_27 
ROOT
ATOM      1  C   LIG d   1       6.531   0.435  -3.992  0.00  0.00    -0.058 C 
ATOM      2  C   LIG d   1       7.398   1.171  -3.699  0.00  0.00    -0.115 C 
ATOM      3  H   LIG d   1       8.173   1.829  -3.438  0.00  0.00     0.123 H 
ENDROOT
BRANCH   1   4
ATOM      4  C   LIG d   1       5.447  -0.485  -4.359  0.00  0.00     0.178 C 
ATOM      5  C   LIG d   1       5.710  -1.242  -5.660  0.00  0.00     0.022 C 
ATOM      6  C   LIG d   1       5.754  -2.739  -5.342  0.00  0.00    -0.028 C 
ATOM      7  C   LIG d   1       6.846  -0.721  -6.497  0.00  0.00    -0.043 C 
ATOM      8  C   LIG d   1       4.985  -2.873  -4.000  0.00  0.00    -0.045 C 
ATOM      9  H   LIG d   1       5.223  -3.308  -6.137  0.00  0.00     0.031 H 
ATOM     10  C   LIG d   1       7.150  -3.315  -5.150  0.00  0.00    -0.034 C 
ATOM     11  C   LIG d   1       5.263  -1.550  -3.258  0.00  0.00    -0.001 C 
ATOM     12  H   LIG d   1       3.913  -2.984  -4.185  0.00  0.00     0.027 H 
ATOM     13  H   LIG d   1       5.343  -3.726  -3.425  0.00  0.00     0.027 H 
ATOM     14  H   LIG d   1       4.410  -1.286  -2.630  0.00  0.00     0.031 H 
ATOM     15  H   LIG d   1       6.160  -1.625  -2.649  0.00  0.00     0.031 H 
ATOM     16  C   LIG d   1       8.089  -2.838  -6.257  0.00  0.00    -0.031 C 
ATOM     17  H   LIG d   1       7.082  -4.413  -5.224  0.00  0.00     0.031 H 
ATOM     18  C   LIG d   1       7.716  -2.972  -3.776  0.00  0.00    -0.046 C 
ATOM     19  C   LIG d   1       8.206  -1.316  -6.146  0.00  0.00    -0.049 C 
ATOM     20  H   LIG d   1       7.658  -3.097  -7.227  0.00  0.00     0.031 H 
ATOM     21  C   LIG d   1       9.461  -3.502  -6.121  0.00  0.00    -0.016 C 
ATOM     22  H   LIG d   1       8.950  -0.948  -6.856  0.00  0.00     0.027 H 
ATOM     23  H   LIG d   1       8.509  -1.033  -5.143  0.00  0.00     0.027 H 
ATOM     24  C   LIG d   1       9.975  -3.280  -4.729  0.00  0.00    -0.063 C 
ATOM     25  C   LIG d   1      10.381  -3.051  -7.233  0.00  0.00    -0.039 C 
ATOM     26  H   LIG d   1       9.309  -4.581  -6.238  0.00  0.00     0.035 H 
ATOM     27  C   LIG d   1       9.066  -3.675  -3.579  0.00  0.00    -0.031 C 
ATOM     28  C   LIG d   1      11.163  -2.755  -4.449  0.00  0.00    -0.020 C 
ATOM     29  H   LIG d   1       8.916  -4.755  -3.583  0.00  0.00     0.031 H 
ATOM     30  H   LIG d   1       9.507  -3.362  -2.634  0.00  0.00     0.031 H 
ATOM     31  C   LIG d   1      12.042  -2.360  -5.558  0.00  0.00     0.156 C 
ATOM     32  H   LIG d   1      11.480  -2.620  -3.429  0.00  0.00     0.065 H 
ATOM     33  O   LIG d   1      12.857  -1.472  -5.445  0.00  0.00    -0.293 OA
ATOM     34  C   LIG d   1      11.859  -3.132  -6.849  0.00  0.00     0.010 C 
ATOM     35  H   LIG d   1      12.134  -4.084  -6.710  0.00  0.00     0.035 H 
ATOM     36  H   LIG d   1      12.470  -2.690  -7.635  0.00  0.00     0.035 H 
ATOM     37  H   LIG d   1      10.218  -3.690  -8.106  0.00  0.00     0.028 H 
ATOM     38  H   LIG d   1      10.150  -2.027  -7.518  0.00  0.00     0.028 H 
ATOM     39  H   LIG d   1       7.037  -3.316  -2.994  0.00  0.00     0.027 H 
ATOM     40  H   LIG d   1       7.862  -1.898  -3.678  0.00  0.00     0.027 H 
ATOM     41  H   LIG d   1       6.632  -0.999  -7.547  0.00  0.00     0.027 H 
ATOM     42  H   LIG d   1       6.892   0.362  -6.481  0.00  0.00     0.027 H 
BRANCH   4  43
ATOM     43  O   LIG d   1       4.205   0.275  -4.490  0.00  0.00    -0.445 OA
BRANCH  43  44
ATOM     44  C   LIG d   1       3.409   0.331  -3.411  0.00  0.00     0.305 C 
ATOM     45  O   LIG d   1       2.478  -0.432  -3.306  0.00  0.00    -0.251 OA
BRANCH  44  46
ATOM     46  C   LIG d   1       3.678   1.345  -2.328  0.00  0.00     0.033 C 
ATOM     47  H   LIG d   1       3.114   1.079  -1.433  0.00  0.00     0.034 H 
ATOM     48  H   LIG d   1       4.743   1.354  -2.096  0.00  0.00     0.034 H 
ATOM     49  H   LIG d   1       3.371   2.333  -2.671  0.00  0.00     0.034 H 
ENDBRANCH  44  46
ENDBRANCH  43  44
ENDBRANCH   4  43
BRANCH   5  50
ATOM     50  C   LIG d   1       4.435  -1.034  -6.526  0.00  0.00    -0.055 C 
ATOM     51  H   LIG d   1       4.344  -1.852  -7.241  0.00  0.00     0.024 H 
ATOM     52  H   LIG d   1       4.511  -0.088  -7.064  0.00  0.00     0.024 H 
ATOM     53  H   LIG d   1       3.556  -1.015  -5.881  0.00  0.00     0.024 H 
ENDBRANCH   5  50
ENDBRANCH   1   4
TORSDOF 5
ENDMDL
MODEL 8
REMARK VINA RESULT:      -5.4      4.253      6.841
REMARK  5 active torsions:
REMARK  status: ('A' for Active; 'I' for Inactive)
REMARK    1  A    between atoms: C_1  and  C_2 
REMARK    2  A    between atoms: C_2  and  O_4 
REMARK    3  A    between atoms: O_4  and  C_5 
REMARK    4  A    between atoms: C_5  and  C_28 
REMARK    5  A    between atoms: C_10  and  C_27 
ROOT
ATOM      1  C   LIG d   1       4.261  -1.986  -7.608  0.00  0.00    -0.058 C 
ATOM      2  C   LIG d   1       4.198  -3.154  -7.714  0.00  0.00    -0.115 C 
ATOM      3  H   LIG d   1       4.142  -4.198  -7.809  0.00  0.00     0.123 H 
ENDROOT
BRANCH   1   4
ATOM      4  C   LIG d   1       4.339  -0.526  -7.476  0.00  0.00     0.178 C 
ATOM      5  C   LIG d   1       4.969   0.159  -8.687  0.00  0.00     0.022 C 
ATOM      6  C   LIG d   1       3.930   1.100  -9.300  0.00  0.00    -0.028 C 
ATOM      7  C   LIG d   1       5.674  -0.752  -9.656  0.00  0.00    -0.043 C 
ATOM      8  C   LIG d   1       2.923   1.368  -8.149  0.00  0.00    -0.045 C 
ATOM      9  H   LIG d   1       4.417   2.054  -9.602  0.00  0.00     0.031 H 
ATOM     10  C   LIG d   1       3.160   0.527 -10.482  0.00  0.00    -0.034 C 
ATOM     11  C   LIG d   1       2.923   0.067  -7.322  0.00  0.00    -0.001 C 
ATOM     12  H   LIG d   1       3.262   2.207  -7.534  0.00  0.00     0.027 H 
ATOM     13  H   LIG d   1       1.929   1.584  -8.539  0.00  0.00     0.027 H 
ATOM     14  H   LIG d   1       2.730   0.291  -6.271  0.00  0.00     0.031 H 
ATOM     15  H   LIG d   1       2.177  -0.631  -7.692  0.00  0.00     0.031 H 
ATOM     16  C   LIG d   1       4.109  -0.154 -11.467  0.00  0.00    -0.031 C 
ATOM     17  H   LIG d   1       2.675   1.362 -11.014  0.00  0.00     0.031 H 
ATOM     18  C   LIG d   1       2.070  -0.438 -10.029  0.00  0.00    -0.046 C 
ATOM     19  C   LIG d   1       4.770  -1.328 -10.742  0.00  0.00    -0.049 C 
ATOM     20  H   LIG d   1       4.878   0.560 -11.773  0.00  0.00     0.031 H 
ATOM     21  C   LIG d   1       3.346  -0.634 -12.703  0.00  0.00    -0.016 C 
ATOM     22  H   LIG d   1       5.379  -1.903 -11.444  0.00  0.00     0.027 H 
ATOM     23  H   LIG d   1       4.016  -1.981 -10.316  0.00  0.00     0.027 H 
ATOM     24  C   LIG d   1       2.191  -1.484 -12.264  0.00  0.00    -0.063 C 
ATOM     25  C   LIG d   1       4.291  -1.283 -13.690  0.00  0.00    -0.039 C 
ATOM     26  H   LIG d   1       2.925   0.254 -13.187  0.00  0.00     0.035 H 
ATOM     27  C   LIG d   1       1.241  -0.892 -11.237  0.00  0.00    -0.031 C 
ATOM     28  C   LIG d   1       1.959  -2.715 -12.708  0.00  0.00    -0.020 C 
ATOM     29  H   LIG d   1       0.725  -0.033 -11.668  0.00  0.00     0.031 H 
ATOM     30  H   LIG d   1       0.519  -1.644 -10.924  0.00  0.00     0.031 H 
ATOM     31  C   LIG d   1       2.881  -3.297 -13.692  0.00  0.00     0.156 C 
ATOM     32  H   LIG d   1       1.111  -3.278 -12.358  0.00  0.00     0.065 H 
ATOM     33  O   LIG d   1       3.059  -4.491 -13.777  0.00  0.00    -0.293 OA
ATOM     34  C   LIG d   1       3.597  -2.307 -14.589  0.00  0.00     0.010 C 
ATOM     35  H   LIG d   1       2.933  -1.857 -15.186  0.00  0.00     0.035 H 
ATOM     36  H   LIG d   1       4.337  -2.826 -15.198  0.00  0.00     0.035 H 
ATOM     37  H   LIG d   1       4.724  -0.505 -14.326  0.00  0.00     0.028 H 
ATOM     38  H   LIG d   1       5.104  -1.777 -13.161  0.00  0.00     0.028 H 
ATOM     39  H   LIG d   1       1.399   0.060  -9.325  0.00  0.00     0.027 H 
ATOM     40  H   LIG d   1       2.504  -1.314  -9.552  0.00  0.00     0.027 H 
ATOM     41  H   LIG d   1       6.450  -0.149 -10.166  0.00  0.00     0.027 H 
ATOM     42  H   LIG d   1       6.204  -1.547  -9.145  0.00  0.00     0.027 H 
BRANCH   4  43
ATOM     43  O   LIG d   1       5.118  -0.200  -6.282  0.00  0.00    -0.445 OA
BRANCH  43  44
ATOM     44  C   LIG d   1       4.497  -0.326  -5.098  0.00  0.00     0.305 C 
ATOM     45  O   LIG d   1       3.961   0.631  -4.592  0.00  0.00    -0.251 OA
BRANCH  44  46
ATOM     46  C   LIG d   1       4.469  -1.662  -4.401  0.00  0.00     0.033 C 
ATOM     47  H   LIG d   1       4.964  -2.408  -5.025  0.00  0.00     0.034 H 
ATOM     48  H   LIG d   1       4.990  -1.584  -3.446  0.00  0.00     0.034 H 
ATOM     49  H   LIG d   1       3.436  -1.961  -4.228  0.00  0.00     0.034 H 
ENDBRANCH  44  46
ENDBRANCH  43  44
ENDBRANCH   4  43
BRANCH   5  50
ATOM     50  C   LIG d   1       6.082   1.080  -8.110  0.00  0.00    -0.055 C 
ATOM     51  H   LIG d   1       6.056   2.044  -8.619  0.00  0.00     0.024 H 
ATOM     52  H   LIG d   1       7.056   0.615  -8.265  0.00  0.00     0.024 H 
ATOM     53  H   LIG d   1       5.915   1.228  -7.044  0.00  0.00     0.024 H 
ENDBRANCH   5  50
ENDBRANCH   1   4
TORSDOF 5
ENDMDL
MODEL 9
REMARK VINA RESULT:      -5.3      9.603     11.493
REMARK  5 active torsions:
REMARK  status: ('A' for Active; 'I' for Inactive)
REMARK    1  A    between atoms: C_1  and  C_2 
REMARK    2  A    between atoms: C_2  and  O_4 
REMARK    3  A    between atoms: O_4  and  C_5 
REMARK    4  A    between atoms: C_5  and  C_28 
REMARK    5  A    between atoms: C_10  and  C_27 
ROOT
ATOM      1  C   LIG d   1      12.598   7.714  -2.662  0.00  0.00    -0.058 C 
ATOM      2  C   LIG d   1      13.534   8.194  -3.183  0.00  0.00    -0.115 C 
ATOM      3  H   LIG d   1      14.372   8.623  -3.649  0.00  0.00     0.123 H 
ENDROOT
BRANCH   1   4
ATOM      4  C   LIG d   1      11.427   7.114  -2.011  0.00  0.00     0.178 C 
ATOM      5  C   LIG d   1      10.098   7.580  -2.604  0.00  0.00     0.022 C 
ATOM      6  C   LIG d   1       9.372   6.360  -3.173  0.00  0.00    -0.028 C 
ATOM      7  C   LIG d   1      10.177   8.774  -3.516  0.00  0.00    -0.043 C 
ATOM      8  C   LIG d   1      10.007   5.151  -2.432  0.00  0.00    -0.045 C 
ATOM      9  H   LIG d   1       8.288   6.420  -2.932  0.00  0.00     0.031 H 
ATOM     10  C   LIG d   1       9.549   6.146  -4.670  0.00  0.00    -0.034 C 
ATOM     11  C   LIG d   1      11.464   5.579  -2.167  0.00  0.00    -0.001 C 
ATOM     12  H   LIG d   1       9.488   4.969  -1.486  0.00  0.00     0.027 H 
ATOM     13  H   LIG d   1       9.969   4.251  -3.045  0.00  0.00     0.027 H 
ATOM     14  H   LIG d   1      11.826   5.124  -1.243  0.00  0.00     0.031 H 
ATOM     15  H   LIG d   1      12.110   5.298  -2.994  0.00  0.00     0.031 H 
ATOM     16  C   LIG d   1       9.351   7.456  -5.430  0.00  0.00    -0.031 C 
ATOM     17  H   LIG d   1       8.770   5.444  -5.012  0.00  0.00     0.031 H 
ATOM     18  C   LIG d   1      10.907   5.532  -4.995  0.00  0.00    -0.046 C 
ATOM     19  C   LIG d   1      10.443   8.427  -4.978  0.00  0.00    -0.049 C 
ATOM     20  H   LIG d   1       8.372   7.870  -5.178  0.00  0.00     0.031 H 
ATOM     21  C   LIG d   1       9.424   7.217  -6.940  0.00  0.00    -0.016 C 
ATOM     22  H   LIG d   1      10.398   9.342  -5.575  0.00  0.00     0.027 H 
ATOM     23  H   LIG d   1      11.423   7.977  -5.100  0.00  0.00     0.027 H 
ATOM     24  C   LIG d   1      10.701   6.498  -7.259  0.00  0.00    -0.063 C 
ATOM     25  C   LIG d   1       9.200   8.509  -7.693  0.00  0.00    -0.039 C 
ATOM     26  H   LIG d   1       8.602   6.540  -7.199  0.00  0.00     0.035 H 
ATOM     27  C   LIG d   1      10.992   5.219  -6.494  0.00  0.00    -0.031 C 
ATOM     28  C   LIG d   1      11.588   6.917  -8.156  0.00  0.00    -0.020 C 
ATOM     29  H   LIG d   1      10.249   4.463  -6.750  0.00  0.00     0.031 H 
ATOM     30  H   LIG d   1      11.990   4.861  -6.737  0.00  0.00     0.031 H 
ATOM     31  C   LIG d   1      11.318   8.161  -8.891  0.00  0.00     0.156 C 
ATOM     32  H   LIG d   1      12.489   6.359  -8.345  0.00  0.00     0.065 H 
ATOM     33  O   LIG d   1      12.209   8.859  -9.318  0.00  0.00    -0.293 OA
ATOM     34  C   LIG d   1       9.855   8.512  -9.074  0.00  0.00     0.010 C 
ATOM     35  H   LIG d   1       9.422   7.834  -9.669  0.00  0.00     0.035 H 
ATOM     36  H   LIG d   1       9.765   9.500  -9.525  0.00  0.00     0.035 H 
ATOM     37  H   LIG d   1       8.124   8.660  -7.823  0.00  0.00     0.028 H 
ATOM     38  H   LIG d   1       9.590   9.348  -7.120  0.00  0.00     0.028 H 
ATOM     39  H   LIG d   1      11.037   4.598  -4.445  0.00  0.00     0.027 H 
ATOM     40  H   LIG d   1      11.711   6.217  -4.733  0.00  0.00     0.027 H 
ATOM     41  H   LIG d   1       9.194   9.281  -3.477  0.00  0.00     0.027 H 
ATOM     42  H   LIG d   1      10.899   9.501  -3.163  0.00  0.00     0.027 H 
BRANCH   4  43
ATOM     43  O   LIG d   1      11.457   7.442  -0.587  0.00  0.00    -0.445 OA
BRANCH  43  44
ATOM     44  C   LIG d   1      12.018   6.540   0.234  0.00  0.00     0.305 C 
ATOM     45  O   LIG d   1      13.210   6.348   0.196  0.00  0.00    -0.251 OA
BRANCH  44  46
ATOM     46  C   LIG d   1      11.160   5.769   1.205  0.00  0.00     0.033 C 
ATOM     47  H   LIG d   1      10.557   5.043   0.658  0.00  0.00     0.034 H 
ATOM     48  H   LIG d   1      11.799   5.246   1.918  0.00  0.00     0.034 H 
ATOM     49  H   LIG d   1      10.506   6.457   1.739  0.00  0.00     0.034 H 
ENDBRANCH  44  46
ENDBRANCH  43  44
ENDBRANCH   4  43
BRANCH   5  50
ATOM     50  C   LIG d   1       9.244   8.049  -1.391  0.00  0.00    -0.055 C 
ATOM     51  H   LIG d   1       9.854   8.026  -0.487  0.00  0.00     0.024 H 
ATOM     52  H   LIG d   1       8.389   7.384  -1.269  0.00  0.00     0.024 H 
ATOM     53  H   LIG d   1       8.892   9.066  -1.566  0.00  0.00     0.024 H 
ENDBRANCH   5  50
ENDBRANCH   1   4
TORSDOF 5
ENDMDL
