MODEL 1
REMARK VINA RESULT:      -6.8      0.000      0.000
REMARK  5 active torsions:
REMARK  status: ('A' for Active; 'I' for Inactive)
REMARK    1  A    between atoms: C_1  and  S_2 
REMARK    2  A    between atoms: S_2  and  N_5 
REMARK    3  A    between atoms: C_16  and  O_23 
REMARK    4  A    between atoms: O_23  and  C_24 
REMARK    5  A    between atoms: C_24  and  C_25 
ROOT
ATOM      1  N   LIG d   1      10.988   8.879  -3.675  0.00  0.00    -0.178 N 
ATOM      2  C   LIG d   1      11.710   8.342  -2.519  0.00  0.00     0.036 C 
ATOM      3  C   LIG d   1      10.762   7.400  -1.770  0.00  0.00     0.030 C 
ATOM      4  N   LIG d   1      10.237   6.402  -2.717  0.00  0.00    -0.286 N 
ATOM      5  CA  LIG d   1       9.624   6.823  -3.968  0.00  0.00     0.117 C 
ATOM      6  HA  LIG d   1       8.608   7.144  -3.742  0.00  0.00     0.061 H 
ATOM      7  C   LIG d   1      10.352   7.984  -4.630  0.00  0.00     0.047 C 
ATOM      8  C   LIG d   1       9.548   5.685  -4.958  0.00  0.00     0.238 C 
ATOM      9  O   LIG d   1       9.497   5.918  -6.146  0.00  0.00    -0.274 OA
ATOM     10  N   LIG d   1       9.536   4.416  -4.521  0.00  0.00    -0.286 N 
ATOM     11  C   LIG d   1       9.511   3.185  -5.314  0.00  0.00     0.042 C 
ATOM     12  C   LIG d   1      10.073   2.058  -4.429  0.00  0.00     0.077 C 
ATOM     13  H   LIG d   1      10.986   1.654  -4.866  0.00  0.00     0.061 H 
ATOM     14  C   LIG d   1      10.380   2.718  -3.068  0.00  0.00     0.002 C 
ATOM     15  CA  LIG d   1       9.577   4.033  -3.097  0.00  0.00     0.105 C 
ATOM     16  HA  LIG d   1       8.573   3.902  -2.695  0.00  0.00     0.060 H 
ATOM     17  C   LIG d   1      10.322   5.105  -2.352  0.00  0.00     0.237 C 
ATOM     18  O   LIG d   1      11.009   4.800  -1.400  0.00  0.00    -0.274 OA
ATOM     19  H   LIG d   1      12.588   7.791  -2.855  0.00  0.00     0.046 H 
ATOM     20  H   LIG d   1      12.015   9.158  -1.863  0.00  0.00     0.046 H 
ATOM     21  H   LIG d   1      11.303   6.896  -0.970  0.00  0.00     0.048 H 
ATOM     22  H   LIG d   1       9.935   7.972  -1.350  0.00  0.00     0.048 H 
ATOM     23  H   LIG d   1      11.115   7.584  -5.298  0.00  0.00     0.047 H 
ATOM     24  H   LIG d   1       9.636   8.554  -5.222  0.00  0.00     0.047 H 
ATOM     25  H   LIG d   1       8.486   2.952  -5.605  0.00  0.00     0.049 H 
ATOM     26  H   LIG d   1      10.132   3.304  -6.202  0.00  0.00     0.049 H 
ATOM     27  H   LIG d   1      11.447   2.923  -2.975  0.00  0.00     0.031 H 
ATOM     28  H   LIG d   1      10.040   2.082  -2.250  0.00  0.00     0.031 H 
ENDROOT
BRANCH  12  29
ATOM     29  O   LIG d   1       9.100   1.024  -4.268  0.00  0.00    -0.370 OA
BRANCH  29  30
ATOM     30  C   LIG d   1       7.763   1.434  -4.560  0.00  0.00     0.073 C 
ATOM     31  H   LIG d   1       7.638   2.484  -4.294  0.00  0.00     0.061 H 
ATOM     32  H   LIG d   1       7.566   1.305  -5.624  0.00  0.00     0.061 H 
BRANCH  30  33
ATOM     33  C   LIG d   1       6.795   0.596  -3.765  0.00  0.00    -0.022 A 
ATOM     34  C   LIG d   1       6.854  -0.784  -3.839  0.00  0.00    -0.054 A 
ATOM     35  C   LIG d   1       5.966  -1.554  -3.111  0.00  0.00    -0.026 A 
ATOM     36  H   LIG d   1       7.594  -1.260  -4.466  0.00  0.00     0.062 H 
ATOM     37  C   LIG d   1       5.018  -0.943  -2.308  0.00  0.00     0.123 A 
ATOM     38  H   LIG d   1       6.013  -2.631  -3.168  0.00  0.00     0.065 H 
ATOM     39  C   LIG d   1       4.960   0.439  -2.236  0.00  0.00    -0.026 A 
ATOM     40  F   LIG d   1       4.150  -1.695  -1.596  0.00  0.00    -0.205 F 
ATOM     41  C   LIG d   1       5.851   1.206  -2.960  0.00  0.00    -0.054 A 
ATOM     42  H   LIG d   1       4.220   0.916  -1.610  0.00  0.00     0.065 H 
ATOM     43  H   LIG d   1       5.808   2.284  -2.902  0.00  0.00     0.062 H 
ENDBRANCH  30  33
ENDBRANCH  29  30
ENDBRANCH  12  29
BRANCH   1  44
ATOM     44  S   LIG d   1      10.894  10.516  -3.897  0.00  0.00     0.029 S 
ATOM     45  O   LIG d   1      10.997  11.066  -2.591  0.00  0.00    -0.158 OA
ATOM     46  O   LIG d   1      11.872  10.806  -4.886  0.00  0.00    -0.158 OA
BRANCH  44  47
ATOM     47  C   LIG d   1       9.231  10.802  -4.564  0.00  0.00     0.071 C 
ATOM     48  H   LIG d   1       8.850   9.879  -5.001  0.00  0.00     0.048 H 
ATOM     49  H   LIG d   1       8.567  11.124  -3.761  0.00  0.00     0.048 H 
ATOM     50  H   LIG d   1       9.274  11.576  -5.331  0.00  0.00     0.048 H 
ENDBRANCH  44  47
ENDBRANCH   1  44
TORSDOF 5
ENDMDL
MODEL 2
REMARK VINA RESULT:      -6.8      8.822     12.815
REMARK  5 active torsions:
REMARK  status: ('A' for Active; 'I' for Inactive)
REMARK    1  A    between atoms: C_1  and  S_2 
REMARK    2  A    between atoms: S_2  and  N_5 
REMARK    3  A    between atoms: C_16  and  O_23 
REMARK    4  A    between atoms: O_23  and  C_24 
REMARK    5  A    between atoms: C_24  and  C_25 
ROOT
ATOM      1  N   LIG d   1       0.283  -4.102 -11.256  0.00  0.00    -0.178 N 
ATOM      2  C   LIG d   1       0.325  -5.386 -10.551  0.00  0.00     0.036 C 
ATOM      3  C   LIG d   1       1.796  -5.787 -10.396  0.00  0.00     0.030 C 
ATOM      4  N   LIG d   1       2.526  -4.680  -9.757  0.00  0.00    -0.286 N 
ATOM      5  CA  LIG d   1       2.439  -3.331 -10.294  0.00  0.00     0.117 C 
ATOM      6  HA  LIG d   1       3.109  -3.278 -11.152  0.00  0.00     0.061 H 
ATOM      7  C   LIG d   1       1.039  -2.962 -10.762  0.00  0.00     0.047 C 
ATOM      8  C   LIG d   1       2.888  -2.302  -9.284  0.00  0.00     0.238 C 
ATOM      9  O   LIG d   1       2.485  -1.161  -9.361  0.00  0.00    -0.274 OA
ATOM     10  N   LIG d   1       3.732  -2.651  -8.301  0.00  0.00    -0.286 N 
ATOM     11  C   LIG d   1       4.245  -1.821  -7.209  0.00  0.00     0.042 C 
ATOM     12  C   LIG d   1       4.677  -2.769  -6.076  0.00  0.00     0.077 C 
ATOM     13  H   LIG d   1       4.080  -2.587  -5.182  0.00  0.00     0.061 H 
ATOM     14  C   LIG d   1       4.417  -4.193  -6.609  0.00  0.00     0.002 C 
ATOM     15  CA  LIG d   1       4.288  -4.008  -8.134  0.00  0.00     0.105 C 
ATOM     16  HA  LIG d   1       5.251  -4.102  -8.635  0.00  0.00     0.060 H 
ATOM     17  C   LIG d   1       3.292  -4.987  -8.688  0.00  0.00     0.237 C 
ATOM     18  O   LIG d   1       3.177  -6.077  -8.169  0.00  0.00    -0.274 OA
ATOM     19  H   LIG d   1      -0.134  -5.283  -9.568  0.00  0.00     0.046 H 
ATOM     20  H   LIG d   1      -0.206  -6.142 -11.130  0.00  0.00     0.046 H 
ATOM     21  H   LIG d   1       1.868  -6.680  -9.777  0.00  0.00     0.048 H 
ATOM     22  H   LIG d   1       2.225  -5.986 -11.379  0.00  0.00     0.048 H 
ATOM     23  H   LIG d   1       0.497  -2.516  -9.928  0.00  0.00     0.047 H 
ATOM     24  H   LIG d   1       1.119  -2.223 -11.559  0.00  0.00     0.047 H 
ATOM     25  H   LIG d   1       5.101  -1.241  -7.554  0.00  0.00     0.049 H 
ATOM     26  H   LIG d   1       3.461  -1.152  -6.853  0.00  0.00     0.049 H 
ATOM     27  H   LIG d   1       3.492  -4.594  -6.194  0.00  0.00     0.031 H 
ATOM     28  H   LIG d   1       5.256  -4.848  -6.375  0.00  0.00     0.031 H 
ENDROOT
BRANCH  12  29
ATOM     29  O   LIG d   1       6.066  -2.595  -5.789  0.00  0.00    -0.370 OA
BRANCH  29  30
ATOM     30  C   LIG d   1       6.408  -2.817  -4.420  0.00  0.00     0.073 C 
ATOM     31  H   LIG d   1       5.997  -3.772  -4.092  0.00  0.00     0.061 H 
ATOM     32  H   LIG d   1       7.493  -2.836  -4.314  0.00  0.00     0.061 H 
BRANCH  30  33
ATOM     33  C   LIG d   1       5.840  -1.708  -3.572  0.00  0.00    -0.022 A 
ATOM     34  C   LIG d   1       6.339  -0.424  -3.691  0.00  0.00    -0.054 A 
ATOM     35  C   LIG d   1       5.819   0.594  -2.914  0.00  0.00    -0.026 A 
ATOM     36  H   LIG d   1       7.136  -0.217  -4.390  0.00  0.00     0.062 H 
ATOM     37  C   LIG d   1       4.799   0.328  -2.017  0.00  0.00     0.123 A 
ATOM     38  H   LIG d   1       6.209   1.597  -3.007  0.00  0.00     0.065 H 
ATOM     39  C   LIG d   1       4.300  -0.959  -1.899  0.00  0.00    -0.026 A 
ATOM     40  F   LIG d   1       4.290   1.322  -1.257  0.00  0.00    -0.205 F 
ATOM     41  C   LIG d   1       4.818  -1.974  -2.681  0.00  0.00    -0.054 A 
ATOM     42  H   LIG d   1       3.504  -1.168  -1.200  0.00  0.00     0.065 H 
ATOM     43  H   LIG d   1       4.427  -2.977  -2.592  0.00  0.00     0.062 H 
ENDBRANCH  30  33
ENDBRANCH  29  30
ENDBRANCH  12  29
BRANCH   1  44
ATOM     44  S   LIG d   1      -0.633  -3.947 -12.627  0.00  0.00     0.029 S 
ATOM     45  O   LIG d   1      -0.046  -4.846 -13.559  0.00  0.00    -0.158 OA
ATOM     46  O   LIG d   1      -1.973  -4.128 -12.191  0.00  0.00    -0.158 OA
BRANCH  44  47
ATOM     47  C   LIG d   1      -0.377  -2.234 -13.168  0.00  0.00     0.071 C 
ATOM     48  H   LIG d   1      -0.911  -1.559 -12.499  0.00  0.00     0.048 H 
ATOM     49  H   LIG d   1       0.687  -2.001 -13.147  0.00  0.00     0.048 H 
ATOM     50  H   LIG d   1      -0.756  -2.113 -14.183  0.00  0.00     0.048 H 
ENDBRANCH  44  47
ENDBRANCH   1  44
TORSDOF 5
ENDMDL
MODEL 3
REMARK VINA RESULT:      -6.7      7.710     10.519
REMARK  5 active torsions:
REMARK  status: ('A' for Active; 'I' for Inactive)
REMARK    1  A    between atoms: C_1  and  S_2 
REMARK    2  A    between atoms: S_2  and  N_5 
REMARK    3  A    between atoms: C_16  and  O_23 
REMARK    4  A    between atoms: O_23  and  C_24 
REMARK    5  A    between atoms: C_24  and  C_25 
ROOT
ATOM      1  N   LIG d   1       2.696  -2.028 -10.618  0.00  0.00    -0.178 N 
ATOM      2  C   LIG d   1       3.481  -0.875 -11.066  0.00  0.00     0.036 C 
ATOM      3  C   LIG d   1       3.658   0.066  -9.869  0.00  0.00     0.030 C 
ATOM      4  N   LIG d   1       4.224  -0.697  -8.745  0.00  0.00    -0.286 N 
ATOM      5  CA  LIG d   1       3.602  -1.937  -8.307  0.00  0.00     0.117 C 
ATOM      6  HA  LIG d   1       2.741  -1.672  -7.694  0.00  0.00     0.061 H 
ATOM      7  C   LIG d   1       3.114  -2.802  -9.460  0.00  0.00     0.047 C 
ATOM      8  C   LIG d   1       4.544  -2.762  -7.461  0.00  0.00     0.238 C 
ATOM      9  O   LIG d   1       4.394  -3.962  -7.383  0.00  0.00    -0.274 OA
ATOM     10  N   LIG d   1       5.545  -2.164  -6.796  0.00  0.00    -0.286 N 
ATOM     11  C   LIG d   1       6.580  -2.786  -5.968  0.00  0.00     0.042 C 
ATOM     12  C   LIG d   1       7.771  -1.811  -5.914  0.00  0.00     0.077 C 
ATOM     13  H   LIG d   1       8.652  -2.266  -6.367  0.00  0.00     0.061 H 
ATOM     14  C   LIG d   1       7.330  -0.577  -6.729  0.00  0.00     0.002 C 
ATOM     15  CA  LIG d   1       5.797  -0.711  -6.816  0.00  0.00     0.105 C 
ATOM     16  HA  LIG d   1       5.301  -0.214  -5.983  0.00  0.00     0.060 H 
ATOM     17  C   LIG d   1       5.308  -0.175  -8.133  0.00  0.00     0.237 C 
ATOM     18  O   LIG d   1       5.897   0.749  -8.654  0.00  0.00    -0.274 OA
ATOM     19  H   LIG d   1       4.456  -1.208 -11.420  0.00  0.00     0.046 H 
ATOM     20  H   LIG d   1       2.953  -0.358 -11.868  0.00  0.00     0.046 H 
ATOM     21  H   LIG d   1       4.333   0.877 -10.138  0.00  0.00     0.048 H 
ATOM     22  H   LIG d   1       2.689   0.474  -9.580  0.00  0.00     0.048 H 
ATOM     23  H   LIG d   1       3.920  -3.473  -9.759  0.00  0.00     0.047 H 
ATOM     24  H   LIG d   1       2.272  -3.402  -9.116  0.00  0.00     0.047 H 
ATOM     25  H   LIG d   1       6.197  -2.959  -4.963  0.00  0.00     0.049 H 
ATOM     26  H   LIG d   1       6.894  -3.729  -6.414  0.00  0.00     0.049 H 
ATOM     27  H   LIG d   1       7.772  -0.600  -7.726  0.00  0.00     0.031 H 
ATOM     28  H   LIG d   1       7.604   0.341  -6.211  0.00  0.00     0.031 H 
ENDROOT
BRANCH  12  29
ATOM     29  O   LIG d   1       8.043  -1.438  -4.562  0.00  0.00    -0.370 OA
BRANCH  29  30
ATOM     30  C   LIG d   1       7.191  -2.067  -3.603  0.00  0.00     0.073 C 
ATOM     31  H   LIG d   1       6.694  -2.921  -4.063  0.00  0.00     0.061 H 
ATOM     32  H   LIG d   1       7.785  -2.407  -2.755  0.00  0.00     0.061 H 
BRANCH  30  33
ATOM     33  C   LIG d   1       6.156  -1.081  -3.127  0.00  0.00    -0.022 A 
ATOM     34  C   LIG d   1       6.393   0.277  -3.239  0.00  0.00    -0.054 A 
ATOM     35  C   LIG d   1       5.444   1.183  -2.802  0.00  0.00    -0.026 A 
ATOM     36  H   LIG d   1       7.319   0.630  -3.668  0.00  0.00     0.062 H 
ATOM     37  C   LIG d   1       4.258   0.730  -2.251  0.00  0.00     0.123 A 
ATOM     38  H   LIG d   1       5.630   2.243  -2.890  0.00  0.00     0.065 H 
ATOM     39  C   LIG d   1       4.022  -0.630  -2.139  0.00  0.00    -0.026 A 
ATOM     40  F   LIG d   1       3.330   1.614  -1.824  0.00  0.00    -0.205 F 
ATOM     41  C   LIG d   1       4.969  -1.534  -2.582  0.00  0.00    -0.054 A 
ATOM     42  H   LIG d   1       3.096  -0.984  -1.710  0.00  0.00     0.065 H 
ATOM     43  H   LIG d   1       4.784  -2.594  -2.498  0.00  0.00     0.062 H 
ENDBRANCH  30  33
ENDBRANCH  29  30
ENDBRANCH  12  29
BRANCH   1  44
ATOM     44  S   LIG d   1       1.320  -2.452 -11.435  0.00  0.00     0.029 S 
ATOM     45  O   LIG d   1       0.626  -3.321 -10.550  0.00  0.00    -0.158 OA
ATOM     46  O   LIG d   1       0.743  -1.218 -11.840  0.00  0.00    -0.158 OA
BRANCH  44  47
ATOM     47  C   LIG d   1       1.904  -3.374 -12.884  0.00  0.00     0.071 C 
ATOM     48  H   LIG d   1       1.096  -3.457 -13.612  0.00  0.00     0.048 H 
ATOM     49  H   LIG d   1       2.746  -2.848 -13.335  0.00  0.00     0.048 H 
ATOM     50  H   LIG d   1       2.221  -4.371 -12.578  0.00  0.00     0.048 H 
ENDBRANCH  44  47
ENDBRANCH   1  44
TORSDOF 5
ENDMDL
MODEL 4
REMARK VINA RESULT:      -6.6      1.575      2.110
REMARK  5 active torsions:
REMARK  status: ('A' for Active; 'I' for Inactive)
REMARK    1  A    between atoms: C_1  and  S_2 
REMARK    2  A    between atoms: S_2  and  N_5 
REMARK    3  A    between atoms: C_16  and  O_23 
REMARK    4  A    between atoms: O_23  and  C_24 
REMARK    5  A    between atoms: C_24  and  C_25 
ROOT
ATOM      1  N   LIG d   1      10.984   9.421  -6.110  0.00  0.00    -0.178 N 
ATOM      2  C   LIG d   1      11.550   9.495  -4.760  0.00  0.00     0.036 C 
ATOM      3  C   LIG d   1      10.482   9.005  -3.777  0.00  0.00     0.030 C 
ATOM      4  N   LIG d   1      10.016   7.676  -4.205  0.00  0.00    -0.286 N 
ATOM      5  CA  LIG d   1       9.564   7.456  -5.570  0.00  0.00     0.117 C 
ATOM      6  HA  LIG d   1       8.545   7.837  -5.642  0.00  0.00     0.061 H 
ATOM      7  C   LIG d   1      10.414   8.178  -6.605  0.00  0.00     0.047 C 
ATOM      8  C   LIG d   1       9.541   5.987  -5.917  0.00  0.00     0.238 C 
ATOM      9  O   LIG d   1       9.631   5.636  -7.074  0.00  0.00    -0.274 OA
ATOM     10  N   LIG d   1       9.421   5.070  -4.944  0.00  0.00    -0.286 N 
ATOM     11  C   LIG d   1       9.423   3.611  -5.069  0.00  0.00     0.042 C 
ATOM     12  C   LIG d   1       9.831   3.035  -3.700  0.00  0.00     0.077 C 
ATOM     13  H   LIG d   1      10.766   2.481  -3.788  0.00  0.00     0.061 H 
ATOM     14  C   LIG d   1      10.019   4.257  -2.778  0.00  0.00     0.002 C 
ATOM     15  CA  LIG d   1       9.289   5.399  -3.512  0.00  0.00     0.105 C 
ATOM     16  HA  LIG d   1       8.241   5.462  -3.217  0.00  0.00     0.060 H 
ATOM     17  C   LIG d   1       9.998   6.702  -3.270  0.00  0.00     0.237 C 
ATOM     18  O   LIG d   1      10.562   6.884  -2.212  0.00  0.00    -0.274 OA
ATOM     19  H   LIG d   1      12.431   8.858  -4.694  0.00  0.00     0.046 H 
ATOM     20  H   LIG d   1      11.820  10.526  -4.529  0.00  0.00     0.046 H 
ATOM     21  H   LIG d   1      10.908   8.940  -2.776  0.00  0.00     0.048 H 
ATOM     22  H   LIG d   1       9.642   9.701  -3.774  0.00  0.00     0.048 H 
ATOM     23  H   LIG d   1      11.225   7.519  -6.914  0.00  0.00     0.047 H 
ATOM     24  H   LIG d   1       9.794   8.399  -7.475  0.00  0.00     0.047 H 
ATOM     25  H   LIG d   1       8.427   3.259  -5.337  0.00  0.00     0.049 H 
ATOM     26  H   LIG d   1      10.142   3.305  -5.829  0.00  0.00     0.049 H 
ATOM     27  H   LIG d   1      11.078   4.492  -2.666  0.00  0.00     0.031 H 
ATOM     28  H   LIG d   1       9.563   4.076  -1.805  0.00  0.00     0.031 H 
ENDROOT
BRANCH  12  29
ATOM     29  O   LIG d   1       8.798   2.188  -3.193  0.00  0.00    -0.370 OA
BRANCH  29  30
ATOM     30  C   LIG d   1       7.811   1.830  -4.163  0.00  0.00     0.073 C 
ATOM     31  H   LIG d   1       7.292   2.728  -4.501  0.00  0.00     0.061 H 
ATOM     32  H   LIG d   1       8.294   1.350  -5.014  0.00  0.00     0.061 H 
BRANCH  30  33
ATOM     33  C   LIG d   1       6.819   0.879  -3.544  0.00  0.00    -0.022 A 
ATOM     34  C   LIG d   1       5.741   1.372  -2.832  0.00  0.00    -0.054 A 
ATOM     35  C   LIG d   1       4.831   0.500  -2.264  0.00  0.00    -0.026 A 
ATOM     36  H   LIG d   1       5.611   2.438  -2.720  0.00  0.00     0.062 H 
ATOM     37  C   LIG d   1       5.000  -0.866  -2.409  0.00  0.00     0.123 A 
ATOM     38  H   LIG d   1       3.989   0.886  -1.709  0.00  0.00     0.065 H 
ATOM     39  C   LIG d   1       6.080  -1.358  -3.122  0.00  0.00    -0.026 A 
ATOM     40  F   LIG d   1       4.111  -1.719  -1.854  0.00  0.00    -0.205 F 
ATOM     41  C   LIG d   1       6.985  -0.485  -3.693  0.00  0.00    -0.054 A 
ATOM     42  H   LIG d   1       6.212  -2.424  -3.235  0.00  0.00     0.065 H 
ATOM     43  H   LIG d   1       7.826  -0.868  -4.253  0.00  0.00     0.062 H 
ENDBRANCH  30  33
ENDBRANCH  29  30
ENDBRANCH  12  29
BRANCH   1  44
ATOM     44  S   LIG d   1      10.993  10.763  -7.079  0.00  0.00     0.029 S 
ATOM     45  O   LIG d   1      12.340  11.216  -7.060  0.00  0.00    -0.158 OA
ATOM     46  O   LIG d   1      10.388  10.339  -8.293  0.00  0.00    -0.158 OA
BRANCH  44  47
ATOM     47  C   LIG d   1       9.921  11.957  -6.232  0.00  0.00     0.071 C 
ATOM     48  H   LIG d   1      10.475  12.879  -6.052  0.00  0.00     0.048 H 
ATOM     49  H   LIG d   1       9.052  12.171  -6.854  0.00  0.00     0.048 H 
ATOM     50  H   LIG d   1       9.593  11.540  -5.280  0.00  0.00     0.048 H 
ENDBRANCH  44  47
ENDBRANCH   1  44
TORSDOF 5
ENDMDL
MODEL 5
REMARK VINA RESULT:      -6.5      2.412      2.867
REMARK  5 active torsions:
REMARK  status: ('A' for Active; 'I' for Inactive)
REMARK    1  A    between atoms: C_1  and  S_2 
REMARK    2  A    between atoms: S_2  and  N_5 
REMARK    3  A    between atoms: C_16  and  O_23 
REMARK    4  A    between atoms: O_23  and  C_24 
REMARK    5  A    between atoms: C_24  and  C_25 
ROOT
ATOM      1  N   LIG d   1      11.304   8.351  -7.609  0.00  0.00    -0.178 N 
ATOM      2  C   LIG d   1      11.658   8.808  -6.262  0.00  0.00     0.036 C 
ATOM      3  C   LIG d   1      10.445   8.575  -5.355  0.00  0.00     0.030 C 
ATOM      4  N   LIG d   1      10.031   7.167  -5.466  0.00  0.00    -0.286 N 
ATOM      5  CA  LIG d   1       9.790   6.569  -6.770  0.00  0.00     0.117 C 
ATOM      6  HA  LIG d   1       8.800   6.887  -7.097  0.00  0.00     0.061 H 
ATOM      7  C   LIG d   1      10.798   7.005  -7.824  0.00  0.00     0.047 C 
ATOM      8  C   LIG d   1       9.799   5.061  -6.700  0.00  0.00     0.238 C 
ATOM      9  O   LIG d   1      10.060   4.409  -7.688  0.00  0.00    -0.274 OA
ATOM     10  N   LIG d   1       9.519   4.442  -5.542  0.00  0.00    -0.286 N 
ATOM     11  C   LIG d   1       9.520   3.005  -5.259  0.00  0.00     0.042 C 
ATOM     12  C   LIG d   1       9.705   2.838  -3.740  0.00  0.00     0.077 C 
ATOM     13  H   LIG d   1      10.635   2.308  -3.530  0.00  0.00     0.061 H 
ATOM     14  C   LIG d   1       9.768   4.271  -3.172  0.00  0.00     0.002 C 
ATOM     15  CA  LIG d   1       9.174   5.147  -4.292  0.00  0.00     0.105 C 
ATOM     16  HA  LIG d   1       8.095   5.258  -4.188  0.00  0.00     0.060 H 
ATOM     17  C   LIG d   1       9.857   6.486  -4.314  0.00  0.00     0.237 C 
ATOM     18  O   LIG d   1      10.255   6.967  -3.273  0.00  0.00    -0.274 OA
ATOM     19  H   LIG d   1      12.510   8.239  -5.891  0.00  0.00     0.046 H 
ATOM     20  H   LIG d   1      11.904   9.869  -6.285  0.00  0.00     0.046 H 
ATOM     21  H   LIG d   1      10.712   8.798  -4.322  0.00  0.00     0.048 H 
ATOM     22  H   LIG d   1       9.624   9.221  -5.669  0.00  0.00     0.048 H 
ATOM     23  H   LIG d   1      11.637   6.309  -7.814  0.00  0.00     0.047 H 
ATOM     24  H   LIG d   1      10.322   6.961  -8.803  0.00  0.00     0.047 H 
ATOM     25  H   LIG d   1       8.571   2.566  -5.568  0.00  0.00     0.049 H 
ATOM     26  H   LIG d   1      10.342   2.524  -5.788  0.00  0.00     0.049 H 
ATOM     27  H   LIG d   1      10.800   4.557  -2.970  0.00  0.00     0.031 H 
ATOM     28  H   LIG d   1       9.165   4.349  -2.267  0.00  0.00     0.031 H 
ENDROOT
BRANCH  12  29
ATOM     29  O   LIG d   1       8.595   2.132  -3.182  0.00  0.00    -0.370 OA
BRANCH  29  30
ATOM     30  C   LIG d   1       7.616   1.734  -4.143  0.00  0.00     0.073 C 
ATOM     31  H   LIG d   1       7.089   2.615  -4.511  0.00  0.00     0.061 H 
ATOM     32  H   LIG d   1       8.108   1.233  -4.977  0.00  0.00     0.061 H 
BRANCH  30  33
ATOM     33  C   LIG d   1       6.632   0.792  -3.499  0.00  0.00    -0.022 A 
ATOM     34  C   LIG d   1       6.798  -0.574  -3.631  0.00  0.00    -0.054 A 
ATOM     35  C   LIG d   1       5.896  -1.440  -3.041  0.00  0.00    -0.026 A 
ATOM     36  H   LIG d   1       7.632  -0.966  -4.194  0.00  0.00     0.062 H 
ATOM     37  C   LIG d   1       4.826  -0.938  -2.320  0.00  0.00     0.123 A 
ATOM     38  H   LIG d   1       6.026  -2.507  -3.143  0.00  0.00     0.065 H 
ATOM     39  C   LIG d   1       4.662   0.431  -2.189  0.00  0.00    -0.026 A 
ATOM     40  F   LIG d   1       3.944  -1.783  -1.743  0.00  0.00    -0.205 F 
ATOM     41  C   LIG d   1       5.568   1.294  -2.775  0.00  0.00    -0.054 A 
ATOM     42  H   LIG d   1       3.827   0.823  -1.626  0.00  0.00     0.065 H 
ATOM     43  H   LIG d   1       5.442   2.361  -2.671  0.00  0.00     0.062 H 
ENDBRANCH  30  33
ENDBRANCH  29  30
ENDBRANCH  12  29
BRANCH   1  44
ATOM     44  S   LIG d   1      11.480   9.377  -8.896  0.00  0.00     0.029 S 
ATOM     45  O   LIG d   1      10.693  10.513  -8.566  0.00  0.00    -0.158 OA
ATOM     46  O   LIG d   1      12.884   9.495  -9.077  0.00  0.00    -0.158 OA
BRANCH  44  47
ATOM     47  C   LIG d   1      10.742   8.495 -10.300  0.00  0.00     0.071 C 
ATOM     48  H   LIG d   1      11.480   8.395 -11.095  0.00  0.00     0.048 H 
ATOM     49  H   LIG d   1      10.419   7.504  -9.977  0.00  0.00     0.048 H 
ATOM     50  H   LIG d   1       9.882   9.054 -10.670  0.00  0.00     0.048 H 
ENDBRANCH  44  47
ENDBRANCH   1  44
TORSDOF 5
ENDMDL
MODEL 6
REMARK VINA RESULT:      -6.5      8.296     12.083
REMARK  5 active torsions:
REMARK  status: ('A' for Active; 'I' for Inactive)
REMARK    1  A    between atoms: C_1  and  S_2 
REMARK    2  A    between atoms: S_2  and  N_5 
REMARK    3  A    between atoms: C_16  and  O_23 
REMARK    4  A    between atoms: O_23  and  C_24 
REMARK    5  A    between atoms: C_24  and  C_25 
ROOT
ATOM      1  N   LIG d   1       2.718  -5.392  -9.909  0.00  0.00    -0.178 N 
ATOM      2  C   LIG d   1       2.948  -4.129 -10.617  0.00  0.00     0.036 C 
ATOM      3  C   LIG d   1       2.826  -2.992  -9.597  0.00  0.00     0.030 C 
ATOM      4  N   LIG d   1       3.728  -3.267  -8.468  0.00  0.00    -0.286 N 
ATOM      5  CA  LIG d   1       3.682  -4.549  -7.781  0.00  0.00     0.117 C 
ATOM      6  HA  LIG d   1       2.833  -4.522  -7.097  0.00  0.00     0.061 H 
ATOM      7  C   LIG d   1       3.492  -5.727  -8.725  0.00  0.00     0.047 C 
ATOM      8  C   LIG d   1       4.932  -4.788  -6.968  0.00  0.00     0.238 C 
ATOM      9  O   LIG d   1       5.276  -5.921  -6.705  0.00  0.00    -0.274 OA
ATOM     10  N   LIG d   1       5.661  -3.747  -6.537  0.00  0.00    -0.286 N 
ATOM     11  C   LIG d   1       6.916  -3.771  -5.783  0.00  0.00     0.042 C 
ATOM     12  C   LIG d   1       7.624  -2.426  -6.029  0.00  0.00     0.077 C 
ATOM     13  H   LIG d   1       8.577  -2.588  -6.532  0.00  0.00     0.061 H 
ATOM     14  C   LIG d   1       6.672  -1.620  -6.938  0.00  0.00     0.002 C 
ATOM     15  CA  LIG d   1       5.315  -2.336  -6.792  0.00  0.00     0.105 C 
ATOM     16  HA  LIG d   1       4.726  -1.921  -5.975  0.00  0.00     0.060 H 
ATOM     17  C   LIG d   1       4.559  -2.273  -8.090  0.00  0.00     0.237 C 
ATOM     18  O   LIG d   1       4.694  -1.306  -8.810  0.00  0.00    -0.274 OA
ATOM     19  H   LIG d   1       3.946  -4.127 -11.053  0.00  0.00     0.046 H 
ATOM     20  H   LIG d   1       2.201  -4.004 -11.401  0.00  0.00     0.046 H 
ATOM     21  H   LIG d   1       3.103  -2.048 -10.067  0.00  0.00     0.048 H 
ATOM     22  H   LIG d   1       1.798  -2.934  -9.236  0.00  0.00     0.048 H 
ATOM     23  H   LIG d   1       4.473  -6.087  -9.037  0.00  0.00     0.047 H 
ATOM     24  H   LIG d   1       2.984  -6.528  -8.188  0.00  0.00     0.047 H 
ATOM     25  H   LIG d   1       6.707  -3.891  -4.719  0.00  0.00     0.049 H 
ATOM     26  H   LIG d   1       7.544  -4.590  -6.133  0.00  0.00     0.049 H 
ATOM     27  H   LIG d   1       7.012  -1.654  -7.973  0.00  0.00     0.031 H 
ATOM     28  H   LIG d   1       6.598  -0.588  -6.593  0.00  0.00     0.031 H 
ENDROOT
BRANCH  12  29
ATOM     29  O   LIG d   1       7.825  -1.740  -4.792  0.00  0.00    -0.370 OA
BRANCH  29  30
ATOM     30  C   LIG d   1       7.093  -2.291  -3.696  0.00  0.00     0.073 C 
ATOM     31  H   LIG d   1       6.569  -3.189  -4.024  0.00  0.00     0.061 H 
ATOM     32  H   LIG d   1       7.782  -2.548  -2.891  0.00  0.00     0.061 H 
BRANCH  30  33
ATOM     33  C   LIG d   1       6.094  -1.279  -3.198  0.00  0.00    -0.022 A 
ATOM     34  C   LIG d   1       6.396   0.070  -3.243  0.00  0.00    -0.054 A 
ATOM     35  C   LIG d   1       5.480   0.999  -2.786  0.00  0.00    -0.026 A 
ATOM     36  H   LIG d   1       7.348   0.397  -3.634  0.00  0.00     0.062 H 
ATOM     37  C   LIG d   1       4.260   0.579  -2.284  0.00  0.00     0.123 A 
ATOM     38  H   LIG d   1       5.717   2.052  -2.821  0.00  0.00     0.065 H 
ATOM     39  C   LIG d   1       3.959  -0.772  -2.240  0.00  0.00    -0.026 A 
ATOM     40  F   LIG d   1       3.365   1.486  -1.838  0.00  0.00    -0.205 F 
ATOM     41  C   LIG d   1       4.874  -1.699  -2.702  0.00  0.00    -0.054 A 
ATOM     42  H   LIG d   1       3.007  -1.101  -1.849  0.00  0.00     0.065 H 
ATOM     43  H   LIG d   1       4.638  -2.752  -2.671  0.00  0.00     0.062 H 
ENDBRANCH  30  33
ENDBRANCH  29  30
ENDBRANCH  12  29
BRANCH   1  44
ATOM     44  S   LIG d   1       1.566  -6.445 -10.462  0.00  0.00     0.029 S 
ATOM     45  O   LIG d   1       1.847  -6.597 -11.847  0.00  0.00    -0.158 OA
ATOM     46  O   LIG d   1       1.638  -7.557  -9.581  0.00  0.00    -0.158 OA
BRANCH  44  47
ATOM     47  C   LIG d   1      -0.009  -5.573 -10.237  0.00  0.00     0.071 C 
ATOM     48  H   LIG d   1      -0.280  -5.577  -9.181  0.00  0.00     0.048 H 
ATOM     49  H   LIG d   1       0.092  -4.544 -10.583  0.00  0.00     0.048 H 
ATOM     50  H   LIG d   1      -0.788  -6.074 -10.813  0.00  0.00     0.048 H 
ENDBRANCH  44  47
ENDBRANCH   1  44
TORSDOF 5
ENDMDL
MODEL 7
REMARK VINA RESULT:      -5.9      8.831     11.570
REMARK  5 active torsions:
REMARK  status: ('A' for Active; 'I' for Inactive)
REMARK    1  A    between atoms: C_1  and  S_2 
REMARK    2  A    between atoms: S_2  and  N_5 
REMARK    3  A    between atoms: C_16  and  O_23 
REMARK    4  A    between atoms: O_23  and  C_24 
REMARK    5  A    between atoms: C_24  and  C_25 
ROOT
ATOM      1  N   LIG d   1       5.011  -1.098 -14.328  0.00  0.00    -0.178 N 
ATOM      2  C   LIG d   1       3.557  -1.023 -14.494  0.00  0.00     0.036 C 
ATOM      3  C   LIG d   1       2.917  -1.928 -13.436  0.00  0.00     0.030 C 
ATOM      4  N   LIG d   1       3.431  -1.546 -12.110  0.00  0.00    -0.286 N 
ATOM      5  CA  LIG d   1       4.864  -1.451 -11.873  0.00  0.00     0.117 C 
ATOM      6  HA  LIG d   1       5.239  -2.463 -11.727  0.00  0.00     0.061 H 
ATOM      7  C   LIG d   1       5.622  -0.827 -13.036  0.00  0.00     0.047 C 
ATOM      8  C   LIG d   1       5.167  -0.654 -10.627  0.00  0.00     0.238 C 
ATOM      9  O   LIG d   1       6.239  -0.099 -10.508  0.00  0.00    -0.274 OA
ATOM     10  N   LIG d   1       4.251  -0.560  -9.651  0.00  0.00    -0.286 N 
ATOM     11  C   LIG d   1       4.335   0.194  -8.398  0.00  0.00     0.042 C 
ATOM     12  C   LIG d   1       2.894   0.453  -7.922  0.00  0.00     0.077 C 
ATOM     13  H   LIG d   1       2.692   1.524  -7.897  0.00  0.00     0.061 H 
ATOM     14  C   LIG d   1       1.986  -0.238  -8.960  0.00  0.00     0.002 C 
ATOM     15  CA  LIG d   1       2.928  -1.211  -9.696  0.00  0.00     0.105 C 
ATOM     16  HA  LIG d   1       2.953  -2.188  -9.215  0.00  0.00     0.060 H 
ATOM     17  C   LIG d   1       2.520  -1.329 -11.138  0.00  0.00     0.237 C 
ATOM     18  O   LIG d   1       1.348  -1.232 -11.434  0.00  0.00    -0.274 OA
ATOM     19  H   LIG d   1       3.222   0.004 -14.352  0.00  0.00     0.046 H 
ATOM     20  H   LIG d   1       3.282  -1.368 -15.491  0.00  0.00     0.046 H 
ATOM     21  H   LIG d   1       1.835  -1.808 -13.458  0.00  0.00     0.048 H 
ATOM     22  H   LIG d   1       3.176  -2.967 -13.640  0.00  0.00     0.048 H 
ATOM     23  H   LIG d   1       5.666   0.252 -12.887  0.00  0.00     0.047 H 
ATOM     24  H   LIG d   1       6.640  -1.218 -13.040  0.00  0.00     0.047 H 
ATOM     25  H   LIG d   1       4.874  -0.388  -7.650  0.00  0.00     0.049 H 
ATOM     26  H   LIG d   1       4.845   1.142  -8.570  0.00  0.00     0.049 H 
ATOM     27  H   LIG d   1       1.575   0.495  -9.656  0.00  0.00     0.031 H 
ATOM     28  H   LIG d   1       1.185  -0.785  -8.464  0.00  0.00     0.031 H 
ENDROOT
BRANCH  12  29
ATOM     29  O   LIG d   1       2.691  -0.121  -6.629  0.00  0.00    -0.370 OA
BRANCH  29  30
ATOM     30  C   LIG d   1       2.619   0.839  -5.573  0.00  0.00     0.073 C 
ATOM     31  H   LIG d   1       3.193   1.725  -5.846  0.00  0.00     0.061 H 
ATOM     32  H   LIG d   1       1.579   1.120  -5.406  0.00  0.00     0.061 H 
BRANCH  30  33
ATOM     33  C   LIG d   1       3.186   0.242  -4.310  0.00  0.00    -0.022 A 
ATOM     34  C   LIG d   1       3.475   1.057  -3.231  0.00  0.00    -0.054 A 
ATOM     35  C   LIG d   1       3.996   0.510  -2.073  0.00  0.00    -0.026 A 
ATOM     36  H   LIG d   1       3.295   2.120  -3.293  0.00  0.00     0.062 H 
ATOM     37  C   LIG d   1       4.228  -0.852  -1.994  0.00  0.00     0.123 A 
ATOM     38  H   LIG d   1       4.222   1.147  -1.230  0.00  0.00     0.065 H 
ATOM     39  C   LIG d   1       3.937  -1.667  -3.076  0.00  0.00    -0.026 A 
ATOM     40  F   LIG d   1       4.736  -1.387  -0.863  0.00  0.00    -0.205 F 
ATOM     41  C   LIG d   1       3.412  -1.119  -4.231  0.00  0.00    -0.054 A 
ATOM     42  H   LIG d   1       4.117  -2.730  -3.015  0.00  0.00     0.065 H 
ATOM     43  H   LIG d   1       3.182  -1.754  -5.073  0.00  0.00     0.062 H 
ENDBRANCH  30  33
ENDBRANCH  29  30
ENDBRANCH  12  29
BRANCH   1  44
ATOM     44  S   LIG d   1       5.967  -1.494 -15.620  0.00  0.00     0.029 S 
ATOM     45  O   LIG d   1       5.196  -2.423 -16.370  0.00  0.00    -0.158 OA
ATOM     46  O   LIG d   1       6.350  -0.248 -16.184  0.00  0.00    -0.158 OA
BRANCH  44  47
ATOM     47  C   LIG d   1       7.410  -2.323 -14.897  0.00  0.00     0.071 C 
ATOM     48  H   LIG d   1       8.133  -1.575 -14.571  0.00  0.00     0.048 H 
ATOM     49  H   LIG d   1       7.095  -2.920 -14.041  0.00  0.00     0.048 H 
ATOM     50  H   LIG d   1       7.869  -2.971 -15.643  0.00  0.00     0.048 H 
ENDBRANCH  44  47
ENDBRANCH   1  44
TORSDOF 5
ENDMDL
MODEL 8
REMARK VINA RESULT:      -5.9      4.204      5.339
REMARK  5 active torsions:
REMARK  status: ('A' for Active; 'I' for Inactive)
REMARK    1  A    between atoms: C_1  and  S_2 
REMARK    2  A    between atoms: S_2  and  N_5 
REMARK    3  A    between atoms: C_16  and  O_23 
REMARK    4  A    between atoms: O_23  and  C_24 
REMARK    5  A    between atoms: C_24  and  C_25 
ROOT
ATOM      1  N   LIG d   1      10.803   4.754 -10.532  0.00  0.00    -0.178 N 
ATOM      2  C   LIG d   1      12.032   4.872  -9.742  0.00  0.00     0.036 C 
ATOM      3  C   LIG d   1      11.646   5.375  -8.347  0.00  0.00     0.030 C 
ATOM      4  N   LIG d   1      10.610   4.489  -7.792  0.00  0.00    -0.286 N 
ATOM      5  CA  LIG d   1       9.408   4.189  -8.556  0.00  0.00     0.117 C 
ATOM      6  HA  LIG d   1       8.736   5.040  -8.453  0.00  0.00     0.061 H 
ATOM      7  C   LIG d   1       9.679   3.975 -10.038  0.00  0.00     0.047 C 
ATOM      8  C   LIG d   1       8.702   2.966  -8.022  0.00  0.00     0.238 C 
ATOM      9  O   LIG d   1       7.981   2.316  -8.748  0.00  0.00    -0.274 OA
ATOM     10  N   LIG d   1       8.873   2.598  -6.742  0.00  0.00    -0.286 N 
ATOM     11  C   LIG d   1       8.318   1.431  -6.053  0.00  0.00     0.042 C 
ATOM     12  C   LIG d   1       9.225   1.141  -4.843  0.00  0.00     0.077 C 
ATOM     13  H   LIG d   1       9.685   0.158  -4.944  0.00  0.00     0.061 H 
ATOM     14  C   LIG d   1      10.306   2.241  -4.864  0.00  0.00     0.002 C 
ATOM     15  CA  LIG d   1       9.716   3.332  -5.779  0.00  0.00     0.105 C 
ATOM     16  HA  LIG d   1       9.129   4.057  -5.215  0.00  0.00     0.060 H 
ATOM     17  C   LIG d   1      10.816   4.008  -6.548  0.00  0.00     0.237 C 
ATOM     18  O   LIG d   1      11.910   4.129  -6.038  0.00  0.00    -0.274 OA
ATOM     19  H   LIG d   1      12.514   3.899  -9.663  0.00  0.00     0.046 H 
ATOM     20  H   LIG d   1      12.709   5.583 -10.217  0.00  0.00     0.046 H 
ATOM     21  H   LIG d   1      12.522   5.366  -7.699  0.00  0.00     0.048 H 
ATOM     22  H   LIG d   1      11.254   6.390  -8.420  0.00  0.00     0.048 H 
ATOM     23  H   LIG d   1       9.884   2.918 -10.208  0.00  0.00     0.047 H 
ATOM     24  H   LIG d   1       8.787   4.251 -10.601  0.00  0.00     0.047 H 
ATOM     25  H   LIG d   1       7.305   1.648  -5.714  0.00  0.00     0.049 H 
ATOM     26  H   LIG d   1       8.311   0.573  -6.725  0.00  0.00     0.049 H 
ATOM     27  H   LIG d   1      11.236   1.855  -5.281  0.00  0.00     0.031 H 
ATOM     28  H   LIG d   1      10.471   2.634  -3.860  0.00  0.00     0.031 H 
ENDROOT
BRANCH  12  29
ATOM     29  O   LIG d   1       8.470   1.212  -3.631  0.00  0.00    -0.370 OA
BRANCH  29  30
ATOM     30  C   LIG d   1       7.107   1.599  -3.818  0.00  0.00     0.073 C 
ATOM     31  H   LIG d   1       6.919   2.534  -3.290  0.00  0.00     0.061 H 
ATOM     32  H   LIG d   1       6.910   1.738  -4.881  0.00  0.00     0.061 H 
BRANCH  30  33
ATOM     33  C   LIG d   1       6.200   0.524  -3.276  0.00  0.00    -0.022 A 
ATOM     34  C   LIG d   1       5.194   0.854  -2.387  0.00  0.00    -0.054 A 
ATOM     35  C   LIG d   1       4.362  -0.130  -1.888  0.00  0.00    -0.026 A 
ATOM     36  H   LIG d   1       5.059   1.881  -2.081  0.00  0.00     0.062 H 
ATOM     37  C   LIG d   1       4.536  -1.447  -2.279  0.00  0.00     0.123 A 
ATOM     38  H   LIG d   1       3.576   0.128  -1.194  0.00  0.00     0.065 H 
ATOM     39  C   LIG d   1       5.544  -1.775  -3.170  0.00  0.00    -0.026 A 
ATOM     40  F   LIG d   1       3.723  -2.409  -1.793  0.00  0.00    -0.205 F 
ATOM     41  C   LIG d   1       6.372  -0.789  -3.671  0.00  0.00    -0.054 A 
ATOM     42  H   LIG d   1       5.681  -2.802  -3.476  0.00  0.00     0.065 H 
ATOM     43  H   LIG d   1       7.156  -1.044  -4.368  0.00  0.00     0.062 H 
ENDBRANCH  30  33
ENDBRANCH  29  30
ENDBRANCH  12  29
BRANCH   1  44
ATOM     44  S   LIG d   1      10.693   5.515 -11.998  0.00  0.00     0.029 S 
ATOM     45  O   LIG d   1      11.718   6.500 -11.974  0.00  0.00    -0.158 OA
ATOM     46  O   LIG d   1      10.718   4.465 -12.955  0.00  0.00    -0.158 OA
BRANCH  44  47
ATOM     47  C   LIG d   1       9.063   6.313 -11.988  0.00  0.00     0.071 C 
ATOM     48  H   LIG d   1       8.836   6.688 -12.986  0.00  0.00     0.048 H 
ATOM     49  H   LIG d   1       8.305   5.587 -11.691  0.00  0.00     0.048 H 
ATOM     50  H   LIG d   1       9.069   7.143 -11.281  0.00  0.00     0.048 H 
ENDBRANCH  44  47
ENDBRANCH   1  44
TORSDOF 5
ENDMDL
MODEL 9
REMARK VINA RESULT:      -5.9      8.622     11.606
REMARK  5 active torsions:
REMARK  status: ('A' for Active; 'I' for Inactive)
REMARK    1  A    between atoms: C_1  and  S_2 
REMARK    2  A    between atoms: S_2  and  N_5 
REMARK    3  A    between atoms: C_16  and  O_23 
REMARK    4  A    between atoms: O_23  and  C_24 
REMARK    5  A    between atoms: C_24  and  C_25 
ROOT
ATOM      1  N   LIG d   1       3.680  -2.325 -13.048  0.00  0.00    -0.178 N 
ATOM      2  C   LIG d   1       4.944  -1.608 -12.854  0.00  0.00     0.036 C 
ATOM      3  C   LIG d   1       4.808  -0.752 -11.591  0.00  0.00     0.030 C 
ATOM      4  N   LIG d   1       4.383  -1.615 -10.476  0.00  0.00    -0.286 N 
ATOM      5  CA  LIG d   1       3.220  -2.478 -10.612  0.00  0.00     0.117 C 
ATOM      6  HA  LIG d   1       2.335  -1.857 -10.470  0.00  0.00     0.061 H 
ATOM      7  C   LIG d   1       3.121  -3.138 -11.980  0.00  0.00     0.047 C 
ATOM      8  C   LIG d   1       3.207  -3.561  -9.560  0.00  0.00     0.238 C 
ATOM      9  O   LIG d   1       2.609  -4.596  -9.764  0.00  0.00    -0.274 OA
ATOM     10  N   LIG d   1       3.857  -3.378  -8.400  0.00  0.00    -0.286 N 
ATOM     11  C   LIG d   1       4.000  -4.315  -7.284  0.00  0.00     0.042 C 
ATOM     12  C   LIG d   1       5.251  -3.894  -6.491  0.00  0.00     0.077 C 
ATOM     13  H   LIG d   1       5.999  -4.687  -6.517  0.00  0.00     0.061 H 
ATOM     14  C   LIG d   1       5.786  -2.634  -7.203  0.00  0.00     0.002 C 
ATOM     15  CA  LIG d   1       4.597  -2.149  -8.055  0.00  0.00     0.105 C 
ATOM     16  HA  LIG d   1       3.966  -1.451  -7.506  0.00  0.00     0.060 H 
ATOM     17  C   LIG d   1       5.097  -1.536  -9.333  0.00  0.00     0.237 C 
ATOM     18  O   LIG d   1       6.161  -0.953  -9.336  0.00  0.00    -0.274 OA
ATOM     19  H   LIG d   1       5.758  -2.321 -12.731  0.00  0.00     0.046 H 
ATOM     20  H   LIG d   1       5.140  -0.968 -13.715  0.00  0.00     0.046 H 
ATOM     21  H   LIG d   1       5.767  -0.293 -11.355  0.00  0.00     0.048 H 
ATOM     22  H   LIG d   1       4.060   0.024 -11.754  0.00  0.00     0.048 H 
ATOM     23  H   LIG d   1       3.651  -4.090 -11.948  0.00  0.00     0.047 H 
ATOM     24  H   LIG d   1       2.071  -3.332 -12.199  0.00  0.00     0.047 H 
ATOM     25  H   LIG d   1       3.120  -4.265  -6.642  0.00  0.00     0.049 H 
ATOM     26  H   LIG d   1       4.127  -5.328  -7.665  0.00  0.00     0.049 H 
ATOM     27  H   LIG d   1       6.635  -2.885  -7.840  0.00  0.00     0.031 H 
ATOM     28  H   LIG d   1       6.067  -1.874  -6.474  0.00  0.00     0.031 H 
ENDROOT
BRANCH  12  29
ATOM     29  O   LIG d   1       4.900  -3.587  -5.140  0.00  0.00    -0.370 OA
BRANCH  29  30
ATOM     30  C   LIG d   1       5.993  -3.119  -4.348  0.00  0.00     0.073 C 
ATOM     31  H   LIG d   1       6.333  -3.919  -3.689  0.00  0.00     0.061 H 
ATOM     32  H   LIG d   1       6.812  -2.815  -5.000  0.00  0.00     0.061 H 
BRANCH  30  33
ATOM     33  C   LIG d   1       5.546  -1.942  -3.520  0.00  0.00    -0.022 A 
ATOM     34  C   LIG d   1       4.413  -2.040  -2.734  0.00  0.00    -0.054 A 
ATOM     35  C   LIG d   1       4.002  -0.961  -1.975  0.00  0.00    -0.026 A 
ATOM     36  H   LIG d   1       3.849  -2.961  -2.713  0.00  0.00     0.062 H 
ATOM     37  C   LIG d   1       4.726   0.220  -2.003  0.00  0.00     0.123 A 
ATOM     38  H   LIG d   1       3.118  -1.038  -1.360  0.00  0.00     0.065 H 
ATOM     39  C   LIG d   1       5.860   0.316  -2.791  0.00  0.00    -0.026 A 
ATOM     40  F   LIG d   1       4.325   1.275  -1.261  0.00  0.00    -0.205 F 
ATOM     41  C   LIG d   1       6.272  -0.765  -3.544  0.00  0.00    -0.054 A 
ATOM     42  H   LIG d   1       6.425   1.237  -2.813  0.00  0.00     0.065 H 
ATOM     43  H   LIG d   1       7.158  -0.691  -4.157  0.00  0.00     0.062 H 
ENDBRANCH  30  33
ENDBRANCH  29  30
ENDBRANCH  12  29
BRANCH   1  44
ATOM     44  S   LIG d   1       2.883  -2.209 -14.494  0.00  0.00     0.029 S 
ATOM     45  O   LIG d   1       1.507  -2.334 -14.161  0.00  0.00    -0.158 OA
ATOM     46  O   LIG d   1       3.381  -1.019 -15.089  0.00  0.00    -0.158 OA
BRANCH  44  47
ATOM     47  C   LIG d   1       3.428  -3.656 -15.444  0.00  0.00     0.071 C 
ATOM     48  H   LIG d   1       2.563  -4.144 -15.892  0.00  0.00     0.048 H 
ATOM     49  H   LIG d   1       4.113  -3.337 -16.231  0.00  0.00     0.048 H 
ATOM     50  H   LIG d   1       3.938  -4.356 -14.781  0.00  0.00     0.048 H 
ENDBRANCH  44  47
ENDBRANCH   1  44
TORSDOF 5
ENDMDL
