MODEL 1
REMARK VINA RESULT:      -7.2      0.000      0.000
REMARK  10 active torsions:
REMARK  status: ('A' for Active; 'I' for Inactive)
REMARK    1  A    between atoms: C_1  and  N_63 
REMARK    2  A    between atoms: C_2  and  C_3 
REMARK    3  A    between atoms: C_2  and  N_63 
REMARK    4  A    between atoms: C_3  and  C_4 
REMARK    5  A    between atoms: C_10  and  C_11 
REMARK    6  A    between atoms: C_10  and  N_63 
REMARK    7  A    between atoms: C_19  and  C_21 
REMARK    8  A    between atoms: C_21  and  N_22 
REMARK       I    between atoms: N_22  and  C_23 
REMARK    9  A    between atoms: C_23  and  C_25 
REMARK   10  A    between atoms: C_28  and  C_31 
ROOT
ATOM      1  C   LIG d   1       6.236  -1.448  -6.065  0.00  0.00     0.042 C 
ATOM      2  H   LIG d   1       5.743  -2.380  -6.341  0.00  0.00     0.041 H 
ATOM      3  C   LIG d   1       7.549  -1.312  -6.841  0.00  0.00    -0.024 C 
ATOM      4  C   LIG d   1       8.768  -2.457  -5.087  0.00  0.00    -0.031 C 
ATOM      5  C   LIG d   1       7.488  -2.626  -4.263  0.00  0.00    -0.009 C 
ATOM      6  C   LIG d   1       6.546  -1.454  -4.563  0.00  0.00    -0.019 C 
ATOM      7  H   LIG d   1       5.623  -1.543  -3.989  0.00  0.00     0.031 H 
ATOM      8  C   LIG d   1       7.264  -0.146  -4.206  0.00  0.00    -0.005 C 
ATOM      9  C   LIG d   1       8.549  -0.046  -5.034  0.00  0.00    -0.005 C 
ATOM     10  H   LIG d   1       9.408   0.007  -4.365  0.00  0.00     0.087 H 
ATOM     11  H   LIG d   1       7.680  -2.180  -7.487  0.00  0.00     0.082 H 
ATOM     12  H   LIG d   1       7.521  -0.407  -7.448  0.00  0.00     0.082 H 
ATOM     13  H   LIG d   1       8.891  -3.316  -5.746  0.00  0.00     0.081 H 
ATOM     14  H   LIG d   1       9.625  -2.384  -4.418  0.00  0.00     0.081 H 
ATOM     15  H   LIG d   1       7.737  -2.633  -3.201  0.00  0.00     0.032 H 
ATOM     16  H   LIG d   1       7.001  -3.564  -4.529  0.00  0.00     0.032 H 
ATOM     17  H   LIG d   1       7.511  -0.142  -3.146  0.00  0.00     0.032 H 
ATOM     18  H   LIG d   1       6.616   0.700  -4.436  0.00  0.00     0.032 H 
ATOM     19  N   LIG d   1       8.693  -1.230  -5.908  0.00  0.00     0.239 N 
ATOM     20  H   LIG d   1       9.560  -1.139  -6.451  0.00  0.00     0.204 HD
ENDROOT
BRANCH   1  21
ATOM     21  C   LIG d   1       5.320  -0.267  -6.394  0.00  0.00    -0.024 C 
ATOM     22  H   LIG d   1       5.537   0.091  -7.401  0.00  0.00     0.082 H 
ATOM     23  H   LIG d   1       5.491   0.536  -5.678  0.00  0.00     0.082 H 
BRANCH  21  24
ATOM     24  N   LIG d   1       3.915  -0.725  -6.335  0.00  0.00     0.234 N 
ATOM     25  H   LIG d   1       3.819  -1.408  -5.574  0.00  0.00     0.203 HD
BRANCH  24  26
ATOM     26  C   LIG d   1       3.541  -1.370  -7.611  0.00  0.00    -0.043 C 
ATOM     27  H   LIG d   1       2.717  -2.060  -7.432  0.00  0.00     0.078 H 
ATOM     28  H   LIG d   1       3.223  -0.601  -8.315  0.00  0.00     0.078 H 
ATOM     29  H   LIG d   1       4.388  -1.915  -8.027  0.00  0.00     0.078 H 
ENDBRANCH  24  26
BRANCH  24  30
ATOM     30  C   LIG d   1       3.022   0.422  -6.067  0.00  0.00    -0.027 C 
ATOM     31  H   LIG d   1       3.627   1.297  -5.829  0.00  0.00     0.082 H 
ATOM     32  H   LIG d   1       2.402   0.634  -6.938  0.00  0.00     0.082 H 
BRANCH  30  33
ATOM     33  C   LIG d   1       2.127   0.081  -4.874  0.00  0.00     0.030 C 
ATOM     34  H   LIG d   1       1.521   0.949  -4.615  0.00  0.00     0.038 H 
ATOM     35  H   LIG d   1       1.474  -0.753  -5.136  0.00  0.00     0.038 H 
BRANCH  33  36
ATOM     36  C   LIG d   1       2.984  -0.304  -3.696  0.00  0.00     0.046 A 
ATOM     37  N   LIG d   1       3.137  -1.578  -3.390  0.00  0.00    -0.260 NA
ATOM     38  C   LIG d   1       3.878  -1.961  -2.368  0.00  0.00     0.028 A 
ATOM     39  C   LIG d   1       4.524  -1.032  -1.576  0.00  0.00    -0.044 A 
ATOM     40  H   LIG d   1       3.980  -3.013  -2.148  0.00  0.00     0.083 H 
ATOM     41  C   LIG d   1       4.387   0.317  -1.867  0.00  0.00    -0.059 A 
ATOM     42  H   LIG d   1       5.130  -1.352  -0.740  0.00  0.00     0.063 H 
ATOM     43  C   LIG d   1       3.606   0.681  -2.952  0.00  0.00    -0.040 A 
ATOM     44  H   LIG d   1       4.881   1.066  -1.266  0.00  0.00     0.062 H 
ATOM     45  H   LIG d   1       3.481   1.723  -3.211  0.00  0.00     0.064 H 
ENDBRANCH  33  36
ENDBRANCH  30  33
ENDBRANCH  24  30
ENDBRANCH  21  24
ENDBRANCH   1  21
BRANCH   9  46
ATOM     46  C   LIG d   1       8.500   1.212  -5.903  0.00  0.00     0.055 C 
ATOM     47  H   LIG d   1       9.361   1.225  -6.572  0.00  0.00     0.052 H 
ATOM     48  H   LIG d   1       7.583   1.212  -6.492  0.00  0.00     0.052 H 
BRANCH  46  49
ATOM     49  N   LIG d   1       8.529   2.399  -5.045  0.00  0.00    -0.306 N 
ATOM     50  C   LIG d   1       9.599   3.220  -5.068  0.00  0.00     0.244 C 
ATOM     51  O   LIG d   1      10.538   2.974  -5.799  0.00  0.00    -0.270 OA
ATOM     52  H   LIG d   1       7.780   2.595  -4.462  0.00  0.00     0.149 HD
BRANCH  50  53
ATOM     53  C   LIG d   1       9.629   4.418  -4.202  0.00  0.00     0.037 A 
ATOM     54  C   LIG d   1       9.976   4.300  -2.855  0.00  0.00    -0.049 A 
ATOM     55  C   LIG d   1      10.002   5.423  -2.053  0.00  0.00    -0.049 A 
ATOM     56  H   LIG d   1      10.221   3.333  -2.442  0.00  0.00     0.062 H 
ATOM     57  C   LIG d   1       9.688   6.662  -2.581  0.00  0.00     0.055 A 
ATOM     58  H   LIG d   1      10.271   5.333  -1.010  0.00  0.00     0.062 H 
ATOM     59  C   LIG d   1       9.344   6.785  -3.915  0.00  0.00    -0.049 A 
ATOM     60  C   LIG d   1       9.318   5.672  -4.730  0.00  0.00    -0.049 A 
ATOM     61  H   LIG d   1       9.099   7.755  -4.321  0.00  0.00     0.062 H 
ATOM     62  H   LIG d   1       9.053   5.770  -5.772  0.00  0.00     0.062 H 
BRANCH  57  63
ATOM     63  C   LIG d   1       9.720   7.883  -1.698  0.00  0.00     0.417 C 
ATOM     64  F   LIG d   1       8.488   8.022  -1.049  0.00  0.00    -0.166 F 
ATOM     65  F   LIG d   1      10.735   7.743  -0.746  0.00  0.00    -0.166 F 
ATOM     66  F   LIG d   1       9.967   9.018  -2.479  0.00  0.00    -0.166 F 
ENDBRANCH  57  63
ENDBRANCH  50  53
ENDBRANCH  46  49
ENDBRANCH   9  46
TORSDOF 10
ENDMDL
MODEL 2
REMARK VINA RESULT:      -7.0      5.104      7.493
REMARK  10 active torsions:
REMARK  status: ('A' for Active; 'I' for Inactive)
REMARK    1  A    between atoms: C_1  and  N_63 
REMARK    2  A    between atoms: C_2  and  C_3 
REMARK    3  A    between atoms: C_2  and  N_63 
REMARK    4  A    between atoms: C_3  and  C_4 
REMARK    5  A    between atoms: C_10  and  C_11 
REMARK    6  A    between atoms: C_10  and  N_63 
REMARK    7  A    between atoms: C_19  and  C_21 
REMARK    8  A    between atoms: C_21  and  N_22 
REMARK       I    between atoms: N_22  and  C_23 
REMARK    9  A    between atoms: C_23  and  C_25 
REMARK   10  A    between atoms: C_28  and  C_31 
ROOT
ATOM      1  C   LIG d   1       5.750  -4.051  -9.853  0.00  0.00     0.042 C 
ATOM      2  H   LIG d   1       6.375  -4.000 -10.745  0.00  0.00     0.041 H 
ATOM      3  C   LIG d   1       5.509  -5.516  -9.477  0.00  0.00    -0.024 C 
ATOM      4  C   LIG d   1       3.518  -5.599 -10.857  0.00  0.00    -0.031 C 
ATOM      5  C   LIG d   1       3.704  -4.137 -11.271  0.00  0.00    -0.009 C 
ATOM      6  C   LIG d   1       4.398  -3.382 -10.131  0.00  0.00    -0.019 C 
ATOM      7  H   LIG d   1       4.545  -2.334 -10.395  0.00  0.00     0.031 H 
ATOM      8  C   LIG d   1       3.529  -3.492  -8.871  0.00  0.00    -0.005 C 
ATOM      9  C   LIG d   1       3.350  -4.973  -8.523  0.00  0.00    -0.005 C 
ATOM     10  H   LIG d   1       2.289  -5.225  -8.543  0.00  0.00     0.087 H 
ATOM     11  H   LIG d   1       6.020  -6.162 -10.191  0.00  0.00     0.082 H 
ATOM     12  H   LIG d   1       5.895  -5.703  -8.476  0.00  0.00     0.082 H 
ATOM     13  H   LIG d   1       4.043  -6.246 -11.559  0.00  0.00     0.081 H 
ATOM     14  H   LIG d   1       2.457  -5.846 -10.856  0.00  0.00     0.081 H 
ATOM     15  H   LIG d   1       2.731  -3.687 -11.468  0.00  0.00     0.032 H 
ATOM     16  H   LIG d   1       4.318  -4.086 -12.170  0.00  0.00     0.032 H 
ATOM     17  H   LIG d   1       2.556  -3.040  -9.058  0.00  0.00     0.032 H 
ATOM     18  H   LIG d   1       4.020  -2.980  -8.044  0.00  0.00     0.032 H 
ATOM     19  N   LIG d   1       4.063  -5.823  -9.500  0.00  0.00     0.239 N 
ATOM     20  H   LIG d   1       3.928  -6.808  -9.245  0.00  0.00     0.204 HD
ENDROOT
BRANCH   1  21
ATOM     21  C   LIG d   1       6.449  -3.333  -8.697  0.00  0.00    -0.024 C 
ATOM     22  H   LIG d   1       7.192  -3.996  -8.253  0.00  0.00     0.082 H 
ATOM     23  H   LIG d   1       5.712  -3.056  -7.943  0.00  0.00     0.082 H 
BRANCH  21  24
ATOM     24  N   LIG d   1       7.126  -2.129  -9.225  0.00  0.00     0.234 N 
ATOM     25  H   LIG d   1       6.790  -1.949 -10.179  0.00  0.00     0.203 HD
BRANCH  24  26
ATOM     26  C   LIG d   1       8.587  -2.350  -9.265  0.00  0.00    -0.043 C 
ATOM     27  H   LIG d   1       8.838  -3.189  -8.616  0.00  0.00     0.078 H 
ATOM     28  H   LIG d   1       8.881  -2.584 -10.289  0.00  0.00     0.078 H 
ATOM     29  H   LIG d   1       9.118  -1.459  -8.929  0.00  0.00     0.078 H 
ENDBRANCH  24  26
BRANCH  24  30
ATOM     30  C   LIG d   1       6.814  -0.961  -8.376  0.00  0.00    -0.027 C 
ATOM     31  H   LIG d   1       5.875  -1.140  -7.854  0.00  0.00     0.082 H 
ATOM     32  H   LIG d   1       7.609  -0.794  -7.649  0.00  0.00     0.082 H 
BRANCH  30  33
ATOM     33  C   LIG d   1       6.673   0.274  -9.270  0.00  0.00     0.030 C 
ATOM     34  H   LIG d   1       7.461   0.988  -9.030  0.00  0.00     0.038 H 
ATOM     35  H   LIG d   1       6.758  -0.023 -10.316  0.00  0.00     0.038 H 
BRANCH  33  36
ATOM     36  C   LIG d   1       5.328   0.912  -9.036  0.00  0.00     0.046 A 
ATOM     37  N   LIG d   1       5.112   2.146  -9.450  0.00  0.00    -0.260 NA
ATOM     38  C   LIG d   1       3.951   2.745  -9.268  0.00  0.00     0.028 A 
ATOM     39  C   LIG d   1       2.913   2.094  -8.629  0.00  0.00    -0.044 A 
ATOM     40  H   LIG d   1       3.811   3.755  -9.621  0.00  0.00     0.083 H 
ATOM     41  C   LIG d   1       3.103   0.796  -8.180  0.00  0.00    -0.059 A 
ATOM     42  H   LIG d   1       1.964   2.590  -8.482  0.00  0.00     0.063 H 
ATOM     43  C   LIG d   1       4.334   0.197  -8.395  0.00  0.00    -0.040 A 
ATOM     44  H   LIG d   1       2.310   0.263  -7.677  0.00  0.00     0.062 H 
ATOM     45  H   LIG d   1       4.516  -0.815  -8.063  0.00  0.00     0.064 H 
ENDBRANCH  33  36
ENDBRANCH  30  33
ENDBRANCH  24  30
ENDBRANCH  21  24
ENDBRANCH   1  21
BRANCH   9  46
ATOM     46  C   LIG d   1       3.913  -5.241  -7.126  0.00  0.00     0.055 C 
ATOM     47  H   LIG d   1       3.335  -6.032  -6.648  0.00  0.00     0.052 H 
ATOM     48  H   LIG d   1       4.954  -5.549  -7.207  0.00  0.00     0.052 H 
BRANCH  46  49
ATOM     49  N   LIG d   1       3.826  -4.019  -6.323  0.00  0.00    -0.306 N 
ATOM     50  C   LIG d   1       4.716  -3.796  -5.335  0.00  0.00     0.244 C 
ATOM     51  O   LIG d   1       5.590  -4.611  -5.111  0.00  0.00    -0.270 OA
ATOM     52  H   LIG d   1       3.129  -3.368  -6.502  0.00  0.00     0.149 HD
BRANCH  50  53
ATOM     53  C   LIG d   1       4.629  -2.564  -4.525  0.00  0.00     0.037 A 
ATOM     54  C   LIG d   1       4.398  -2.644  -3.150  0.00  0.00    -0.049 A 
ATOM     55  C   LIG d   1       4.318  -1.488  -2.400  0.00  0.00    -0.049 A 
ATOM     56  H   LIG d   1       4.281  -3.607  -2.676  0.00  0.00     0.062 H 
ATOM     57  C   LIG d   1       4.468  -0.254  -3.006  0.00  0.00     0.055 A 
ATOM     58  H   LIG d   1       4.139  -1.549  -1.336  0.00  0.00     0.062 H 
ATOM     59  C   LIG d   1       4.698  -0.168  -4.367  0.00  0.00    -0.049 A 
ATOM     60  C   LIG d   1       4.785  -1.315  -5.129  0.00  0.00    -0.049 A 
ATOM     61  H   LIG d   1       4.814   0.798  -4.834  0.00  0.00     0.062 H 
ATOM     62  H   LIG d   1       4.968  -1.247  -6.191  0.00  0.00     0.062 H 
BRANCH  57  63
ATOM     63  C   LIG d   1       4.380   1.003  -2.178  0.00  0.00     0.417 C 
ATOM     64  F   LIG d   1       3.061   1.470  -2.177  0.00  0.00    -0.166 F 
ATOM     65  F   LIG d   1       4.777   0.725  -0.865  0.00  0.00    -0.166 F 
ATOM     66  F   LIG d   1       5.221   1.980  -2.722  0.00  0.00    -0.166 F 
ENDBRANCH  57  63
ENDBRANCH  50  53
ENDBRANCH  46  49
ENDBRANCH   9  46
TORSDOF 10
ENDMDL
MODEL 3
REMARK VINA RESULT:      -6.8      2.258      4.319
REMARK  10 active torsions:
REMARK  status: ('A' for Active; 'I' for Inactive)
REMARK    1  A    between atoms: C_1  and  N_63 
REMARK    2  A    between atoms: C_2  and  C_3 
REMARK    3  A    between atoms: C_2  and  N_63 
REMARK    4  A    between atoms: C_3  and  C_4 
REMARK    5  A    between atoms: C_10  and  C_11 
REMARK    6  A    between atoms: C_10  and  N_63 
REMARK    7  A    between atoms: C_19  and  C_21 
REMARK    8  A    between atoms: C_21  and  N_22 
REMARK       I    between atoms: N_22  and  C_23 
REMARK    9  A    between atoms: C_23  and  C_25 
REMARK   10  A    between atoms: C_28  and  C_31 
ROOT
ATOM      1  C   LIG d   1       4.325  -2.267  -4.756  0.00  0.00     0.042 C 
ATOM      2  H   LIG d   1       3.609  -3.089  -4.740  0.00  0.00     0.041 H 
ATOM      3  C   LIG d   1       5.503  -2.595  -3.834  0.00  0.00    -0.024 C 
ATOM      4  C   LIG d   1       4.385  -1.564  -1.947  0.00  0.00    -0.031 C 
ATOM      5  C   LIG d   1       3.176  -1.208  -2.817  0.00  0.00    -0.009 C 
ATOM      6  C   LIG d   1       3.649  -0.984  -4.258  0.00  0.00    -0.019 C 
ATOM      7  H   LIG d   1       2.810  -0.726  -4.904  0.00  0.00     0.031 H 
ATOM      8  C   LIG d   1       4.685   0.148  -4.262  0.00  0.00    -0.005 C 
ATOM      9  C   LIG d   1       5.853  -0.247  -3.354  0.00  0.00    -0.005 C 
ATOM     10  H   LIG d   1       5.951   0.483  -2.550  0.00  0.00     0.087 H 
ATOM     11  H   LIG d   1       5.347  -3.574  -3.380  0.00  0.00     0.082 H 
ATOM     12  H   LIG d   1       6.426  -2.606  -4.413  0.00  0.00     0.082 H 
ATOM     13  H   LIG d   1       4.239  -2.550  -1.507  0.00  0.00     0.081 H 
ATOM     14  H   LIG d   1       4.496  -0.823  -1.156  0.00  0.00     0.081 H 
ATOM     15  H   LIG d   1       2.711  -0.297  -2.439  0.00  0.00     0.032 H 
ATOM     16  H   LIG d   1       2.454  -2.023  -2.792  0.00  0.00     0.032 H 
ATOM     17  H   LIG d   1       4.227   1.064  -3.890  0.00  0.00     0.032 H 
ATOM     18  H   LIG d   1       5.049   0.306  -5.277  0.00  0.00     0.032 H 
ATOM     19  N   LIG d   1       5.618  -1.582  -2.763  0.00  0.00     0.239 N 
ATOM     20  H   LIG d   1       6.413  -1.824  -2.160  0.00  0.00     0.204 HD
ENDROOT
BRANCH   1  21
ATOM     21  C   LIG d   1       4.834  -2.058  -6.184  0.00  0.00    -0.024 C 
ATOM     22  H   LIG d   1       5.852  -2.438  -6.266  0.00  0.00     0.082 H 
ATOM     23  H   LIG d   1       4.823  -0.994  -6.421  0.00  0.00     0.082 H 
BRANCH  21  24
ATOM     24  N   LIG d   1       3.960  -2.805  -7.113  0.00  0.00     0.234 N 
ATOM     25  H   LIG d   1       2.981  -2.657  -6.842  0.00  0.00     0.203 HD
BRANCH  24  26
ATOM     26  C   LIG d   1       4.266  -4.249  -7.042  0.00  0.00    -0.043 C 
ATOM     27  H   LIG d   1       4.658  -4.577  -8.005  0.00  0.00     0.078 H 
ATOM     28  H   LIG d   1       5.019  -4.412  -6.269  0.00  0.00     0.078 H 
ATOM     29  H   LIG d   1       3.369  -4.819  -6.801  0.00  0.00     0.078 H 
ENDBRANCH  24  26
BRANCH  24  30
ATOM     30  C   LIG d   1       4.155  -2.314  -8.494  0.00  0.00    -0.027 C 
ATOM     31  H   LIG d   1       4.965  -1.585  -8.502  0.00  0.00     0.082 H 
ATOM     32  H   LIG d   1       4.401  -3.139  -9.162  0.00  0.00     0.082 H 
BRANCH  30  33
ATOM     33  C   LIG d   1       2.862  -1.644  -8.966  0.00  0.00     0.030 C 
ATOM     34  H   LIG d   1       2.518  -2.124  -9.882  0.00  0.00     0.038 H 
ATOM     35  H   LIG d   1       2.098  -1.744  -8.194  0.00  0.00     0.038 H 
BRANCH  33  36
ATOM     36  C   LIG d   1       3.121  -0.183  -9.230  0.00  0.00     0.046 A 
ATOM     37  N   LIG d   1       3.659   0.186 -10.376  0.00  0.00    -0.260 NA
ATOM     38  C   LIG d   1       3.903   1.453 -10.651  0.00  0.00     0.028 A 
ATOM     39  C   LIG d   1       3.602   2.445  -9.738  0.00  0.00    -0.044 A 
ATOM     40  H   LIG d   1       4.345   1.717 -11.600  0.00  0.00     0.083 H 
ATOM     41  C   LIG d   1       3.034   2.095  -8.522  0.00  0.00    -0.059 A 
ATOM     42  H   LIG d   1       3.805   3.481  -9.969  0.00  0.00     0.063 H 
ATOM     43  C   LIG d   1       2.787   0.755  -8.271  0.00  0.00    -0.040 A 
ATOM     44  H   LIG d   1       2.788   2.849  -7.789  0.00  0.00     0.062 H 
ATOM     45  H   LIG d   1       2.341   0.446  -7.336  0.00  0.00     0.064 H 
ENDBRANCH  33  36
ENDBRANCH  30  33
ENDBRANCH  24  30
ENDBRANCH  21  24
ENDBRANCH   1  21
BRANCH   9  46
ATOM     46  C   LIG d   1       7.145  -0.284  -4.171  0.00  0.00     0.055 C 
ATOM     47  H   LIG d   1       7.642  -1.243  -4.022  0.00  0.00     0.052 H 
ATOM     48  H   LIG d   1       6.912  -0.156  -5.227  0.00  0.00     0.052 H 
BRANCH  46  49
ATOM     49  N   LIG d   1       8.031   0.797  -3.732  0.00  0.00    -0.306 N 
ATOM     50  C   LIG d   1       8.237   1.865  -4.529  0.00  0.00     0.244 C 
ATOM     51  O   LIG d   1       7.689   1.930  -5.612  0.00  0.00    -0.270 OA
ATOM     52  H   LIG d   1       8.469   0.746  -2.868  0.00  0.00     0.149 HD
BRANCH  50  53
ATOM     53  C   LIG d   1       9.131   2.956  -4.086  0.00  0.00     0.037 A 
ATOM     54  C   LIG d   1       9.122   4.183  -4.752  0.00  0.00    -0.049 A 
ATOM     55  C   LIG d   1       9.958   5.197  -4.333  0.00  0.00    -0.049 A 
ATOM     56  H   LIG d   1       8.463   4.337  -5.594  0.00  0.00     0.062 H 
ATOM     57  C   LIG d   1      10.803   5.001  -3.255  0.00  0.00     0.055 A 
ATOM     58  H   LIG d   1       9.953   6.147  -4.848  0.00  0.00     0.062 H 
ATOM     59  C   LIG d   1      10.815   3.788  -2.590  0.00  0.00    -0.049 A 
ATOM     60  C   LIG d   1       9.981   2.767  -2.995  0.00  0.00    -0.049 A 
ATOM     61  H   LIG d   1      11.476   3.642  -1.750  0.00  0.00     0.062 H 
ATOM     62  H   LIG d   1       9.989   1.822  -2.473  0.00  0.00     0.062 H 
BRANCH  57  63
ATOM     63  C   LIG d   1      11.712   6.114  -2.803  0.00  0.00     0.417 C 
ATOM     64  F   LIG d   1      12.818   6.189  -3.657  0.00  0.00    -0.166 F 
ATOM     65  F   LIG d   1      11.016   7.328  -2.835  0.00  0.00    -0.166 F 
ATOM     66  F   LIG d   1      12.147   5.862  -1.497  0.00  0.00    -0.166 F 
ENDBRANCH  57  63
ENDBRANCH  50  53
ENDBRANCH  46  49
ENDBRANCH   9  46
TORSDOF 10
ENDMDL
MODEL 4
REMARK VINA RESULT:      -6.8      5.176      7.819
REMARK  10 active torsions:
REMARK  status: ('A' for Active; 'I' for Inactive)
REMARK    1  A    between atoms: C_1  and  N_63 
REMARK    2  A    between atoms: C_2  and  C_3 
REMARK    3  A    between atoms: C_2  and  N_63 
REMARK    4  A    between atoms: C_3  and  C_4 
REMARK    5  A    between atoms: C_10  and  C_11 
REMARK    6  A    between atoms: C_10  and  N_63 
REMARK    7  A    between atoms: C_19  and  C_21 
REMARK    8  A    between atoms: C_21  and  N_22 
REMARK       I    between atoms: N_22  and  C_23 
REMARK    9  A    between atoms: C_23  and  C_25 
REMARK   10  A    between atoms: C_28  and  C_31 
ROOT
ATOM      1  C   LIG d   1       5.216   0.241  -7.891  0.00  0.00     0.042 C 
ATOM      2  H   LIG d   1       5.126   1.313  -8.066  0.00  0.00     0.041 H 
ATOM      3  C   LIG d   1       4.881  -0.520  -9.177  0.00  0.00    -0.024 C 
ATOM      4  C   LIG d   1       2.539  -0.633  -8.565  0.00  0.00    -0.031 C 
ATOM      5  C   LIG d   1       2.809   0.126  -7.262  0.00  0.00    -0.009 C 
ATOM      6  C   LIG d   1       4.235  -0.186  -6.792  0.00  0.00    -0.019 C 
ATOM      7  H   LIG d   1       4.459   0.339  -5.864  0.00  0.00     0.031 H 
ATOM      8  C   LIG d   1       4.361  -1.702  -6.586  0.00  0.00    -0.005 C 
ATOM      9  C   LIG d   1       4.050  -2.408  -7.909  0.00  0.00    -0.005 C 
ATOM     10  H   LIG d   1       3.195  -3.072  -7.773  0.00  0.00     0.087 H 
ATOM     11  H   LIG d   1       4.632   0.191  -9.965  0.00  0.00     0.082 H 
ATOM     12  H   LIG d   1       5.741  -1.115  -9.483  0.00  0.00     0.082 H 
ATOM     13  H   LIG d   1       2.306   0.078  -9.358  0.00  0.00     0.081 H 
ATOM     14  H   LIG d   1       1.698  -1.311  -8.424  0.00  0.00     0.081 H 
ATOM     15  H   LIG d   1       2.095  -0.192  -6.501  0.00  0.00     0.032 H 
ATOM     16  H   LIG d   1       2.707   1.197  -7.434  0.00  0.00     0.032 H 
ATOM     17  H   LIG d   1       3.655  -2.026  -5.823  0.00  0.00     0.032 H 
ATOM     18  H   LIG d   1       5.377  -1.944  -6.273  0.00  0.00     0.032 H 
ATOM     19  N   LIG d   1       3.728  -1.419  -8.959  0.00  0.00     0.239 N 
ATOM     20  H   LIG d   1       3.523  -1.917  -9.833  0.00  0.00     0.204 HD
ENDROOT
BRANCH   1  21
ATOM     21  C   LIG d   1       6.646  -0.089  -7.458  0.00  0.00    -0.024 C 
ATOM     22  H   LIG d   1       7.304  -0.066  -8.326  0.00  0.00     0.082 H 
ATOM     23  H   LIG d   1       6.670  -1.082  -7.010  0.00  0.00     0.082 H 
BRANCH  21  24
ATOM     24  N   LIG d   1       7.093   0.930  -6.484  0.00  0.00     0.234 N 
ATOM     25  H   LIG d   1       6.281   1.479  -6.178  0.00  0.00     0.203 HD
BRANCH  24  26
ATOM     26  C   LIG d   1       8.076   1.835  -7.116  0.00  0.00    -0.043 C 
ATOM     27  H   LIG d   1       9.034   1.320  -7.195  0.00  0.00     0.078 H 
ATOM     28  H   LIG d   1       7.722   2.097  -8.114  0.00  0.00     0.078 H 
ATOM     29  H   LIG d   1       8.197   2.741  -6.525  0.00  0.00     0.078 H 
ENDBRANCH  24  26
BRANCH  24  30
ATOM     30  C   LIG d   1       7.697   0.271  -5.306  0.00  0.00    -0.027 C 
ATOM     31  H   LIG d   1       7.238  -0.707  -5.170  0.00  0.00     0.082 H 
ATOM     32  H   LIG d   1       8.772   0.151  -5.445  0.00  0.00     0.082 H 
BRANCH  30  33
ATOM     33  C   LIG d   1       7.435   1.134  -4.070  0.00  0.00     0.030 C 
ATOM     34  H   LIG d   1       8.334   1.169  -3.455  0.00  0.00     0.038 H 
ATOM     35  H   LIG d   1       7.168   2.144  -4.382  0.00  0.00     0.038 H 
BRANCH  33  36
ATOM     36  C   LIG d   1       6.303   0.539  -3.273  0.00  0.00     0.046 A 
ATOM     37  N   LIG d   1       5.556   1.321  -2.518  0.00  0.00    -0.260 NA
ATOM     38  C   LIG d   1       4.555   0.845  -1.804  0.00  0.00     0.028 A 
ATOM     39  C   LIG d   1       4.253  -0.503  -1.821  0.00  0.00    -0.044 A 
ATOM     40  H   LIG d   1       3.966   1.517  -1.198  0.00  0.00     0.083 H 
ATOM     41  C   LIG d   1       5.017  -1.357  -2.603  0.00  0.00    -0.059 A 
ATOM     42  H   LIG d   1       3.432  -0.888  -1.233  0.00  0.00     0.063 H 
ATOM     43  C   LIG d   1       6.056  -0.819  -3.345  0.00  0.00    -0.040 A 
ATOM     44  H   LIG d   1       4.804  -2.415  -2.636  0.00  0.00     0.062 H 
ATOM     45  H   LIG d   1       6.669  -1.454  -3.969  0.00  0.00     0.064 H 
ENDBRANCH  33  36
ENDBRANCH  30  33
ENDBRANCH  24  30
ENDBRANCH  21  24
ENDBRANCH   1  21
BRANCH   9  46
ATOM     46  C   LIG d   1       5.265  -3.225  -8.349  0.00  0.00     0.055 C 
ATOM     47  H   LIG d   1       4.939  -4.213  -8.676  0.00  0.00     0.052 H 
ATOM     48  H   LIG d   1       5.766  -2.717  -9.173  0.00  0.00     0.052 H 
BRANCH  46  49
ATOM     49  N   LIG d   1       6.194  -3.364  -7.225  0.00  0.00    -0.306 N 
ATOM     50  C   LIG d   1       6.461  -4.585  -6.718  0.00  0.00     0.244 C 
ATOM     51  O   LIG d   1       5.930  -5.570  -7.194  0.00  0.00    -0.270 OA
ATOM     52  H   LIG d   1       6.617  -2.579  -6.845  0.00  0.00     0.149 HD
BRANCH  50  53
ATOM     53  C   LIG d   1       7.397  -4.725  -5.583  0.00  0.00     0.037 A 
ATOM     54  C   LIG d   1       7.964  -5.967  -5.292  0.00  0.00    -0.049 A 
ATOM     55  C   LIG d   1       8.838  -6.091  -4.232  0.00  0.00    -0.049 A 
ATOM     56  H   LIG d   1       7.718  -6.829  -5.895  0.00  0.00     0.062 H 
ATOM     57  C   LIG d   1       9.155  -4.988  -3.459  0.00  0.00     0.055 A 
ATOM     58  H   LIG d   1       9.278  -7.052  -4.005  0.00  0.00     0.062 H 
ATOM     59  C   LIG d   1       8.597  -3.754  -3.743  0.00  0.00    -0.049 A 
ATOM     60  C   LIG d   1       7.725  -3.615  -4.803  0.00  0.00    -0.049 A 
ATOM     61  H   LIG d   1       8.847  -2.897  -3.136  0.00  0.00     0.062 H 
ATOM     62  H   LIG d   1       7.293  -2.651  -5.026  0.00  0.00     0.062 H 
BRANCH  57  63
ATOM     63  C   LIG d   1      10.111  -5.131  -2.303  0.00  0.00     0.417 C 
ATOM     64  F   LIG d   1      11.237  -4.332  -2.527  0.00  0.00    -0.166 F 
ATOM     65  F   LIG d   1       9.479  -4.725  -1.122  0.00  0.00    -0.166 F 
ATOM     66  F   LIG d   1      10.503  -6.469  -2.185  0.00  0.00    -0.166 F 
ENDBRANCH  57  63
ENDBRANCH  50  53
ENDBRANCH  46  49
ENDBRANCH   9  46
TORSDOF 10
ENDMDL
MODEL 5
REMARK VINA RESULT:      -6.8      6.125      8.150
REMARK  10 active torsions:
REMARK  status: ('A' for Active; 'I' for Inactive)
REMARK    1  A    between atoms: C_1  and  N_63 
REMARK    2  A    between atoms: C_2  and  C_3 
REMARK    3  A    between atoms: C_2  and  N_63 
REMARK    4  A    between atoms: C_3  and  C_4 
REMARK    5  A    between atoms: C_10  and  C_11 
REMARK    6  A    between atoms: C_10  and  N_63 
REMARK    7  A    between atoms: C_19  and  C_21 
REMARK    8  A    between atoms: C_21  and  N_22 
REMARK       I    between atoms: N_22  and  C_23 
REMARK    9  A    between atoms: C_23  and  C_25 
REMARK   10  A    between atoms: C_28  and  C_31 
ROOT
ATOM      1  C   LIG d   1       3.077  -2.740 -11.922  0.00  0.00     0.042 C 
ATOM      2  H   LIG d   1       3.079  -3.435 -12.761  0.00  0.00     0.041 H 
ATOM      3  C   LIG d   1       2.326  -1.464 -12.314  0.00  0.00    -0.024 C 
ATOM      4  C   LIG d   1       4.368  -0.447 -13.130  0.00  0.00    -0.031 C 
ATOM      5  C   LIG d   1       5.176  -1.695 -12.761  0.00  0.00    -0.009 C 
ATOM      6  C   LIG d   1       4.519  -2.372 -11.552  0.00  0.00    -0.019 C 
ATOM      7  H   LIG d   1       5.072  -3.266 -11.262  0.00  0.00     0.031 H 
ATOM      8  C   LIG d   1       4.486  -1.372 -10.389  0.00  0.00    -0.005 C 
ATOM      9  C   LIG d   1       3.696  -0.134 -10.824  0.00  0.00    -0.005 C 
ATOM     10  H   LIG d   1       4.339   0.745 -10.767  0.00  0.00     0.087 H 
ATOM     11  H   LIG d   1       1.971  -1.553 -13.341  0.00  0.00     0.082 H 
ATOM     12  H   LIG d   1       1.477  -1.322 -11.646  0.00  0.00     0.082 H 
ATOM     13  H   LIG d   1       3.998  -0.542 -14.150  0.00  0.00     0.081 H 
ATOM     14  H   LIG d   1       5.005   0.434 -13.053  0.00  0.00     0.081 H 
ATOM     15  H   LIG d   1       6.197  -1.407 -12.508  0.00  0.00     0.032 H 
ATOM     16  H   LIG d   1       5.189  -2.385 -13.604  0.00  0.00     0.032 H 
ATOM     17  H   LIG d   1       5.503  -1.083 -10.127  0.00  0.00     0.032 H 
ATOM     18  H   LIG d   1       4.001  -1.830  -9.527  0.00  0.00     0.032 H 
ATOM     19  N   LIG d   1       3.218  -0.289 -12.214  0.00  0.00     0.239 N 
ATOM     20  H   LIG d   1       2.693   0.552 -12.481  0.00  0.00     0.204 HD
ENDROOT
BRANCH   1  21
ATOM     21  C   LIG d   1       2.389  -3.390 -10.719  0.00  0.00    -0.024 C 
ATOM     22  H   LIG d   1       1.390  -2.971 -10.601  0.00  0.00     0.082 H 
ATOM     23  H   LIG d   1       2.974  -3.199  -9.820  0.00  0.00     0.082 H 
BRANCH  21  24
ATOM     24  N   LIG d   1       2.278  -4.844 -10.966  0.00  0.00     0.234 N 
ATOM     25  H   LIG d   1       2.913  -5.102 -11.731  0.00  0.00     0.203 HD
BRANCH  24  26
ATOM     26  C   LIG d   1       0.893  -5.185 -11.354  0.00  0.00    -0.043 C 
ATOM     27  H   LIG d   1       0.788  -5.071 -12.433  0.00  0.00     0.078 H 
ATOM     28  H   LIG d   1       0.695  -6.222 -11.078  0.00  0.00     0.078 H 
ATOM     29  H   LIG d   1       0.183  -4.533 -10.847  0.00  0.00     0.078 H 
ENDBRANCH  24  26
BRANCH  24  30
ATOM     30  C   LIG d   1       2.662  -5.593  -9.751  0.00  0.00    -0.027 C 
ATOM     31  H   LIG d   1       1.776  -6.069  -9.331  0.00  0.00     0.082 H 
ATOM     32  H   LIG d   1       3.405  -6.354  -9.989  0.00  0.00     0.082 H 
BRANCH  30  33
ATOM     33  C   LIG d   1       3.245  -4.612  -8.731  0.00  0.00     0.030 C 
ATOM     34  H   LIG d   1       4.014  -4.005  -9.209  0.00  0.00     0.038 H 
ATOM     35  H   LIG d   1       2.452  -3.964  -8.356  0.00  0.00     0.038 H 
BRANCH  33  36
ATOM     36  C   LIG d   1       3.851  -5.379  -7.585  0.00  0.00     0.046 A 
ATOM     37  N   LIG d   1       4.036  -6.681  -7.698  0.00  0.00    -0.260 NA
ATOM     38  C   LIG d   1       4.563  -7.393  -6.721  0.00  0.00     0.028 A 
ATOM     39  C   LIG d   1       4.942  -6.795  -5.534  0.00  0.00    -0.044 A 
ATOM     40  H   LIG d   1       4.699  -8.457  -6.850  0.00  0.00     0.083 H 
ATOM     41  C   LIG d   1       4.763  -5.428  -5.380  0.00  0.00    -0.059 A 
ATOM     42  H   LIG d   1       5.373  -7.384  -4.738  0.00  0.00     0.063 H 
ATOM     43  C   LIG d   1       4.212  -4.712  -6.430  0.00  0.00    -0.040 A 
ATOM     44  H   LIG d   1       5.050  -4.934  -4.463  0.00  0.00     0.062 H 
ATOM     45  H   LIG d   1       4.063  -3.645  -6.346  0.00  0.00     0.064 H 
ENDBRANCH  33  36
ENDBRANCH  30  33
ENDBRANCH  24  30
ENDBRANCH  21  24
ENDBRANCH   1  21
BRANCH   9  46
ATOM     46  C   LIG d   1       2.491   0.053  -9.900  0.00  0.00     0.055 C 
ATOM     47  H   LIG d   1       2.242   1.113  -9.839  0.00  0.00     0.052 H 
ATOM     48  H   LIG d   1       1.640  -0.498 -10.298  0.00  0.00     0.052 H 
BRANCH  46  49
ATOM     49  N   LIG d   1       2.818  -0.450  -8.564  0.00  0.00    -0.306 N 
ATOM     50  C   LIG d   1       3.053   0.415  -7.557  0.00  0.00     0.244 C 
ATOM     51  O   LIG d   1       2.995   1.613  -7.759  0.00  0.00    -0.270 OA
ATOM     52  H   LIG d   1       2.865  -1.405  -8.402  0.00  0.00     0.149 HD
BRANCH  50  53
ATOM     53  C   LIG d   1       3.383  -0.092  -6.209  0.00  0.00     0.037 A 
ATOM     54  C   LIG d   1       2.629   0.310  -5.105  0.00  0.00    -0.049 A 
ATOM     55  C   LIG d   1       2.942  -0.168  -3.849  0.00  0.00    -0.049 A 
ATOM     56  H   LIG d   1       1.803   0.994  -5.234  0.00  0.00     0.062 H 
ATOM     57  C   LIG d   1       3.999  -1.044  -3.682  0.00  0.00     0.055 A 
ATOM     58  H   LIG d   1       2.358   0.143  -2.994  0.00  0.00     0.062 H 
ATOM     59  C   LIG d   1       4.750  -1.447  -4.772  0.00  0.00    -0.049 A 
ATOM     60  C   LIG d   1       4.445  -0.981  -6.034  0.00  0.00    -0.049 A 
ATOM     61  H   LIG d   1       5.574  -2.131  -4.635  0.00  0.00     0.062 H 
ATOM     62  H   LIG d   1       5.030  -1.299  -6.884  0.00  0.00     0.062 H 
BRANCH  57  63
ATOM     63  C   LIG d   1       4.334  -1.562  -2.307  0.00  0.00     0.417 C 
ATOM     64  F   LIG d   1       5.655  -2.022  -2.290  0.00  0.00    -0.166 F 
ATOM     65  F   LIG d   1       4.188  -0.531  -1.372  0.00  0.00    -0.166 F 
ATOM     66  F   LIG d   1       3.469  -2.612  -1.980  0.00  0.00    -0.166 F 
ENDBRANCH  57  63
ENDBRANCH  50  53
ENDBRANCH  46  49
ENDBRANCH   9  46
TORSDOF 10
ENDMDL
MODEL 6
REMARK VINA RESULT:      -6.7      6.310      9.159
REMARK  10 active torsions:
REMARK  status: ('A' for Active; 'I' for Inactive)
REMARK    1  A    between atoms: C_1  and  N_63 
REMARK    2  A    between atoms: C_2  and  C_3 
REMARK    3  A    between atoms: C_2  and  N_63 
REMARK    4  A    between atoms: C_3  and  C_4 
REMARK    5  A    between atoms: C_10  and  C_11 
REMARK    6  A    between atoms: C_10  and  N_63 
REMARK    7  A    between atoms: C_19  and  C_21 
REMARK    8  A    between atoms: C_21  and  N_22 
REMARK       I    between atoms: N_22  and  C_23 
REMARK    9  A    between atoms: C_23  and  C_25 
REMARK   10  A    between atoms: C_28  and  C_31 
ROOT
ATOM      1  C   LIG d   1       6.025  -0.408  -3.934  0.00  0.00     0.042 C 
ATOM      2  H   LIG d   1       6.911  -0.521  -3.309  0.00  0.00     0.041 H 
ATOM      3  C   LIG d   1       5.183   0.766  -3.426  0.00  0.00    -0.024 C 
ATOM      4  C   LIG d   1       3.936  -0.696  -1.950  0.00  0.00    -0.031 C 
ATOM      5  C   LIG d   1       4.744  -1.911  -2.417  0.00  0.00    -0.009 C 
ATOM      6  C   LIG d   1       5.182  -1.688  -3.869  0.00  0.00    -0.019 C 
ATOM      7  H   LIG d   1       5.760  -2.537  -4.233  0.00  0.00     0.031 H 
ATOM      8  C   LIG d   1       3.929  -1.493  -4.733  0.00  0.00    -0.005 C 
ATOM      9  C   LIG d   1       3.145  -0.288  -4.203  0.00  0.00    -0.005 C 
ATOM     10  H   LIG d   1       2.148  -0.609  -3.900  0.00  0.00     0.087 H 
ATOM     11  H   LIG d   1       5.669   1.212  -2.558  0.00  0.00     0.082 H 
ATOM     12  H   LIG d   1       5.087   1.512  -4.214  0.00  0.00     0.082 H 
ATOM     13  H   LIG d   1       4.429  -0.239  -1.093  0.00  0.00     0.081 H 
ATOM     14  H   LIG d   1       2.933  -1.014  -1.667  0.00  0.00     0.081 H 
ATOM     15  H   LIG d   1       4.124  -2.806  -2.355  0.00  0.00     0.032 H 
ATOM     16  H   LIG d   1       5.623  -2.031  -1.784  0.00  0.00     0.032 H 
ATOM     17  H   LIG d   1       3.307  -2.385  -4.682  0.00  0.00     0.032 H 
ATOM     18  H   LIG d   1       4.224  -1.309  -5.767  0.00  0.00     0.032 H 
ATOM     19  N   LIG d   1       3.834   0.302  -3.036  0.00  0.00     0.239 N 
ATOM     20  H   LIG d   1       3.290   1.105  -2.699  0.00  0.00     0.204 HD
ENDROOT
BRANCH   1  21
ATOM     21  C   LIG d   1       6.449  -0.147  -5.381  0.00  0.00    -0.024 C 
ATOM     22  H   LIG d   1       6.792   0.883  -5.479  0.00  0.00     0.082 H 
ATOM     23  H   LIG d   1       5.600  -0.313  -6.044  0.00  0.00     0.082 H 
BRANCH  21  24
ATOM     24  N   LIG d   1       7.560  -1.062  -5.722  0.00  0.00     0.234 N 
ATOM     25  H   LIG d   1       7.446  -1.936  -5.196  0.00  0.00     0.203 HD
BRANCH  24  26
ATOM     26  C   LIG d   1       8.852  -0.444  -5.355  0.00  0.00    -0.043 C 
ATOM     27  H   LIG d   1       8.680   0.590  -5.057  0.00  0.00     0.078 H 
ATOM     28  H   LIG d   1       9.281  -0.996  -4.518  0.00  0.00     0.078 H 
ATOM     29  H   LIG d   1       9.541  -0.470  -6.199  0.00  0.00     0.078 H 
ENDBRANCH  24  26
BRANCH  24  30
ATOM     30  C   LIG d   1       7.537  -1.365  -7.168  0.00  0.00    -0.027 C 
ATOM     31  H   LIG d   1       8.373  -0.860  -7.652  0.00  0.00     0.082 H 
ATOM     32  H   LIG d   1       7.616  -2.440  -7.335  0.00  0.00     0.082 H 
BRANCH  30  33
ATOM     33  C   LIG d   1       6.221  -0.853  -7.759  0.00  0.00     0.030 C 
ATOM     34  H   LIG d   1       5.601  -0.444  -6.962  0.00  0.00     0.038 H 
ATOM     35  H   LIG d   1       6.431  -0.075  -8.493  0.00  0.00     0.038 H 
BRANCH  33  36
ATOM     36  C   LIG d   1       5.494  -1.992  -8.427  0.00  0.00     0.046 A 
ATOM     37  N   LIG d   1       4.553  -2.640  -7.769  0.00  0.00    -0.260 NA
ATOM     38  C   LIG d   1       3.891  -3.642  -8.313  0.00  0.00     0.028 A 
ATOM     39  C   LIG d   1       4.164  -4.051  -9.605  0.00  0.00    -0.044 A 
ATOM     40  H   LIG d   1       3.127  -4.149  -7.743  0.00  0.00     0.083 H 
ATOM     41  C   LIG d   1       5.147  -3.392 -10.329  0.00  0.00    -0.059 A 
ATOM     42  H   LIG d   1       3.618  -4.872 -10.045  0.00  0.00     0.063 H 
ATOM     43  C   LIG d   1       5.817  -2.341  -9.725  0.00  0.00    -0.040 A 
ATOM     44  H   LIG d   1       5.382  -3.690 -11.340  0.00  0.00     0.062 H 
ATOM     45  H   LIG d   1       6.585  -1.802 -10.261  0.00  0.00     0.064 H 
ENDBRANCH  33  36
ENDBRANCH  30  33
ENDBRANCH  24  30
ENDBRANCH  21  24
ENDBRANCH   1  21
BRANCH   9  46
ATOM     46  C   LIG d   1       3.030   0.770  -5.301  0.00  0.00     0.055 C 
ATOM     47  H   LIG d   1       2.152   1.389  -5.117  0.00  0.00     0.052 H 
ATOM     48  H   LIG d   1       3.922   1.395  -5.299  0.00  0.00     0.052 H 
BRANCH  46  49
ATOM     49  N   LIG d   1       2.898   0.110  -6.602  0.00  0.00    -0.306 N 
ATOM     50  C   LIG d   1       2.836   0.848  -7.729  0.00  0.00     0.244 C 
ATOM     51  O   LIG d   1       2.889   2.061  -7.665  0.00  0.00    -0.270 OA
ATOM     52  H   LIG d   1       2.856  -0.858  -6.654  0.00  0.00     0.149 HD
BRANCH  50  53
ATOM     53  C   LIG d   1       2.704   0.182  -9.042  0.00  0.00     0.037 A 
ATOM     54  C   LIG d   1       1.765  -0.836  -9.220  0.00  0.00    -0.049 A 
ATOM     55  C   LIG d   1       1.646  -1.453 -10.448  0.00  0.00    -0.049 A 
ATOM     56  H   LIG d   1       1.134  -1.140  -8.397  0.00  0.00     0.062 H 
ATOM     57  C   LIG d   1       2.453  -1.064 -11.503  0.00  0.00     0.055 A 
ATOM     58  H   LIG d   1       0.919  -2.240 -10.587  0.00  0.00     0.062 H 
ATOM     59  C   LIG d   1       3.384  -0.056 -11.333  0.00  0.00    -0.049 A 
ATOM     60  C   LIG d   1       3.511   0.573 -10.112  0.00  0.00    -0.049 A 
ATOM     61  H   LIG d   1       4.011   0.243 -12.159  0.00  0.00     0.062 H 
ATOM     62  H   LIG d   1       4.236   1.362  -9.981  0.00  0.00     0.062 H 
BRANCH  57  63
ATOM     63  C   LIG d   1       2.316  -1.742 -12.841  0.00  0.00     0.417 C 
ATOM     64  F   LIG d   1       0.969  -1.762 -13.219  0.00  0.00    -0.166 F 
ATOM     65  F   LIG d   1       3.057  -1.040 -13.798  0.00  0.00    -0.166 F 
ATOM     66  F   LIG d   1       2.795  -3.054 -12.751  0.00  0.00    -0.166 F 
ENDBRANCH  57  63
ENDBRANCH  50  53
ENDBRANCH  46  49
ENDBRANCH   9  46
TORSDOF 10
ENDMDL
MODEL 7
REMARK VINA RESULT:      -6.6      4.233      9.360
REMARK  10 active torsions:
REMARK  status: ('A' for Active; 'I' for Inactive)
REMARK    1  A    between atoms: C_1  and  N_63 
REMARK    2  A    between atoms: C_2  and  C_3 
REMARK    3  A    between atoms: C_2  and  N_63 
REMARK    4  A    between atoms: C_3  and  C_4 
REMARK    5  A    between atoms: C_10  and  C_11 
REMARK    6  A    between atoms: C_10  and  N_63 
REMARK    7  A    between atoms: C_19  and  C_21 
REMARK    8  A    between atoms: C_21  and  N_22 
REMARK       I    between atoms: N_22  and  C_23 
REMARK    9  A    between atoms: C_23  and  C_25 
REMARK   10  A    between atoms: C_28  and  C_31 
ROOT
ATOM      1  C   LIG d   1      11.624   6.126  -3.795  0.00  0.00     0.042 C 
ATOM      2  H   LIG d   1      12.320   6.941  -3.600  0.00  0.00     0.041 H 
ATOM      3  C   LIG d   1      12.013   5.419  -5.097  0.00  0.00    -0.024 C 
ATOM      4  C   LIG d   1      10.607   6.909  -6.391  0.00  0.00    -0.031 C 
ATOM      5  C   LIG d   1      10.179   7.658  -5.125  0.00  0.00    -0.009 C 
ATOM      6  C   LIG d   1      10.203   6.685  -3.941  0.00  0.00    -0.019 C 
ATOM      7  H   LIG d   1       9.901   7.187  -3.022  0.00  0.00     0.031 H 
ATOM      8  C   LIG d   1       9.249   5.522  -4.244  0.00  0.00    -0.005 C 
ATOM      9  C   LIG d   1       9.704   4.832  -5.533  0.00  0.00    -0.005 C 
ATOM     10  H   LIG d   1       8.906   4.885  -6.275  0.00  0.00     0.087 H 
ATOM     11  H   LIG d   1      12.896   5.899  -5.520  0.00  0.00     0.082 H 
ATOM     12  H   LIG d   1      12.232   4.372  -4.891  0.00  0.00     0.082 H 
ATOM     13  H   LIG d   1      11.499   7.377  -6.806  0.00  0.00     0.081 H 
ATOM     14  H   LIG d   1       9.802   6.944  -7.125  0.00  0.00     0.081 H 
ATOM     15  H   LIG d   1       9.169   8.049  -5.257  0.00  0.00     0.032 H 
ATOM     16  H   LIG d   1      10.867   8.481  -4.936  0.00  0.00     0.032 H 
ATOM     17  H   LIG d   1       8.237   5.904  -4.372  0.00  0.00     0.032 H 
ATOM     18  H   LIG d   1       9.271   4.807  -3.421  0.00  0.00     0.032 H 
ATOM     19  N   LIG d   1      10.908   5.496  -6.076  0.00  0.00     0.239 N 
ATOM     20  H   LIG d   1      11.193   5.017  -6.938  0.00  0.00     0.204 HD
ENDROOT
BRANCH   1  21
ATOM     21  C   LIG d   1      11.666   5.127  -2.637  0.00  0.00    -0.024 C 
ATOM     22  H   LIG d   1      12.355   4.318  -2.879  0.00  0.00     0.082 H 
ATOM     23  H   LIG d   1      10.669   4.719  -2.473  0.00  0.00     0.082 H 
BRANCH  21  24
ATOM     24  N   LIG d   1      12.145   5.826  -1.425  0.00  0.00     0.234 N 
ATOM     25  H   LIG d   1      11.989   6.835  -1.538  0.00  0.00     0.203 HD
BRANCH  24  26
ATOM     26  C   LIG d   1      13.591   5.580  -1.241  0.00  0.00    -0.043 C 
ATOM     27  H   LIG d   1      14.112   6.537  -1.198  0.00  0.00     0.078 H 
ATOM     28  H   LIG d   1      13.740   5.044  -0.302  0.00  0.00     0.078 H 
ATOM     29  H   LIG d   1      13.986   4.987  -2.064  0.00  0.00     0.078 H 
ENDBRANCH  24  26
BRANCH  24  30
ATOM     30  C   LIG d   1      11.397   5.354  -0.241  0.00  0.00    -0.027 C 
ATOM     31  H   LIG d   1      10.367   5.144  -0.531  0.00  0.00     0.082 H 
ATOM     32  H   LIG d   1      11.853   4.450   0.164  0.00  0.00     0.082 H 
BRANCH  30  33
ATOM     33  C   LIG d   1      11.412   6.454   0.822  0.00  0.00     0.030 C 
ATOM     34  H   LIG d   1      10.896   6.103   1.715  0.00  0.00     0.038 H 
ATOM     35  H   LIG d   1      12.444   6.703   1.073  0.00  0.00     0.038 H 
BRANCH  33  36
ATOM     36  C   LIG d   1      10.716   7.679   0.288  0.00  0.00     0.046 A 
ATOM     37  N   LIG d   1       9.693   7.541  -0.532  0.00  0.00    -0.260 NA
ATOM     38  C   LIG d   1       9.053   8.585  -1.024  0.00  0.00     0.028 A 
ATOM     39  C   LIG d   1       9.439   9.870  -0.694  0.00  0.00    -0.044 A 
ATOM     40  H   LIG d   1       8.219   8.432  -1.692  0.00  0.00     0.083 H 
ATOM     41  C   LIG d   1      10.511  10.054   0.166  0.00  0.00    -0.059 A 
ATOM     42  H   LIG d   1       8.911  10.721  -1.100  0.00  0.00     0.063 H 
ATOM     43  C   LIG d   1      11.154   8.934   0.668  0.00  0.00    -0.040 A 
ATOM     44  H   LIG d   1      10.834  11.047   0.441  0.00  0.00     0.062 H 
ATOM     45  H   LIG d   1      11.990   9.040   1.344  0.00  0.00     0.064 H 
ENDBRANCH  33  36
ENDBRANCH  30  33
ENDBRANCH  24  30
ENDBRANCH  21  24
ENDBRANCH   1  21
BRANCH   9  46
ATOM     46  C   LIG d   1      10.033   3.367  -5.240  0.00  0.00     0.055 C 
ATOM     47  H   LIG d   1      10.321   2.868  -6.165  0.00  0.00     0.052 H 
ATOM     48  H   LIG d   1      10.855   3.315  -4.527  0.00  0.00     0.052 H 
BRANCH  46  49
ATOM     49  N   LIG d   1       8.854   2.706  -4.675  0.00  0.00    -0.306 N 
ATOM     50  C   LIG d   1       8.800   1.360  -4.615  0.00  0.00     0.244 C 
ATOM     51  O   LIG d   1       9.729   0.696  -5.030  0.00  0.00    -0.270 OA
ATOM     52  H   LIG d   1       8.112   3.236  -4.344  0.00  0.00     0.149 HD
BRANCH  50  53
ATOM     53  C   LIG d   1       7.610   0.693  -4.045  0.00  0.00     0.037 A 
ATOM     54  C   LIG d   1       6.587   1.453  -3.475  0.00  0.00    -0.049 A 
ATOM     55  C   LIG d   1       5.479   0.824  -2.945  0.00  0.00    -0.049 A 
ATOM     56  H   LIG d   1       6.663   2.530  -3.448  0.00  0.00     0.062 H 
ATOM     57  C   LIG d   1       5.380  -0.556  -2.979  0.00  0.00     0.055 A 
ATOM     58  H   LIG d   1       4.687   1.411  -2.504  0.00  0.00     0.062 H 
ATOM     59  C   LIG d   1       6.391  -1.314  -3.543  0.00  0.00    -0.049 A 
ATOM     60  C   LIG d   1       7.502  -0.698  -4.081  0.00  0.00    -0.049 A 
ATOM     61  H   LIG d   1       6.308  -2.390  -3.567  0.00  0.00     0.062 H 
ATOM     62  H   LIG d   1       8.288  -1.290  -4.524  0.00  0.00     0.062 H 
BRANCH  57  63
ATOM     63  C   LIG d   1       4.167  -1.235  -2.399  0.00  0.00     0.417 C 
ATOM     64  F   LIG d   1       3.113  -0.319  -2.319  0.00  0.00    -0.166 F 
ATOM     65  F   LIG d   1       3.793  -2.304  -3.221  0.00  0.00    -0.166 F 
ATOM     66  F   LIG d   1       4.467  -1.715  -1.120  0.00  0.00    -0.166 F 
ENDBRANCH  57  63
ENDBRANCH  50  53
ENDBRANCH  46  49
ENDBRANCH   9  46
TORSDOF 10
ENDMDL
MODEL 8
REMARK VINA RESULT:      -6.6      4.426      6.984
REMARK  10 active torsions:
REMARK  status: ('A' for Active; 'I' for Inactive)
REMARK    1  A    between atoms: C_1  and  N_63 
REMARK    2  A    between atoms: C_2  and  C_3 
REMARK    3  A    between atoms: C_2  and  N_63 
REMARK    4  A    between atoms: C_3  and  C_4 
REMARK    5  A    between atoms: C_10  and  C_11 
REMARK    6  A    between atoms: C_10  and  N_63 
REMARK    7  A    between atoms: C_19  and  C_21 
REMARK    8  A    between atoms: C_21  and  N_22 
REMARK       I    between atoms: N_22  and  C_23 
REMARK    9  A    between atoms: C_23  and  C_25 
REMARK   10  A    between atoms: C_28  and  C_31 
ROOT
ATOM      1  C   LIG d   1      10.365   1.062  -4.646  0.00  0.00     0.042 C 
ATOM      2  H   LIG d   1      10.880   0.436  -3.918  0.00  0.00     0.041 H 
ATOM      3  C   LIG d   1      11.378   1.628  -5.645  0.00  0.00    -0.024 C 
ATOM      4  C   LIG d   1      11.745   3.577  -4.253  0.00  0.00    -0.031 C 
ATOM      5  C   LIG d   1      10.742   3.065  -3.215  0.00  0.00    -0.009 C 
ATOM      6  C   LIG d   1       9.674   2.227  -3.927  0.00  0.00    -0.019 C 
ATOM      7  H   LIG d   1       8.942   1.847  -3.215  0.00  0.00     0.031 H 
ATOM      8  C   LIG d   1       8.981   3.107  -4.976  0.00  0.00    -0.005 C 
ATOM      9  C   LIG d   1      10.033   3.617  -5.966  0.00  0.00    -0.005 C 
ATOM     10  H   LIG d   1      10.053   4.707  -5.946  0.00  0.00     0.087 H 
ATOM     11  H   LIG d   1      12.376   1.270  -5.392  0.00  0.00     0.082 H 
ATOM     12  H   LIG d   1      11.118   1.301  -6.652  0.00  0.00     0.082 H 
ATOM     13  H   LIG d   1      12.740   3.206  -4.011  0.00  0.00     0.081 H 
ATOM     14  H   LIG d   1      11.750   4.667  -4.248  0.00  0.00     0.081 H 
ATOM     15  H   LIG d   1      10.270   3.912  -2.715  0.00  0.00     0.032 H 
ATOM     16  H   LIG d   1      11.259   2.449  -2.479  0.00  0.00     0.032 H 
ATOM     17  H   LIG d   1       8.502   3.953  -4.485  0.00  0.00     0.032 H 
ATOM     18  H   LIG d   1       8.233   2.520  -5.509  0.00  0.00     0.032 H 
ATOM     19  N   LIG d   1      11.373   3.106  -5.604  0.00  0.00     0.239 N 
ATOM     20  H   LIG d   1      12.058   3.461  -6.281  0.00  0.00     0.204 HD
ENDROOT
BRANCH   1  21
ATOM     21  C   LIG d   1       9.321   0.228  -5.392  0.00  0.00    -0.024 C 
ATOM     22  H   LIG d   1       9.737  -0.113  -6.339  0.00  0.00     0.082 H 
ATOM     23  H   LIG d   1       8.437   0.837  -5.580  0.00  0.00     0.082 H 
BRANCH  21  24
ATOM     24  N   LIG d   1       8.973  -0.947  -4.564  0.00  0.00     0.234 N 
ATOM     25  H   LIG d   1       9.297  -0.785  -3.603  0.00  0.00     0.203 HD
BRANCH  24  26
ATOM     26  C   LIG d   1       9.638  -2.154  -5.098  0.00  0.00    -0.043 C 
ATOM     27  H   LIG d   1       9.688  -2.909  -4.314  0.00  0.00     0.078 H 
ATOM     28  H   LIG d   1       9.052  -2.539  -5.934  0.00  0.00     0.078 H 
ATOM     29  H   LIG d   1      10.645  -1.917  -5.440  0.00  0.00     0.078 H 
ENDBRANCH  24  26
BRANCH  24  30
ATOM     30  C   LIG d   1       7.508  -1.140  -4.551  0.00  0.00    -0.027 C 
ATOM     31  H   LIG d   1       7.120  -0.987  -5.558  0.00  0.00     0.082 H 
ATOM     32  H   LIG d   1       7.258  -2.147  -4.214  0.00  0.00     0.082 H 
BRANCH  30  33
ATOM     33  C   LIG d   1       6.884  -0.114  -3.602  0.00  0.00     0.030 C 
ATOM     34  H   LIG d   1       7.357  -0.190  -2.624  0.00  0.00     0.038 H 
ATOM     35  H   LIG d   1       7.034   0.889  -4.002  0.00  0.00     0.038 H 
BRANCH  33  36
ATOM     36  C   LIG d   1       5.408  -0.387  -3.469  0.00  0.00     0.046 A 
ATOM     37  N   LIG d   1       4.546   0.346  -4.148  0.00  0.00    -0.260 NA
ATOM     38  C   LIG d   1       3.246   0.143  -4.063  0.00  0.00     0.028 A 
ATOM     39  C   LIG d   1       2.737  -0.852  -3.250  0.00  0.00    -0.044 A 
ATOM     40  H   LIG d   1       2.571   0.763  -4.634  0.00  0.00     0.083 H 
ATOM     41  C   LIG d   1       3.613  -1.642  -2.520  0.00  0.00    -0.059 A 
ATOM     42  H   LIG d   1       1.671  -1.012  -3.184  0.00  0.00     0.063 H 
ATOM     43  C   LIG d   1       4.972  -1.404  -2.640  0.00  0.00    -0.040 A 
ATOM     44  H   LIG d   1       3.244  -2.427  -1.877  0.00  0.00     0.062 H 
ATOM     45  H   LIG d   1       5.684  -2.004  -2.091  0.00  0.00     0.064 H 
ENDBRANCH  33  36
ENDBRANCH  30  33
ENDBRANCH  24  30
ENDBRANCH  21  24
ENDBRANCH   1  21
BRANCH   9  46
ATOM     46  C   LIG d   1       9.682   3.138  -7.376  0.00  0.00     0.055 C 
ATOM     47  H   LIG d   1       9.656   3.992  -8.053  0.00  0.00     0.052 H 
ATOM     48  H   LIG d   1      10.433   2.427  -7.717  0.00  0.00     0.052 H 
BRANCH  46  49
ATOM     49  N   LIG d   1       8.369   2.489  -7.357  0.00  0.00    -0.306 N 
ATOM     50  C   LIG d   1       7.721   2.245  -8.515  0.00  0.00     0.244 C 
ATOM     51  O   LIG d   1       8.227   2.564  -9.573  0.00  0.00    -0.270 OA
ATOM     52  H   LIG d   1       7.964   2.235  -6.513  0.00  0.00     0.149 HD
BRANCH  50  53
ATOM     53  C   LIG d   1       6.396   1.590  -8.496  0.00  0.00     0.037 A 
ATOM     54  C   LIG d   1       5.330   2.147  -9.204  0.00  0.00    -0.049 A 
ATOM     55  C   LIG d   1       4.096   1.530  -9.183  0.00  0.00    -0.049 A 
ATOM     56  H   LIG d   1       5.470   3.059  -9.765  0.00  0.00     0.062 H 
ATOM     57  C   LIG d   1       3.914   0.362  -8.464  0.00  0.00     0.055 A 
ATOM     58  H   LIG d   1       3.269   1.960  -9.730  0.00  0.00     0.062 H 
ATOM     59  C   LIG d   1       4.968  -0.195  -7.761  0.00  0.00    -0.049 A 
ATOM     60  C   LIG d   1       6.208   0.408  -7.777  0.00  0.00    -0.049 A 
ATOM     61  H   LIG d   1       4.820  -1.106  -7.202  0.00  0.00     0.062 H 
ATOM     62  H   LIG d   1       7.030  -0.030  -7.231  0.00  0.00     0.062 H 
BRANCH  57  63
ATOM     63  C   LIG d   1       2.563  -0.306  -8.447  0.00  0.00     0.417 C 
ATOM     64  F   LIG d   1       2.714  -1.672  -8.710  0.00  0.00    -0.166 F 
ATOM     65  F   LIG d   1       1.976  -0.136  -7.188  0.00  0.00    -0.166 F 
ATOM     66  F   LIG d   1       1.745   0.271  -9.424  0.00  0.00    -0.166 F 
ENDBRANCH  57  63
ENDBRANCH  50  53
ENDBRANCH  46  49
ENDBRANCH   9  46
TORSDOF 10
ENDMDL
MODEL 9
REMARK VINA RESULT:      -6.5      4.295      9.484
REMARK  10 active torsions:
REMARK  status: ('A' for Active; 'I' for Inactive)
REMARK    1  A    between atoms: C_1  and  N_63 
REMARK    2  A    between atoms: C_2  and  C_3 
REMARK    3  A    between atoms: C_2  and  N_63 
REMARK    4  A    between atoms: C_3  and  C_4 
REMARK    5  A    between atoms: C_10  and  C_11 
REMARK    6  A    between atoms: C_10  and  N_63 
REMARK    7  A    between atoms: C_19  and  C_21 
REMARK    8  A    between atoms: C_21  and  N_22 
REMARK       I    between atoms: N_22  and  C_23 
REMARK    9  A    between atoms: C_23  and  C_25 
REMARK   10  A    between atoms: C_28  and  C_31 
ROOT
ATOM      1  C   LIG d   1      10.956   5.951  -3.501  0.00  0.00     0.042 C 
ATOM      2  H   LIG d   1      11.385   6.952  -3.440  0.00  0.00     0.041 H 
ATOM      3  C   LIG d   1      12.046   4.949  -3.894  0.00  0.00    -0.024 C 
ATOM      4  C   LIG d   1      11.575   5.277  -6.248  0.00  0.00    -0.031 C 
ATOM      5  C   LIG d   1      10.473   6.289  -5.921  0.00  0.00    -0.009 C 
ATOM      6  C   LIG d   1       9.853   5.927  -4.566  0.00  0.00    -0.019 C 
ATOM      7  H   LIG d   1       9.062   6.629  -4.304  0.00  0.00     0.031 H 
ATOM      8  C   LIG d   1       9.288   4.503  -4.652  0.00  0.00    -0.005 C 
ATOM      9  C   LIG d   1      10.424   3.541  -5.013  0.00  0.00    -0.005 C 
ATOM     10  H   LIG d   1      10.191   3.041  -5.953  0.00  0.00     0.087 H 
ATOM     11  H   LIG d   1      12.993   5.474  -4.019  0.00  0.00     0.082 H 
ATOM     12  H   LIG d   1      12.147   4.197  -3.112  0.00  0.00     0.082 H 
ATOM     13  H   LIG d   1      12.526   5.797  -6.357  0.00  0.00     0.081 H 
ATOM     14  H   LIG d   1      11.333   4.762  -7.177  0.00  0.00     0.081 H 
ATOM     15  H   LIG d   1       9.706   6.255  -6.695  0.00  0.00     0.032 H 
ATOM     16  H   LIG d   1      10.898   7.291  -5.872  0.00  0.00     0.032 H 
ATOM     17  H   LIG d   1       8.516   4.462  -5.420  0.00  0.00     0.032 H 
ATOM     18  H   LIG d   1       8.863   4.220  -3.689  0.00  0.00     0.032 H 
ATOM     19  N   LIG d   1      11.696   4.279  -5.164  0.00  0.00     0.239 N 
ATOM     20  H   LIG d   1      12.440   3.613  -5.406  0.00  0.00     0.204 HD
ENDROOT
BRANCH   1  21
ATOM     21  C   LIG d   1      10.367   5.563  -2.144  0.00  0.00    -0.024 C 
ATOM     22  H   LIG d   1      10.829   4.638  -1.798  0.00  0.00     0.082 H 
ATOM     23  H   LIG d   1       9.291   5.418  -2.243  0.00  0.00     0.082 H 
BRANCH  21  24
ATOM     24  N   LIG d   1      10.658   6.641  -1.174  0.00  0.00     0.234 N 
ATOM     25  H   LIG d   1      11.533   7.105  -1.444  0.00  0.00     0.203 HD
BRANCH  24  26
ATOM     26  C   LIG d   1      10.812   6.072   0.181  0.00  0.00    -0.043 C 
ATOM     27  H   LIG d   1       9.931   6.319   0.773  0.00  0.00     0.078 H 
ATOM     28  H   LIG d   1      10.902   4.987   0.100  0.00  0.00     0.078 H 
ATOM     29  H   LIG d   1      11.701   6.474   0.666  0.00  0.00     0.078 H 
ENDBRANCH  24  26
BRANCH  24  30
ATOM     30  C   LIG d   1       9.565   7.636  -1.183  0.00  0.00    -0.027 C 
ATOM     31  H   LIG d   1       9.012   7.549  -2.118  0.00  0.00     0.082 H 
ATOM     32  H   LIG d   1       8.889   7.469  -0.344  0.00  0.00     0.082 H 
BRANCH  30  33
ATOM     33  C   LIG d   1      10.172   9.036  -1.078  0.00  0.00     0.030 C 
ATOM     34  H   LIG d   1       9.796   9.528  -0.181  0.00  0.00     0.038 H 
ATOM     35  H   LIG d   1      11.258   8.958  -1.022  0.00  0.00     0.038 H 
BRANCH  33  36
ATOM     36  C   LIG d   1       9.788   9.843  -2.291  0.00  0.00     0.046 A 
ATOM     37  N   LIG d   1       8.996  10.889  -2.155  0.00  0.00    -0.260 NA
ATOM     38  C   LIG d   1       8.635  11.624  -3.189  0.00  0.00     0.028 A 
ATOM     39  C   LIG d   1       9.076  11.319  -4.462  0.00  0.00    -0.044 A 
ATOM     40  H   LIG d   1       7.985  12.473  -3.038  0.00  0.00     0.083 H 
ATOM     41  C   LIG d   1       9.911  10.227  -4.644  0.00  0.00    -0.059 A 
ATOM     42  H   LIG d   1       8.777  11.925  -5.305  0.00  0.00     0.063 H 
ATOM     43  C   LIG d   1      10.275   9.482  -3.534  0.00  0.00    -0.040 A 
ATOM     44  H   LIG d   1      10.272   9.965  -5.628  0.00  0.00     0.062 H 
ATOM     45  H   LIG d   1      10.928   8.627  -3.638  0.00  0.00     0.064 H 
ENDBRANCH  33  36
ENDBRANCH  30  33
ENDBRANCH  24  30
ENDBRANCH  21  24
ENDBRANCH   1  21
BRANCH   9  46
ATOM     46  C   LIG d   1      10.581   2.498  -3.905  0.00  0.00     0.055 C 
ATOM     47  H   LIG d   1      11.208   1.681  -4.262  0.00  0.00     0.052 H 
ATOM     48  H   LIG d   1      11.047   2.960  -3.035  0.00  0.00     0.052 H 
BRANCH  46  49
ATOM     49  N   LIG d   1       9.263   1.977  -3.535  0.00  0.00    -0.306 N 
ATOM     50  C   LIG d   1       8.763   0.897  -4.169  0.00  0.00     0.244 C 
ATOM     51  O   LIG d   1       9.406   0.358  -5.049  0.00  0.00    -0.270 OA
ATOM     52  H   LIG d   1       8.750   2.407  -2.834  0.00  0.00     0.149 HD
BRANCH  50  53
ATOM     53  C   LIG d   1       7.433   0.371  -3.796  0.00  0.00     0.037 A 
ATOM     54  C   LIG d   1       6.429   1.242  -3.372  0.00  0.00    -0.049 A 
ATOM     55  C   LIG d   1       5.189   0.744  -3.026  0.00  0.00    -0.049 A 
ATOM     56  H   LIG d   1       6.621   2.304  -3.314  0.00  0.00     0.062 H 
ATOM     57  C   LIG d   1       4.941  -0.615  -3.099  0.00  0.00     0.055 A 
ATOM     58  H   LIG d   1       4.411   1.418  -2.698  0.00  0.00     0.062 H 
ATOM     59  C   LIG d   1       5.932  -1.483  -3.519  0.00  0.00    -0.049 A 
ATOM     60  C   LIG d   1       7.174  -0.999  -3.873  0.00  0.00    -0.049 A 
ATOM     61  H   LIG d   1       5.732  -2.542  -3.574  0.00  0.00     0.062 H 
ATOM     62  H   LIG d   1       7.946  -1.677  -4.204  0.00  0.00     0.062 H 
BRANCH  57  63
ATOM     63  C   LIG d   1       3.584  -1.150  -2.720  0.00  0.00     0.417 C 
ATOM     64  F   LIG d   1       2.821  -0.126  -2.147  0.00  0.00    -0.166 F 
ATOM     65  F   LIG d   1       2.936  -1.631  -3.863  0.00  0.00    -0.166 F 
ATOM     66  F   LIG d   1       3.735  -2.192  -1.798  0.00  0.00    -0.166 F 
ENDBRANCH  57  63
ENDBRANCH  50  53
ENDBRANCH  46  49
ENDBRANCH   9  46
TORSDOF 10
ENDMDL
MODEL 10
REMARK VINA RESULT:      -6.5      5.412      7.582
REMARK  10 active torsions:
REMARK  status: ('A' for Active; 'I' for Inactive)
REMARK    1  A    between atoms: C_1  and  N_63 
REMARK    2  A    between atoms: C_2  and  C_3 
REMARK    3  A    between atoms: C_2  and  N_63 
REMARK    4  A    between atoms: C_3  and  C_4 
REMARK    5  A    between atoms: C_10  and  C_11 
REMARK    6  A    between atoms: C_10  and  N_63 
REMARK    7  A    between atoms: C_19  and  C_21 
REMARK    8  A    between atoms: C_21  and  N_22 
REMARK       I    between atoms: N_22  and  C_23 
REMARK    9  A    between atoms: C_23  and  C_25 
REMARK   10  A    between atoms: C_28  and  C_31 
ROOT
ATOM      1  C   LIG d   1       9.337  -6.882  -4.473  0.00  0.00     0.042 C 
ATOM      2  H   LIG d   1       9.251  -7.942  -4.712  0.00  0.00     0.041 H 
ATOM      3  C   LIG d   1      10.596  -6.307  -5.130  0.00  0.00    -0.024 C 
ATOM      4  C   LIG d   1      11.926  -6.841  -3.176  0.00  0.00    -0.031 C 
ATOM      5  C   LIG d   1      10.705  -7.431  -2.465  0.00  0.00    -0.009 C 
ATOM      6  C   LIG d   1       9.446  -6.704  -2.953  0.00  0.00    -0.019 C 
ATOM      7  H   LIG d   1       8.556  -7.100  -2.464  0.00  0.00     0.031 H 
ATOM      8  C   LIG d   1       9.595  -5.208  -2.645  0.00  0.00    -0.005 C 
ATOM      9  C   LIG d   1      10.847  -4.680  -3.353  0.00  0.00    -0.005 C 
ATOM     10  H   LIG d   1      11.543  -4.284  -2.613  0.00  0.00     0.087 H 
ATOM     11  H   LIG d   1      11.108  -7.095  -5.683  0.00  0.00     0.082 H 
ATOM     12  H   LIG d   1      10.316  -5.506  -5.813  0.00  0.00     0.082 H 
ATOM     13  H   LIG d   1      12.429  -7.623  -3.743  0.00  0.00     0.081 H 
ATOM     14  H   LIG d   1      12.612  -6.427  -2.438  0.00  0.00     0.081 H 
ATOM     15  H   LIG d   1      10.810  -7.297  -1.388  0.00  0.00     0.032 H 
ATOM     16  H   LIG d   1      10.625  -8.494  -2.694  0.00  0.00     0.032 H 
ATOM     17  H   LIG d   1       9.696  -5.065  -1.570  0.00  0.00     0.032 H 
ATOM     18  H   LIG d   1       8.718  -4.672  -3.007  0.00  0.00     0.032 H 
ATOM     19  N   LIG d   1      11.512  -5.767  -4.103  0.00  0.00     0.239 N 
ATOM     20  H   LIG d   1      12.346  -5.388  -4.568  0.00  0.00     0.204 HD
ENDROOT
BRANCH   1  21
ATOM     21  C   LIG d   1       8.104  -6.138  -4.989  0.00  0.00    -0.024 C 
ATOM     22  H   LIG d   1       8.419  -5.280  -5.583  0.00  0.00     0.082 H 
ATOM     23  H   LIG d   1       7.506  -5.796  -4.144  0.00  0.00     0.082 H 
BRANCH  21  24
ATOM     24  N   LIG d   1       7.318  -7.056  -5.841  0.00  0.00     0.234 N 
ATOM     25  H   LIG d   1       7.583  -8.023  -5.622  0.00  0.00     0.203 HD
BRANCH  24  26
ATOM     26  C   LIG d   1       7.604  -6.789  -7.266  0.00  0.00    -0.043 C 
ATOM     27  H   LIG d   1       8.624  -7.104  -7.489  0.00  0.00     0.078 H 
ATOM     28  H   LIG d   1       6.906  -7.361  -7.879  0.00  0.00     0.078 H 
ATOM     29  H   LIG d   1       7.495  -5.727  -7.486  0.00  0.00     0.078 H 
ENDBRANCH  24  26
BRANCH  24  30
ATOM     30  C   LIG d   1       5.875  -6.881  -5.574  0.00  0.00    -0.027 C 
ATOM     31  H   LIG d   1       5.739  -6.564  -4.540  0.00  0.00     0.082 H 
ATOM     32  H   LIG d   1       5.450  -6.132  -6.243  0.00  0.00     0.082 H 
BRANCH  30  33
ATOM     33  C   LIG d   1       5.168  -8.221  -5.793  0.00  0.00     0.030 C 
ATOM     34  H   LIG d   1       4.111  -8.045  -5.992  0.00  0.00     0.038 H 
ATOM     35  H   LIG d   1       5.617  -8.734  -6.643  0.00  0.00     0.038 H 
BRANCH  33  36
ATOM     36  C   LIG d   1       5.312  -9.072  -4.558  0.00  0.00     0.046 A 
ATOM     37  N   LIG d   1       6.493  -9.193  -3.984  0.00  0.00    -0.260 NA
ATOM     38  C   LIG d   1       6.666  -9.927  -2.902  0.00  0.00     0.028 A 
ATOM     39  C   LIG d   1       5.605 -10.603  -2.329  0.00  0.00    -0.044 A 
ATOM     40  H   LIG d   1       7.648 -10.002  -2.460  0.00  0.00     0.083 H 
ATOM     41  C   LIG d   1       4.348 -10.499  -2.905  0.00  0.00    -0.059 A 
ATOM     42  H   LIG d   1       5.754 -11.203  -1.443  0.00  0.00     0.063 H 
ATOM     43  C   LIG d   1       4.204  -9.714  -4.037  0.00  0.00    -0.040 A 
ATOM     44  H   LIG d   1       3.501 -11.016  -2.479  0.00  0.00     0.062 H 
ATOM     45  H   LIG d   1       3.237  -9.606  -4.509  0.00  0.00     0.064 H 
ENDBRANCH  33  36
ENDBRANCH  30  33
ENDBRANCH  24  30
ENDBRANCH  21  24
ENDBRANCH   1  21
BRANCH   9  46
ATOM     46  C   LIG d   1      10.452  -3.570  -4.329  0.00  0.00     0.055 C 
ATOM     47  H   LIG d   1      11.314  -2.931  -4.520  0.00  0.00     0.052 H 
ATOM     48  H   LIG d   1      10.113  -4.013  -5.265  0.00  0.00     0.052 H 
BRANCH  46  49
ATOM     49  N   LIG d   1       9.370  -2.772  -3.747  0.00  0.00    -0.306 N 
ATOM     50  C   LIG d   1       8.450  -2.198  -4.548  0.00  0.00     0.244 C 
ATOM     51  O   LIG d   1       8.519  -2.343  -5.753  0.00  0.00    -0.270 OA
ATOM     52  H   LIG d   1       9.316  -2.656  -2.786  0.00  0.00     0.149 HD
BRANCH  50  53
ATOM     53  C   LIG d   1       7.359  -1.392  -3.961  0.00  0.00     0.037 A 
ATOM     54  C   LIG d   1       7.405   0.002  -4.026  0.00  0.00    -0.049 A 
ATOM     55  C   LIG d   1       6.383   0.748  -3.476  0.00  0.00    -0.049 A 
ATOM     56  H   LIG d   1       8.239   0.495  -4.504  0.00  0.00     0.062 H 
ATOM     57  C   LIG d   1       5.314   0.119  -2.864  0.00  0.00     0.055 A 
ATOM     58  H   LIG d   1       6.417   1.827  -3.526  0.00  0.00     0.062 H 
ATOM     59  C   LIG d   1       5.263  -1.262  -2.797  0.00  0.00    -0.049 A 
ATOM     60  C   LIG d   1       6.275  -2.020  -3.346  0.00  0.00    -0.049 A 
ATOM     61  H   LIG d   1       4.426  -1.747  -2.317  0.00  0.00     0.062 H 
ATOM     62  H   LIG d   1       6.232  -3.098  -3.296  0.00  0.00     0.062 H 
BRANCH  57  63
ATOM     63  C   LIG d   1       4.201   0.942  -2.266  0.00  0.00     0.417 C 
ATOM     64  F   LIG d   1       4.011   2.096  -3.033  0.00  0.00    -0.166 F 
ATOM     65  F   LIG d   1       3.021   0.190  -2.255  0.00  0.00    -0.166 F 
ATOM     66  F   LIG d   1       4.537   1.300  -0.956  0.00  0.00    -0.166 F 
ENDBRANCH  57  63
ENDBRANCH  50  53
ENDBRANCH  46  49
ENDBRANCH   9  46
TORSDOF 10
ENDMDL
