MODEL 1
REMARK VINA RESULT:      -5.5      0.000      0.000
REMARK  14 active torsions:
REMARK  status: ('A' for Active; 'I' for Inactive)
REMARK    1  A    between atoms: C_1  and  C_2 
REMARK    2  A    between atoms: C_2  and  C_3 
REMARK    3  A    between atoms: C_10  and  O_15 
REMARK    4  A    between atoms: C_12  and  C_14 
REMARK    5  A    between atoms: O_15  and  C_16 
REMARK    6  A    between atoms: C_16  and  C_18 
REMARK    7  A    between atoms: C_18  and  C_20 
REMARK    8  A    between atoms: C_18  and  N_22 
REMARK    9  A    between atoms: C_20  and  C_21 
REMARK       I    between atoms: N_22  and  C_23 
REMARK   10  A    between atoms: C_23  and  O_25 
REMARK   11  A    between atoms: O_25  and  C_26 
REMARK   12  A    between atoms: C_26  and  C_27 
REMARK   13  A    between atoms: C_26  and  C_28 
REMARK   14  A    between atoms: C_26  and  C_29 
ROOT
ATOM      1  C   LIG d   1       8.290   0.341  -5.113  0.00  0.00     0.333 C 
ATOM      2  O   LIG d   1       8.743   1.251  -4.461  0.00  0.00    -0.248 OA
ENDROOT
BRANCH   1   3
ATOM      3  O   LIG d   1       8.091  -0.859  -4.543  0.00  0.00    -0.424 OA
BRANCH   3   4
ATOM      4  C   LIG d   1       6.863  -1.093  -4.012  0.00  0.00     0.143 A 
ATOM      5  C   LIG d   1       6.165  -2.267  -4.330  0.00  0.00     0.063 A 
ATOM      6  C   LIG d   1       6.738  -3.263  -5.238  0.00  0.00    -0.027 A 
ATOM      7  C   LIG d   1       4.895  -2.501  -3.775  0.00  0.00     0.143 A 
ATOM      8  C   LIG d   1       6.013  -4.378  -5.509  0.00  0.00     0.027 A 
ATOM      9  C   LIG d   1       4.744  -4.549  -4.916  0.00  0.00     0.338 A 
ATOM     10  H   LIG d   1       6.405  -5.133  -6.174  0.00  0.00     0.069 H 
ATOM     11  O   LIG d   1       4.103  -5.555  -5.165  0.00  0.00    -0.245 OA
ATOM     12  O   LIG d   1       4.225  -3.633  -4.084  0.00  0.00    -0.422 OA
ATOM     13  C   LIG d   1       4.343  -1.564  -2.914  0.00  0.00    -0.015 A 
ATOM     14  C   LIG d   1       5.039  -0.412  -2.607  0.00  0.00    -0.043 A 
ATOM     15  H   LIG d   1       3.368  -1.736  -2.482  0.00  0.00     0.066 H 
ATOM     16  C   LIG d   1       6.292  -0.176  -3.147  0.00  0.00    -0.015 A 
ATOM     17  H   LIG d   1       6.826   0.728  -2.893  0.00  0.00     0.066 H 
BRANCH   6  18
ATOM     18  C   LIG d   1       8.097  -3.055  -5.857  0.00  0.00    -0.029 C 
ATOM     19  H   LIG d   1       8.488  -2.083  -5.556  0.00  0.00     0.031 H 
ATOM     20  H   LIG d   1       8.774  -3.840  -5.521  0.00  0.00     0.031 H 
BRANCH  18  21
ATOM     21  C   LIG d   1       7.976  -3.104  -7.381  0.00  0.00    -0.061 C 
ATOM     22  H   LIG d   1       8.572  -2.303  -7.819  0.00  0.00     0.023 H 
ATOM     23  H   LIG d   1       8.337  -4.066  -7.745  0.00  0.00     0.023 H 
ATOM     24  H   LIG d   1       6.931  -2.977  -7.668  0.00  0.00     0.023 H 
ENDBRANCH  18  21
ENDBRANCH   6  18
BRANCH  14  25
ATOM     25  C   LIG d   1       4.428   0.600  -1.671  0.00  0.00    -0.040 C 
ATOM     26  H   LIG d   1       4.355   1.563  -2.176  0.00  0.00     0.028 H 
ATOM     27  H   LIG d   1       3.433   0.268  -1.377  0.00  0.00     0.028 H 
ATOM     28  H   LIG d   1       5.056   0.700  -0.785  0.00  0.00     0.028 H 
ENDBRANCH  14  25
ENDBRANCH   3   4
ENDBRANCH   1   3
BRANCH   1  29
ATOM     29  C   LIG d   1       7.951   0.549  -6.565  0.00  0.00     0.123 C 
ATOM     30  H   LIG d   1       8.169  -0.361  -7.125  0.00  0.00     0.061 H 
BRANCH  29  31
ATOM     31  C   LIG d   1       8.785   1.704  -7.124  0.00  0.00    -0.027 C 
ATOM     32  H   LIG d   1       8.172   2.303  -7.798  0.00  0.00     0.029 H 
ATOM     33  H   LIG d   1       9.138   2.328  -6.304  0.00  0.00     0.029 H 
BRANCH  31  34
ATOM     34  C   LIG d   1       9.985   1.142  -7.892  0.00  0.00    -0.063 C 
ATOM     35  H   LIG d   1      10.340   0.238  -7.399  0.00  0.00     0.023 H 
ATOM     36  H   LIG d   1       9.683   0.905  -8.913  0.00  0.00     0.023 H 
ATOM     37  H   LIG d   1      10.782   1.884  -7.912  0.00  0.00     0.023 H 
ENDBRANCH  31  34
ENDBRANCH  29  31
BRANCH  29  38
ATOM     38  N   LIG d   1       6.527   0.870  -6.692  0.00  0.00    -0.268 N 
ATOM     39  C   LIG d   1       5.838   0.461  -7.776  0.00  0.00     0.401 C 
ATOM     40  O   LIG d   1       6.397  -0.175  -8.647  0.00  0.00    -0.226 OA
ATOM     41  H   LIG d   1       6.080   1.378  -5.997  0.00  0.00     0.153 HD
BRANCH  39  42
ATOM     42  O   LIG d   1       4.529   0.756  -7.892  0.00  0.00    -0.445 OA
BRANCH  42  43
ATOM     43  C   LIG d   1       3.585  -0.228  -7.391  0.00  0.00     0.107 C 
BRANCH  43  44
ATOM     44  C   LIG d   1       3.165   0.147  -5.969  0.00  0.00    -0.025 C 
ATOM     45  H   LIG d   1       2.262  -0.402  -5.699  0.00  0.00     0.027 H 
ATOM     46  H   LIG d   1       3.966  -0.106  -5.274  0.00  0.00     0.027 H 
ATOM     47  H   LIG d   1       2.966   1.218  -5.919  0.00  0.00     0.027 H 
ENDBRANCH  43  44
BRANCH  43  48
ATOM     48  C   LIG d   1       2.351  -0.258  -8.296  0.00  0.00    -0.025 C 
ATOM     49  H   LIG d   1       2.122  -1.291  -8.562  0.00  0.00     0.027 H 
ATOM     50  H   LIG d   1       1.504   0.178  -7.767  0.00  0.00     0.027 H 
ATOM     51  H   LIG d   1       2.550   0.315  -9.201  0.00  0.00     0.027 H 
ENDBRANCH  43  48
BRANCH  43  52
ATOM     52  C   LIG d   1       4.244  -1.609  -7.381  0.00  0.00    -0.025 C 
ATOM     53  H   LIG d   1       4.009  -2.131  -8.309  0.00  0.00     0.027 H 
ATOM     54  H   LIG d   1       5.325  -1.496  -7.292  0.00  0.00     0.027 H 
ATOM     55  H   LIG d   1       3.868  -2.185  -6.535  0.00  0.00     0.027 H 
ENDBRANCH  43  52
ENDBRANCH  42  43
ENDBRANCH  39  42
ENDBRANCH  29  38
ENDBRANCH   1  29
TORSDOF 14
ENDMDL
MODEL 2
REMARK VINA RESULT:      -5.5      2.385      6.155
REMARK  14 active torsions:
REMARK  status: ('A' for Active; 'I' for Inactive)
REMARK    1  A    between atoms: C_1  and  C_2 
REMARK    2  A    between atoms: C_2  and  C_3 
REMARK    3  A    between atoms: C_10  and  O_15 
REMARK    4  A    between atoms: C_12  and  C_14 
REMARK    5  A    between atoms: O_15  and  C_16 
REMARK    6  A    between atoms: C_16  and  C_18 
REMARK    7  A    between atoms: C_18  and  C_20 
REMARK    8  A    between atoms: C_18  and  N_22 
REMARK    9  A    between atoms: C_20  and  C_21 
REMARK       I    between atoms: N_22  and  C_23 
REMARK   10  A    between atoms: C_23  and  O_25 
REMARK   11  A    between atoms: O_25  and  C_26 
REMARK   12  A    between atoms: C_26  and  C_27 
REMARK   13  A    between atoms: C_26  and  C_28 
REMARK   14  A    between atoms: C_26  and  C_29 
ROOT
ATOM      1  C   LIG d   1       3.720   0.084  -5.020  0.00  0.00     0.333 C 
ATOM      2  O   LIG d   1       2.560   0.289  -4.754  0.00  0.00    -0.248 OA
ENDROOT
BRANCH   1   3
ATOM      3  O   LIG d   1       4.125   0.082  -6.301  0.00  0.00    -0.424 OA
BRANCH   3   4
ATOM      4  C   LIG d   1       3.995  -1.082  -6.987  0.00  0.00     0.143 A 
ATOM      5  C   LIG d   1       3.307  -1.111  -8.210  0.00  0.00     0.063 A 
ATOM      6  C   LIG d   1       2.716   0.105  -8.772  0.00  0.00    -0.027 A 
ATOM      7  C   LIG d   1       3.177  -2.321  -8.913  0.00  0.00     0.143 A 
ATOM      8  C   LIG d   1       2.062   0.011  -9.958  0.00  0.00     0.027 A 
ATOM      9  C   LIG d   1       1.970  -1.236 -10.611  0.00  0.00     0.338 A 
ATOM     10  H   LIG d   1       1.613   0.888 -10.401  0.00  0.00     0.069 H 
ATOM     11  O   LIG d   1       1.381  -1.306 -11.675  0.00  0.00    -0.245 OA
ATOM     12  O   LIG d   1       2.514  -2.346 -10.090  0.00  0.00    -0.422 OA
ATOM     13  C   LIG d   1       3.733  -3.479  -8.389  0.00  0.00    -0.015 A 
ATOM     14  C   LIG d   1       4.408  -3.439  -7.185  0.00  0.00    -0.043 A 
ATOM     15  H   LIG d   1       3.639  -4.413  -8.923  0.00  0.00     0.066 H 
ATOM     16  C   LIG d   1       4.544  -2.250  -6.488  0.00  0.00    -0.015 A 
ATOM     17  H   LIG d   1       5.078  -2.235  -5.549  0.00  0.00     0.066 H 
BRANCH   6  18
ATOM     18  C   LIG d   1       2.830   1.425  -8.053  0.00  0.00    -0.029 C 
ATOM     19  H   LIG d   1       1.833   1.790  -7.804  0.00  0.00     0.031 H 
ATOM     20  H   LIG d   1       3.408   1.292  -7.138  0.00  0.00     0.031 H 
BRANCH  18  21
ATOM     21  C   LIG d   1       3.532   2.439  -8.957  0.00  0.00    -0.061 C 
ATOM     22  H   LIG d   1       2.818   3.202  -9.271  0.00  0.00     0.023 H 
ATOM     23  H   LIG d   1       4.349   2.911  -8.411  0.00  0.00     0.023 H 
ATOM     24  H   LIG d   1       3.929   1.930  -9.836  0.00  0.00     0.023 H 
ENDBRANCH  18  21
ENDBRANCH   6  18
BRANCH  14  25
ATOM     25  C   LIG d   1       5.007  -4.704  -6.625  0.00  0.00    -0.040 C 
ATOM     26  H   LIG d   1       5.375  -4.515  -5.616  0.00  0.00     0.028 H 
ATOM     27  H   LIG d   1       4.247  -5.483  -6.593  0.00  0.00     0.028 H 
ATOM     28  H   LIG d   1       5.833  -5.026  -7.259  0.00  0.00     0.028 H 
ENDBRANCH  14  25
ENDBRANCH   3   4
ENDBRANCH   1   3
BRANCH   1  29
ATOM     29  C   LIG d   1       4.714  -0.170  -3.917  0.00  0.00     0.123 C 
ATOM     30  H   LIG d   1       5.295  -1.063  -4.149  0.00  0.00     0.061 H 
BRANCH  29  31
ATOM     31  C   LIG d   1       3.969  -0.377  -2.596  0.00  0.00    -0.027 C 
ATOM     32  H   LIG d   1       4.432   0.231  -1.819  0.00  0.00     0.029 H 
ATOM     33  H   LIG d   1       2.927  -0.080  -2.716  0.00  0.00     0.029 H 
BRANCH  31  34
ATOM     34  C   LIG d   1       4.036  -1.853  -2.197  0.00  0.00    -0.063 C 
ATOM     35  H   LIG d   1       3.120  -2.355  -2.506  0.00  0.00     0.023 H 
ATOM     36  H   LIG d   1       4.891  -2.322  -2.686  0.00  0.00     0.023 H 
ATOM     37  H   LIG d   1       4.148  -1.931  -1.116  0.00  0.00     0.023 H 
ENDBRANCH  31  34
ENDBRANCH  29  31
BRANCH  29  38
ATOM     38  N   LIG d   1       5.613   0.980  -3.795  0.00  0.00    -0.268 N 
ATOM     39  C   LIG d   1       6.935   0.786  -3.613  0.00  0.00     0.401 C 
ATOM     40  O   LIG d   1       7.380  -0.343  -3.551  0.00  0.00    -0.226 OA
ATOM     41  H   LIG d   1       5.258   1.881  -3.845  0.00  0.00     0.153 HD
BRANCH  39  42
ATOM     42  O   LIG d   1       7.761   1.843  -3.503  0.00  0.00    -0.445 OA
BRANCH  42  43
ATOM     43  C   LIG d   1       8.641   2.112  -4.626  0.00  0.00     0.107 C 
BRANCH  43  44
ATOM     44  C   LIG d   1       7.978   1.633  -5.919  0.00  0.00    -0.025 C 
ATOM     45  H   LIG d   1       7.567   2.487  -6.456  0.00  0.00     0.027 H 
ATOM     46  H   LIG d   1       8.718   1.132  -6.543  0.00  0.00     0.027 H 
ATOM     47  H   LIG d   1       7.174   0.936  -5.678  0.00  0.00     0.027 H 
ENDBRANCH  43  44
BRANCH  43  48
ATOM     48  C   LIG d   1       8.906   3.616  -4.718  0.00  0.00    -0.025 C 
ATOM     49  H   LIG d   1       8.971   3.910  -5.766  0.00  0.00     0.027 H 
ATOM     50  H   LIG d   1       8.090   4.158  -4.239  0.00  0.00     0.027 H 
ATOM     51  H   LIG d   1       9.844   3.852  -4.215  0.00  0.00     0.027 H 
ENDBRANCH  43  48
BRANCH  43  52
ATOM     52  C   LIG d   1       9.965   1.372  -4.427  0.00  0.00    -0.025 C 
ATOM     53  H   LIG d   1      10.697   2.049  -3.986  0.00  0.00     0.027 H 
ATOM     54  H   LIG d   1       9.810   0.522  -3.763  0.00  0.00     0.027 H 
ATOM     55  H   LIG d   1      10.332   1.019  -5.391  0.00  0.00     0.027 H 
ENDBRANCH  43  52
ENDBRANCH  42  43
ENDBRANCH  39  42
ENDBRANCH  29  38
ENDBRANCH   1  29
TORSDOF 14
ENDMDL
MODEL 3
REMARK VINA RESULT:      -5.2      2.244      5.433
REMARK  14 active torsions:
REMARK  status: ('A' for Active; 'I' for Inactive)
REMARK    1  A    between atoms: C_1  and  C_2 
REMARK    2  A    between atoms: C_2  and  C_3 
REMARK    3  A    between atoms: C_10  and  O_15 
REMARK    4  A    between atoms: C_12  and  C_14 
REMARK    5  A    between atoms: O_15  and  C_16 
REMARK    6  A    between atoms: C_16  and  C_18 
REMARK    7  A    between atoms: C_18  and  C_20 
REMARK    8  A    between atoms: C_18  and  N_22 
REMARK    9  A    between atoms: C_20  and  C_21 
REMARK       I    between atoms: N_22  and  C_23 
REMARK   10  A    between atoms: C_23  and  O_25 
REMARK   11  A    between atoms: O_25  and  C_26 
REMARK   12  A    between atoms: C_26  and  C_27 
REMARK   13  A    between atoms: C_26  and  C_28 
REMARK   14  A    between atoms: C_26  and  C_29 
ROOT
ATOM      1  C   LIG d   1       6.426   0.385  -7.392  0.00  0.00     0.333 C 
ATOM      2  O   LIG d   1       6.830   0.451  -8.529  0.00  0.00    -0.248 OA
ENDROOT
BRANCH   1   3
ATOM      3  O   LIG d   1       5.129   0.124  -7.154  0.00  0.00    -0.424 OA
BRANCH   3   4
ATOM      4  C   LIG d   1       4.639  -1.048  -7.633  0.00  0.00     0.143 A 
ATOM      5  C   LIG d   1       3.591  -1.048  -8.566  0.00  0.00     0.063 A 
ATOM      6  C   LIG d   1       3.004   0.206  -9.042  0.00  0.00    -0.027 A 
ATOM      7  C   LIG d   1       3.089  -2.266  -9.058  0.00  0.00     0.143 A 
ATOM      8  C   LIG d   1       1.991   0.139  -9.944  0.00  0.00     0.027 A 
ATOM      9  C   LIG d   1       1.537  -1.118 -10.395  0.00  0.00     0.338 A 
ATOM     10  H   LIG d   1       1.534   1.044 -10.316  0.00  0.00     0.069 H 
ATOM     11  O   LIG d   1       0.628  -1.165 -11.206  0.00  0.00    -0.245 OA
ATOM     12  O   LIG d   1       2.080  -2.264  -9.955  0.00  0.00    -0.422 OA
ATOM     13  C   LIG d   1       3.639  -3.460  -8.613  0.00  0.00    -0.015 A 
ATOM     14  C   LIG d   1       4.670  -3.448  -7.694  0.00  0.00    -0.043 A 
ATOM     15  H   LIG d   1       3.261  -4.400  -8.985  0.00  0.00     0.066 H 
ATOM     16  C   LIG d   1       5.172  -2.252  -7.209  0.00  0.00    -0.015 A 
ATOM     17  H   LIG d   1       5.982  -2.259  -6.494  0.00  0.00     0.066 H 
BRANCH   6  18
ATOM     18  C   LIG d   1       3.509   1.535  -8.543  0.00  0.00    -0.029 C 
ATOM     19  H   LIG d   1       2.746   2.003  -7.921  0.00  0.00     0.031 H 
ATOM     20  H   LIG d   1       4.415   1.383  -7.956  0.00  0.00     0.031 H 
BRANCH  18  21
ATOM     21  C   LIG d   1       3.819   2.443  -9.735  0.00  0.00    -0.061 C 
ATOM     22  H   LIG d   1       4.466   1.913 -10.436  0.00  0.00     0.023 H 
ATOM     23  H   LIG d   1       2.891   2.718 -10.235  0.00  0.00     0.023 H 
ATOM     24  H   LIG d   1       4.324   3.343  -9.385  0.00  0.00     0.023 H 
ENDBRANCH  18  21
ENDBRANCH   6  18
BRANCH  14  25
ATOM     25  C   LIG d   1       5.258  -4.751  -7.218  0.00  0.00    -0.040 C 
ATOM     26  H   LIG d   1       5.217  -5.484  -8.024  0.00  0.00     0.028 H 
ATOM     27  H   LIG d   1       6.296  -4.595  -6.922  0.00  0.00     0.028 H 
ATOM     28  H   LIG d   1       4.688  -5.117  -6.364  0.00  0.00     0.028 H 
ENDBRANCH  14  25
ENDBRANCH   3   4
ENDBRANCH   1   3
BRANCH   1  29
ATOM     29  C   LIG d   1       7.374   0.596  -6.242  0.00  0.00     0.123 C 
ATOM     30  H   LIG d   1       7.407   1.656  -5.987  0.00  0.00     0.061 H 
BRANCH  29  31
ATOM     31  C   LIG d   1       8.774   0.125  -6.640  0.00  0.00    -0.027 C 
ATOM     32  H   LIG d   1       9.018  -0.789  -6.098  0.00  0.00     0.029 H 
ATOM     33  H   LIG d   1       8.800  -0.071  -7.712  0.00  0.00     0.029 H 
BRANCH  31  34
ATOM     34  C   LIG d   1       9.797   1.210  -6.294  0.00  0.00    -0.063 C 
ATOM     35  H   LIG d   1       9.561   1.633  -5.318  0.00  0.00     0.023 H 
ATOM     36  H   LIG d   1      10.795   0.773  -6.269  0.00  0.00     0.023 H 
ATOM     37  H   LIG d   1       9.762   1.995  -7.050  0.00  0.00     0.023 H 
ENDBRANCH  31  34
ENDBRANCH  29  31
BRANCH  29  38
ATOM     38  N   LIG d   1       6.913  -0.171  -5.082  0.00  0.00    -0.268 N 
ATOM     39  C   LIG d   1       6.620   0.462  -3.928  0.00  0.00     0.401 C 
ATOM     40  O   LIG d   1       6.738   1.669  -3.850  0.00  0.00    -0.226 OA
ATOM     41  H   LIG d   1       6.818  -1.134  -5.144  0.00  0.00     0.153 HD
BRANCH  39  42
ATOM     42  O   LIG d   1       6.195  -0.243  -2.863  0.00  0.00    -0.445 OA
BRANCH  42  43
ATOM     43  C   LIG d   1       4.770  -0.219  -2.582  0.00  0.00     0.107 C 
BRANCH  43  44
ATOM     44  C   LIG d   1       4.358  -1.534  -1.919  0.00  0.00    -0.025 C 
ATOM     45  H   LIG d   1       3.404  -1.865  -2.328  0.00  0.00     0.027 H 
ATOM     46  H   LIG d   1       5.118  -2.291  -2.111  0.00  0.00     0.027 H 
ATOM     47  H   LIG d   1       4.259  -1.384  -0.844  0.00  0.00     0.027 H 
ENDBRANCH  43  44
BRANCH  43  48
ATOM     48  C   LIG d   1       4.456   0.946  -1.641  0.00  0.00    -0.025 C 
ATOM     49  H   LIG d   1       3.658   0.654  -0.957  0.00  0.00     0.027 H 
ATOM     50  H   LIG d   1       5.348   1.201  -1.069  0.00  0.00     0.027 H 
ATOM     51  H   LIG d   1       4.137   1.810  -2.224  0.00  0.00     0.027 H 
ENDBRANCH  43  48
BRANCH  43  52
ATOM     52  C   LIG d   1       3.995  -0.041  -3.889  0.00  0.00    -0.025 C 
ATOM     53  H   LIG d   1       3.493  -0.975  -4.144  0.00  0.00     0.027 H 
ATOM     54  H   LIG d   1       3.254   0.749  -3.768  0.00  0.00     0.027 H 
ATOM     55  H   LIG d   1       4.687   0.229  -4.687  0.00  0.00     0.027 H 
ENDBRANCH  43  52
ENDBRANCH  42  43
ENDBRANCH  39  42
ENDBRANCH  29  38
ENDBRANCH   1  29
TORSDOF 14
ENDMDL
MODEL 4
REMARK VINA RESULT:      -5.1      2.080      4.275
REMARK  14 active torsions:
REMARK  status: ('A' for Active; 'I' for Inactive)
REMARK    1  A    between atoms: C_1  and  C_2 
REMARK    2  A    between atoms: C_2  and  C_3 
REMARK    3  A    between atoms: C_10  and  O_15 
REMARK    4  A    between atoms: C_12  and  C_14 
REMARK    5  A    between atoms: O_15  and  C_16 
REMARK    6  A    between atoms: C_16  and  C_18 
REMARK    7  A    between atoms: C_18  and  C_20 
REMARK    8  A    between atoms: C_18  and  N_22 
REMARK    9  A    between atoms: C_20  and  C_21 
REMARK       I    between atoms: N_22  and  C_23 
REMARK   10  A    between atoms: C_23  and  O_25 
REMARK   11  A    between atoms: O_25  and  C_26 
REMARK   12  A    between atoms: C_26  and  C_27 
REMARK   13  A    between atoms: C_26  and  C_28 
REMARK   14  A    between atoms: C_26  and  C_29 
ROOT
ATOM      1  C   LIG d   1       7.692  -2.205  -6.623  0.00  0.00     0.333 C 
ATOM      2  O   LIG d   1       8.596  -2.547  -7.347  0.00  0.00    -0.248 OA
ENDROOT
BRANCH   1   3
ATOM      3  O   LIG d   1       7.933  -1.946  -5.326  0.00  0.00    -0.424 OA
BRANCH   3   4
ATOM      4  C   LIG d   1       7.887  -0.645  -4.939  0.00  0.00     0.143 A 
ATOM      5  C   LIG d   1       6.932  -0.217  -4.005  0.00  0.00     0.063 A 
ATOM      6  C   LIG d   1       5.966  -1.156  -3.429  0.00  0.00    -0.027 A 
ATOM      7  C   LIG d   1       6.893   1.131  -3.609  0.00  0.00     0.143 A 
ATOM      8  C   LIG d   1       5.065  -0.679  -2.532  0.00  0.00     0.027 A 
ATOM      9  C   LIG d   1       5.083   0.686  -2.179  0.00  0.00     0.338 A 
ATOM     10  H   LIG d   1       4.338  -1.343  -2.088  0.00  0.00     0.069 H 
ATOM     11  O   LIG d   1       4.271   1.101  -1.371  0.00  0.00    -0.245 OA
ATOM     12  O   LIG d   1       5.971   1.540  -2.710  0.00  0.00    -0.422 OA
ATOM     13  C   LIG d   1       7.803   2.028  -4.149  0.00  0.00    -0.015 A 
ATOM     14  C   LIG d   1       8.739   1.595  -5.067  0.00  0.00    -0.043 A 
ATOM     15  H   LIG d   1       7.781   3.065  -3.850  0.00  0.00     0.066 H 
ATOM     16  C   LIG d   1       8.787   0.268  -5.459  0.00  0.00    -0.015 A 
ATOM     17  H   LIG d   1       9.528  -0.055  -6.175  0.00  0.00     0.066 H 
BRANCH   6  18
ATOM     18  C   LIG d   1       5.971  -2.610  -3.824  0.00  0.00    -0.029 C 
ATOM     19  H   LIG d   1       6.550  -2.736  -4.739  0.00  0.00     0.031 H 
ATOM     20  H   LIG d   1       6.417  -3.203  -3.026  0.00  0.00     0.031 H 
BRANCH  18  21
ATOM     21  C   LIG d   1       4.534  -3.078  -4.064  0.00  0.00    -0.061 C 
ATOM     22  H   LIG d   1       3.862  -2.219  -4.029  0.00  0.00     0.023 H 
ATOM     23  H   LIG d   1       4.464  -3.553  -5.042  0.00  0.00     0.023 H 
ATOM     24  H   LIG d   1       4.250  -3.793  -3.291  0.00  0.00     0.023 H 
ENDBRANCH  18  21
ENDBRANCH   6  18
BRANCH  14  25
ATOM     25  C   LIG d   1       9.723   2.580  -5.647  0.00  0.00    -0.040 C 
ATOM     26  H   LIG d   1      10.734   2.298  -5.352  0.00  0.00     0.028 H 
ATOM     27  H   LIG d   1       9.647   2.571  -6.734  0.00  0.00     0.028 H 
ATOM     28  H   LIG d   1       9.500   3.579  -5.274  0.00  0.00     0.028 H 
ENDBRANCH  14  25
ENDBRANCH   3   4
ENDBRANCH   1   3
BRANCH   1  29
ATOM     29  C   LIG d   1       6.296  -2.070  -7.171  0.00  0.00     0.123 C 
ATOM     30  H   LIG d   1       5.584  -2.022  -6.346  0.00  0.00     0.061 H 
BRANCH  29  31
ATOM     31  C   LIG d   1       5.974  -3.278  -8.052  0.00  0.00    -0.027 C 
ATOM     32  H   LIG d   1       6.120  -3.013  -9.100  0.00  0.00     0.029 H 
ATOM     33  H   LIG d   1       6.634  -4.105  -7.792  0.00  0.00     0.029 H 
BRANCH  31  34
ATOM     34  C   LIG d   1       4.518  -3.698  -7.832  0.00  0.00    -0.063 C 
ATOM     35  H   LIG d   1       4.416  -4.767  -8.017  0.00  0.00     0.023 H 
ATOM     36  H   LIG d   1       4.229  -3.478  -6.804  0.00  0.00     0.023 H 
ATOM     37  H   LIG d   1       3.874  -3.146  -8.516  0.00  0.00     0.023 H 
ENDBRANCH  31  34
ENDBRANCH  29  31
BRANCH  29  38
ATOM     38  N   LIG d   1       6.202  -0.845  -7.969  0.00  0.00    -0.268 N 
ATOM     39  C   LIG d   1       5.400   0.161  -7.567  0.00  0.00     0.401 C 
ATOM     40  O   LIG d   1       4.755   0.053  -6.543  0.00  0.00    -0.226 OA
ATOM     41  H   LIG d   1       6.717  -0.757  -8.786  0.00  0.00     0.153 HD
BRANCH  39  42
ATOM     42  O   LIG d   1       5.314   1.288  -8.300  0.00  0.00    -0.445 OA
BRANCH  42  43
ATOM     43  C   LIG d   1       4.194   1.392  -9.219  0.00  0.00     0.107 C 
BRANCH  43  44
ATOM     44  C   LIG d   1       3.770   2.856  -9.342  0.00  0.00    -0.025 C 
ATOM     45  H   LIG d   1       4.655   3.484  -9.448  0.00  0.00     0.027 H 
ATOM     46  H   LIG d   1       3.131   2.978 -10.217  0.00  0.00     0.027 H 
ATOM     47  H   LIG d   1       3.221   3.152  -8.448  0.00  0.00     0.027 H 
ENDBRANCH  43  44
BRANCH  43  48
ATOM     48  C   LIG d   1       4.613   0.866 -10.594  0.00  0.00    -0.025 C 
ATOM     49  H   LIG d   1       4.929  -0.174 -10.504  0.00  0.00     0.027 H 
ATOM     50  H   LIG d   1       3.768   0.931 -11.280  0.00  0.00     0.027 H 
ATOM     51  H   LIG d   1       5.440   1.465 -10.976  0.00  0.00     0.027 H 
ENDBRANCH  43  48
BRANCH  43  52
ATOM     52  C   LIG d   1       3.021   0.563  -8.692  0.00  0.00    -0.025 C 
ATOM     53  H   LIG d   1       2.309   0.387  -9.498  0.00  0.00     0.027 H 
ATOM     54  H   LIG d   1       3.390  -0.391  -8.317  0.00  0.00     0.027 H 
ATOM     55  H   LIG d   1       2.529   1.105  -7.884  0.00  0.00     0.027 H 
ENDBRANCH  43  52
ENDBRANCH  42  43
ENDBRANCH  39  42
ENDBRANCH  29  38
ENDBRANCH   1  29
TORSDOF 14
ENDMDL
MODEL 5
REMARK VINA RESULT:      -5.0      2.145      4.676
REMARK  14 active torsions:
REMARK  status: ('A' for Active; 'I' for Inactive)
REMARK    1  A    between atoms: C_1  and  C_2 
REMARK    2  A    between atoms: C_2  and  C_3 
REMARK    3  A    between atoms: C_10  and  O_15 
REMARK    4  A    between atoms: C_12  and  C_14 
REMARK    5  A    between atoms: O_15  and  C_16 
REMARK    6  A    between atoms: C_16  and  C_18 
REMARK    7  A    between atoms: C_18  and  C_20 
REMARK    8  A    between atoms: C_18  and  N_22 
REMARK    9  A    between atoms: C_20  and  C_21 
REMARK       I    between atoms: N_22  and  C_23 
REMARK   10  A    between atoms: C_23  and  O_25 
REMARK   11  A    between atoms: O_25  and  C_26 
REMARK   12  A    between atoms: C_26  and  C_27 
REMARK   13  A    between atoms: C_26  and  C_28 
REMARK   14  A    between atoms: C_26  and  C_29 
ROOT
ATOM      1  C   LIG d   1       7.341  -2.024  -4.277  0.00  0.00     0.333 C 
ATOM      2  O   LIG d   1       7.855  -2.549  -3.318  0.00  0.00    -0.248 OA
ENDROOT
BRANCH   1   3
ATOM      3  O   LIG d   1       6.091  -2.361  -4.638  0.00  0.00    -0.424 OA
BRANCH   3   4
ATOM      4  C   LIG d   1       5.148  -1.386  -4.577  0.00  0.00     0.143 A 
ATOM      5  C   LIG d   1       4.366  -1.086  -5.702  0.00  0.00     0.063 A 
ATOM      6  C   LIG d   1       4.546  -1.810  -6.962  0.00  0.00    -0.027 A 
ATOM      7  C   LIG d   1       3.391  -0.075  -5.629  0.00  0.00     0.143 A 
ATOM      8  C   LIG d   1       3.759  -1.472  -8.015  0.00  0.00     0.027 A 
ATOM      9  C   LIG d   1       2.800  -0.448  -7.872  0.00  0.00     0.338 A 
ATOM     10  H   LIG d   1       3.866  -1.985  -8.959  0.00  0.00     0.069 H 
ATOM     11  O   LIG d   1       2.098  -0.154  -8.824  0.00  0.00    -0.245 OA
ATOM     12  O   LIG d   1       2.639   0.211  -6.714  0.00  0.00    -0.422 OA
ATOM     13  C   LIG d   1       3.212   0.617  -4.440  0.00  0.00    -0.015 A 
ATOM     14  C   LIG d   1       3.988   0.313  -3.339  0.00  0.00    -0.043 A 
ATOM     15  H   LIG d   1       2.465   1.394  -4.375  0.00  0.00     0.066 H 
ATOM     16  C   LIG d   1       4.947  -0.684  -3.402  0.00  0.00    -0.015 A 
ATOM     17  H   LIG d   1       5.543  -0.913  -2.530  0.00  0.00     0.066 H 
BRANCH   6  18
ATOM     18  C   LIG d   1       5.579  -2.901  -7.086  0.00  0.00    -0.029 C 
ATOM     19  H   LIG d   1       6.506  -2.480  -7.477  0.00  0.00     0.031 H 
ATOM     20  H   LIG d   1       5.764  -3.340  -6.106  0.00  0.00     0.031 H 
BRANCH  18  21
ATOM     21  C   LIG d   1       5.068  -3.980  -8.042  0.00  0.00    -0.061 C 
ATOM     22  H   LIG d   1       4.447  -3.520  -8.811  0.00  0.00     0.023 H 
ATOM     23  H   LIG d   1       5.914  -4.482  -8.511  0.00  0.00     0.023 H 
ATOM     24  H   LIG d   1       4.477  -4.709  -7.486  0.00  0.00     0.023 H 
ENDBRANCH  18  21
ENDBRANCH   6  18
BRANCH  14  25
ATOM     25  C   LIG d   1       3.785   1.072  -2.053  0.00  0.00    -0.040 C 
ATOM     26  H   LIG d   1       4.482   1.909  -2.012  0.00  0.00     0.028 H 
ATOM     27  H   LIG d   1       2.763   1.450  -2.011  0.00  0.00     0.028 H 
ATOM     28  H   LIG d   1       3.963   0.408  -1.207  0.00  0.00     0.028 H 
ENDBRANCH  14  25
ENDBRANCH   3   4
ENDBRANCH   1   3
BRANCH   1  29
ATOM     29  C   LIG d   1       8.101  -0.992  -5.069  0.00  0.00     0.123 C 
ATOM     30  H   LIG d   1       7.436  -0.534  -5.802  0.00  0.00     0.061 H 
BRANCH  29  31
ATOM     31  C   LIG d   1       9.272  -1.662  -5.790  0.00  0.00    -0.027 C 
ATOM     32  H   LIG d   1       9.678  -2.456  -5.163  0.00  0.00     0.029 H 
ATOM     33  H   LIG d   1       8.925  -2.085  -6.732  0.00  0.00     0.029 H 
BRANCH  31  34
ATOM     34  C   LIG d   1      10.362  -0.624  -6.067  0.00  0.00    -0.063 C 
ATOM     35  H   LIG d   1       9.903   0.302  -6.411  0.00  0.00     0.023 H 
ATOM     36  H   LIG d   1      10.923  -0.434  -5.151  0.00  0.00     0.023 H 
ATOM     37  H   LIG d   1      11.037  -1.003  -6.834  0.00  0.00     0.023 H 
ENDBRANCH  31  34
ENDBRANCH  29  31
BRANCH  29  38
ATOM     38  N   LIG d   1       8.611   0.040  -4.163  0.00  0.00    -0.268 N 
ATOM     39  C   LIG d   1       8.064   1.272  -4.167  0.00  0.00     0.401 C 
ATOM     40  O   LIG d   1       7.147   1.527  -4.923  0.00  0.00    -0.226 OA
ATOM     41  H   LIG d   1       9.343  -0.163  -3.559  0.00  0.00     0.153 HD
BRANCH  39  42
ATOM     42  O   LIG d   1       8.533   2.220  -3.334  0.00  0.00    -0.445 OA
BRANCH  42  43
ATOM     43  C   LIG d   1       9.682   2.984  -3.785  0.00  0.00     0.107 C 
BRANCH  43  44
ATOM     44  C   LIG d   1      10.959   2.180  -3.537  0.00  0.00    -0.025 C 
ATOM     45  H   LIG d   1      10.849   1.181  -3.961  0.00  0.00     0.027 H 
ATOM     46  H   LIG d   1      11.803   2.683  -4.008  0.00  0.00     0.027 H 
ATOM     47  H   LIG d   1      11.136   2.100  -2.464  0.00  0.00     0.027 H 
ENDBRANCH  43  44
BRANCH  43  48
ATOM     48  C   LIG d   1       9.546   3.273  -5.282  0.00  0.00    -0.025 C 
ATOM     49  H   LIG d   1      10.174   4.125  -5.546  0.00  0.00     0.027 H 
ATOM     50  H   LIG d   1       9.862   2.399  -5.851  0.00  0.00     0.027 H 
ATOM     51  H   LIG d   1       8.506   3.503  -5.515  0.00  0.00     0.027 H 
ENDBRANCH  43  48
BRANCH  43  52
ATOM     52  C   LIG d   1       9.753   4.304  -3.015  0.00  0.00    -0.025 C 
ATOM     53  H   LIG d   1      10.585   4.900  -3.391  0.00  0.00     0.027 H 
ATOM     54  H   LIG d   1       8.822   4.854  -3.150  0.00  0.00     0.027 H 
ATOM     55  H   LIG d   1       9.903   4.098  -1.955  0.00  0.00     0.027 H 
ENDBRANCH  43  52
ENDBRANCH  42  43
ENDBRANCH  39  42
ENDBRANCH  29  38
ENDBRANCH   1  29
TORSDOF 14
ENDMDL
MODEL 6
REMARK VINA RESULT:      -5.0      1.724      5.394
REMARK  14 active torsions:
REMARK  status: ('A' for Active; 'I' for Inactive)
REMARK    1  A    between atoms: C_1  and  C_2 
REMARK    2  A    between atoms: C_2  and  C_3 
REMARK    3  A    between atoms: C_10  and  O_15 
REMARK    4  A    between atoms: C_12  and  C_14 
REMARK    5  A    between atoms: O_15  and  C_16 
REMARK    6  A    between atoms: C_16  and  C_18 
REMARK    7  A    between atoms: C_18  and  C_20 
REMARK    8  A    between atoms: C_18  and  N_22 
REMARK    9  A    between atoms: C_20  and  C_21 
REMARK       I    between atoms: N_22  and  C_23 
REMARK   10  A    between atoms: C_23  and  O_25 
REMARK   11  A    between atoms: O_25  and  C_26 
REMARK   12  A    between atoms: C_26  and  C_27 
REMARK   13  A    between atoms: C_26  and  C_28 
REMARK   14  A    between atoms: C_26  and  C_29 
ROOT
ATOM      1  C   LIG d   1       4.846  -1.980  -4.837  0.00  0.00     0.333 C 
ATOM      2  O   LIG d   1       4.297  -3.056  -4.803  0.00  0.00    -0.248 OA
ENDROOT
BRANCH   1   3
ATOM      3  O   LIG d   1       6.105  -1.855  -4.385  0.00  0.00    -0.424 OA
BRANCH   3   4
ATOM      4  C   LIG d   1       7.033  -1.399  -5.265  0.00  0.00     0.143 A 
ATOM      5  C   LIG d   1       7.647  -0.154  -5.066  0.00  0.00     0.063 A 
ATOM      6  C   LIG d   1       7.304   0.681  -3.912  0.00  0.00    -0.027 A 
ATOM      7  C   LIG d   1       8.608   0.310  -5.981  0.00  0.00     0.143 A 
ATOM      8  C   LIG d   1       7.931   1.878  -3.776  0.00  0.00     0.027 A 
ATOM      9  C   LIG d   1       8.886   2.280  -4.733  0.00  0.00     0.338 A 
ATOM     10  H   LIG d   1       7.701   2.519  -2.938  0.00  0.00     0.069 H 
ATOM     11  O   LIG d   1       9.444   3.355  -4.599  0.00  0.00    -0.245 OA
ATOM     12  O   LIG d   1       9.196   1.510  -5.787  0.00  0.00    -0.422 OA
ATOM     13  C   LIG d   1       8.941  -0.473  -7.077  0.00  0.00    -0.015 A 
ATOM     14  C   LIG d   1       8.330  -1.698  -7.263  0.00  0.00    -0.043 A 
ATOM     15  H   LIG d   1       9.678  -0.125  -7.785  0.00  0.00     0.066 H 
ATOM     16  C   LIG d   1       7.386  -2.163  -6.363  0.00  0.00    -0.015 A 
ATOM     17  H   LIG d   1       6.921  -3.125  -6.521  0.00  0.00     0.066 H 
BRANCH   6  18
ATOM     18  C   LIG d   1       6.279   0.225  -2.905  0.00  0.00    -0.029 C 
ATOM     19  H   LIG d   1       5.738  -0.634  -3.301  0.00  0.00     0.031 H 
ATOM     20  H   LIG d   1       6.780  -0.056  -1.979  0.00  0.00     0.031 H 
BRANCH  18  21
ATOM     21  C   LIG d   1       5.295   1.363  -2.628  0.00  0.00    -0.061 C 
ATOM     22  H   LIG d   1       4.341   1.144  -3.110  0.00  0.00     0.023 H 
ATOM     23  H   LIG d   1       5.144   1.461  -1.553  0.00  0.00     0.023 H 
ATOM     24  H   LIG d   1       5.696   2.296  -3.025  0.00  0.00     0.023 H 
ENDBRANCH  18  21
ENDBRANCH   6  18
BRANCH  14  25
ATOM     25  C   LIG d   1       8.699  -2.539  -8.458  0.00  0.00    -0.040 C 
ATOM     26  H   LIG d   1       8.167  -3.489  -8.411  0.00  0.00     0.028 H 
ATOM     27  H   LIG d   1       8.423  -2.014  -9.372  0.00  0.00     0.028 H 
ATOM     28  H   LIG d   1       9.773  -2.724  -8.455  0.00  0.00     0.028 H 
ENDBRANCH  14  25
ENDBRANCH   3   4
ENDBRANCH   1   3
BRANCH   1  29
ATOM     29  C   LIG d   1       4.120  -0.780  -5.385  0.00  0.00     0.123 C 
ATOM     30  H   LIG d   1       4.766   0.096  -5.322  0.00  0.00     0.061 H 
BRANCH  29  31
ATOM     31  C   LIG d   1       2.850  -0.535  -4.568  0.00  0.00    -0.027 C 
ATOM     32  H   LIG d   1       2.091  -1.265  -4.849  0.00  0.00     0.029 H 
ATOM     33  H   LIG d   1       3.075  -0.636  -3.507  0.00  0.00     0.029 H 
BRANCH  31  34
ATOM     34  C   LIG d   1       2.327   0.876  -4.847  0.00  0.00    -0.063 C 
ATOM     35  H   LIG d   1       2.704   1.219  -5.811  0.00  0.00     0.023 H 
ATOM     36  H   LIG d   1       1.237   0.861  -4.868  0.00  0.00     0.023 H 
ATOM     37  H   LIG d   1       2.666   1.551  -4.062  0.00  0.00     0.023 H 
ENDBRANCH  31  34
ENDBRANCH  29  31
BRANCH  29  38
ATOM     38  N   LIG d   1       3.761  -1.023  -6.784  0.00  0.00    -0.268 N 
ATOM     39  C   LIG d   1       4.363  -0.322  -7.766  0.00  0.00     0.401 C 
ATOM     40  O   LIG d   1       5.204   0.511  -7.490  0.00  0.00    -0.226 OA
ATOM     41  H   LIG d   1       3.091  -1.688  -7.005  0.00  0.00     0.153 HD
BRANCH  39  42
ATOM     42  O   LIG d   1       4.034  -0.546  -9.052  0.00  0.00    -0.445 OA
BRANCH  42  43
ATOM     43  C   LIG d   1       3.092   0.376  -9.662  0.00  0.00     0.107 C 
BRANCH  43  44
ATOM     44  C   LIG d   1       2.774   1.504  -8.678  0.00  0.00    -0.025 C 
ATOM     45  H   LIG d   1       3.340   1.355  -7.758  0.00  0.00     0.027 H 
ATOM     46  H   LIG d   1       3.045   2.461  -9.122  0.00  0.00     0.027 H 
ATOM     47  H   LIG d   1       1.707   1.498  -8.451  0.00  0.00     0.027 H 
ENDBRANCH  43  44
BRANCH  43  48
ATOM     48  C   LIG d   1       3.707   0.968 -10.931  0.00  0.00    -0.025 C 
ATOM     49  H   LIG d   1       3.077   0.724 -11.788  0.00  0.00     0.027 H 
ATOM     50  H   LIG d   1       3.778   2.051 -10.830  0.00  0.00     0.027 H 
ATOM     51  H   LIG d   1       4.703   0.550 -11.082  0.00  0.00     0.027 H 
ENDBRANCH  43  48
BRANCH  43  52
ATOM     52  C   LIG d   1       1.804  -0.369 -10.018  0.00  0.00    -0.025 C 
ATOM     53  H   LIG d   1       2.006  -1.439 -10.069  0.00  0.00     0.027 H 
ATOM     54  H   LIG d   1       1.050  -0.177  -9.255  0.00  0.00     0.027 H 
ATOM     55  H   LIG d   1       1.440  -0.021 -10.985  0.00  0.00     0.027 H 
ENDBRANCH  43  52
ENDBRANCH  42  43
ENDBRANCH  39  42
ENDBRANCH  29  38
ENDBRANCH   1  29
TORSDOF 14
ENDMDL
MODEL 7
REMARK VINA RESULT:      -4.9      3.078      5.736
REMARK  14 active torsions:
REMARK  status: ('A' for Active; 'I' for Inactive)
REMARK    1  A    between atoms: C_1  and  C_2 
REMARK    2  A    between atoms: C_2  and  C_3 
REMARK    3  A    between atoms: C_10  and  O_15 
REMARK    4  A    between atoms: C_12  and  C_14 
REMARK    5  A    between atoms: O_15  and  C_16 
REMARK    6  A    between atoms: C_16  and  C_18 
REMARK    7  A    between atoms: C_18  and  C_20 
REMARK    8  A    between atoms: C_18  and  N_22 
REMARK    9  A    between atoms: C_20  and  C_21 
REMARK       I    between atoms: N_22  and  C_23 
REMARK   10  A    between atoms: C_23  and  O_25 
REMARK   11  A    between atoms: O_25  and  C_26 
REMARK   12  A    between atoms: C_26  and  C_27 
REMARK   13  A    between atoms: C_26  and  C_28 
REMARK   14  A    between atoms: C_26  and  C_29 
ROOT
ATOM      1  C   LIG d   1       5.035  -3.075  -6.551  0.00  0.00     0.333 C 
ATOM      2  O   LIG d   1       4.244  -3.506  -5.746  0.00  0.00    -0.248 OA
ENDROOT
BRANCH   1   3
ATOM      3  O   LIG d   1       4.780  -3.178  -7.866  0.00  0.00    -0.424 OA
BRANCH   3   4
ATOM      4  C   LIG d   1       3.843  -2.340  -8.379  0.00  0.00     0.143 A 
ATOM      5  C   LIG d   1       2.860  -2.827  -9.253  0.00  0.00     0.063 A 
ATOM      6  C   LIG d   1       2.820  -4.241  -9.632  0.00  0.00    -0.027 A 
ATOM      7  C   LIG d   1       1.893  -1.952  -9.779  0.00  0.00     0.143 A 
ATOM      8  C   LIG d   1       1.844  -4.650 -10.483  0.00  0.00     0.027 A 
ATOM      9  C   LIG d   1       0.906  -3.718 -10.973  0.00  0.00     0.338 A 
ATOM     10  H   LIG d   1       1.786  -5.686 -10.784  0.00  0.00     0.069 H 
ATOM     11  O   LIG d   1       0.034  -4.098 -11.735  0.00  0.00    -0.245 OA
ATOM     12  O   LIG d   1       0.948  -2.424 -10.620  0.00  0.00    -0.422 OA
ATOM     13  C   LIG d   1       1.921  -0.611  -9.426  0.00  0.00    -0.015 A 
ATOM     14  C   LIG d   1       2.894  -0.143  -8.565  0.00  0.00    -0.043 A 
ATOM     15  H   LIG d   1       1.182   0.068  -9.825  0.00  0.00     0.066 H 
ATOM     16  C   LIG d   1       3.847  -0.999  -8.040  0.00  0.00    -0.015 A 
ATOM     17  H   LIG d   1       4.598  -0.617  -7.363  0.00  0.00     0.066 H 
BRANCH   6  18
ATOM     18  C   LIG d   1       3.836  -5.215  -9.093  0.00  0.00    -0.029 C 
ATOM     19  H   LIG d   1       4.529  -4.690  -8.435  0.00  0.00     0.031 H 
ATOM     20  H   LIG d   1       3.327  -6.000  -8.533  0.00  0.00     0.031 H 
BRANCH  18  21
ATOM     21  C   LIG d   1       4.611  -5.838 -10.255  0.00  0.00    -0.061 C 
ATOM     22  H   LIG d   1       4.177  -6.807 -10.504  0.00  0.00     0.023 H 
ATOM     23  H   LIG d   1       4.555  -5.182 -11.124  0.00  0.00     0.023 H 
ATOM     24  H   LIG d   1       5.654  -5.971  -9.967  0.00  0.00     0.023 H 
ENDBRANCH  18  21
ENDBRANCH   6  18
BRANCH  14  25
ATOM     25  C   LIG d   1       2.916   1.318  -8.190  0.00  0.00    -0.040 C 
ATOM     26  H   LIG d   1       2.688   1.921  -9.068  0.00  0.00     0.028 H 
ATOM     27  H   LIG d   1       2.170   1.505  -7.417  0.00  0.00     0.028 H 
ATOM     28  H   LIG d   1       3.904   1.581  -7.814  0.00  0.00     0.028 H 
ENDBRANCH  14  25
ENDBRANCH   3   4
ENDBRANCH   1   3
BRANCH   1  29
ATOM     29  C   LIG d   1       6.309  -2.423  -6.080  0.00  0.00     0.123 C 
ATOM     30  H   LIG d   1       6.582  -1.621  -6.767  0.00  0.00     0.061 H 
BRANCH  29  31
ATOM     31  C   LIG d   1       7.431  -3.463  -6.040  0.00  0.00    -0.027 C 
ATOM     32  H   LIG d   1       7.159  -4.314  -6.664  0.00  0.00     0.029 H 
ATOM     33  H   LIG d   1       8.352  -3.018  -6.414  0.00  0.00     0.029 H 
BRANCH  31  34
ATOM     34  C   LIG d   1       7.639  -3.933  -4.599  0.00  0.00    -0.063 C 
ATOM     35  H   LIG d   1       7.861  -5.000  -4.593  0.00  0.00     0.023 H 
ATOM     36  H   LIG d   1       8.472  -3.387  -4.155  0.00  0.00     0.023 H 
ATOM     37  H   LIG d   1       6.734  -3.747  -4.021  0.00  0.00     0.023 H 
ENDBRANCH  31  34
ENDBRANCH  29  31
BRANCH  29  38
ATOM     38  N   LIG d   1       6.107  -1.869  -4.739  0.00  0.00    -0.268 N 
ATOM     39  C   LIG d   1       5.970  -0.539  -4.572  0.00  0.00     0.401 C 
ATOM     40  O   LIG d   1       6.013   0.202  -5.534  0.00  0.00    -0.226 OA
ATOM     41  H   LIG d   1       6.073  -2.460  -3.971  0.00  0.00     0.153 HD
BRANCH  39  42
ATOM     42  O   LIG d   1       5.784  -0.030  -3.339  0.00  0.00    -0.445 OA
BRANCH  42  43
ATOM     43  C   LIG d   1       4.448  -0.133  -2.779  0.00  0.00     0.107 C 
BRANCH  43  44
ATOM     44  C   LIG d   1       4.338  -1.415  -1.953  0.00  0.00    -0.025 C 
ATOM     45  H   LIG d   1       4.404  -1.172  -0.892  0.00  0.00     0.027 H 
ATOM     46  H   LIG d   1       3.383  -1.898  -2.157  0.00  0.00     0.027 H 
ATOM     47  H   LIG d   1       5.151  -2.091  -2.221  0.00  0.00     0.027 H 
ENDBRANCH  43  44
BRANCH  43  48
ATOM     48  C   LIG d   1       4.178   1.076  -1.881  0.00  0.00    -0.025 C 
ATOM     49  H   LIG d   1       3.653   1.843  -2.452  0.00  0.00     0.027 H 
ATOM     50  H   LIG d   1       3.564   0.769  -1.034  0.00  0.00     0.027 H 
ATOM     51  H   LIG d   1       5.124   1.478  -1.517  0.00  0.00     0.027 H 
ENDBRANCH  43  48
BRANCH  43  52
ATOM     52  C   LIG d   1       3.421  -0.166  -3.912  0.00  0.00    -0.025 C 
ATOM     53  H   LIG d   1       2.707   0.647  -3.779  0.00  0.00     0.027 H 
ATOM     54  H   LIG d   1       3.930  -0.049  -4.868  0.00  0.00     0.027 H 
ATOM     55  H   LIG d   1       2.893  -1.119  -3.895  0.00  0.00     0.027 H 
ENDBRANCH  43  52
ENDBRANCH  42  43
ENDBRANCH  39  42
ENDBRANCH  29  38
ENDBRANCH   1  29
TORSDOF 14
ENDMDL
MODEL 8
REMARK VINA RESULT:      -4.9      2.395      4.790
REMARK  14 active torsions:
REMARK  status: ('A' for Active; 'I' for Inactive)
REMARK    1  A    between atoms: C_1  and  C_2 
REMARK    2  A    between atoms: C_2  and  C_3 
REMARK    3  A    between atoms: C_10  and  O_15 
REMARK    4  A    between atoms: C_12  and  C_14 
REMARK    5  A    between atoms: O_15  and  C_16 
REMARK    6  A    between atoms: C_16  and  C_18 
REMARK    7  A    between atoms: C_18  and  C_20 
REMARK    8  A    between atoms: C_18  and  N_22 
REMARK    9  A    between atoms: C_20  and  C_21 
REMARK       I    between atoms: N_22  and  C_23 
REMARK   10  A    between atoms: C_23  and  O_25 
REMARK   11  A    between atoms: O_25  and  C_26 
REMARK   12  A    between atoms: C_26  and  C_27 
REMARK   13  A    between atoms: C_26  and  C_28 
REMARK   14  A    between atoms: C_26  and  C_29 
ROOT
ATOM      1  C   LIG d   1       5.572   0.546  -3.499  0.00  0.00     0.333 C 
ATOM      2  O   LIG d   1       6.176   0.725  -2.468  0.00  0.00    -0.248 OA
ENDROOT
BRANCH   1   3
ATOM      3  O   LIG d   1       6.241   0.437  -4.659  0.00  0.00    -0.424 OA
BRANCH   3   4
ATOM      4  C   LIG d   1       7.535   0.847  -4.664  0.00  0.00     0.143 A 
ATOM      5  C   LIG d   1       8.559  -0.043  -5.021  0.00  0.00     0.063 A 
ATOM      6  C   LIG d   1       8.260  -1.428  -5.393  0.00  0.00    -0.027 A 
ATOM      7  C   LIG d   1       9.897   0.390  -5.025  0.00  0.00     0.143 A 
ATOM      8  C   LIG d   1       9.295  -2.241  -5.726  0.00  0.00     0.027 A 
ATOM      9  C   LIG d   1      10.613  -1.740  -5.709  0.00  0.00     0.338 A 
ATOM     10  H   LIG d   1       9.110  -3.268  -6.004  0.00  0.00     0.069 H 
ATOM     11  O   LIG d   1      11.533  -2.479  -6.012  0.00  0.00    -0.245 OA
ATOM     12  O   LIG d   1      10.880  -0.470  -5.368  0.00  0.00    -0.422 OA
ATOM     13  C   LIG d   1      10.191   1.700  -4.674  0.00  0.00    -0.015 A 
ATOM     14  C   LIG d   1       9.175   2.567  -4.325  0.00  0.00    -0.043 A 
ATOM     15  H   LIG d   1      11.215   2.041  -4.675  0.00  0.00     0.066 H 
ATOM     16  C   LIG d   1       7.855   2.149  -4.323  0.00  0.00    -0.015 A 
ATOM     17  H   LIG d   1       7.072   2.842  -4.052  0.00  0.00     0.066 H 
BRANCH   6  18
ATOM     18  C   LIG d   1       6.841  -1.937  -5.403  0.00  0.00    -0.029 C 
ATOM     19  H   LIG d   1       6.168  -1.142  -5.081  0.00  0.00     0.031 H 
ATOM     20  H   LIG d   1       6.575  -2.253  -6.411  0.00  0.00     0.031 H 
BRANCH  18  21
ATOM     21  C   LIG d   1       6.719  -3.125  -4.447  0.00  0.00    -0.061 C 
ATOM     22  H   LIG d   1       5.847  -3.721  -4.717  0.00  0.00     0.023 H 
ATOM     23  H   LIG d   1       7.615  -3.742  -4.516  0.00  0.00     0.023 H 
ATOM     24  H   LIG d   1       6.607  -2.760  -3.425  0.00  0.00     0.023 H 
ENDBRANCH  18  21
ENDBRANCH   6  18
BRANCH  14  25
ATOM     25  C   LIG d   1       9.507   3.988  -3.945  0.00  0.00    -0.040 C 
ATOM     26  H   LIG d   1       8.604   4.596  -3.990  0.00  0.00     0.028 H 
ATOM     27  H   LIG d   1       9.909   4.009  -2.932  0.00  0.00     0.028 H 
ATOM     28  H   LIG d   1      10.248   4.386  -4.638  0.00  0.00     0.028 H 
ENDBRANCH  14  25
ENDBRANCH   3   4
ENDBRANCH   1   3
BRANCH   1  29
ATOM     29  C   LIG d   1       4.069   0.446  -3.485  0.00  0.00     0.123 C 
ATOM     30  H   LIG d   1       3.638   1.444  -3.402  0.00  0.00     0.061 H 
BRANCH  29  31
ATOM     31  C   LIG d   1       3.624  -0.402  -2.291  0.00  0.00    -0.027 C 
ATOM     32  H   LIG d   1       4.263  -0.186  -1.434  0.00  0.00     0.029 H 
ATOM     33  H   LIG d   1       2.591  -0.164  -2.042  0.00  0.00     0.029 H 
BRANCH  31  34
ATOM     34  C   LIG d   1       3.736  -1.886  -2.648  0.00  0.00    -0.063 C 
ATOM     35  H   LIG d   1       4.784  -2.146  -2.794  0.00  0.00     0.023 H 
ATOM     36  H   LIG d   1       3.322  -2.486  -1.837  0.00  0.00     0.023 H 
ATOM     37  H   LIG d   1       3.180  -2.081  -3.565  0.00  0.00     0.023 H 
ENDBRANCH  31  34
ENDBRANCH  29  31
BRANCH  29  38
ATOM     38  N   LIG d   1       3.611  -0.182  -4.727  0.00  0.00    -0.268 N 
ATOM     39  C   LIG d   1       2.846   0.514  -5.592  0.00  0.00     0.401 C 
ATOM     40  O   LIG d   1       2.538   1.662  -5.343  0.00  0.00    -0.226 OA
ATOM     41  H   LIG d   1       3.857  -1.099  -4.927  0.00  0.00     0.153 HD
BRANCH  39  42
ATOM     42  O   LIG d   1       2.426  -0.063  -6.734  0.00  0.00    -0.445 OA
BRANCH  42  43
ATOM     43  C   LIG d   1       3.144   0.280  -7.949  0.00  0.00     0.107 C 
BRANCH  43  44
ATOM     44  C   LIG d   1       4.644   0.080  -7.728  0.00  0.00    -0.025 C 
ATOM     45  H   LIG d   1       5.190   0.415  -8.610  0.00  0.00     0.027 H 
ATOM     46  H   LIG d   1       4.964   0.658  -6.861  0.00  0.00     0.027 H 
ATOM     47  H   LIG d   1       4.848  -0.977  -7.555  0.00  0.00     0.027 H 
ENDBRANCH  43  44
BRANCH  43  48
ATOM     48  C   LIG d   1       2.673  -0.623  -9.091  0.00  0.00    -0.025 C 
ATOM     49  H   LIG d   1       2.286  -0.007  -9.904  0.00  0.00     0.027 H 
ATOM     50  H   LIG d   1       3.512  -1.217  -9.453  0.00  0.00     0.027 H 
ATOM     51  H   LIG d   1       1.885  -1.285  -8.731  0.00  0.00     0.027 H 
ENDBRANCH  43  48
BRANCH  43  52
ATOM     52  C   LIG d   1       2.871   1.742  -8.308  0.00  0.00    -0.025 C 
ATOM     53  H   LIG d   1       3.755   2.341  -8.090  0.00  0.00     0.027 H 
ATOM     54  H   LIG d   1       2.633   1.817  -9.369  0.00  0.00     0.027 H 
ATOM     55  H   LIG d   1       2.030   2.109  -7.719  0.00  0.00     0.027 H 
ENDBRANCH  43  52
ENDBRANCH  42  43
ENDBRANCH  39  42
ENDBRANCH  29  38
ENDBRANCH   1  29
TORSDOF 14
ENDMDL
MODEL 9
REMARK VINA RESULT:      -4.8      2.777      4.562
REMARK  14 active torsions:
REMARK  status: ('A' for Active; 'I' for Inactive)
REMARK    1  A    between atoms: C_1  and  C_2 
REMARK    2  A    between atoms: C_2  and  C_3 
REMARK    3  A    between atoms: C_10  and  O_15 
REMARK    4  A    between atoms: C_12  and  C_14 
REMARK    5  A    between atoms: O_15  and  C_16 
REMARK    6  A    between atoms: C_16  and  C_18 
REMARK    7  A    between atoms: C_18  and  C_20 
REMARK    8  A    between atoms: C_18  and  N_22 
REMARK    9  A    between atoms: C_20  and  C_21 
REMARK       I    between atoms: N_22  and  C_23 
REMARK   10  A    between atoms: C_23  and  O_25 
REMARK   11  A    between atoms: O_25  and  C_26 
REMARK   12  A    between atoms: C_26  and  C_27 
REMARK   13  A    between atoms: C_26  and  C_28 
REMARK   14  A    between atoms: C_26  and  C_29 
ROOT
ATOM      1  C   LIG d   1       4.463  -2.694  -4.317  0.00  0.00     0.333 C 
ATOM      2  O   LIG d   1       4.135  -3.460  -3.442  0.00  0.00    -0.248 OA
ENDROOT
BRANCH   1   3
ATOM      3  O   LIG d   1       5.122  -3.150  -5.396  0.00  0.00    -0.424 OA
BRANCH   3   4
ATOM      4  C   LIG d   1       6.205  -3.936  -5.170  0.00  0.00     0.143 A 
ATOM      5  C   LIG d   1       6.238  -5.253  -5.654  0.00  0.00     0.063 A 
ATOM      6  C   LIG d   1       5.113  -5.808  -6.409  0.00  0.00    -0.027 A 
ATOM      7  C   LIG d   1       7.365  -6.060  -5.416  0.00  0.00     0.143 A 
ATOM      8  C   LIG d   1       5.205  -7.089  -6.849  0.00  0.00     0.027 A 
ATOM      9  C   LIG d   1       6.365  -7.842  -6.574  0.00  0.00     0.338 A 
ATOM     10  H   LIG d   1       4.393  -7.531  -7.407  0.00  0.00     0.069 H 
ATOM     11  O   LIG d   1       6.436  -8.991  -6.976  0.00  0.00    -0.245 OA
ATOM     12  O   LIG d   1       7.393  -7.327  -5.882  0.00  0.00    -0.422 OA
ATOM     13  C   LIG d   1       8.436  -5.543  -4.702  0.00  0.00    -0.015 A 
ATOM     14  C   LIG d   1       8.392  -4.246  -4.230  0.00  0.00    -0.043 A 
ATOM     15  H   LIG d   1       9.305  -6.156  -4.515  0.00  0.00     0.066 H 
ATOM     16  C   LIG d   1       7.288  -3.444  -4.464  0.00  0.00    -0.015 A 
ATOM     17  H   LIG d   1       7.272  -2.430  -4.092  0.00  0.00     0.066 H 
BRANCH   6  18
ATOM     18  C   LIG d   1       3.885  -4.980  -6.688  0.00  0.00    -0.029 C 
ATOM     19  H   LIG d   1       3.056  -5.343  -6.080  0.00  0.00     0.031 H 
ATOM     20  H   LIG d   1       4.086  -3.937  -6.443  0.00  0.00     0.031 H 
BRANCH  18  21
ATOM     21  C   LIG d   1       3.518  -5.095  -8.168  0.00  0.00    -0.061 C 
ATOM     22  H   LIG d   1       3.281  -6.133  -8.404  0.00  0.00     0.023 H 
ATOM     23  H   LIG d   1       2.651  -4.469  -8.379  0.00  0.00     0.023 H 
ATOM     24  H   LIG d   1       4.360  -4.767  -8.779  0.00  0.00     0.023 H 
ENDBRANCH  18  21
ENDBRANCH   6  18
BRANCH  14  25
ATOM     25  C   LIG d   1       9.562  -3.696  -3.454  0.00  0.00    -0.040 C 
ATOM     26  H   LIG d   1       9.879  -2.752  -3.897  0.00  0.00     0.028 H 
ATOM     27  H   LIG d   1       9.266  -3.531  -2.419  0.00  0.00     0.028 H 
ATOM     28  H   LIG d   1      10.387  -4.408  -3.488  0.00  0.00     0.028 H 
ENDBRANCH  14  25
ENDBRANCH   3   4
ENDBRANCH   1   3
BRANCH   1  29
ATOM     29  C   LIG d   1       4.134  -1.229  -4.199  0.00  0.00     0.123 C 
ATOM     30  H   LIG d   1       5.052  -0.644  -4.270  0.00  0.00     0.061 H 
BRANCH  29  31
ATOM     31  C   LIG d   1       3.463  -0.963  -2.850  0.00  0.00    -0.027 C 
ATOM     32  H   LIG d   1       2.451  -0.594  -3.015  0.00  0.00     0.029 H 
ATOM     33  H   LIG d   1       3.424  -1.887  -2.275  0.00  0.00     0.029 H 
BRANCH  31  34
ATOM     34  C   LIG d   1       4.268   0.085  -2.077  0.00  0.00    -0.063 C 
ATOM     35  H   LIG d   1       5.301  -0.247  -1.983  0.00  0.00     0.023 H 
ATOM     36  H   LIG d   1       4.239   1.033  -2.615  0.00  0.00     0.023 H 
ATOM     37  H   LIG d   1       3.835   0.216  -1.086  0.00  0.00     0.023 H 
ENDBRANCH  31  34
ENDBRANCH  29  31
BRANCH  29  38
ATOM     38  N   LIG d   1       3.225  -0.845  -5.281  0.00  0.00    -0.268 N 
ATOM     39  C   LIG d   1       3.664  -0.059  -6.284  0.00  0.00     0.401 C 
ATOM     40  O   LIG d   1       4.815   0.330  -6.292  0.00  0.00    -0.226 OA
ATOM     41  H   LIG d   1       2.306  -1.155  -5.276  0.00  0.00     0.153 HD
BRANCH  39  42
ATOM     42  O   LIG d   1       2.828   0.294  -7.279  0.00  0.00    -0.445 OA
BRANCH  42  43
ATOM     43  C   LIG d   1       3.105  -0.251  -8.597  0.00  0.00     0.107 C 
BRANCH  43  44
ATOM     44  C   LIG d   1       1.788  -0.602  -9.290  0.00  0.00    -0.025 C 
ATOM     45  H   LIG d   1       1.927  -1.488  -9.910  0.00  0.00     0.027 H 
ATOM     46  H   LIG d   1       1.023  -0.800  -8.539  0.00  0.00     0.027 H 
ATOM     47  H   LIG d   1       1.474   0.233  -9.918  0.00  0.00     0.027 H 
ENDBRANCH  43  44
BRANCH  43  48
ATOM     48  C   LIG d   1       3.858   0.789  -9.430  0.00  0.00    -0.025 C 
ATOM     49  H   LIG d   1       4.817   0.375  -9.746  0.00  0.00     0.027 H 
ATOM     50  H   LIG d   1       3.267   1.047 -10.309  0.00  0.00     0.027 H 
ATOM     51  H   LIG d   1       4.028   1.683  -8.830  0.00  0.00     0.027 H 
ENDBRANCH  43  48
BRANCH  43  52
ATOM     52  C   LIG d   1       3.962  -1.511  -8.459  0.00  0.00    -0.025 C 
ATOM     53  H   LIG d   1       4.960  -1.236  -8.118  0.00  0.00     0.027 H 
ATOM     54  H   LIG d   1       3.503  -2.185  -7.735  0.00  0.00     0.027 H 
ATOM     55  H   LIG d   1       4.032  -2.009  -9.426  0.00  0.00     0.027 H 
ENDBRANCH  43  52
ENDBRANCH  42  43
ENDBRANCH  39  42
ENDBRANCH  29  38
ENDBRANCH   1  29
TORSDOF 14
ENDMDL
