MODEL 1
REMARK VINA RESULT:      -7.4      0.000      0.000
REMARK  7 active torsions:
REMARK  status: ('A' for Active; 'I' for Inactive)
REMARK    1  A    between atoms: C_1  and  C_2 
REMARK    2  A    between atoms: C_2  and  C_3 
REMARK    3  A    between atoms: C_3  and  C_4 
REMARK    4  A    between atoms: C_4  and  C_5 
REMARK    5  A    between atoms: C_5  and  O_6 
REMARK    6  A    between atoms: O_6  and  C_7 
REMARK    7  A    between atoms: C_10  and  N_13 
ROOT
ATOM      1  N   LIG d   1       6.072  -4.980  -5.443  0.00  0.00    -0.210 N 
ATOM      2  C   LIG d   1       7.196  -5.761  -5.531  0.00  0.00     0.231 C 
ATOM      3  O   LIG d   1       8.309  -5.527  -5.109  0.00  0.00    -0.275 OA
ATOM      4  C   LIG d   1       6.707  -7.003  -6.290  0.00  0.00     0.059 C 
ATOM      5  H   LIG d   1       6.580  -6.871  -7.365  0.00  0.00     0.041 H 
ATOM      6  C   LIG d   1       5.391  -7.089  -5.432  0.00  0.00     0.059 C 
ATOM      7  H   LIG d   1       5.740  -7.186  -4.404  0.00  0.00     0.041 H 
ATOM      8  C   LIG d   1       4.908  -5.704  -5.561  0.00  0.00     0.231 C 
ATOM      9  O   LIG d   1       3.776  -5.305  -5.729  0.00  0.00    -0.275 OA
ATOM     10  C   LIG d   1       4.620  -8.370  -5.746  0.00  0.00     0.022 C 
ATOM     11  C   LIG d   1       5.379  -9.129  -4.603  0.00  0.00    -0.035 A 
ATOM     12  C   LIG d   1       4.754  -9.888  -3.668  0.00  0.00    -0.058 A 
ATOM     13  C   LIG d   1       5.527 -10.434  -2.647  0.00  0.00    -0.061 A 
ATOM     14  C   LIG d   1       6.886 -10.180  -2.606  0.00  0.00    -0.061 A 
ATOM     15  C   LIG d   1       7.506  -9.427  -3.590  0.00  0.00    -0.058 A 
ATOM     16  C   LIG d   1       6.747  -8.931  -4.630  0.00  0.00    -0.035 A 
ATOM     17  C   LIG d   1       7.449  -8.326  -5.868  0.00  0.00     0.022 C 
ATOM     18  C   LIG d   1       6.722  -9.157  -6.961  0.00  0.00    -0.035 A 
ATOM     19  C   LIG d   1       5.319  -9.083  -6.931  0.00  0.00    -0.035 A 
ATOM     20  C   LIG d   1       4.575  -9.669  -7.928  0.00  0.00    -0.058 A 
ATOM     21  C   LIG d   1       5.233 -10.368  -8.929  0.00  0.00    -0.061 A 
ATOM     22  C   LIG d   1       6.611 -10.484  -8.926  0.00  0.00    -0.061 A 
ATOM     23  C   LIG d   1       7.384  -9.863  -7.920  0.00  0.00    -0.058 A 
ATOM     24  H   LIG d   1       3.532  -8.326  -5.751  0.00  0.00     0.041 H 
ATOM     25  H   LIG d   1       3.689 -10.063  -3.715  0.00  0.00     0.062 H 
ATOM     26  H   LIG d   1       5.068 -11.053  -1.890  0.00  0.00     0.062 H 
ATOM     27  H   LIG d   1       7.475 -10.577  -1.792  0.00  0.00     0.062 H 
ATOM     28  H   LIG d   1       8.567  -9.232  -3.543  0.00  0.00     0.062 H 
ATOM     29  H   LIG d   1       8.538  -8.295  -5.871  0.00  0.00     0.041 H 
ATOM     30  H   LIG d   1       3.498  -9.587  -7.932  0.00  0.00     0.062 H 
ATOM     31  H   LIG d   1       4.663 -10.829  -9.721  0.00  0.00     0.062 H 
ATOM     32  H   LIG d   1       7.107 -11.058  -9.695  0.00  0.00     0.062 H 
ATOM     33  H   LIG d   1       8.462  -9.924  -7.918  0.00  0.00     0.062 H 
ENDROOT
BRANCH   1  34
ATOM     34  C   LIG d   1       6.106  -3.591  -5.248  0.00  0.00     0.044 A 
ATOM     35  C   LIG d   1       6.802  -3.057  -4.173  0.00  0.00    -0.036 A 
ATOM     36  C   LIG d   1       6.835  -1.690  -3.981  0.00  0.00    -0.018 A 
ATOM     37  H   LIG d   1       7.317  -3.711  -3.484  0.00  0.00     0.064 H 
ATOM     38  C   LIG d   1       6.173  -0.850  -4.864  0.00  0.00     0.121 A 
ATOM     39  H   LIG d   1       7.376  -1.275  -3.144  0.00  0.00     0.066 H 
ATOM     40  C   LIG d   1       5.473  -1.382  -5.937  0.00  0.00    -0.018 A 
ATOM     41  C   LIG d   1       5.444  -2.750  -6.132  0.00  0.00    -0.036 A 
ATOM     42  H   LIG d   1       4.955  -0.729  -6.622  0.00  0.00     0.066 H 
ATOM     43  H   LIG d   1       4.902  -3.164  -6.969  0.00  0.00     0.064 H 
BRANCH  38  44
ATOM     44  O   LIG d   1       6.206   0.497  -4.676  0.00  0.00    -0.492 OA
BRANCH  44  45
ATOM     45  C   LIG d   1       6.358   0.960  -3.333  0.00  0.00     0.090 C 
ATOM     46  H   LIG d   1       7.022   1.824  -3.319  0.00  0.00     0.070 H 
ATOM     47  H   LIG d   1       6.783   0.165  -2.720  0.00  0.00     0.070 H 
BRANCH  45  48
ATOM     48  C   LIG d   1       4.991   1.359  -2.773  0.00  0.00    -0.019 C 
ATOM     49  H   LIG d   1       4.282   1.476  -3.594  0.00  0.00     0.030 H 
ATOM     50  H   LIG d   1       5.080   2.301  -2.233  0.00  0.00     0.030 H 
BRANCH  48  51
ATOM     51  C   LIG d   1       4.492   0.270  -1.821  0.00  0.00    -0.050 C 
ATOM     52  H   LIG d   1       4.073   0.733  -0.928  0.00  0.00     0.027 H 
ATOM     53  H   LIG d   1       5.323  -0.376  -1.540  0.00  0.00     0.027 H 
BRANCH  51  54
ATOM     54  C   LIG d   1       3.413  -0.562  -2.518  0.00  0.00    -0.056 C 
ATOM     55  H   LIG d   1       3.403  -0.325  -3.581  0.00  0.00     0.026 H 
ATOM     56  H   LIG d   1       2.439  -0.331  -2.085  0.00  0.00     0.026 H 
BRANCH  54  57
ATOM     57  C   LIG d   1       3.714  -2.050  -2.330  0.00  0.00    -0.065 C 
ATOM     58  H   LIG d   1       4.032  -2.229  -1.303  0.00  0.00     0.023 H 
ATOM     59  H   LIG d   1       2.818  -2.632  -2.541  0.00  0.00     0.023 H 
ATOM     60  H   LIG d   1       4.510  -2.348  -3.013  0.00  0.00     0.023 H 
ENDBRANCH  54  57
ENDBRANCH  51  54
ENDBRANCH  48  51
ENDBRANCH  45  48
ENDBRANCH  44  45
ENDBRANCH  38  44
ENDBRANCH   1  34
TORSDOF 7
ENDMDL
MODEL 2
REMARK VINA RESULT:      -7.1      4.450      8.025
REMARK  7 active torsions:
REMARK  status: ('A' for Active; 'I' for Inactive)
REMARK    1  A    between atoms: C_1  and  C_2 
REMARK    2  A    between atoms: C_2  and  C_3 
REMARK    3  A    between atoms: C_3  and  C_4 
REMARK    4  A    between atoms: C_4  and  C_5 
REMARK    5  A    between atoms: C_5  and  O_6 
REMARK    6  A    between atoms: O_6  and  C_7 
REMARK    7  A    between atoms: C_10  and  N_13 
ROOT
ATOM      1  N   LIG d   1       4.297  -1.544  -7.902  0.00  0.00    -0.210 N 
ATOM      2  C   LIG d   1       5.157  -0.571  -7.460  0.00  0.00     0.231 C 
ATOM      3  O   LIG d   1       5.133   0.618  -7.697  0.00  0.00    -0.275 OA
ATOM      4  C   LIG d   1       6.158  -1.349  -6.593  0.00  0.00     0.059 C 
ATOM      5  H   LIG d   1       6.907  -1.918  -7.144  0.00  0.00     0.041 H 
ATOM      6  C   LIG d   1       5.014  -2.180  -5.904  0.00  0.00     0.059 C 
ATOM      7  H   LIG d   1       4.369  -1.430  -5.445  0.00  0.00     0.041 H 
ATOM      8  C   LIG d   1       4.288  -2.656  -7.093  0.00  0.00     0.231 C 
ATOM      9  O   LIG d   1       3.808  -3.749  -7.305  0.00  0.00    -0.275 OA
ATOM     10  C   LIG d   1       5.569  -3.025  -4.759  0.00  0.00     0.022 C 
ATOM     11  C   LIG d   1       5.296  -1.862  -3.743  0.00  0.00    -0.035 A 
ATOM     12  C   LIG d   1       4.666  -2.042  -2.555  0.00  0.00    -0.058 A 
ATOM     13  C   LIG d   1       4.397  -0.916  -1.782  0.00  0.00    -0.061 A 
ATOM     14  C   LIG d   1       4.761   0.336  -2.245  0.00  0.00    -0.061 A 
ATOM     15  C   LIG d   1       5.432   0.490  -3.447  0.00  0.00    -0.058 A 
ATOM     16  C   LIG d   1       5.744  -0.632  -4.187  0.00  0.00    -0.035 A 
ATOM     17  C   LIG d   1       6.718  -0.513  -5.383  0.00  0.00     0.022 C 
ATOM     18  C   LIG d   1       7.704  -1.644  -4.976  0.00  0.00    -0.035 A 
ATOM     19  C   LIG d   1       7.113  -2.901  -4.765  0.00  0.00    -0.035 A 
ATOM     20  C   LIG d   1       7.903  -4.003  -4.532  0.00  0.00    -0.058 A 
ATOM     21  C   LIG d   1       9.278  -3.838  -4.464  0.00  0.00    -0.061 A 
ATOM     22  C   LIG d   1       9.851  -2.589  -4.619  0.00  0.00    -0.061 A 
ATOM     23  C   LIG d   1       9.051  -1.457  -4.885  0.00  0.00    -0.058 A 
ATOM     24  H   LIG d   1       5.140  -4.013  -4.595  0.00  0.00     0.041 H 
ATOM     25  H   LIG d   1       4.381  -3.028  -2.220  0.00  0.00     0.062 H 
ATOM     26  H   LIG d   1       3.906  -1.018  -0.825  0.00  0.00     0.062 H 
ATOM     27  H   LIG d   1       4.518   1.209  -1.658  0.00  0.00     0.062 H 
ATOM     28  H   LIG d   1       5.705   1.473  -3.800  0.00  0.00     0.062 H 
ATOM     29  H   LIG d   1       7.118   0.473  -5.616  0.00  0.00     0.041 H 
ATOM     30  H   LIG d   1       7.459  -4.980  -4.404  0.00  0.00     0.062 H 
ATOM     31  H   LIG d   1       9.909  -4.695  -4.286  0.00  0.00     0.062 H 
ATOM     32  H   LIG d   1      10.921  -2.472  -4.533  0.00  0.00     0.062 H 
ATOM     33  H   LIG d   1       9.486  -0.480  -5.033  0.00  0.00     0.062 H 
ENDROOT
BRANCH   1  34
ATOM     34  C   LIG d   1       3.507  -1.415  -9.055  0.00  0.00     0.044 A 
ATOM     35  C   LIG d   1       4.008  -1.804 -10.288  0.00  0.00    -0.036 A 
ATOM     36  C   LIG d   1       3.229  -1.677 -11.422  0.00  0.00    -0.018 A 
ATOM     37  H   LIG d   1       5.008  -2.206 -10.363  0.00  0.00     0.064 H 
ATOM     38  C   LIG d   1       1.945  -1.161 -11.326  0.00  0.00     0.121 A 
ATOM     39  H   LIG d   1       3.620  -1.979 -12.382  0.00  0.00     0.066 H 
ATOM     40  C   LIG d   1       1.444  -0.768 -10.094  0.00  0.00    -0.018 A 
ATOM     41  C   LIG d   1       2.221  -0.899  -8.959  0.00  0.00    -0.036 A 
ATOM     42  H   LIG d   1       0.447  -0.362 -10.021  0.00  0.00     0.066 H 
ATOM     43  H   LIG d   1       1.830  -0.596  -8.000  0.00  0.00     0.064 H 
BRANCH  38  44
ATOM     44  O   LIG d   1       1.179  -1.036 -12.443  0.00  0.00    -0.492 OA
BRANCH  44  45
ATOM     45  C   LIG d   1       0.968  -2.215 -13.220  0.00  0.00     0.090 C 
ATOM     46  H   LIG d   1       1.856  -2.845 -13.175  0.00  0.00     0.070 H 
ATOM     47  H   LIG d   1       0.771  -1.939 -14.255  0.00  0.00     0.070 H 
BRANCH  45  48
ATOM     48  C   LIG d   1      -0.230  -2.986 -12.661  0.00  0.00    -0.019 C 
ATOM     49  H   LIG d   1      -0.981  -3.106 -13.442  0.00  0.00     0.030 H 
ATOM     50  H   LIG d   1      -0.660  -2.435 -11.825  0.00  0.00     0.030 H 
BRANCH  48  51
ATOM     51  C   LIG d   1       0.229  -4.365 -12.181  0.00  0.00    -0.050 C 
ATOM     52  H   LIG d   1       1.202  -4.595 -12.617  0.00  0.00     0.027 H 
ATOM     53  H   LIG d   1      -0.495  -5.118 -12.489  0.00  0.00     0.027 H 
BRANCH  51  54
ATOM     54  C   LIG d   1       0.343  -4.361 -10.655  0.00  0.00    -0.056 C 
ATOM     55  H   LIG d   1      -0.405  -5.033 -10.234  0.00  0.00     0.026 H 
ATOM     56  H   LIG d   1       0.175  -3.351 -10.280  0.00  0.00     0.026 H 
BRANCH  54  57
ATOM     57  C   LIG d   1       1.740  -4.832 -10.245  0.00  0.00    -0.065 C 
ATOM     58  H   LIG d   1       1.656  -5.738  -9.644  0.00  0.00     0.023 H 
ATOM     59  H   LIG d   1       2.329  -5.041 -11.138  0.00  0.00     0.023 H 
ATOM     60  H   LIG d   1       2.228  -4.053  -9.661  0.00  0.00     0.023 H 
ENDBRANCH  54  57
ENDBRANCH  51  54
ENDBRANCH  48  51
ENDBRANCH  45  48
ENDBRANCH  44  45
ENDBRANCH  38  44
ENDBRANCH   1  34
TORSDOF 7
ENDMDL
MODEL 3
REMARK VINA RESULT:      -7.1      4.510      8.461
REMARK  7 active torsions:
REMARK  status: ('A' for Active; 'I' for Inactive)
REMARK    1  A    between atoms: C_1  and  C_2 
REMARK    2  A    between atoms: C_2  and  C_3 
REMARK    3  A    between atoms: C_3  and  C_4 
REMARK    4  A    between atoms: C_4  and  C_5 
REMARK    5  A    between atoms: C_5  and  O_6 
REMARK    6  A    between atoms: O_6  and  C_7 
REMARK    7  A    between atoms: C_10  and  N_13 
ROOT
ATOM      1  N   LIG d   1       4.538  -1.237  -8.049  0.00  0.00    -0.210 N 
ATOM      2  C   LIG d   1       4.293  -2.233  -7.138  0.00  0.00     0.231 C 
ATOM      3  O   LIG d   1       3.952  -3.377  -7.349  0.00  0.00    -0.275 OA
ATOM      4  C   LIG d   1       4.554  -1.551  -5.787  0.00  0.00     0.059 C 
ATOM      5  H   LIG d   1       3.763  -0.886  -5.441  0.00  0.00     0.041 H 
ATOM      6  C   LIG d   1       5.867  -0.863  -6.315  0.00  0.00     0.059 C 
ATOM      7  H   LIG d   1       6.501  -1.691  -6.635  0.00  0.00     0.041 H 
ATOM      8  C   LIG d   1       5.358  -0.250  -7.553  0.00  0.00     0.231 C 
ATOM      9  O   LIG d   1       5.597   0.845  -8.015  0.00  0.00    -0.275 OA
ATOM     10  C   LIG d   1       6.613  -0.168  -5.178  0.00  0.00     0.022 C 
ATOM     11  C   LIG d   1       7.442  -1.470  -4.900  0.00  0.00    -0.035 A 
ATOM     12  C   LIG d   1       8.791  -1.479  -4.757  0.00  0.00    -0.058 A 
ATOM     13  C   LIG d   1       9.423  -2.711  -4.610  0.00  0.00    -0.061 A 
ATOM     14  C   LIG d   1       8.673  -3.872  -4.626  0.00  0.00    -0.061 A 
ATOM     15  C   LIG d   1       7.293  -3.834  -4.741  0.00  0.00    -0.058 A 
ATOM     16  C   LIG d   1       6.663  -2.610  -4.835  0.00  0.00    -0.035 A 
ATOM     17  C   LIG d   1       5.125  -2.528  -4.693  0.00  0.00     0.022 C 
ATOM     18  C   LIG d   1       5.064  -1.433  -3.592  0.00  0.00    -0.035 A 
ATOM     19  C   LIG d   1       5.734  -0.238  -3.904  0.00  0.00    -0.035 A 
ATOM     20  C   LIG d   1       5.636   0.846  -3.063  0.00  0.00    -0.058 A 
ATOM     21  C   LIG d   1       4.907   0.720  -1.890  0.00  0.00    -0.061 A 
ATOM     22  C   LIG d   1       4.293  -0.475  -1.562  0.00  0.00    -0.061 A 
ATOM     23  C   LIG d   1       4.366  -1.585  -2.432  0.00  0.00    -0.058 A 
ATOM     24  H   LIG d   1       7.118   0.773  -5.394  0.00  0.00     0.041 H 
ATOM     25  H   LIG d   1       9.357  -0.559  -4.759  0.00  0.00     0.062 H 
ATOM     26  H   LIG d   1      10.495  -2.759  -4.482  0.00  0.00     0.062 H 
ATOM     27  H   LIG d   1       9.172  -4.827  -4.546  0.00  0.00     0.062 H 
ATOM     28  H   LIG d   1       6.719  -4.749  -4.759  0.00  0.00     0.062 H 
ATOM     29  H   LIG d   1       4.579  -3.458  -4.539  0.00  0.00     0.041 H 
ATOM     30  H   LIG d   1       6.119   1.780  -3.312  0.00  0.00     0.062 H 
ATOM     31  H   LIG d   1       4.818   1.564  -1.224  0.00  0.00     0.062 H 
ATOM     32  H   LIG d   1       3.754  -0.568  -0.631  0.00  0.00     0.062 H 
ATOM     33  H   LIG d   1       3.872  -2.517  -2.200  0.00  0.00     0.062 H 
ENDROOT
BRANCH   1  34
ATOM     34  C   LIG d   1       4.014  -1.231  -9.351  0.00  0.00     0.044 A 
ATOM     35  C   LIG d   1       4.695  -1.868 -10.378  0.00  0.00    -0.036 A 
ATOM     36  C   LIG d   1       4.178  -1.860 -11.658  0.00  0.00    -0.018 A 
ATOM     37  H   LIG d   1       5.631  -2.368 -10.176  0.00  0.00     0.064 H 
ATOM     38  C   LIG d   1       2.977  -1.217 -11.917  0.00  0.00     0.121 A 
ATOM     39  H   LIG d   1       4.708  -2.356 -12.457  0.00  0.00     0.066 H 
ATOM     40  C   LIG d   1       2.297  -0.576 -10.892  0.00  0.00    -0.018 A 
ATOM     41  C   LIG d   1       2.811  -0.587  -9.610  0.00  0.00    -0.036 A 
ATOM     42  H   LIG d   1       1.364  -0.072 -11.094  0.00  0.00     0.066 H 
ATOM     43  H   LIG d   1       2.280  -0.091  -8.811  0.00  0.00     0.064 H 
BRANCH  38  44
ATOM     44  O   LIG d   1       2.468  -1.210 -13.178  0.00  0.00    -0.492 OA
BRANCH  44  45
ATOM     45  C   LIG d   1       2.063  -2.468 -13.721  0.00  0.00     0.090 C 
ATOM     46  H   LIG d   1       2.772  -3.239 -13.423  0.00  0.00     0.070 H 
ATOM     47  H   LIG d   1       2.033  -2.402 -14.808  0.00  0.00     0.070 H 
BRANCH  45  48
ATOM     48  C   LIG d   1       0.671  -2.826 -13.194  0.00  0.00    -0.019 C 
ATOM     49  H   LIG d   1      -0.018  -2.933 -14.032  0.00  0.00     0.030 H 
ATOM     50  H   LIG d   1       0.318  -2.035 -12.532  0.00  0.00     0.030 H 
BRANCH  48  51
ATOM     51  C   LIG d   1       0.742  -4.144 -12.421  0.00  0.00    -0.050 C 
ATOM     52  H   LIG d   1       1.702  -4.625 -12.610  0.00  0.00     0.027 H 
ATOM     53  H   LIG d   1      -0.063  -4.801 -12.746  0.00  0.00     0.027 H 
BRANCH  51  54
ATOM     54  C   LIG d   1       0.599  -3.865 -10.923  0.00  0.00    -0.056 C 
ATOM     55  H   LIG d   1      -0.284  -4.375 -10.541  0.00  0.00     0.026 H 
ATOM     56  H   LIG d   1       0.497  -2.792 -10.761  0.00  0.00     0.026 H 
BRANCH  54  57
ATOM     57  C   LIG d   1       1.840  -4.376 -10.187  0.00  0.00    -0.065 C 
ATOM     58  H   LIG d   1       1.648  -5.378  -9.804  0.00  0.00     0.023 H 
ATOM     59  H   LIG d   1       2.684  -4.405 -10.876  0.00  0.00     0.023 H 
ATOM     60  H   LIG d   1       2.070  -3.708  -9.357  0.00  0.00     0.023 H 
ENDBRANCH  54  57
ENDBRANCH  51  54
ENDBRANCH  48  51
ENDBRANCH  45  48
ENDBRANCH  44  45
ENDBRANCH  38  44
ENDBRANCH   1  34
TORSDOF 7
ENDMDL
MODEL 4
REMARK VINA RESULT:      -7.0      5.965     12.031
REMARK  7 active torsions:
REMARK  status: ('A' for Active; 'I' for Inactive)
REMARK    1  A    between atoms: C_1  and  C_2 
REMARK    2  A    between atoms: C_2  and  C_3 
REMARK    3  A    between atoms: C_3  and  C_4 
REMARK    4  A    between atoms: C_4  and  C_5 
REMARK    5  A    between atoms: C_5  and  O_6 
REMARK    6  A    between atoms: O_6  and  C_7 
REMARK    7  A    between atoms: C_10  and  N_13 
ROOT
ATOM      1  N   LIG d   1       8.762   2.490  -4.980  0.00  0.00    -0.210 N 
ATOM      2  C   LIG d   1       9.249   3.475  -4.158  0.00  0.00     0.231 C 
ATOM      3  O   LIG d   1       9.542   3.398  -2.984  0.00  0.00    -0.275 OA
ATOM      4  C   LIG d   1       9.335   4.698  -5.083  0.00  0.00     0.059 C 
ATOM      5  H   LIG d   1       8.385   5.190  -5.294  0.00  0.00     0.041 H 
ATOM      6  C   LIG d   1       9.962   3.852  -6.251  0.00  0.00     0.059 C 
ATOM      7  H   LIG d   1      10.873   3.430  -5.826  0.00  0.00     0.041 H 
ATOM      8  C   LIG d   1       8.999   2.741  -6.312  0.00  0.00     0.231 C 
ATOM      9  O   LIG d   1       8.531   2.189  -7.285  0.00  0.00    -0.275 OA
ATOM     10  C   LIG d   1      10.405   4.756  -7.401  0.00  0.00     0.022 C 
ATOM     11  C   LIG d   1      11.835   4.889  -6.771  0.00  0.00    -0.035 A 
ATOM     12  C   LIG d   1      12.981   4.716  -7.476  0.00  0.00    -0.058 A 
ATOM     13  C   LIG d   1      14.187   4.766  -6.783  0.00  0.00    -0.061 A 
ATOM     14  C   LIG d   1      14.184   4.973  -5.416  0.00  0.00    -0.061 A 
ATOM     15  C   LIG d   1      13.002   5.179  -4.723  0.00  0.00    -0.058 A 
ATOM     16  C   LIG d   1      11.811   5.181  -5.419  0.00  0.00    -0.035 A 
ATOM     17  C   LIG d   1      10.519   5.671  -4.724  0.00  0.00     0.022 C 
ATOM     18  C   LIG d   1      10.075   6.709  -5.792  0.00  0.00    -0.035 A 
ATOM     19  C   LIG d   1       9.937   6.200  -7.094  0.00  0.00    -0.035 A 
ATOM     20  C   LIG d   1       9.422   6.993  -8.093  0.00  0.00    -0.058 A 
ATOM     21  C   LIG d   1       9.090   8.307  -7.799  0.00  0.00    -0.061 A 
ATOM     22  C   LIG d   1       9.277   8.819  -6.528  0.00  0.00    -0.061 A 
ATOM     23  C   LIG d   1       9.780   8.004  -5.491  0.00  0.00    -0.058 A 
ATOM     24  H   LIG d   1      10.283   4.388  -8.419  0.00  0.00     0.041 H 
ATOM     25  H   LIG d   1      12.957   4.544  -8.542  0.00  0.00     0.062 H 
ATOM     26  H   LIG d   1      15.122   4.644  -7.311  0.00  0.00     0.062 H 
ATOM     27  H   LIG d   1      15.121   4.976  -4.878  0.00  0.00     0.062 H 
ATOM     28  H   LIG d   1      13.013   5.334  -3.654  0.00  0.00     0.062 H 
ATOM     29  H   LIG d   1      10.591   5.987  -3.683  0.00  0.00     0.041 H 
ATOM     30  H   LIG d   1       9.279   6.600  -9.089  0.00  0.00     0.062 H 
ATOM     31  H   LIG d   1       8.680   8.939  -8.572  0.00  0.00     0.062 H 
ATOM     32  H   LIG d   1       9.043   9.853  -6.322  0.00  0.00     0.062 H 
ATOM     33  H   LIG d   1       9.909   8.384  -4.488  0.00  0.00     0.062 H 
ENDROOT
BRANCH   1  34
ATOM     34  C   LIG d   1       8.099   1.346  -4.510  0.00  0.00     0.044 A 
ATOM     35  C   LIG d   1       8.528   0.086  -4.899  0.00  0.00    -0.036 A 
ATOM     36  C   LIG d   1       7.874  -1.039  -4.437  0.00  0.00    -0.018 A 
ATOM     37  H   LIG d   1       9.372  -0.017  -5.565  0.00  0.00     0.064 H 
ATOM     38  C   LIG d   1       6.789  -0.909  -3.582  0.00  0.00     0.121 A 
ATOM     39  H   LIG d   1       8.208  -2.021  -4.740  0.00  0.00     0.066 H 
ATOM     40  C   LIG d   1       6.357   0.351  -3.196  0.00  0.00    -0.018 A 
ATOM     41  C   LIG d   1       7.013   1.477  -3.654  0.00  0.00    -0.036 A 
ATOM     42  H   LIG d   1       5.510   0.453  -2.534  0.00  0.00     0.066 H 
ATOM     43  H   LIG d   1       6.678   2.458  -3.351  0.00  0.00     0.064 H 
BRANCH  38  44
ATOM     44  O   LIG d   1       6.146  -2.017  -3.126  0.00  0.00    -0.492 OA
BRANCH  44  45
ATOM     45  C   LIG d   1       4.807  -2.222  -3.579  0.00  0.00     0.090 C 
ATOM     46  H   LIG d   1       4.686  -3.256  -3.902  0.00  0.00     0.070 H 
ATOM     47  H   LIG d   1       4.600  -1.554  -4.414  0.00  0.00     0.070 H 
BRANCH  45  48
ATOM     48  C   LIG d   1       3.832  -1.928  -2.437  0.00  0.00    -0.019 C 
ATOM     49  H   LIG d   1       4.337  -1.337  -1.672  0.00  0.00     0.030 H 
ATOM     50  H   LIG d   1       3.487  -2.866  -2.003  0.00  0.00     0.030 H 
BRANCH  48  51
ATOM     51  C   LIG d   1       2.634  -1.144  -2.978  0.00  0.00    -0.050 C 
ATOM     52  H   LIG d   1       1.878  -1.054  -2.198  0.00  0.00     0.027 H 
ATOM     53  H   LIG d   1       2.213  -1.669  -3.834  0.00  0.00     0.027 H 
BRANCH  51  54
ATOM     54  C   LIG d   1       3.091   0.251  -3.410  0.00  0.00    -0.056 C 
ATOM     55  H   LIG d   1       4.177   0.268  -3.493  0.00  0.00     0.026 H 
ATOM     56  H   LIG d   1       2.772   0.984  -2.669  0.00  0.00     0.026 H 
BRANCH  54  57
ATOM     57  C   LIG d   1       2.471   0.594  -4.766  0.00  0.00    -0.065 C 
ATOM     58  H   LIG d   1       3.243   0.566  -5.536  0.00  0.00     0.023 H 
ATOM     59  H   LIG d   1       1.693  -0.131  -5.004  0.00  0.00     0.023 H 
ATOM     60  H   LIG d   1       2.037   1.593  -4.724  0.00  0.00     0.023 H 
ENDBRANCH  54  57
ENDBRANCH  51  54
ENDBRANCH  48  51
ENDBRANCH  45  48
ENDBRANCH  44  45
ENDBRANCH  38  44
ENDBRANCH   1  34
TORSDOF 7
ENDMDL
MODEL 5
REMARK VINA RESULT:      -6.8      1.878      8.788
REMARK  7 active torsions:
REMARK  status: ('A' for Active; 'I' for Inactive)
REMARK    1  A    between atoms: C_1  and  C_2 
REMARK    2  A    between atoms: C_2  and  C_3 
REMARK    3  A    between atoms: C_3  and  C_4 
REMARK    4  A    between atoms: C_4  and  C_5 
REMARK    5  A    between atoms: C_5  and  O_6 
REMARK    6  A    between atoms: O_6  and  C_7 
REMARK    7  A    between atoms: C_10  and  N_13 
ROOT
ATOM      1  N   LIG d   1       5.751  -4.535  -5.843  0.00  0.00    -0.210 N 
ATOM      2  C   LIG d   1       6.571  -3.956  -4.908  0.00  0.00     0.231 C 
ATOM      3  O   LIG d   1       7.645  -4.350  -4.504  0.00  0.00    -0.275 OA
ATOM      4  C   LIG d   1       5.805  -2.690  -4.498  0.00  0.00     0.059 C 
ATOM      5  H   LIG d   1       4.966  -2.853  -3.822  0.00  0.00     0.041 H 
ATOM      6  C   LIG d   1       5.448  -2.344  -5.990  0.00  0.00     0.059 C 
ATOM      7  H   LIG d   1       6.413  -2.255  -6.490  0.00  0.00     0.041 H 
ATOM      8  C   LIG d   1       4.891  -3.635  -6.428  0.00  0.00     0.231 C 
ATOM      9  O   LIG d   1       3.922  -3.849  -7.124  0.00  0.00    -0.275 OA
ATOM     10  C   LIG d   1       4.787  -0.970  -6.087  0.00  0.00     0.022 C 
ATOM     11  C   LIG d   1       6.185  -0.291  -6.296  0.00  0.00    -0.035 A 
ATOM     12  C   LIG d   1       6.438   0.607  -7.281  0.00  0.00    -0.058 A 
ATOM     13  C   LIG d   1       7.744   1.068  -7.423  0.00  0.00    -0.061 A 
ATOM     14  C   LIG d   1       8.733   0.595  -6.580  0.00  0.00    -0.061 A 
ATOM     15  C   LIG d   1       8.443  -0.299  -5.562  0.00  0.00    -0.058 A 
ATOM     16  C   LIG d   1       7.139  -0.714  -5.389  0.00  0.00    -0.035 A 
ATOM     17  C   LIG d   1       6.746  -1.489  -4.109  0.00  0.00     0.022 C 
ATOM     18  C   LIG d   1       5.543  -0.604  -3.678  0.00  0.00    -0.035 A 
ATOM     19  C   LIG d   1       4.543  -0.444  -4.651  0.00  0.00    -0.035 A 
ATOM     20  C   LIG d   1       3.372   0.207  -4.336  0.00  0.00    -0.058 A 
ATOM     21  C   LIG d   1       3.223   0.736  -3.063  0.00  0.00    -0.061 A 
ATOM     22  C   LIG d   1       4.232   0.622  -2.125  0.00  0.00    -0.061 A 
ATOM     23  C   LIG d   1       5.426  -0.067  -2.431  0.00  0.00    -0.058 A 
ATOM     24  H   LIG d   1       3.992  -0.834  -6.820  0.00  0.00     0.041 H 
ATOM     25  H   LIG d   1       5.651   0.953  -7.934  0.00  0.00     0.062 H 
ATOM     26  H   LIG d   1       7.984   1.792  -8.188  0.00  0.00     0.062 H 
ATOM     27  H   LIG d   1       9.751   0.929  -6.717  0.00  0.00     0.062 H 
ATOM     28  H   LIG d   1       9.226  -0.665  -4.914  0.00  0.00     0.062 H 
ATOM     29  H   LIG d   1       7.529  -1.700  -3.382  0.00  0.00     0.041 H 
ATOM     30  H   LIG d   1       2.583   0.304  -5.067  0.00  0.00     0.062 H 
ATOM     31  H   LIG d   1       2.308   1.245  -2.801  0.00  0.00     0.062 H 
ATOM     32  H   LIG d   1       4.114   1.066  -1.147  0.00  0.00     0.062 H 
ATOM     33  H   LIG d   1       6.213  -0.185  -1.701  0.00  0.00     0.062 H 
ENDROOT
BRANCH   1  34
ATOM     34  C   LIG d   1       5.789  -5.899  -6.170  0.00  0.00     0.044 A 
ATOM     35  C   LIG d   1       6.622  -6.347  -7.184  0.00  0.00    -0.036 A 
ATOM     36  C   LIG d   1       6.659  -7.689  -7.505  0.00  0.00    -0.018 A 
ATOM     37  H   LIG d   1       7.243  -5.646  -7.724  0.00  0.00     0.064 H 
ATOM     38  C   LIG d   1       5.863  -8.590  -6.813  0.00  0.00     0.121 A 
ATOM     39  H   LIG d   1       7.308  -8.038  -8.295  0.00  0.00     0.066 H 
ATOM     40  C   LIG d   1       5.026  -8.143  -5.802  0.00  0.00    -0.018 A 
ATOM     41  C   LIG d   1       4.992  -6.800  -5.477  0.00  0.00    -0.036 A 
ATOM     42  H   LIG d   1       4.403  -8.843  -5.266  0.00  0.00     0.066 H 
ATOM     43  H   LIG d   1       4.342  -6.453  -4.687  0.00  0.00     0.064 H 
BRANCH  38  44
ATOM     44  O   LIG d   1       5.899  -9.912  -7.130  0.00  0.00    -0.492 OA
BRANCH  44  45
ATOM     45  C   LIG d   1       4.794 -10.711  -6.706  0.00  0.00     0.090 C 
ATOM     46  H   LIG d   1       4.280 -11.114  -7.579  0.00  0.00     0.070 H 
ATOM     47  H   LIG d   1       4.103 -10.099  -6.128  0.00  0.00     0.070 H 
BRANCH  45  48
ATOM     48  C   LIG d   1       5.302 -11.865  -5.838  0.00  0.00    -0.019 C 
ATOM     49  H   LIG d   1       6.377 -11.980  -5.980  0.00  0.00     0.030 H 
ATOM     50  H   LIG d   1       4.797 -12.787  -6.126  0.00  0.00     0.030 H 
BRANCH  48  51
ATOM     51  C   LIG d   1       5.012 -11.562  -4.367  0.00  0.00    -0.050 C 
ATOM     52  H   LIG d   1       5.641 -10.735  -4.036  0.00  0.00     0.027 H 
ATOM     53  H   LIG d   1       5.224 -12.444  -3.764  0.00  0.00     0.027 H 
BRANCH  51  54
ATOM     54  C   LIG d   1       3.539 -11.177  -4.206  0.00  0.00    -0.056 C 
ATOM     55  H   LIG d   1       2.965 -12.055  -3.913  0.00  0.00     0.026 H 
ATOM     56  H   LIG d   1       3.158 -10.794  -5.153  0.00  0.00     0.026 H 
BRANCH  54  57
ATOM     57  C   LIG d   1       3.408 -10.098  -3.129  0.00  0.00    -0.065 C 
ATOM     58  H   LIG d   1       2.465  -9.567  -3.262  0.00  0.00     0.023 H 
ATOM     59  H   LIG d   1       3.428 -10.564  -2.144  0.00  0.00     0.023 H 
ATOM     60  H   LIG d   1       4.236  -9.396  -3.217  0.00  0.00     0.023 H 
ENDBRANCH  54  57
ENDBRANCH  51  54
ENDBRANCH  48  51
ENDBRANCH  45  48
ENDBRANCH  44  45
ENDBRANCH  38  44
ENDBRANCH   1  34
TORSDOF 7
ENDMDL
MODEL 6
REMARK VINA RESULT:      -6.8     10.732     14.685
REMARK  7 active torsions:
REMARK  status: ('A' for Active; 'I' for Inactive)
REMARK    1  A    between atoms: C_1  and  C_2 
REMARK    2  A    between atoms: C_2  and  C_3 
REMARK    3  A    between atoms: C_3  and  C_4 
REMARK    4  A    between atoms: C_4  and  C_5 
REMARK    5  A    between atoms: C_5  and  O_6 
REMARK    6  A    between atoms: O_6  and  C_7 
REMARK    7  A    between atoms: C_10  and  N_13 
ROOT
ATOM      1  N   LIG d   1      10.963   6.881  -0.974  0.00  0.00    -0.210 N 
ATOM      2  C   LIG d   1      11.997   6.595  -1.829  0.00  0.00     0.231 C 
ATOM      3  O   LIG d   1      13.083   6.125  -1.564  0.00  0.00    -0.275 OA
ATOM      4  C   LIG d   1      11.449   7.013  -3.202  0.00  0.00     0.059 C 
ATOM      5  H   LIG d   1      11.441   8.086  -3.392  0.00  0.00     0.041 H 
ATOM      6  C   LIG d   1      10.055   6.339  -2.922  0.00  0.00     0.059 C 
ATOM      7  H   LIG d   1      10.291   5.292  -2.729  0.00  0.00     0.041 H 
ATOM      8  C   LIG d   1       9.743   6.926  -1.609  0.00  0.00     0.231 C 
ATOM      9  O   LIG d   1       8.684   7.345  -1.194  0.00  0.00    -0.275 OA
ATOM     10  C   LIG d   1       9.181   6.358  -4.175  0.00  0.00     0.022 C 
ATOM     11  C   LIG d   1       9.738   4.957  -4.608  0.00  0.00    -0.035 A 
ATOM     12  C   LIG d   1       8.945   3.928  -4.997  0.00  0.00    -0.058 A 
ATOM     13  C   LIG d   1       9.551   2.703  -5.265  0.00  0.00    -0.061 A 
ATOM     14  C   LIG d   1      10.919   2.569  -5.116  0.00  0.00    -0.061 A 
ATOM     15  C   LIG d   1      11.711   3.644  -4.747  0.00  0.00    -0.058 A 
ATOM     16  C   LIG d   1      11.116   4.870  -4.533  0.00  0.00    -0.035 A 
ATOM     17  C   LIG d   1      11.996   6.133  -4.387  0.00  0.00     0.022 C 
ATOM     18  C   LIG d   1      11.290   7.017  -5.452  0.00  0.00    -0.035 A 
ATOM     19  C   LIG d   1       9.908   7.186  -5.265  0.00  0.00    -0.035 A 
ATOM     20  C   LIG d   1       9.204   8.053  -6.067  0.00  0.00    -0.058 A 
ATOM     21  C   LIG d   1       9.874   8.715  -7.085  0.00  0.00    -0.061 A 
ATOM     22  C   LIG d   1      11.223   8.505  -7.300  0.00  0.00    -0.061 A 
ATOM     23  C   LIG d   1      11.959   7.637  -6.464  0.00  0.00    -0.058 A 
ATOM     24  H   LIG d   1       8.110   6.512  -4.051  0.00  0.00     0.041 H 
ATOM     25  H   LIG d   1       7.877   4.054  -5.096  0.00  0.00     0.062 H 
ATOM     26  H   LIG d   1       8.956   1.862  -5.589  0.00  0.00     0.062 H 
ATOM     27  H   LIG d   1      11.380   1.607  -5.291  0.00  0.00     0.062 H 
ATOM     28  H   LIG d   1      12.778   3.524  -4.628  0.00  0.00     0.062 H 
ATOM     29  H   LIG d   1      13.077   6.008  -4.442  0.00  0.00     0.041 H 
ATOM     30  H   LIG d   1       8.148   8.215  -5.908  0.00  0.00     0.062 H 
ATOM     31  H   LIG d   1       9.334   9.402  -7.719  0.00  0.00     0.062 H 
ATOM     32  H   LIG d   1      11.725   9.005  -8.116  0.00  0.00     0.062 H 
ATOM     33  H   LIG d   1      13.019   7.482  -6.605  0.00  0.00     0.062 H 
ENDROOT
BRANCH   1  34
ATOM     34  C   LIG d   1      11.132   7.098   0.402  0.00  0.00     0.044 A 
ATOM     35  C   LIG d   1      11.478   8.357   0.869  0.00  0.00    -0.036 A 
ATOM     36  C   LIG d   1      11.644   8.570   2.224  0.00  0.00    -0.018 A 
ATOM     37  H   LIG d   1      11.620   9.172   0.174  0.00  0.00     0.064 H 
ATOM     38  C   LIG d   1      11.463   7.524   3.117  0.00  0.00     0.121 A 
ATOM     39  H   LIG d   1      11.914   9.550   2.587  0.00  0.00     0.066 H 
ATOM     40  C   LIG d   1      11.120   6.263   2.650  0.00  0.00    -0.018 A 
ATOM     41  C   LIG d   1      10.950   6.051   1.296  0.00  0.00    -0.036 A 
ATOM     42  H   LIG d   1      10.984   5.449   3.345  0.00  0.00     0.066 H 
ATOM     43  H   LIG d   1      10.680   5.070   0.933  0.00  0.00     0.064 H 
BRANCH  38  44
ATOM     44  O   LIG d   1      11.626   7.734   4.451  0.00  0.00    -0.492 OA
BRANCH  44  45
ATOM     45  C   LIG d   1      11.403   6.619   5.315  0.00  0.00     0.090 C 
ATOM     46  H   LIG d   1      12.326   6.374   5.839  0.00  0.00     0.070 H 
ATOM     47  H   LIG d   1      11.083   5.760   4.725  0.00  0.00     0.070 H 
BRANCH  45  48
ATOM     48  C   LIG d   1      10.317   6.972   6.333  0.00  0.00    -0.019 C 
ATOM     49  H   LIG d   1       9.426   6.376   6.135  0.00  0.00     0.030 H 
ATOM     50  H   LIG d   1      10.072   8.031   6.252  0.00  0.00     0.030 H 
BRANCH  48  51
ATOM     51  C   LIG d   1      10.826   6.674   7.745  0.00  0.00    -0.050 C 
ATOM     52  H   LIG d   1      10.401   7.394   8.444  0.00  0.00     0.027 H 
ATOM     53  H   LIG d   1      11.913   6.747   7.764  0.00  0.00     0.027 H 
BRANCH  51  54
ATOM     54  C   LIG d   1      10.403   5.260   8.151  0.00  0.00    -0.056 C 
ATOM     55  H   LIG d   1      11.280   4.697   8.470  0.00  0.00     0.026 H 
ATOM     56  H   LIG d   1       9.941   4.760   7.300  0.00  0.00     0.026 H 
BRANCH  54  57
ATOM     57  C   LIG d   1       9.400   5.338   9.304  0.00  0.00    -0.065 C 
ATOM     58  H   LIG d   1       8.890   4.380   9.407  0.00  0.00     0.023 H 
ATOM     59  H   LIG d   1       9.927   5.571  10.229  0.00  0.00     0.023 H 
ATOM     60  H   LIG d   1       8.668   6.118   9.095  0.00  0.00     0.023 H 
ENDBRANCH  54  57
ENDBRANCH  51  54
ENDBRANCH  48  51
ENDBRANCH  45  48
ENDBRANCH  44  45
ENDBRANCH  38  44
ENDBRANCH   1  34
TORSDOF 7
ENDMDL
MODEL 7
REMARK VINA RESULT:      -6.6      4.918      8.993
REMARK  7 active torsions:
REMARK  status: ('A' for Active; 'I' for Inactive)
REMARK    1  A    between atoms: C_1  and  C_2 
REMARK    2  A    between atoms: C_2  and  C_3 
REMARK    3  A    between atoms: C_3  and  C_4 
REMARK    4  A    between atoms: C_4  and  C_5 
REMARK    5  A    between atoms: C_5  and  O_6 
REMARK    6  A    between atoms: O_6  and  C_7 
REMARK    7  A    between atoms: C_10  and  N_13 
ROOT
ATOM      1  N   LIG d   1       4.583  -1.226  -8.081  0.00  0.00    -0.210 N 
ATOM      2  C   LIG d   1       4.358  -2.237  -7.181  0.00  0.00     0.231 C 
ATOM      3  O   LIG d   1       4.042  -3.386  -7.404  0.00  0.00    -0.275 OA
ATOM      4  C   LIG d   1       4.605  -1.563  -5.823  0.00  0.00     0.059 C 
ATOM      5  H   LIG d   1       3.799  -0.919  -5.470  0.00  0.00     0.041 H 
ATOM      6  C   LIG d   1       5.903  -0.843  -6.343  0.00  0.00     0.059 C 
ATOM      7  H   LIG d   1       6.554  -1.654  -6.671  0.00  0.00     0.041 H 
ATOM      8  C   LIG d   1       5.381  -0.227  -7.574  0.00  0.00     0.231 C 
ATOM      9  O   LIG d   1       5.597   0.877  -8.025  0.00  0.00    -0.275 OA
ATOM     10  C   LIG d   1       6.633  -0.144  -5.198  0.00  0.00     0.022 C 
ATOM     11  C   LIG d   1       7.490  -1.431  -4.933  0.00  0.00    -0.035 A 
ATOM     12  C   LIG d   1       8.839  -1.413  -4.790  0.00  0.00    -0.058 A 
ATOM     13  C   LIG d   1       9.497  -2.633  -4.655  0.00  0.00    -0.061 A 
ATOM     14  C   LIG d   1       8.771  -3.809  -4.684  0.00  0.00    -0.061 A 
ATOM     15  C   LIG d   1       7.390  -3.800  -4.800  0.00  0.00    -0.058 A 
ATOM     16  C   LIG d   1       6.735  -2.588  -4.881  0.00  0.00    -0.035 A 
ATOM     17  C   LIG d   1       5.195  -2.540  -4.739  0.00  0.00     0.022 C 
ATOM     18  C   LIG d   1       5.111  -1.459  -3.627  0.00  0.00    -0.035 A 
ATOM     19  C   LIG d   1       5.756  -0.247  -3.925  0.00  0.00    -0.035 A 
ATOM     20  C   LIG d   1       5.635   0.827  -3.073  0.00  0.00    -0.058 A 
ATOM     21  C   LIG d   1       4.908   0.672  -1.902  0.00  0.00    -0.061 A 
ATOM     22  C   LIG d   1       4.319  -0.539  -1.587  0.00  0.00    -0.061 A 
ATOM     23  C   LIG d   1       4.416  -1.638  -2.468  0.00  0.00    -0.058 A 
ATOM     24  H   LIG d   1       7.118   0.809  -5.404  0.00  0.00     0.041 H 
ATOM     25  H   LIG d   1       9.385  -0.482  -4.782  0.00  0.00     0.062 H 
ATOM     26  H   LIG d   1      10.569  -2.660  -4.528  0.00  0.00     0.062 H 
ATOM     27  H   LIG d   1       9.290  -4.754  -4.615  0.00  0.00     0.062 H 
ATOM     28  H   LIG d   1       6.836  -4.726  -4.827  0.00  0.00     0.062 H 
ATOM     29  H   LIG d   1       4.669  -3.483  -4.595  0.00  0.00     0.041 H 
ATOM     30  H   LIG d   1       6.098   1.773  -3.311  0.00  0.00     0.062 H 
ATOM     31  H   LIG d   1       4.801   1.508  -1.227  0.00  0.00     0.062 H 
ATOM     32  H   LIG d   1       3.782  -0.653  -0.657  0.00  0.00     0.062 H 
ATOM     33  H   LIG d   1       3.942  -2.582  -2.247  0.00  0.00     0.062 H 
ENDROOT
BRANCH   1  34
ATOM     34  C   LIG d   1       4.058  -1.217  -9.383  0.00  0.00     0.044 A 
ATOM     35  C   LIG d   1       4.801  -1.733 -10.435  0.00  0.00    -0.036 A 
ATOM     36  C   LIG d   1       4.284  -1.723 -11.716  0.00  0.00    -0.018 A 
ATOM     37  H   LIG d   1       5.785  -2.142 -10.253  0.00  0.00     0.064 H 
ATOM     38  C   LIG d   1       3.022  -1.198 -11.950  0.00  0.00     0.121 A 
ATOM     39  H   LIG d   1       4.863  -2.125 -12.534  0.00  0.00     0.066 H 
ATOM     40  C   LIG d   1       2.280  -0.678 -10.900  0.00  0.00    -0.018 A 
ATOM     41  C   LIG d   1       2.795  -0.691  -9.617  0.00  0.00    -0.036 A 
ATOM     42  H   LIG d   1       1.300  -0.265 -11.083  0.00  0.00     0.066 H 
ATOM     43  H   LIG d   1       2.216  -0.289  -8.800  0.00  0.00     0.064 H 
BRANCH  38  44
ATOM     44  O   LIG d   1       2.514  -1.188 -13.211  0.00  0.00    -0.492 OA
BRANCH  44  45
ATOM     45  C   LIG d   1       3.006  -2.178 -14.116  0.00  0.00     0.090 C 
ATOM     46  H   LIG d   1       2.215  -2.894 -14.338  0.00  0.00     0.070 H 
ATOM     47  H   LIG d   1       3.850  -2.697 -13.664  0.00  0.00     0.070 H 
BRANCH  45  48
ATOM     48  C   LIG d   1       3.459  -1.502 -15.413  0.00  0.00    -0.019 C 
ATOM     49  H   LIG d   1       2.824  -0.639 -15.613  0.00  0.00     0.030 H 
ATOM     50  H   LIG d   1       3.381  -2.210 -16.238  0.00  0.00     0.030 H 
BRANCH  48  51
ATOM     51  C   LIG d   1       4.911  -1.044 -15.268  0.00  0.00    -0.050 C 
ATOM     52  H   LIG d   1       5.578  -1.878 -15.489  0.00  0.00     0.027 H 
ATOM     53  H   LIG d   1       5.085  -0.700 -14.249  0.00  0.00     0.027 H 
BRANCH  51  54
ATOM     54  C   LIG d   1       5.185   0.101 -16.246  0.00  0.00    -0.056 C 
ATOM     55  H   LIG d   1       5.631  -0.299 -17.157  0.00  0.00     0.026 H 
ATOM     56  H   LIG d   1       5.870   0.814 -15.789  0.00  0.00     0.026 H 
BRANCH  54  57
ATOM     57  C   LIG d   1       3.870   0.804 -16.589  0.00  0.00    -0.065 C 
ATOM     58  H   LIG d   1       3.503   1.336 -15.711  0.00  0.00     0.023 H 
ATOM     59  H   LIG d   1       4.037   1.512 -17.400  0.00  0.00     0.023 H 
ATOM     60  H   LIG d   1       3.132   0.064 -16.898  0.00  0.00     0.023 H 
ENDBRANCH  54  57
ENDBRANCH  51  54
ENDBRANCH  48  51
ENDBRANCH  45  48
ENDBRANCH  44  45
ENDBRANCH  38  44
ENDBRANCH   1  34
TORSDOF 7
ENDMDL
MODEL 8
REMARK VINA RESULT:      -6.5      4.485      8.431
REMARK  7 active torsions:
REMARK  status: ('A' for Active; 'I' for Inactive)
REMARK    1  A    between atoms: C_1  and  C_2 
REMARK    2  A    between atoms: C_2  and  C_3 
REMARK    3  A    between atoms: C_3  and  C_4 
REMARK    4  A    between atoms: C_4  and  C_5 
REMARK    5  A    between atoms: C_5  and  O_6 
REMARK    6  A    between atoms: O_6  and  C_7 
REMARK    7  A    between atoms: C_10  and  N_13 
ROOT
ATOM      1  N   LIG d   1       8.260   1.673  -4.765  0.00  0.00    -0.210 N 
ATOM      2  C   LIG d   1       7.284   1.022  -4.055  0.00  0.00     0.231 C 
ATOM      3  O   LIG d   1       6.635   1.434  -3.117  0.00  0.00    -0.275 OA
ATOM      4  C   LIG d   1       7.208  -0.354  -4.734  0.00  0.00     0.059 C 
ATOM      5  H   LIG d   1       8.011  -1.045  -4.477  0.00  0.00     0.041 H 
ATOM      6  C   LIG d   1       7.263   0.282  -6.173  0.00  0.00     0.059 C 
ATOM      7  H   LIG d   1       6.403   0.952  -6.210  0.00  0.00     0.041 H 
ATOM      8  C   LIG d   1       8.441   1.152  -6.026  0.00  0.00     0.231 C 
ATOM      9  O   LIG d   1       9.340   1.356  -6.812  0.00  0.00    -0.275 OA
ATOM     10  C   LIG d   1       7.025  -0.780  -7.245  0.00  0.00     0.022 C 
ATOM     11  C   LIG d   1       5.483  -0.496  -7.212  0.00  0.00    -0.035 A 
ATOM     12  C   LIG d   1       4.737  -0.296  -8.327  0.00  0.00    -0.058 A 
ATOM     13  C   LIG d   1       3.396   0.043  -8.163  0.00  0.00    -0.061 A 
ATOM     14  C   LIG d   1       2.875   0.177  -6.889  0.00  0.00    -0.061 A 
ATOM     15  C   LIG d   1       3.650  -0.063  -5.766  0.00  0.00    -0.058 A 
ATOM     16  C   LIG d   1       4.964  -0.449  -5.931  0.00  0.00    -0.035 A 
ATOM     17  C   LIG d   1       5.764  -0.980  -4.718  0.00  0.00     0.022 C 
ATOM     18  C   LIG d   1       6.264  -2.309  -5.350  0.00  0.00    -0.035 A 
ATOM     19  C   LIG d   1       6.969  -2.166  -6.556  0.00  0.00    -0.035 A 
ATOM     20  C   LIG d   1       7.572  -3.258  -7.136  0.00  0.00    -0.058 A 
ATOM     21  C   LIG d   1       7.431  -4.499  -6.532  0.00  0.00    -0.061 A 
ATOM     22  C   LIG d   1       6.692  -4.644  -5.373  0.00  0.00    -0.061 A 
ATOM     23  C   LIG d   1       6.091  -3.524  -4.757  0.00  0.00    -0.058 A 
ATOM     24  H   LIG d   1       7.581  -0.699  -8.179  0.00  0.00     0.041 H 
ATOM     25  H   LIG d   1       5.170  -0.396  -9.312  0.00  0.00     0.062 H 
ATOM     26  H   LIG d   1       2.766   0.199  -9.026  0.00  0.00     0.062 H 
ATOM     27  H   LIG d   1       1.844   0.474  -6.768  0.00  0.00     0.062 H 
ATOM     28  H   LIG d   1       3.232   0.051  -4.777  0.00  0.00     0.062 H 
ATOM     29  H   LIG d   1       5.259  -1.015  -3.753  0.00  0.00     0.041 H 
ATOM     30  H   LIG d   1       8.145  -3.151  -8.046  0.00  0.00     0.062 H 
ATOM     31  H   LIG d   1       7.904  -5.363  -6.974  0.00  0.00     0.062 H 
ATOM     32  H   LIG d   1       6.565  -5.621  -4.931  0.00  0.00     0.062 H 
ATOM     33  H   LIG d   1       5.532  -3.618  -3.838  0.00  0.00     0.062 H 
ENDROOT
BRANCH   1  34
ATOM     34  C   LIG d   1       8.993   2.757  -4.260  0.00  0.00     0.044 A 
ATOM     35  C   LIG d   1       8.845   4.018  -4.821  0.00  0.00    -0.036 A 
ATOM     36  C   LIG d   1       9.567   5.085  -4.324  0.00  0.00    -0.018 A 
ATOM     37  H   LIG d   1       8.165   4.164  -5.648  0.00  0.00     0.064 H 
ATOM     38  C   LIG d   1      10.440   4.897  -3.262  0.00  0.00     0.121 A 
ATOM     39  H   LIG d   1       9.451   6.065  -4.760  0.00  0.00     0.066 H 
ATOM     40  C   LIG d   1      10.592   3.636  -2.703  0.00  0.00    -0.018 A 
ATOM     41  C   LIG d   1       9.867   2.569  -3.197  0.00  0.00    -0.036 A 
ATOM     42  H   LIG d   1      11.275   3.489  -1.880  0.00  0.00     0.066 H 
ATOM     43  H   LIG d   1       9.983   1.589  -2.760  0.00  0.00     0.064 H 
BRANCH  38  44
ATOM     44  O   LIG d   1      11.150   5.948  -2.772  0.00  0.00    -0.492 OA
BRANCH  44  45
ATOM     45  C   LIG d   1      10.441   7.170  -2.567  0.00  0.00     0.090 C 
ATOM     46  H   LIG d   1       9.690   7.292  -3.348  0.00  0.00     0.070 H 
ATOM     47  H   LIG d   1      11.139   8.006  -2.602  0.00  0.00     0.070 H 
BRANCH  45  48
ATOM     48  C   LIG d   1       9.753   7.138  -1.201  0.00  0.00    -0.019 C 
ATOM     49  H   LIG d   1       9.782   6.123  -0.803  0.00  0.00     0.030 H 
ATOM     50  H   LIG d   1       8.716   7.457  -1.308  0.00  0.00     0.030 H 
BRANCH  48  51
ATOM     51  C   LIG d   1      10.481   8.082  -0.241  0.00  0.00    -0.050 C 
ATOM     52  H   LIG d   1       9.769   8.485   0.480  0.00  0.00     0.027 H 
ATOM     53  H   LIG d   1      10.930   8.899  -0.804  0.00  0.00     0.027 H 
BRANCH  51  54
ATOM     54  C   LIG d   1      11.576   7.311   0.500  0.00  0.00    -0.056 C 
ATOM     55  H   LIG d   1      11.860   7.857   1.398  0.00  0.00     0.026 H 
ATOM     56  H   LIG d   1      12.445   7.200  -0.149  0.00  0.00     0.026 H 
BRANCH  54  57
ATOM     57  C   LIG d   1      11.051   5.927   0.890  0.00  0.00    -0.065 C 
ATOM     58  H   LIG d   1      11.882   5.305   1.224  0.00  0.00     0.023 H 
ATOM     59  H   LIG d   1      10.325   6.028   1.696  0.00  0.00     0.023 H 
ATOM     60  H   LIG d   1      10.575   5.463   0.026  0.00  0.00     0.023 H 
ENDBRANCH  54  57
ENDBRANCH  51  54
ENDBRANCH  48  51
ENDBRANCH  45  48
ENDBRANCH  44  45
ENDBRANCH  38  44
ENDBRANCH   1  34
TORSDOF 7
ENDMDL
MODEL 9
REMARK VINA RESULT:      -6.5      4.685      7.500
REMARK  7 active torsions:
REMARK  status: ('A' for Active; 'I' for Inactive)
REMARK    1  A    between atoms: C_1  and  C_2 
REMARK    2  A    between atoms: C_2  and  C_3 
REMARK    3  A    between atoms: C_3  and  C_4 
REMARK    4  A    between atoms: C_4  and  C_5 
REMARK    5  A    between atoms: C_5  and  O_6 
REMARK    6  A    between atoms: O_6  and  C_7 
REMARK    7  A    between atoms: C_10  and  N_13 
ROOT
ATOM      1  N   LIG d   1       8.250  -0.260  -5.849  0.00  0.00    -0.210 N 
ATOM      2  C   LIG d   1       7.939  -1.534  -5.444  0.00  0.00     0.231 C 
ATOM      3  O   LIG d   1       8.529  -2.235  -4.649  0.00  0.00    -0.275 OA
ATOM      4  C   LIG d   1       6.665  -1.858  -6.237  0.00  0.00     0.059 C 
ATOM      5  H   LIG d   1       6.822  -2.111  -7.286  0.00  0.00     0.041 H 
ATOM      6  C   LIG d   1       6.043  -0.444  -5.941  0.00  0.00     0.059 C 
ATOM      7  H   LIG d   1       6.003  -0.385  -4.853  0.00  0.00     0.041 H 
ATOM      8  C   LIG d   1       7.163   0.421  -6.346  0.00  0.00     0.231 C 
ATOM      9  O   LIG d   1       7.135   1.465  -6.962  0.00  0.00    -0.275 OA
ATOM     10  C   LIG d   1       4.597  -0.374  -6.427  0.00  0.00     0.022 C 
ATOM     11  C   LIG d   1       4.082  -0.860  -5.029  0.00  0.00    -0.035 A 
ATOM     12  C   LIG d   1       3.079  -0.249  -4.349  0.00  0.00    -0.058 A 
ATOM     13  C   LIG d   1       2.777  -0.716  -3.072  0.00  0.00    -0.061 A 
ATOM     14  C   LIG d   1       3.504  -1.764  -2.537  0.00  0.00    -0.061 A 
ATOM     15  C   LIG d   1       4.502  -2.392  -3.263  0.00  0.00    -0.058 A 
ATOM     16  C   LIG d   1       4.765  -1.962  -4.548  0.00  0.00    -0.035 A 
ATOM     17  C   LIG d   1       5.675  -2.810  -5.467  0.00  0.00     0.022 C 
ATOM     18  C   LIG d   1       4.720  -2.909  -6.690  0.00  0.00    -0.035 A 
ATOM     19  C   LIG d   1       4.278  -1.678  -7.201  0.00  0.00    -0.035 A 
ATOM     20  C   LIG d   1       3.537  -1.638  -8.360  0.00  0.00    -0.058 A 
ATOM     21  C   LIG d   1       3.202  -2.833  -8.980  0.00  0.00    -0.061 A 
ATOM     22  C   LIG d   1       3.595  -4.045  -8.444  0.00  0.00    -0.061 A 
ATOM     23  C   LIG d   1       4.377  -4.094  -7.269  0.00  0.00    -0.058 A 
ATOM     24  H   LIG d   1       4.242   0.566  -6.850  0.00  0.00     0.041 H 
ATOM     25  H   LIG d   1       2.534   0.576  -4.784  0.00  0.00     0.062 H 
ATOM     26  H   LIG d   1       1.978  -0.263  -2.503  0.00  0.00     0.062 H 
ATOM     27  H   LIG d   1       3.288  -2.099  -1.533  0.00  0.00     0.062 H 
ATOM     28  H   LIG d   1       5.066  -3.205  -2.831  0.00  0.00     0.062 H 
ATOM     29  H   LIG d   1       6.100  -3.725  -5.057  0.00  0.00     0.041 H 
ATOM     30  H   LIG d   1       3.223  -0.694  -8.779  0.00  0.00     0.062 H 
ATOM     31  H   LIG d   1       2.627  -2.816  -9.893  0.00  0.00     0.062 H 
ATOM     32  H   LIG d   1       3.301  -4.968  -8.921  0.00  0.00     0.062 H 
ATOM     33  H   LIG d   1       4.712  -5.032  -6.852  0.00  0.00     0.062 H 
ENDROOT
BRANCH   1  34
ATOM     34  C   LIG d   1       9.537   0.290  -5.759  0.00  0.00     0.044 A 
ATOM     35  C   LIG d   1      10.467   0.050  -6.761  0.00  0.00    -0.036 A 
ATOM     36  C   LIG d   1      11.734   0.591  -6.672  0.00  0.00    -0.018 A 
ATOM     37  H   LIG d   1      10.200  -0.563  -7.610  0.00  0.00     0.064 H 
ATOM     38  C   LIG d   1      12.077   1.377  -5.581  0.00  0.00     0.121 A 
ATOM     39  H   LIG d   1      12.457   0.404  -7.451  0.00  0.00     0.066 H 
ATOM     40  C   LIG d   1      11.150   1.614  -4.577  0.00  0.00    -0.018 A 
ATOM     41  C   LIG d   1       9.881   1.076  -4.668  0.00  0.00    -0.036 A 
ATOM     42  H   LIG d   1      11.419   2.222  -3.726  0.00  0.00     0.066 H 
ATOM     43  H   LIG d   1       9.158   1.264  -3.887  0.00  0.00     0.064 H 
BRANCH  38  44
ATOM     44  O   LIG d   1      13.325   1.910  -5.494  0.00  0.00    -0.492 OA
BRANCH  44  45
ATOM     45  C   LIG d   1      14.155   1.449  -4.428  0.00  0.00     0.090 C 
ATOM     46  H   LIG d   1      13.546   0.917  -3.697  0.00  0.00     0.070 H 
ATOM     47  H   LIG d   1      14.637   2.299  -3.948  0.00  0.00     0.070 H 
BRANCH  45  48
ATOM     48  C   LIG d   1      15.222   0.504  -4.984  0.00  0.00    -0.019 C 
ATOM     49  H   LIG d   1      16.129   0.587  -4.385  0.00  0.00     0.030 H 
ATOM     50  H   LIG d   1      15.443   0.773  -6.017  0.00  0.00     0.030 H 
BRANCH  48  51
ATOM     51  C   LIG d   1      14.707  -0.936  -4.931  0.00  0.00    -0.050 C 
ATOM     52  H   LIG d   1      15.553  -1.623  -4.897  0.00  0.00     0.027 H 
ATOM     53  H   LIG d   1      14.108  -1.141  -5.818  0.00  0.00     0.027 H 
BRANCH  51  54
ATOM     54  C   LIG d   1      13.846  -1.123  -3.680  0.00  0.00    -0.056 C 
ATOM     55  H   LIG d   1      13.539  -0.149  -3.302  0.00  0.00     0.026 H 
ATOM     56  H   LIG d   1      14.423  -1.644  -2.916  0.00  0.00     0.026 H 
BRANCH  54  57
ATOM     57  C   LIG d   1      12.605  -1.947  -4.033  0.00  0.00    -0.065 C 
ATOM     58  H   LIG d   1      12.401  -1.856  -5.100  0.00  0.00     0.023 H 
ATOM     59  H   LIG d   1      12.781  -2.993  -3.784  0.00  0.00     0.023 H 
ATOM     60  H   LIG d   1      11.751  -1.576  -3.467  0.00  0.00     0.023 H 
ENDBRANCH  54  57
ENDBRANCH  51  54
ENDBRANCH  48  51
ENDBRANCH  45  48
ENDBRANCH  44  45
ENDBRANCH  38  44
ENDBRANCH   1  34
TORSDOF 7
ENDMDL
MODEL 10
REMARK VINA RESULT:      -6.4     10.899     14.853
REMARK  7 active torsions:
REMARK  status: ('A' for Active; 'I' for Inactive)
REMARK    1  A    between atoms: C_1  and  C_2 
REMARK    2  A    between atoms: C_2  and  C_3 
REMARK    3  A    between atoms: C_3  and  C_4 
REMARK    4  A    between atoms: C_4  and  C_5 
REMARK    5  A    between atoms: C_5  and  O_6 
REMARK    6  A    between atoms: O_6  and  C_7 
REMARK    7  A    between atoms: C_10  and  N_13 
ROOT
ATOM      1  N   LIG d   1      11.101   6.667  -1.112  0.00  0.00    -0.210 N 
ATOM      2  C   LIG d   1       9.904   6.554  -1.772  0.00  0.00     0.231 C 
ATOM      3  O   LIG d   1       8.831   7.032  -1.469  0.00  0.00    -0.275 OA
ATOM      4  C   LIG d   1      10.248   5.679  -2.986  0.00  0.00     0.059 C 
ATOM      5  H   LIG d   1      10.359   4.615  -2.775  0.00  0.00     0.041 H 
ATOM      6  C   LIG d   1      11.572   6.480  -3.270  0.00  0.00     0.059 C 
ATOM      7  H   LIG d   1      11.243   7.508  -3.420  0.00  0.00     0.041 H 
ATOM      8  C   LIG d   1      12.185   6.449  -1.932  0.00  0.00     0.231 C 
ATOM      9  O   LIG d   1      13.345   6.274  -1.629  0.00  0.00    -0.275 OA
ATOM     10  C   LIG d   1      12.204   6.035  -4.588  0.00  0.00     0.022 C 
ATOM     11  C   LIG d   1      11.406   7.138  -5.365  0.00  0.00    -0.035 A 
ATOM     12  C   LIG d   1      11.978   7.984  -6.258  0.00  0.00    -0.058 A 
ATOM     13  C   LIG d   1      11.183   8.983  -6.812  0.00  0.00    -0.061 A 
ATOM     14  C   LIG d   1       9.857   9.093  -6.434  0.00  0.00    -0.061 A 
ATOM     15  C   LIG d   1       9.288   8.197  -5.544  0.00  0.00    -0.058 A 
ATOM     16  C   LIG d   1      10.063   7.175  -5.036  0.00  0.00    -0.035 A 
ATOM     17  C   LIG d   1       9.391   6.016  -4.263  0.00  0.00     0.022 C 
ATOM     18  C   LIG d   1      10.004   4.834  -5.064  0.00  0.00    -0.035 A 
ATOM     19  C   LIG d   1      11.407   4.821  -5.126  0.00  0.00    -0.035 A 
ATOM     20  C   LIG d   1      12.062   3.753  -5.694  0.00  0.00    -0.058 A 
ATOM     21  C   LIG d   1      11.312   2.721  -6.239  0.00  0.00    -0.061 A 
ATOM     22  C   LIG d   1       9.930   2.764  -6.223  0.00  0.00    -0.061 A 
ATOM     23  C   LIG d   1       9.250   3.844  -5.618  0.00  0.00    -0.058 A 
ATOM     24  H   LIG d   1      13.291   5.995  -4.647  0.00  0.00     0.041 H 
ATOM     25  H   LIG d   1      13.019   7.886  -6.529  0.00  0.00     0.062 H 
ATOM     26  H   LIG d   1      11.599   9.670  -7.535  0.00  0.00     0.062 H 
ATOM     27  H   LIG d   1       9.254   9.892  -6.840  0.00  0.00     0.062 H 
ATOM     28  H   LIG d   1       8.253   8.297  -5.252  0.00  0.00     0.062 H 
ATOM     29  H   LIG d   1       8.311   6.055  -4.128  0.00  0.00     0.041 H 
ATOM     30  H   LIG d   1      13.142   3.718  -5.715  0.00  0.00     0.062 H 
ATOM     31  H   LIG d   1      11.813   1.875  -6.683  0.00  0.00     0.062 H 
ATOM     32  H   LIG d   1       9.359   1.968  -6.678  0.00  0.00     0.062 H 
ATOM     33  H   LIG d   1       8.171   3.878  -5.576  0.00  0.00     0.062 H 
ENDROOT
BRANCH   1  34
ATOM     34  C   LIG d   1      11.209   6.977   0.252  0.00  0.00     0.044 A 
ATOM     35  C   LIG d   1      11.531   8.267   0.648  0.00  0.00    -0.036 A 
ATOM     36  C   LIG d   1      11.637   8.571   1.991  0.00  0.00    -0.018 A 
ATOM     37  H   LIG d   1      11.700   9.034  -0.094  0.00  0.00     0.064 H 
ATOM     38  C   LIG d   1      11.421   7.587   2.944  0.00  0.00     0.121 A 
ATOM     39  H   LIG d   1      11.887   9.575   2.299  0.00  0.00     0.066 H 
ATOM     40  C   LIG d   1      11.103   6.295   2.549  0.00  0.00    -0.018 A 
ATOM     41  C   LIG d   1      10.992   5.991   1.206  0.00  0.00    -0.036 A 
ATOM     42  H   LIG d   1      10.939   5.528   3.291  0.00  0.00     0.066 H 
ATOM     43  H   LIG d   1      10.742   4.987   0.899  0.00  0.00     0.064 H 
BRANCH  38  44
ATOM     44  O   LIG d   1      11.525   7.887   4.266  0.00  0.00    -0.492 OA
BRANCH  44  45
ATOM     45  C   LIG d   1      11.615   6.789   5.175  0.00  0.00     0.090 C 
ATOM     46  H   LIG d   1      12.632   6.717   5.560  0.00  0.00     0.070 H 
ATOM     47  H   LIG d   1      11.358   5.866   4.657  0.00  0.00     0.070 H 
BRANCH  45  48
ATOM     48  C   LIG d   1      10.645   7.009   6.338  0.00  0.00    -0.019 C 
ATOM     49  H   LIG d   1       9.620   6.918   5.978  0.00  0.00     0.030 H 
ATOM     50  H   LIG d   1      10.797   8.004   6.756  0.00  0.00     0.030 H 
BRANCH  48  51
ATOM     51  C   LIG d   1      10.899   5.957   7.420  0.00  0.00    -0.050 C 
ATOM     52  H   LIG d   1      11.972   5.871   7.598  0.00  0.00     0.027 H 
ATOM     53  H   LIG d   1      10.507   4.995   7.092  0.00  0.00     0.027 H 
BRANCH  51  54
ATOM     54  C   LIG d   1      10.200   6.378   8.715  0.00  0.00    -0.056 C 
ATOM     55  H   LIG d   1       9.565   7.241   8.520  0.00  0.00     0.026 H 
ATOM     56  H   LIG d   1      10.948   6.639   9.463  0.00  0.00     0.026 H 
BRANCH  54  57
ATOM     57  C   LIG d   1       9.343   5.220   9.232  0.00  0.00    -0.065 C 
ATOM     58  H   LIG d   1       8.297   5.406   8.988  0.00  0.00     0.023 H 
ATOM     59  H   LIG d   1       9.667   4.291   8.764  0.00  0.00     0.023 H 
ATOM     60  H   LIG d   1       9.455   5.141  10.313  0.00  0.00     0.023 H 
ENDBRANCH  54  57
ENDBRANCH  51  54
ENDBRANCH  48  51
ENDBRANCH  45  48
ENDBRANCH  44  45
ENDBRANCH  38  44
ENDBRANCH   1  34
TORSDOF 7
ENDMDL
