MODEL 1
REMARK VINA RESULT:      -6.1      0.000      0.000
REMARK  4 active torsions:
REMARK  status: ('A' for Active; 'I' for Inactive)
REMARK    1  A    between atoms: C_1  and  C_2 
REMARK    2  A    between atoms: C_7  and  C_22 
REMARK    3  A    between atoms: C_17  and  O_20 
REMARK    4  A    between atoms: O_20  and  C_21 
ROOT
ATOM      1  C   LIG d   1       7.265  -1.491  -4.047  0.00  0.00    -0.019 A 
ATOM      2  C   LIG d   1       5.990  -1.337  -3.494  0.00  0.00    -0.010 A 
ATOM      3  C   LIG d   1       5.142  -2.439  -3.261  0.00  0.00    -0.035 A 
ATOM      4  C   LIG d   1       3.914  -2.216  -2.719  0.00  0.00     0.029 A 
ATOM      5  N   LIG d   1       3.496  -0.996  -2.405  0.00  0.00    -0.260 NA
ATOM      6  C   LIG d   1       4.229   0.076  -2.592  0.00  0.00     0.046 A 
ATOM      7  C   LIG d   1       5.513  -0.042  -3.152  0.00  0.00     0.004 A 
ATOM      8  C   LIG d   1       6.327   1.077  -3.374  0.00  0.00    -0.043 A 
ATOM      9  C   LIG d   1       7.582   0.907  -3.927  0.00  0.00     0.008 A 
ATOM     10  C   LIG d   1       8.054  -0.381  -4.271  0.00  0.00     0.051 A 
ATOM     11  N   LIG d   1       9.328  -0.248  -4.798  0.00  0.00    -0.354 N 
ATOM     12  H   LIG d   1       9.877  -0.983  -5.112  0.00  0.00     0.166 HD
ATOM     13  C   LIG d   1       9.707   1.086  -4.811  0.00  0.00     0.048 A 
ATOM     14  C   LIG d   1       8.660   1.852  -4.280  0.00  0.00     0.011 A 
ATOM     15  C   LIG d   1       8.787   3.235  -4.179  0.00  0.00    -0.010 A 
ATOM     16  C   LIG d   1       9.951   3.850  -4.605  0.00  0.00     0.121 A 
ATOM     17  C   LIG d   1      10.989   3.090  -5.132  0.00  0.00    -0.018 A 
ATOM     18  C   LIG d   1      10.870   1.720  -5.234  0.00  0.00    -0.034 A 
ATOM     19  H   LIG d   1       5.460  -3.441  -3.509  0.00  0.00     0.064 H 
ATOM     20  H   LIG d   1       3.260  -3.056  -2.539  0.00  0.00     0.083 H 
ATOM     21  H   LIG d   1       5.975   2.064  -3.115  0.00  0.00     0.063 H 
ATOM     22  H   LIG d   1       7.980   3.825  -3.771  0.00  0.00     0.066 H 
ATOM     23  H   LIG d   1      11.895   3.576  -5.462  0.00  0.00     0.066 H 
ATOM     24  H   LIG d   1      11.682   1.139  -5.645  0.00  0.00     0.064 H 
ENDROOT
BRANCH  16  25
ATOM     25  O   LIG d   1      10.080   5.201  -4.508  0.00  0.00    -0.495 OA
BRANCH  25  26
ATOM     26  C   LIG d   1      10.049   5.762  -3.194  0.00  0.00     0.079 C 
ATOM     27  H   LIG d   1       9.085   6.246  -3.029  0.00  0.00     0.066 H 
ATOM     28  H   LIG d   1      10.188   4.971  -2.458  0.00  0.00     0.066 H 
ATOM     29  H   LIG d   1      10.846   6.498  -3.094  0.00  0.00     0.066 H 
ENDBRANCH  25  26
ENDBRANCH  16  25
BRANCH   1  30
ATOM     30  C   LIG d   1       7.767  -2.864  -4.414  0.00  0.00    -0.037 C 
ATOM     31  H   LIG d   1       6.997  -3.603  -4.194  0.00  0.00     0.028 H 
ATOM     32  H   LIG d   1       8.004  -2.891  -5.478  0.00  0.00     0.028 H 
ATOM     33  H   LIG d   1       8.663  -3.089  -3.837  0.00  0.00     0.028 H 
ENDBRANCH   1  30
BRANCH   6  34
ATOM     34  C   LIG d   1       3.693   1.432  -2.213  0.00  0.00    -0.022 C 
ATOM     35  H   LIG d   1       4.079   2.182  -2.905  0.00  0.00     0.029 H 
ATOM     36  H   LIG d   1       4.010   1.678  -1.199  0.00  0.00     0.029 H 
ATOM     37  H   LIG d   1       2.605   1.419  -2.261  0.00  0.00     0.029 H 
ENDBRANCH   6  34
TORSDOF 4
ENDMDL
MODEL 2
REMARK VINA RESULT:      -6.0      5.311      6.951
REMARK  4 active torsions:
REMARK  status: ('A' for Active; 'I' for Inactive)
REMARK    1  A    between atoms: C_1  and  C_2 
REMARK    2  A    between atoms: C_7  and  C_22 
REMARK    3  A    between atoms: C_17  and  O_20 
REMARK    4  A    between atoms: O_20  and  C_21 
ROOT
ATOM      1  C   LIG d   1       4.534  -2.227  -8.694  0.00  0.00    -0.019 A 
ATOM      2  C   LIG d   1       4.367  -1.137  -9.553  0.00  0.00    -0.010 A 
ATOM      3  C   LIG d   1       4.494  -1.265 -10.951  0.00  0.00    -0.035 A 
ATOM      4  C   LIG d   1       4.317  -0.163 -11.728  0.00  0.00     0.029 A 
ATOM      5  N   LIG d   1       4.032   1.025 -11.208  0.00  0.00    -0.260 NA
ATOM      6  C   LIG d   1       3.898   1.221  -9.917  0.00  0.00     0.046 A 
ATOM      7  C   LIG d   1       4.065   0.148  -9.024  0.00  0.00     0.004 A 
ATOM      8  C   LIG d   1       3.937   0.314  -7.639  0.00  0.00    -0.043 A 
ATOM      9  C   LIG d   1       4.110  -0.773  -6.803  0.00  0.00     0.008 A 
ATOM     10  C   LIG d   1       4.415  -2.049  -7.330  0.00  0.00     0.051 A 
ATOM     11  N   LIG d   1       4.531  -2.936  -6.273  0.00  0.00    -0.354 N 
ATOM     12  H   LIG d   1       4.736  -3.880  -6.361  0.00  0.00     0.166 HD
ATOM     13  C   LIG d   1       4.312  -2.282  -5.069  0.00  0.00     0.048 A 
ATOM     14  C   LIG d   1       4.045  -0.932  -5.337  0.00  0.00     0.011 A 
ATOM     15  C   LIG d   1       3.788  -0.049  -4.292  0.00  0.00    -0.010 A 
ATOM     16  C   LIG d   1       3.796  -0.510  -2.987  0.00  0.00     0.121 A 
ATOM     17  C   LIG d   1       4.061  -1.848  -2.721  0.00  0.00    -0.018 A 
ATOM     18  C   LIG d   1       4.317  -2.728  -3.752  0.00  0.00    -0.034 A 
ATOM     19  H   LIG d   1       4.726  -2.221 -11.397  0.00  0.00     0.064 H 
ATOM     20  H   LIG d   1       4.414  -0.255 -12.800  0.00  0.00     0.083 H 
ATOM     21  H   LIG d   1       3.705   1.286  -7.228  0.00  0.00     0.063 H 
ATOM     22  H   LIG d   1       3.582   0.990  -4.498  0.00  0.00     0.066 H 
ATOM     23  H   LIG d   1       4.066  -2.201  -1.701  0.00  0.00     0.066 H 
ATOM     24  H   LIG d   1       4.522  -3.766  -3.535  0.00  0.00     0.064 H 
ENDROOT
BRANCH  16  25
ATOM     25  O   LIG d   1       3.544   0.349  -1.963  0.00  0.00    -0.495 OA
BRANCH  25  26
ATOM     26  C   LIG d   1       4.613   1.208  -1.559  0.00  0.00     0.079 C 
ATOM     27  H   LIG d   1       4.205   2.163  -1.227  0.00  0.00     0.066 H 
ATOM     28  H   LIG d   1       5.161   0.744  -0.739  0.00  0.00     0.066 H 
ATOM     29  H   LIG d   1       5.285   1.372  -2.401  0.00  0.00     0.066 H 
ENDBRANCH  25  26
ENDBRANCH  16  25
BRANCH   1  30
ATOM     30  C   LIG d   1       4.859  -3.587  -9.255  0.00  0.00    -0.037 C 
ATOM     31  H   LIG d   1       5.428  -3.473 -10.177  0.00  0.00     0.028 H 
ATOM     32  H   LIG d   1       5.451  -4.146  -8.529  0.00  0.00     0.028 H 
ATOM     33  H   LIG d   1       3.935  -4.126  -9.462  0.00  0.00     0.028 H 
ENDBRANCH   1  30
BRANCH   6  34
ATOM     34  C   LIG d   1       3.573   2.595  -9.393  0.00  0.00    -0.022 C 
ATOM     35  H   LIG d   1       2.498   2.766  -9.462  0.00  0.00     0.029 H 
ATOM     36  H   LIG d   1       4.098   3.345  -9.986  0.00  0.00     0.029 H 
ATOM     37  H   LIG d   1       3.886   2.671  -8.352  0.00  0.00     0.029 H 
ENDBRANCH   6  34
TORSDOF 4
ENDMDL
MODEL 3
REMARK VINA RESULT:      -5.9      5.441      6.856
REMARK  4 active torsions:
REMARK  status: ('A' for Active; 'I' for Inactive)
REMARK    1  A    between atoms: C_1  and  C_2 
REMARK    2  A    between atoms: C_7  and  C_22 
REMARK    3  A    between atoms: C_17  and  O_20 
REMARK    4  A    between atoms: O_20  and  C_21 
ROOT
ATOM      1  C   LIG d   1       3.087   0.308  -5.309  0.00  0.00    -0.019 A 
ATOM      2  C   LIG d   1       3.522  -0.805  -4.583  0.00  0.00    -0.010 A 
ATOM      3  C   LIG d   1       3.275  -0.934  -3.201  0.00  0.00    -0.035 A 
ATOM      4  C   LIG d   1       3.726  -2.045  -2.557  0.00  0.00     0.029 A 
ATOM      5  N   LIG d   1       4.389  -3.004  -3.192  0.00  0.00    -0.260 NA
ATOM      6  C   LIG d   1       4.655  -2.953  -4.476  0.00  0.00     0.046 A 
ATOM      7  C   LIG d   1       4.238  -1.846  -5.235  0.00  0.00     0.004 A 
ATOM      8  C   LIG d   1       4.506  -1.749  -6.607  0.00  0.00    -0.043 A 
ATOM      9  C   LIG d   1       4.073  -0.639  -7.308  0.00  0.00     0.008 A 
ATOM     10  C   LIG d   1       3.365   0.397  -6.658  0.00  0.00     0.051 A 
ATOM     11  N   LIG d   1       3.063   1.369  -7.598  0.00  0.00    -0.354 N 
ATOM     12  H   LIG d   1       2.579   2.189  -7.411  0.00  0.00     0.166 HD
ATOM     13  C   LIG d   1       3.550   1.003  -8.844  0.00  0.00     0.048 A 
ATOM     14  C   LIG d   1       4.189  -0.240  -8.724  0.00  0.00     0.011 A 
ATOM     15  C   LIG d   1       4.769  -0.837  -9.840  0.00  0.00    -0.010 A 
ATOM     16  C   LIG d   1       4.712  -0.200 -11.067  0.00  0.00     0.121 A 
ATOM     17  C   LIG d   1       4.078   1.032 -11.185  0.00  0.00    -0.018 A 
ATOM     18  C   LIG d   1       3.502   1.629 -10.084  0.00  0.00    -0.034 A 
ATOM     19  H   LIG d   1       2.738  -0.167  -2.663  0.00  0.00     0.064 H 
ATOM     20  H   LIG d   1       3.541  -2.149  -1.499  0.00  0.00     0.083 H 
ATOM     21  H   LIG d   1       5.046  -2.536  -7.112  0.00  0.00     0.063 H 
ATOM     22  H   LIG d   1       5.261  -1.794  -9.749  0.00  0.00     0.066 H 
ATOM     23  H   LIG d   1       4.037   1.524 -12.145  0.00  0.00     0.066 H 
ATOM     24  H   LIG d   1       3.012   2.587 -10.186  0.00  0.00     0.064 H 
ENDROOT
BRANCH  16  25
ATOM     25  O   LIG d   1       5.276  -0.780 -12.160  0.00  0.00    -0.495 OA
BRANCH  25  26
ATOM     26  C   LIG d   1       4.553  -0.687 -13.390  0.00  0.00     0.079 C 
ATOM     27  H   LIG d   1       4.559  -1.656 -13.889  0.00  0.00     0.066 H 
ATOM     28  H   LIG d   1       3.525  -0.390 -13.185  0.00  0.00     0.066 H 
ATOM     29  H   LIG d   1       5.026   0.055 -14.034  0.00  0.00     0.066 H 
ENDBRANCH  25  26
ENDBRANCH  16  25
BRANCH   1  30
ATOM     30  C   LIG d   1       2.332   1.413  -4.616  0.00  0.00    -0.037 C 
ATOM     31  H   LIG d   1       2.973   2.291  -4.528  0.00  0.00     0.028 H 
ATOM     32  H   LIG d   1       1.447   1.667  -5.199  0.00  0.00     0.028 H 
ATOM     33  H   LIG d   1       2.032   1.082  -3.623  0.00  0.00     0.028 H 
ENDBRANCH   1  30
BRANCH   6  34
ATOM     34  C   LIG d   1       5.412  -4.077  -5.134  0.00  0.00    -0.022 C 
ATOM     35  H   LIG d   1       5.161  -5.019  -4.646  0.00  0.00     0.029 H 
ATOM     36  H   LIG d   1       6.483  -3.896  -5.045  0.00  0.00     0.029 H 
ATOM     37  H   LIG d   1       5.140  -4.130  -6.188  0.00  0.00     0.029 H 
ENDBRANCH   6  34
TORSDOF 4
ENDMDL
MODEL 4
REMARK VINA RESULT:      -5.6      6.181      9.009
REMARK  4 active torsions:
REMARK  status: ('A' for Active; 'I' for Inactive)
REMARK    1  A    between atoms: C_1  and  C_2 
REMARK    2  A    between atoms: C_7  and  C_22 
REMARK    3  A    between atoms: C_17  and  O_20 
REMARK    4  A    between atoms: O_20  and  C_21 
ROOT
ATOM      1  C   LIG d   1       9.687   6.368  -4.233  0.00  0.00    -0.019 A 
ATOM      2  C   LIG d   1       9.639   7.520  -5.025  0.00  0.00    -0.010 A 
ATOM      3  C   LIG d   1       9.286   7.471  -6.388  0.00  0.00    -0.035 A 
ATOM      4  C   LIG d   1       9.259   8.631  -7.099  0.00  0.00     0.029 A 
ATOM      5  N   LIG d   1       9.556   9.801  -6.545  0.00  0.00    -0.260 NA
ATOM      6  C   LIG d   1       9.893   9.923  -5.283  0.00  0.00     0.046 A 
ATOM      7  C   LIG d   1       9.957   8.786  -4.460  0.00  0.00     0.004 A 
ATOM      8  C   LIG d   1      10.318   8.871  -3.109  0.00  0.00    -0.043 A 
ATOM      9  C   LIG d   1      10.365   7.722  -2.343  0.00  0.00     0.008 A 
ATOM     10  C   LIG d   1      10.054   6.463  -2.906  0.00  0.00     0.051 A 
ATOM     11  N   LIG d   1      10.184   5.503  -1.916  0.00  0.00    -0.354 N 
ATOM     12  H   LIG d   1      10.027   4.554  -2.040  0.00  0.00     0.166 HD
ATOM     13  C   LIG d   1      10.571   6.092  -0.721  0.00  0.00     0.048 A 
ATOM     14  C   LIG d   1      10.699   7.473  -0.927  0.00  0.00     0.011 A 
ATOM     15  C   LIG d   1      11.080   8.304   0.124  0.00  0.00    -0.010 A 
ATOM     16  C   LIG d   1      11.330   7.761   1.372  0.00  0.00     0.121 A 
ATOM     17  C   LIG d   1      11.203   6.391   1.575  0.00  0.00    -0.018 A 
ATOM     18  C   LIG d   1      10.827   5.563   0.539  0.00  0.00    -0.034 A 
ATOM     19  H   LIG d   1       9.040   6.531  -6.860  0.00  0.00     0.064 H 
ATOM     20  H   LIG d   1       8.989   8.601  -8.144  0.00  0.00     0.083 H 
ATOM     21  H   LIG d   1      10.558   9.828  -2.671  0.00  0.00     0.063 H 
ATOM     22  H   LIG d   1      11.179   9.367  -0.034  0.00  0.00     0.066 H 
ATOM     23  H   LIG d   1      11.401   5.974   2.551  0.00  0.00     0.066 H 
ATOM     24  H   LIG d   1      10.731   4.500   0.707  0.00  0.00     0.064 H 
ENDROOT
BRANCH  16  25
ATOM     25  O   LIG d   1      11.701   8.568   2.402  0.00  0.00    -0.495 OA
BRANCH  25  26
ATOM     26  C   LIG d   1      12.160   9.879   2.065  0.00  0.00     0.079 C 
ATOM     27  H   LIG d   1      13.102   9.806   1.521  0.00  0.00     0.066 H 
ATOM     28  H   LIG d   1      11.417  10.374   1.439  0.00  0.00     0.066 H 
ATOM     29  H   LIG d   1      12.311  10.457   2.977  0.00  0.00     0.066 H 
ENDBRANCH  25  26
ENDBRANCH  16  25
BRANCH   1  30
ATOM     30  C   LIG d   1       9.356   5.026  -4.833  0.00  0.00    -0.037 C 
ATOM     31  H   LIG d   1       8.910   5.168  -5.818  0.00  0.00     0.028 H 
ATOM     32  H   LIG d   1      10.268   4.437  -4.929  0.00  0.00     0.028 H 
ATOM     33  H   LIG d   1       8.651   4.503  -4.188  0.00  0.00     0.028 H 
ENDBRANCH   1  30
BRANCH   6  34
ATOM     34  C   LIG d   1      10.218  11.282  -4.718  0.00  0.00    -0.022 C 
ATOM     35  H   LIG d   1      10.372  11.201  -3.642  0.00  0.00     0.029 H 
ATOM     36  H   LIG d   1       9.392  11.965  -4.916  0.00  0.00     0.029 H 
ATOM     37  H   LIG d   1      11.125  11.663  -5.187  0.00  0.00     0.029 H 
ENDBRANCH   6  34
TORSDOF 4
ENDMDL
MODEL 5
REMARK VINA RESULT:      -5.6      4.953      8.696
REMARK  4 active torsions:
REMARK  status: ('A' for Active; 'I' for Inactive)
REMARK    1  A    between atoms: C_1  and  C_2 
REMARK    2  A    between atoms: C_7  and  C_22 
REMARK    3  A    between atoms: C_17  and  O_20 
REMARK    4  A    between atoms: O_20  and  C_21 
ROOT
ATOM      1  C   LIG d   1      10.724   7.056  -0.180  0.00  0.00    -0.019 A 
ATOM      2  C   LIG d   1      10.540   8.420  -0.423  0.00  0.00    -0.010 A 
ATOM      3  C   LIG d   1      10.723   9.387   0.586  0.00  0.00    -0.035 A 
ATOM      4  C   LIG d   1      10.528  10.698   0.279  0.00  0.00     0.029 A 
ATOM      5  N   LIG d   1      10.169  11.089  -0.938  0.00  0.00    -0.260 NA
ATOM      6  C   LIG d   1       9.980  10.247  -1.927  0.00  0.00     0.046 A 
ATOM      7  C   LIG d   1      10.151   8.868  -1.716  0.00  0.00     0.004 A 
ATOM      8  C   LIG d   1       9.954   7.934  -2.742  0.00  0.00    -0.043 A 
ATOM      9  C   LIG d   1      10.136   6.589  -2.483  0.00  0.00     0.008 A 
ATOM     10  C   LIG d   1      10.517   6.145  -1.196  0.00  0.00     0.051 A 
ATOM     11  N   LIG d   1      10.624   4.764  -1.230  0.00  0.00    -0.354 N 
ATOM     12  H   LIG d   1      10.873   4.209  -0.475  0.00  0.00     0.166 HD
ATOM     13  C   LIG d   1      10.324   4.288  -2.498  0.00  0.00     0.048 A 
ATOM     14  C   LIG d   1      10.012   5.380  -3.321  0.00  0.00     0.011 A 
ATOM     15  C   LIG d   1       9.673   5.175  -4.656  0.00  0.00    -0.010 A 
ATOM     16  C   LIG d   1       9.644   3.889  -5.166  0.00  0.00     0.121 A 
ATOM     17  C   LIG d   1       9.953   2.807  -4.350  0.00  0.00    -0.018 A 
ATOM     18  C   LIG d   1      10.290   3.003  -3.028  0.00  0.00    -0.034 A 
ATOM     19  H   LIG d   1      11.015   9.093   1.583  0.00  0.00     0.064 H 
ATOM     20  H   LIG d   1      10.667  11.443   1.048  0.00  0.00     0.083 H 
ATOM     21  H   LIG d   1       9.662   8.264  -3.728  0.00  0.00     0.063 H 
ATOM     22  H   LIG d   1       9.433   6.015  -5.290  0.00  0.00     0.066 H 
ATOM     23  H   LIG d   1       9.928   1.806  -4.755  0.00  0.00     0.066 H 
ATOM     24  H   LIG d   1      10.528   2.156  -2.401  0.00  0.00     0.064 H 
ENDROOT
BRANCH  16  25
ATOM     25  O   LIG d   1       9.314   3.683  -6.470  0.00  0.00    -0.495 OA
BRANCH  25  26
ATOM     26  C   LIG d   1       9.869   4.586  -7.429  0.00  0.00     0.079 C 
ATOM     27  H   LIG d   1      10.068   5.546  -6.952  0.00  0.00     0.066 H 
ATOM     28  H   LIG d   1      10.799   4.175  -7.820  0.00  0.00     0.066 H 
ATOM     29  H   LIG d   1       9.161   4.728  -8.246  0.00  0.00     0.066 H 
ENDBRANCH  25  26
ENDBRANCH  16  25
BRANCH   1  30
ATOM     30  C   LIG d   1      11.131   6.582   1.191  0.00  0.00    -0.037 C 
ATOM     31  H   LIG d   1      11.170   7.432   1.872  0.00  0.00     0.028 H 
ATOM     32  H   LIG d   1      10.401   5.858   1.555  0.00  0.00     0.028 H 
ATOM     33  H   LIG d   1      12.112   6.113   1.138  0.00  0.00     0.028 H 
ENDBRANCH   1  30
BRANCH   6  34
ATOM     34  C   LIG d   1       9.573  10.757  -3.285  0.00  0.00    -0.022 C 
ATOM     35  H   LIG d   1       8.787  11.504  -3.172  0.00  0.00     0.029 H 
ATOM     36  H   LIG d   1       9.203   9.929  -3.889  0.00  0.00     0.029 H 
ATOM     37  H   LIG d   1      10.435  11.209  -3.776  0.00  0.00     0.029 H 
ENDBRANCH   6  34
TORSDOF 4
ENDMDL
MODEL 6
REMARK VINA RESULT:      -5.5      5.290      7.482
REMARK  4 active torsions:
REMARK  status: ('A' for Active; 'I' for Inactive)
REMARK    1  A    between atoms: C_1  and  C_2 
REMARK    2  A    between atoms: C_7  and  C_22 
REMARK    3  A    between atoms: C_17  and  O_20 
REMARK    4  A    between atoms: O_20  and  C_21 
ROOT
ATOM      1  C   LIG d   1      10.364   4.006  -3.401  0.00  0.00    -0.019 A 
ATOM      2  C   LIG d   1      10.113   4.489  -4.689  0.00  0.00    -0.010 A 
ATOM      3  C   LIG d   1       9.941   3.623  -5.788  0.00  0.00    -0.035 A 
ATOM      4  C   LIG d   1       9.699   4.161  -7.013  0.00  0.00     0.029 A 
ATOM      5  N   LIG d   1       9.621   5.473  -7.202  0.00  0.00    -0.260 NA
ATOM      6  C   LIG d   1       9.769   6.339  -6.227  0.00  0.00     0.046 A 
ATOM      7  C   LIG d   1      10.028   5.889  -4.921  0.00  0.00     0.004 A 
ATOM      8  C   LIG d   1      10.199   6.780  -3.854  0.00  0.00    -0.043 A 
ATOM      9  C   LIG d   1      10.451   6.286  -2.588  0.00  0.00     0.008 A 
ATOM     10  C   LIG d   1      10.540   4.894  -2.359  0.00  0.00     0.051 A 
ATOM     11  N   LIG d   1      10.798   4.693  -1.013  0.00  0.00    -0.354 N 
ATOM     12  H   LIG d   1      10.904   3.826  -0.592  0.00  0.00     0.166 HD
ATOM     13  C   LIG d   1      10.881   5.910  -0.351  0.00  0.00     0.048 A 
ATOM     14  C   LIG d   1      10.674   6.938  -1.282  0.00  0.00     0.011 A 
ATOM     15  C   LIG d   1      10.706   8.268  -0.873  0.00  0.00    -0.010 A 
ATOM     16  C   LIG d   1      10.943   8.572   0.456  0.00  0.00     0.121 A 
ATOM     17  C   LIG d   1      11.149   7.552   1.379  0.00  0.00    -0.018 A 
ATOM     18  C   LIG d   1      11.119   6.233   0.980  0.00  0.00    -0.034 A 
ATOM     19  H   LIG d   1      10.001   2.552  -5.659  0.00  0.00     0.064 H 
ATOM     20  H   LIG d   1       9.567   3.503  -7.859  0.00  0.00     0.083 H 
ATOM     21  H   LIG d   1      10.133   7.845  -4.019  0.00  0.00     0.063 H 
ATOM     22  H   LIG d   1      10.546   9.060  -1.589  0.00  0.00     0.066 H 
ATOM     23  H   LIG d   1      11.334   7.796   2.414  0.00  0.00     0.066 H 
ATOM     24  H   LIG d   1      11.280   5.448   1.704  0.00  0.00     0.064 H 
ENDROOT
BRANCH  16  25
ATOM     25  O   LIG d   1      10.974   9.870   0.861  0.00  0.00    -0.495 OA
BRANCH  25  26
ATOM     26  C   LIG d   1      10.021  10.756   0.271  0.00  0.00     0.079 C 
ATOM     27  H   LIG d   1       9.123  10.198   0.005  0.00  0.00     0.066 H 
ATOM     28  H   LIG d   1       9.764  11.540   0.983  0.00  0.00     0.066 H 
ATOM     29  H   LIG d   1      10.448  11.205  -0.626  0.00  0.00     0.066 H 
ENDBRANCH  25  26
ENDBRANCH  16  25
BRANCH   1  30
ATOM     30  C   LIG d   1      10.458   2.522  -3.156  0.00  0.00    -0.037 C 
ATOM     31  H   LIG d   1      10.388   2.326  -2.086  0.00  0.00     0.028 H 
ATOM     32  H   LIG d   1       9.642   2.017  -3.673  0.00  0.00     0.028 H 
ATOM     33  H   LIG d   1      11.411   2.151  -3.532  0.00  0.00     0.028 H 
ENDBRANCH   1  30
BRANCH   6  34
ATOM     34  C   LIG d   1       9.668   7.816  -6.510  0.00  0.00    -0.022 C 
ATOM     35  H   LIG d   1      10.306   8.069  -7.357  0.00  0.00     0.029 H 
ATOM     36  H   LIG d   1       9.990   8.377  -5.632  0.00  0.00     0.029 H 
ATOM     37  H   LIG d   1       8.635   8.071  -6.745  0.00  0.00     0.029 H 
ENDBRANCH   6  34
TORSDOF 4
ENDMDL
MODEL 7
REMARK VINA RESULT:      -5.5      4.589      8.563
REMARK  4 active torsions:
REMARK  status: ('A' for Active; 'I' for Inactive)
REMARK    1  A    between atoms: C_1  and  C_2 
REMARK    2  A    between atoms: C_7  and  C_22 
REMARK    3  A    between atoms: C_17  and  O_20 
REMARK    4  A    between atoms: O_20  and  C_21 
ROOT
ATOM      1  C   LIG d   1      10.782   8.265  -2.129  0.00  0.00    -0.019 A 
ATOM      2  C   LIG d   1      11.003   8.204  -0.750  0.00  0.00    -0.010 A 
ATOM      3  C   LIG d   1      11.357   9.346  -0.003  0.00  0.00    -0.035 A 
ATOM      4  C   LIG d   1      11.557   9.215   1.336  0.00  0.00     0.029 A 
ATOM      5  N   LIG d   1      11.429   8.047   1.955  0.00  0.00    -0.260 NA
ATOM      6  C   LIG d   1      11.102   6.943   1.325  0.00  0.00     0.046 A 
ATOM      7  C   LIG d   1      10.878   6.966  -0.062  0.00  0.00     0.004 A 
ATOM      8  C   LIG d   1      10.532   5.810  -0.774  0.00  0.00    -0.043 A 
ATOM      9  C   LIG d   1      10.322   5.887  -2.138  0.00  0.00     0.008 A 
ATOM     10  C   LIG d   1      10.452   7.117  -2.822  0.00  0.00     0.051 A 
ATOM     11  N   LIG d   1      10.186   6.896  -4.163  0.00  0.00    -0.354 N 
ATOM     12  H   LIG d   1      10.207   7.578  -4.852  0.00  0.00     0.166 HD
ATOM     13  C   LIG d   1       9.887   5.559  -4.381  0.00  0.00     0.048 A 
ATOM     14  C   LIG d   1       9.956   4.882  -3.155  0.00  0.00     0.011 A 
ATOM     15  C   LIG d   1       9.695   3.515  -3.095  0.00  0.00    -0.010 A 
ATOM     16  C   LIG d   1       9.368   2.828  -4.252  0.00  0.00     0.121 A 
ATOM     17  C   LIG d   1       9.300   3.500  -5.467  0.00  0.00    -0.018 A 
ATOM     18  C   LIG d   1       9.557   4.853  -5.532  0.00  0.00    -0.034 A 
ATOM     19  H   LIG d   1      11.468  10.306  -0.484  0.00  0.00     0.064 H 
ATOM     20  H   LIG d   1      11.829  10.085   1.915  0.00  0.00     0.083 H 
ATOM     21  H   LIG d   1      10.431   4.866  -0.260  0.00  0.00     0.063 H 
ATOM     22  H   LIG d   1       9.749   2.994  -2.152  0.00  0.00     0.066 H 
ATOM     23  H   LIG d   1       9.044   2.958  -6.365  0.00  0.00     0.066 H 
ATOM     24  H   LIG d   1       9.501   5.366  -6.482  0.00  0.00     0.064 H 
ENDROOT
BRANCH  16  25
ATOM     25  O   LIG d   1       9.112   1.494  -4.198  0.00  0.00    -0.495 OA
BRANCH  25  26
ATOM     26  C   LIG d   1       9.763   0.669  -5.168  0.00  0.00     0.079 C 
ATOM     27  H   LIG d   1      10.747   0.381  -4.797  0.00  0.00     0.066 H 
ATOM     28  H   LIG d   1       9.165  -0.225  -5.344  0.00  0.00     0.066 H 
ATOM     29  H   LIG d   1       9.874   1.223  -6.100  0.00  0.00     0.066 H 
ENDBRANCH  25  26
ENDBRANCH  16  25
BRANCH   1  30
ATOM     30  C   LIG d   1      10.920   9.576  -2.859  0.00  0.00    -0.037 C 
ATOM     31  H   LIG d   1      11.957   9.910  -2.813  0.00  0.00     0.028 H 
ATOM     32  H   LIG d   1      10.627   9.444  -3.901  0.00  0.00     0.028 H 
ATOM     33  H   LIG d   1      10.277  10.322  -2.393  0.00  0.00     0.028 H 
ENDBRANCH   1  30
BRANCH   6  34
ATOM     34  C   LIG d   1      10.973   5.650   2.088  0.00  0.00    -0.022 C 
ATOM     35  H   LIG d   1      11.965   5.247   2.292  0.00  0.00     0.029 H 
ATOM     36  H   LIG d   1      10.406   4.932   1.494  0.00  0.00     0.029 H 
ATOM     37  H   LIG d   1      10.455   5.833   3.029  0.00  0.00     0.029 H 
ENDBRANCH   6  34
TORSDOF 4
ENDMDL
MODEL 8
REMARK VINA RESULT:      -5.4      7.052      9.760
REMARK  4 active torsions:
REMARK  status: ('A' for Active; 'I' for Inactive)
REMARK    1  A    between atoms: C_1  and  C_2 
REMARK    2  A    between atoms: C_7  and  C_22 
REMARK    3  A    between atoms: C_17  and  O_20 
REMARK    4  A    between atoms: O_20  and  C_21 
ROOT
ATOM      1  C   LIG d   1      10.193   6.996  -2.171  0.00  0.00    -0.019 A 
ATOM      2  C   LIG d   1      10.620   7.006  -0.840  0.00  0.00    -0.010 A 
ATOM      3  C   LIG d   1      10.721   5.822  -0.082  0.00  0.00    -0.035 A 
ATOM      4  C   LIG d   1      11.145   5.905   1.208  0.00  0.00     0.029 A 
ATOM      5  N   LIG d   1      11.463   7.065   1.769  0.00  0.00    -0.260 NA
ATOM      6  C   LIG d   1      11.393   8.207   1.127  0.00  0.00     0.046 A 
ATOM      7  C   LIG d   1      10.962   8.235  -0.211  0.00  0.00     0.004 A 
ATOM      8  C   LIG d   1      10.868   9.432  -0.932  0.00  0.00    -0.043 A 
ATOM      9  C   LIG d   1      10.439   9.405  -2.245  0.00  0.00     0.008 A 
ATOM     10  C   LIG d   1      10.094   8.184  -2.868  0.00  0.00     0.051 A 
ATOM     11  N   LIG d   1       9.705   8.457  -4.169  0.00  0.00    -0.354 N 
ATOM     12  H   LIG d   1       9.418   7.792  -4.814  0.00  0.00     0.166 HD
ATOM     13  C   LIG d   1       9.783   9.820  -4.419  0.00  0.00     0.048 A 
ATOM     14  C   LIG d   1      10.235  10.460  -3.256  0.00  0.00     0.011 A 
ATOM     15  C   LIG d   1      10.402  11.843  -3.240  0.00  0.00    -0.010 A 
ATOM     16  C   LIG d   1      10.121  12.581  -4.376  0.00  0.00     0.121 A 
ATOM     17  C   LIG d   1       9.673  11.946  -5.528  0.00  0.00    -0.018 A 
ATOM     18  C   LIG d   1       9.505  10.577  -5.551  0.00  0.00    -0.034 A 
ATOM     19  H   LIG d   1      10.468   4.866  -0.518  0.00  0.00     0.064 H 
ATOM     20  H   LIG d   1      11.224   5.001   1.794  0.00  0.00     0.083 H 
ATOM     21  H   LIG d   1      11.129  10.370  -0.463  0.00  0.00     0.063 H 
ATOM     22  H   LIG d   1      10.750  12.336  -2.345  0.00  0.00     0.066 H 
ATOM     23  H   LIG d   1       9.455  12.528  -6.411  0.00  0.00     0.066 H 
ATOM     24  H   LIG d   1       9.156  10.093  -6.451  0.00  0.00     0.064 H 
ENDROOT
BRANCH  16  25
ATOM     25  O   LIG d   1      10.284  13.931  -4.365  0.00  0.00    -0.495 OA
BRANCH  25  26
ATOM     26  C   LIG d   1       9.440  14.694  -5.231  0.00  0.00     0.079 C 
ATOM     27  H   LIG d   1       8.503  14.916  -4.720  0.00  0.00     0.066 H 
ATOM     28  H   LIG d   1       9.939  15.626  -5.496  0.00  0.00     0.066 H 
ATOM     29  H   LIG d   1       9.234  14.120  -6.135  0.00  0.00     0.066 H 
ENDBRANCH  25  26
ENDBRANCH  16  25
BRANCH   1  30
ATOM     30  C   LIG d   1       9.825   5.695  -2.836  0.00  0.00    -0.037 C 
ATOM     31  H   LIG d   1       8.778   5.725  -3.138  0.00  0.00     0.028 H 
ATOM     32  H   LIG d   1      10.452   5.547  -3.715  0.00  0.00     0.028 H 
ATOM     33  H   LIG d   1       9.978   4.873  -2.138  0.00  0.00     0.028 H 
ENDBRANCH   1  30
BRANCH   6  34
ATOM     34  C   LIG d   1      11.769   9.489   1.824  0.00  0.00    -0.022 C 
ATOM     35  H   LIG d   1      12.001  10.253   1.082  0.00  0.00     0.029 H 
ATOM     36  H   LIG d   1      12.643   9.318   2.453  0.00  0.00     0.029 H 
ATOM     37  H   LIG d   1      10.937   9.824   2.443  0.00  0.00     0.029 H 
ENDBRANCH   6  34
TORSDOF 4
ENDMDL
MODEL 9
REMARK VINA RESULT:      -5.4      4.342      7.320
REMARK  4 active torsions:
REMARK  status: ('A' for Active; 'I' for Inactive)
REMARK    1  A    between atoms: C_1  and  C_2 
REMARK    2  A    between atoms: C_7  and  C_22 
REMARK    3  A    between atoms: C_17  and  O_20 
REMARK    4  A    between atoms: O_20  and  C_21 
ROOT
ATOM      1  C   LIG d   1       7.423  -1.570  -4.686  0.00  0.00    -0.019 A 
ATOM      2  C   LIG d   1       6.462  -0.808  -4.013  0.00  0.00    -0.010 A 
ATOM      3  C   LIG d   1       6.725   0.508  -3.583  0.00  0.00    -0.035 A 
ATOM      4  C   LIG d   1       5.744   1.192  -2.935  0.00  0.00     0.029 A 
ATOM      5  N   LIG d   1       4.553   0.655  -2.696  0.00  0.00    -0.260 NA
ATOM      6  C   LIG d   1       4.237  -0.563  -3.066  0.00  0.00     0.046 A 
ATOM      7  C   LIG d   1       5.180  -1.359  -3.740  0.00  0.00     0.004 A 
ATOM      8  C   LIG d   1       4.886  -2.667  -4.147  0.00  0.00    -0.043 A 
ATOM      9  C   LIG d   1       5.849  -3.407  -4.807  0.00  0.00     0.008 A 
ATOM     10  C   LIG d   1       7.125  -2.861  -5.074  0.00  0.00     0.051 A 
ATOM     11  N   LIG d   1       7.874  -3.818  -5.739  0.00  0.00    -0.354 N 
ATOM     12  H   LIG d   1       8.788  -3.697  -6.038  0.00  0.00     0.166 HD
ATOM     13  C   LIG d   1       7.130  -4.975  -5.916  0.00  0.00     0.048 A 
ATOM     14  C   LIG d   1       5.859  -4.777  -5.356  0.00  0.00     0.011 A 
ATOM     15  C   LIG d   1       4.910  -5.795  -5.400  0.00  0.00    -0.010 A 
ATOM     16  C   LIG d   1       5.225  -7.001  -6.001  0.00  0.00     0.121 A 
ATOM     17  C   LIG d   1       6.484  -7.197  -6.556  0.00  0.00    -0.018 A 
ATOM     18  C   LIG d   1       7.429  -6.193  -6.515  0.00  0.00    -0.034 A 
ATOM     19  H   LIG d   1       7.686   0.966  -3.766  0.00  0.00     0.064 H 
ATOM     20  H   LIG d   1       5.939   2.201  -2.602  0.00  0.00     0.083 H 
ATOM     21  H   LIG d   1       3.914  -3.092  -3.947  0.00  0.00     0.063 H 
ATOM     22  H   LIG d   1       3.932  -5.643  -4.969  0.00  0.00     0.066 H 
ATOM     23  H   LIG d   1       6.724  -8.140  -7.022  0.00  0.00     0.066 H 
ATOM     24  H   LIG d   1       8.405  -6.355  -6.949  0.00  0.00     0.064 H 
ENDROOT
BRANCH  16  25
ATOM     25  O   LIG d   1       4.300  -7.998  -6.048  0.00  0.00    -0.495 OA
BRANCH  25  26
ATOM     26  C   LIG d   1       4.549  -9.071  -6.958  0.00  0.00     0.079 C 
ATOM     27  H   LIG d   1       4.497 -10.020  -6.424  0.00  0.00     0.066 H 
ATOM     28  H   LIG d   1       3.799  -9.058  -7.748  0.00  0.00     0.066 H 
ATOM     29  H   LIG d   1       5.541  -8.954  -7.395  0.00  0.00     0.066 H 
ENDBRANCH  25  26
ENDBRANCH  16  25
BRANCH   1  30
ATOM     30  C   LIG d   1       8.784  -0.988  -4.971  0.00  0.00    -0.037 C 
ATOM     31  H   LIG d   1       9.428  -1.129  -4.103  0.00  0.00     0.028 H 
ATOM     32  H   LIG d   1       9.220  -1.493  -5.833  0.00  0.00     0.028 H 
ATOM     33  H   LIG d   1       8.687   0.076  -5.184  0.00  0.00     0.028 H 
ENDBRANCH   1  30
BRANCH   6  34
ATOM     34  C   LIG d   1       2.867  -1.112  -2.764  0.00  0.00    -0.022 C 
ATOM     35  H   LIG d   1       2.185  -0.289  -2.549  0.00  0.00     0.029 H 
ATOM     36  H   LIG d   1       2.922  -1.773  -1.898  0.00  0.00     0.029 H 
ATOM     37  H   LIG d   1       2.501  -1.671  -3.625  0.00  0.00     0.029 H 
ENDBRANCH   6  34
TORSDOF 4
ENDMDL
MODEL 10
REMARK VINA RESULT:      -5.4      3.591      5.939
REMARK  4 active torsions:
REMARK  status: ('A' for Active; 'I' for Inactive)
REMARK    1  A    between atoms: C_1  and  C_2 
REMARK    2  A    between atoms: C_7  and  C_22 
REMARK    3  A    between atoms: C_17  and  O_20 
REMARK    4  A    between atoms: O_20  and  C_21 
ROOT
ATOM      1  C   LIG d   1       8.325  -4.167  -4.321  0.00  0.00    -0.019 A 
ATOM      2  C   LIG d   1       7.739  -5.242  -4.997  0.00  0.00    -0.010 A 
ATOM      3  C   LIG d   1       8.449  -6.430  -5.263  0.00  0.00    -0.035 A 
ATOM      4  C   LIG d   1       7.817  -7.436  -5.925  0.00  0.00     0.029 A 
ATOM      5  N   LIG d   1       6.556  -7.329  -6.327  0.00  0.00    -0.260 NA
ATOM      6  C   LIG d   1       5.833  -6.255  -6.115  0.00  0.00     0.046 A 
ATOM      7  C   LIG d   1       6.391  -5.154  -5.443  0.00  0.00     0.004 A 
ATOM      8  C   LIG d   1       5.657  -3.986  -5.201  0.00  0.00    -0.043 A 
ATOM      9  C   LIG d   1       6.253  -2.932  -4.535  0.00  0.00     0.008 A 
ATOM     10  C   LIG d   1       7.594  -3.018  -4.097  0.00  0.00     0.051 A 
ATOM     11  N   LIG d   1       7.920  -1.828  -3.468  0.00  0.00    -0.354 N 
ATOM     12  H   LIG d   1       8.784  -1.627  -3.075  0.00  0.00     0.166 HD
ATOM     13  C   LIG d   1       6.836  -0.963  -3.481  0.00  0.00     0.048 A 
ATOM     14  C   LIG d   1       5.768  -1.597  -4.133  0.00  0.00     0.011 A 
ATOM     15  C   LIG d   1       4.550  -0.939  -4.281  0.00  0.00    -0.010 A 
ATOM     16  C   LIG d   1       4.398   0.343  -3.782  0.00  0.00     0.121 A 
ATOM     17  C   LIG d   1       5.456   0.971  -3.136  0.00  0.00    -0.018 A 
ATOM     18  C   LIG d   1       6.665   0.325  -2.986  0.00  0.00    -0.034 A 
ATOM     19  H   LIG d   1       9.476  -6.540  -4.947  0.00  0.00     0.064 H 
ATOM     20  H   LIG d   1       8.356  -8.348  -6.132  0.00  0.00     0.083 H 
ATOM     21  H   LIG d   1       4.631  -3.911  -5.533  0.00  0.00     0.063 H 
ATOM     22  H   LIG d   1       3.728  -1.426  -4.782  0.00  0.00     0.066 H 
ATOM     23  H   LIG d   1       5.331   1.971  -2.749  0.00  0.00     0.066 H 
ATOM     24  H   LIG d   1       7.482   0.822  -2.483  0.00  0.00     0.064 H 
ENDROOT
BRANCH  16  25
ATOM     25  O   LIG d   1       3.209   0.989  -3.923  0.00  0.00    -0.495 OA
BRANCH  25  26
ATOM     26  C   LIG d   1       2.357   0.555  -4.985  0.00  0.00     0.079 C 
ATOM     27  H   LIG d   1       1.320   0.778  -4.733  0.00  0.00     0.066 H 
ATOM     28  H   LIG d   1       2.627   1.076  -5.903  0.00  0.00     0.066 H 
ATOM     29  H   LIG d   1       2.473  -0.520  -5.128  0.00  0.00     0.066 H 
ENDBRANCH  25  26
ENDBRANCH  16  25
BRANCH   1  30
ATOM     30  C   LIG d   1       9.754  -4.259  -3.853  0.00  0.00    -0.037 C 
ATOM     31  H   LIG d   1      10.241  -3.292  -3.981  0.00  0.00     0.028 H 
ATOM     32  H   LIG d   1       9.773  -4.539  -2.800  0.00  0.00     0.028 H 
ATOM     33  H   LIG d   1      10.281  -5.011  -4.439  0.00  0.00     0.028 H 
ENDBRANCH   1  30
BRANCH   6  34
ATOM     34  C   LIG d   1       4.406  -6.199  -6.597  0.00  0.00    -0.022 C 
ATOM     35  H   LIG d   1       4.079  -7.199  -6.882  0.00  0.00     0.029 H 
ATOM     36  H   LIG d   1       4.340  -5.536  -7.460  0.00  0.00     0.029 H 
ATOM     37  H   LIG d   1       3.767  -5.821  -5.799  0.00  0.00     0.029 H 
ENDBRANCH   6  34
TORSDOF 4
ENDMDL
