MODEL 1
REMARK VINA RESULT:      -5.9      0.000      0.000
REMARK  10 active torsions:
REMARK  status: ('A' for Active; 'I' for Inactive)
REMARK    1  A    between atoms: C_1  and  C_2 
REMARK    2  A    between atoms: C_6  and  C_22 
REMARK    3  A    between atoms: C_8  and  O_11 
REMARK    4  A    between atoms: O_11  and  C_12 
REMARK    5  A    between atoms: C_12  and  C_14 
REMARK    6  A    between atoms: C_14  and  C_15 
REMARK    7  A    between atoms: C_15  and  C_21 
REMARK    8  A    between atoms: N_16  and  N_17 
REMARK       I    between atoms: N_17  and  C_18 
REMARK       I    between atoms: C_18  and  N_20 
REMARK    9  A    between atoms: C_22  and  C_23 
REMARK   10  A    between atoms: C_22  and  C_24 
ROOT
ATOM      1  C   LIG d   1       6.221  -2.926  -5.179  0.00  0.00    -0.041 C 
ATOM      2  H   LIG d   1       6.764  -2.340  -5.920  0.00  0.00     0.030 H 
ATOM      3  C   LIG d   1       6.826  -2.688  -3.794  0.00  0.00    -0.050 C 
ATOM      4  C   LIG d   1       6.725  -1.201  -3.443  0.00  0.00    -0.046 C 
ATOM      5  C   LIG d   1       5.253  -0.779  -3.437  0.00  0.00    -0.002 C 
ATOM      6  H   LIG d   1       4.710  -1.365  -2.696  0.00  0.00     0.034 H 
ATOM      7  C   LIG d   1       4.648  -1.018  -4.822  0.00  0.00     0.106 C 
ATOM      8  H   LIG d   1       5.192  -0.432  -5.562  0.00  0.00     0.074 H 
ATOM      9  C   LIG d   1       4.750  -2.504  -5.172  0.00  0.00    -0.013 C 
ATOM     10  H   LIG d   1       7.873  -2.988  -3.798  0.00  0.00     0.027 H 
ATOM     11  H   LIG d   1       6.282  -3.273  -3.054  0.00  0.00     0.027 H 
ATOM     12  H   LIG d   1       7.268  -0.615  -4.184  0.00  0.00     0.027 H 
ATOM     13  H   LIG d   1       7.155  -1.031  -2.457  0.00  0.00     0.027 H 
ATOM     14  H   LIG d   1       4.319  -2.675  -6.159  0.00  0.00     0.030 H 
ATOM     15  H   LIG d   1       4.206  -3.090  -4.432  0.00  0.00     0.030 H 
ENDROOT
BRANCH   7  16
ATOM     16  O   LIG d   1       3.253  -0.616  -4.816  0.00  0.00    -0.461 OA
BRANCH  16  17
ATOM     17  C   LIG d   1       2.880   0.304  -5.718  0.00  0.00     0.313 C 
ATOM     18  O   LIG d   1       2.620   1.429  -5.362  0.00  0.00    -0.250 OA
BRANCH  17  19
ATOM     19  C   LIG d   1       2.784  -0.065  -7.176  0.00  0.00     0.085 C 
ATOM     20  H   LIG d   1       3.221  -1.051  -7.331  0.00  0.00     0.044 H 
ATOM     21  H   LIG d   1       1.736  -0.080  -7.479  0.00  0.00     0.044 H 
BRANCH  19  22
ATOM     22  C   LIG d   1       3.531   0.950  -8.002  0.00  0.00     0.044 C 
ATOM     23  N   LIG d   1       4.811   0.982  -7.973  0.00  0.00    -0.188 NA
BRANCH  23  24
ATOM     24  N   LIG d   1       5.505   1.926  -8.740  0.00  0.00    -0.191 N 
ATOM     25  C   LIG d   1       6.852   1.976  -8.689  0.00  0.00     0.317 C 
ATOM     26  O   LIG d   1       7.455   2.796  -9.355  0.00  0.00    -0.251 OA
ATOM     27  N   LIG d   1       7.529   1.119  -7.901  0.00  0.00    -0.312 N 
ATOM     28  H   LIG d   1       7.047   0.466  -7.370  0.00  0.00     0.146 HD
ATOM     29  H   LIG d   1       8.497   1.156  -7.865  0.00  0.00     0.146 HD
ATOM     30  H   LIG d   1       5.018   2.543  -9.308  0.00  0.00     0.179 HD
ENDBRANCH  23  24
BRANCH  22  31
ATOM     31  C   LIG d   1       2.773   1.928  -8.862  0.00  0.00    -0.024 C 
ATOM     32  H   LIG d   1       1.703   1.749  -8.759  0.00  0.00     0.029 H 
ATOM     33  H   LIG d   1       3.004   2.945  -8.545  0.00  0.00     0.029 H 
ATOM     34  H   LIG d   1       3.065   1.797  -9.904  0.00  0.00     0.029 H 
ENDBRANCH  22  31
ENDBRANCH  19  22
ENDBRANCH  17  19
ENDBRANCH  16  17
ENDBRANCH   7  16
BRANCH   5  35
ATOM     35  C   LIG d   1       5.152   0.708  -3.086  0.00  0.00    -0.041 C 
ATOM     36  H   LIG d   1       4.442   1.192  -3.756  0.00  0.00     0.030 H 
BRANCH  35  37
ATOM     37  C   LIG d   1       6.526   1.362  -3.240  0.00  0.00    -0.062 C 
ATOM     38  H   LIG d   1       7.231   0.894  -2.552  0.00  0.00     0.023 H 
ATOM     39  H   LIG d   1       6.878   1.232  -4.263  0.00  0.00     0.023 H 
ATOM     40  H   LIG d   1       6.450   2.426  -3.014  0.00  0.00     0.023 H 
ENDBRANCH  35  37
BRANCH  35  41
ATOM     41  C   LIG d   1       4.673   0.859  -1.641  0.00  0.00    -0.062 C 
ATOM     42  H   LIG d   1       5.439   0.482  -0.963  0.00  0.00     0.023 H 
ATOM     43  H   LIG d   1       4.486   1.911  -1.429  0.00  0.00     0.023 H 
ATOM     44  H   LIG d   1       3.753   0.290  -1.501  0.00  0.00     0.023 H 
ENDBRANCH  35  41
ENDBRANCH   5  35
BRANCH   1  45
ATOM     45  C   LIG d   1       6.322  -4.412  -5.530  0.00  0.00    -0.062 C 
ATOM     46  H   LIG d   1       5.399  -4.736  -6.011  0.00  0.00     0.023 H 
ATOM     47  H   LIG d   1       7.160  -4.569  -6.209  0.00  0.00     0.023 H 
ATOM     48  H   LIG d   1       6.479  -4.991  -4.620  0.00  0.00     0.023 H 
ENDBRANCH   1  45
TORSDOF 10
ENDMDL
MODEL 2
REMARK VINA RESULT:      -5.8      3.290      5.861
REMARK  10 active torsions:
REMARK  status: ('A' for Active; 'I' for Inactive)
REMARK    1  A    between atoms: C_1  and  C_2 
REMARK    2  A    between atoms: C_6  and  C_22 
REMARK    3  A    between atoms: C_8  and  O_11 
REMARK    4  A    between atoms: O_11  and  C_12 
REMARK    5  A    between atoms: C_12  and  C_14 
REMARK    6  A    between atoms: C_14  and  C_15 
REMARK    7  A    between atoms: C_15  and  C_21 
REMARK    8  A    between atoms: N_16  and  N_17 
REMARK       I    between atoms: N_17  and  C_18 
REMARK       I    between atoms: C_18  and  N_20 
REMARK    9  A    between atoms: C_22  and  C_23 
REMARK   10  A    between atoms: C_22  and  C_24 
ROOT
ATOM      1  C   LIG d   1       3.182  -0.288  -6.679  0.00  0.00    -0.041 C 
ATOM      2  H   LIG d   1       2.919  -1.344  -6.620  0.00  0.00     0.030 H 
ATOM      3  C   LIG d   1       2.456   0.481  -5.574  0.00  0.00    -0.050 C 
ATOM      4  C   LIG d   1       2.872  -0.074  -4.209  0.00  0.00    -0.046 C 
ATOM      5  C   LIG d   1       4.384   0.085  -4.033  0.00  0.00    -0.002 C 
ATOM      6  H   LIG d   1       4.648   1.141  -4.092  0.00  0.00     0.034 H 
ATOM      7  C   LIG d   1       5.110  -0.685  -5.140  0.00  0.00     0.106 C 
ATOM      8  H   LIG d   1       4.846  -1.740  -5.081  0.00  0.00     0.074 H 
ATOM      9  C   LIG d   1       4.694  -0.129  -6.503  0.00  0.00    -0.013 C 
ATOM     10  H   LIG d   1       1.380   0.368  -5.698  0.00  0.00     0.027 H 
ATOM     11  H   LIG d   1       2.721   1.537  -5.632  0.00  0.00     0.027 H 
ATOM     12  H   LIG d   1       2.608  -1.130  -4.151  0.00  0.00     0.027 H 
ATOM     13  H   LIG d   1       2.356   0.474  -3.422  0.00  0.00     0.027 H 
ATOM     14  H   LIG d   1       5.211  -0.677  -7.291  0.00  0.00     0.030 H 
ATOM     15  H   LIG d   1       4.958   0.926  -6.562  0.00  0.00     0.030 H 
ENDROOT
BRANCH   7  16
ATOM     16  O   LIG d   1       6.544  -0.534  -4.972  0.00  0.00    -0.461 OA
BRANCH  16  17
ATOM     17  C   LIG d   1       7.303  -1.611  -5.225  0.00  0.00     0.313 C 
ATOM     18  O   LIG d   1       7.860  -1.721  -6.293  0.00  0.00    -0.250 OA
BRANCH  17  19
ATOM     19  C   LIG d   1       7.462  -2.685  -4.180  0.00  0.00     0.085 C 
ATOM     20  H   LIG d   1       8.498  -2.716  -3.845  0.00  0.00     0.044 H 
ATOM     21  H   LIG d   1       6.812  -2.464  -3.331  0.00  0.00     0.044 H 
BRANCH  19  22
ATOM     22  C   LIG d   1       7.083  -4.019  -4.768  0.00  0.00     0.044 C 
ATOM     23  N   LIG d   1       5.864  -4.259  -5.077  0.00  0.00    -0.188 NA
BRANCH  23  24
ATOM     24  N   LIG d   1       5.512  -5.500  -5.624  0.00  0.00    -0.191 N 
ATOM     25  C   LIG d   1       4.319  -5.653  -6.234  0.00  0.00     0.317 C 
ATOM     26  O   LIG d   1       4.013  -6.730  -6.709  0.00  0.00    -0.251 OA
ATOM     27  N   LIG d   1       3.467  -4.613  -6.318  0.00  0.00    -0.312 N 
ATOM     28  H   LIG d   1       3.711  -3.754  -5.940  0.00  0.00     0.146 HD
ATOM     29  H   LIG d   1       2.609  -4.724  -6.758  0.00  0.00     0.146 HD
ATOM     30  H   LIG d   1       6.125  -6.249  -5.563  0.00  0.00     0.179 HD
ENDBRANCH  23  24
BRANCH  22  31
ATOM     31  C   LIG d   1       8.138  -5.071  -4.992  0.00  0.00    -0.024 C 
ATOM     32  H   LIG d   1       9.093  -4.716  -4.607  0.00  0.00     0.029 H 
ATOM     33  H   LIG d   1       7.854  -5.987  -4.473  0.00  0.00     0.029 H 
ATOM     34  H   LIG d   1       8.229  -5.272  -6.060  0.00  0.00     0.029 H 
ENDBRANCH  22  31
ENDBRANCH  19  22
ENDBRANCH  17  19
ENDBRANCH  16  17
ENDBRANCH   7  16
BRANCH   5  35
ATOM     35  C   LIG d   1       4.800  -0.470  -2.669  0.00  0.00    -0.041 C 
ATOM     36  H   LIG d   1       5.854  -0.746  -2.694  0.00  0.00     0.030 H 
BRANCH  35  37
ATOM     37  C   LIG d   1       3.958  -1.706  -2.344  0.00  0.00    -0.062 C 
ATOM     38  H   LIG d   1       3.203  -1.845  -3.118  0.00  0.00     0.023 H 
ATOM     39  H   LIG d   1       4.602  -2.584  -2.304  0.00  0.00     0.023 H 
ATOM     40  H   LIG d   1       3.468  -1.570  -1.380  0.00  0.00     0.023 H 
ENDBRANCH  35  37
BRANCH  35  41
ATOM     41  C   LIG d   1       4.577   0.597  -1.595  0.00  0.00    -0.062 C 
ATOM     42  H   LIG d   1       3.514   0.827  -1.526  0.00  0.00     0.023 H 
ATOM     43  H   LIG d   1       4.931   0.224  -0.634  0.00  0.00     0.023 H 
ATOM     44  H   LIG d   1       5.128   1.499  -1.860  0.00  0.00     0.023 H 
ENDBRANCH  35  41
ENDBRANCH   5  35
BRANCH   1  45
ATOM     45  C   LIG d   1       2.767   0.267  -8.043  0.00  0.00    -0.062 C 
ATOM     46  H   LIG d   1       3.063   1.313  -8.116  0.00  0.00     0.023 H 
ATOM     47  H   LIG d   1       3.256  -0.304  -8.832  0.00  0.00     0.023 H 
ATOM     48  H   LIG d   1       1.685   0.187  -8.154  0.00  0.00     0.023 H 
ENDBRANCH   1  45
TORSDOF 10
ENDMDL
MODEL 3
REMARK VINA RESULT:      -5.7      1.988      4.277
REMARK  10 active torsions:
REMARK  status: ('A' for Active; 'I' for Inactive)
REMARK    1  A    between atoms: C_1  and  C_2 
REMARK    2  A    between atoms: C_6  and  C_22 
REMARK    3  A    between atoms: C_8  and  O_11 
REMARK    4  A    between atoms: O_11  and  C_12 
REMARK    5  A    between atoms: C_12  and  C_14 
REMARK    6  A    between atoms: C_14  and  C_15 
REMARK    7  A    between atoms: C_15  and  C_21 
REMARK    8  A    between atoms: N_16  and  N_17 
REMARK       I    between atoms: N_17  and  C_18 
REMARK       I    between atoms: C_18  and  N_20 
REMARK    9  A    between atoms: C_22  and  C_23 
REMARK   10  A    between atoms: C_22  and  C_24 
ROOT
ATOM      1  C   LIG d   1       4.374   0.345  -2.896  0.00  0.00    -0.041 C 
ATOM      2  H   LIG d   1       3.791   0.246  -3.812  0.00  0.00     0.030 H 
ATOM      3  C   LIG d   1       4.458  -1.012  -2.195  0.00  0.00    -0.050 C 
ATOM      4  C   LIG d   1       5.133  -2.024  -3.123  0.00  0.00    -0.046 C 
ATOM      5  C   LIG d   1       6.544  -1.539  -3.466  0.00  0.00    -0.002 C 
ATOM      6  H   LIG d   1       7.127  -1.440  -2.550  0.00  0.00     0.034 H 
ATOM      7  C   LIG d   1       6.459  -0.181  -4.167  0.00  0.00     0.106 C 
ATOM      8  H   LIG d   1       5.876  -0.281  -5.082  0.00  0.00     0.074 H 
ATOM      9  C   LIG d   1       5.784   0.830  -3.239  0.00  0.00    -0.013 C 
ATOM     10  H   LIG d   1       3.454  -1.358  -1.950  0.00  0.00     0.027 H 
ATOM     11  H   LIG d   1       5.042  -0.912  -1.280  0.00  0.00     0.027 H 
ATOM     12  H   LIG d   1       4.550  -2.123  -4.038  0.00  0.00     0.027 H 
ATOM     13  H   LIG d   1       5.194  -2.990  -2.623  0.00  0.00     0.027 H 
ATOM     14  H   LIG d   1       5.724   1.797  -3.739  0.00  0.00     0.030 H 
ATOM     15  H   LIG d   1       6.367   0.930  -2.324  0.00  0.00     0.030 H 
ENDROOT
BRANCH   7  16
ATOM     16  O   LIG d   1       7.797   0.279  -4.493  0.00  0.00    -0.461 OA
BRANCH  16  17
ATOM     17  C   LIG d   1       7.929   1.043  -5.588  0.00  0.00     0.313 C 
ATOM     18  O   LIG d   1       8.029   2.243  -5.479  0.00  0.00    -0.250 OA
BRANCH  17  19
ATOM     19  C   LIG d   1       7.951   0.407  -6.954  0.00  0.00     0.085 C 
ATOM     20  H   LIG d   1       8.936   0.540  -7.401  0.00  0.00     0.044 H 
ATOM     21  H   LIG d   1       7.735  -0.658  -6.862  0.00  0.00     0.044 H 
BRANCH  19  22
ATOM     22  C   LIG d   1       6.910   1.057  -7.828  0.00  0.00     0.044 C 
ATOM     23  N   LIG d   1       5.673   0.769  -7.672  0.00  0.00    -0.188 NA
BRANCH  23  24
ATOM     24  N   LIG d   1       4.705   1.374  -8.484  0.00  0.00    -0.191 N 
ATOM     25  C   LIG d   1       3.417   1.409  -8.086  0.00  0.00     0.317 C 
ATOM     26  O   LIG d   1       2.577   1.933  -8.791  0.00  0.00    -0.251 OA
ATOM     27  N   LIG d   1       3.062   0.864  -6.906  0.00  0.00    -0.312 N 
ATOM     28  H   LIG d   1       3.732   0.446  -6.343  0.00  0.00     0.146 HD
ATOM     29  H   LIG d   1       2.135   0.890  -6.619  0.00  0.00     0.146 HD
ATOM     30  H   LIG d   1       4.961   1.765  -9.334  0.00  0.00     0.179 HD
ENDBRANCH  23  24
BRANCH  22  31
ATOM     31  C   LIG d   1       7.325   2.046  -8.887  0.00  0.00    -0.024 C 
ATOM     32  H   LIG d   1       8.389   1.935  -9.091  0.00  0.00     0.029 H 
ATOM     33  H   LIG d   1       6.758   1.861  -9.799  0.00  0.00     0.029 H 
ATOM     34  H   LIG d   1       7.126   3.059  -8.535  0.00  0.00     0.029 H 
ENDBRANCH  22  31
ENDBRANCH  19  22
ENDBRANCH  17  19
ENDBRANCH  16  17
ENDBRANCH   7  16
BRANCH   5  35
ATOM     35  C   LIG d   1       7.219  -2.551  -4.394  0.00  0.00    -0.041 C 
ATOM     36  H   LIG d   1       7.650  -2.030  -5.248  0.00  0.00     0.030 H 
BRANCH  35  37
ATOM     37  C   LIG d   1       6.182  -3.563  -4.885  0.00  0.00    -0.062 C 
ATOM     38  H   LIG d   1       6.114  -4.388  -4.174  0.00  0.00     0.023 H 
ATOM     39  H   LIG d   1       5.211  -3.076  -4.968  0.00  0.00     0.023 H 
ATOM     40  H   LIG d   1       6.481  -3.948  -5.859  0.00  0.00     0.023 H 
ENDBRANCH  35  37
BRANCH  35  41
ATOM     41  C   LIG d   1       8.326  -3.283  -3.632  0.00  0.00    -0.062 C 
ATOM     42  H   LIG d   1       8.001  -3.466  -2.607  0.00  0.00     0.023 H 
ATOM     43  H   LIG d   1       8.536  -4.234  -4.121  0.00  0.00     0.023 H 
ATOM     44  H   LIG d   1       9.228  -2.670  -3.624  0.00  0.00     0.023 H 
ENDBRANCH  35  41
ENDBRANCH   5  35
BRANCH   1  45
ATOM     45  C   LIG d   1       3.699   1.358  -1.968  0.00  0.00    -0.062 C 
ATOM     46  H   LIG d   1       2.619   1.320  -2.113  0.00  0.00     0.023 H 
ATOM     47  H   LIG d   1       3.935   1.115  -0.933  0.00  0.00     0.023 H 
ATOM     48  H   LIG d   1       4.061   2.360  -2.199  0.00  0.00     0.023 H 
ENDBRANCH   1  45
TORSDOF 10
ENDMDL
MODEL 4
REMARK VINA RESULT:      -5.4      3.972      5.207
REMARK  10 active torsions:
REMARK  status: ('A' for Active; 'I' for Inactive)
REMARK    1  A    between atoms: C_1  and  C_2 
REMARK    2  A    between atoms: C_6  and  C_22 
REMARK    3  A    between atoms: C_8  and  O_11 
REMARK    4  A    between atoms: O_11  and  C_12 
REMARK    5  A    between atoms: C_12  and  C_14 
REMARK    6  A    between atoms: C_14  and  C_15 
REMARK    7  A    between atoms: C_15  and  C_21 
REMARK    8  A    between atoms: N_16  and  N_17 
REMARK       I    between atoms: N_17  and  C_18 
REMARK       I    between atoms: C_18  and  N_20 
REMARK    9  A    between atoms: C_22  and  C_23 
REMARK   10  A    between atoms: C_22  and  C_24 
ROOT
ATOM      1  C   LIG d   1       6.645  -3.355  -4.622  0.00  0.00    -0.041 C 
ATOM      2  H   LIG d   1       7.054  -3.445  -3.616  0.00  0.00     0.030 H 
ATOM      3  C   LIG d   1       5.152  -3.690  -4.597  0.00  0.00    -0.050 C 
ATOM      4  C   LIG d   1       4.427  -2.719  -3.662  0.00  0.00    -0.046 C 
ATOM      5  C   LIG d   1       4.621  -1.286  -4.166  0.00  0.00    -0.002 C 
ATOM      6  H   LIG d   1       4.211  -1.197  -5.172  0.00  0.00     0.034 H 
ATOM      7  C   LIG d   1       6.114  -0.952  -4.191  0.00  0.00     0.106 C 
ATOM      8  H   LIG d   1       6.523  -1.043  -3.185  0.00  0.00     0.074 H 
ATOM      9  C   LIG d   1       6.838  -1.923  -5.125  0.00  0.00    -0.013 C 
ATOM     10  H   LIG d   1       5.014  -4.710  -4.239  0.00  0.00     0.027 H 
ATOM     11  H   LIG d   1       4.743  -3.599  -5.603  0.00  0.00     0.027 H 
ATOM     12  H   LIG d   1       4.837  -2.809  -2.656  0.00  0.00     0.027 H 
ATOM     13  H   LIG d   1       3.365  -2.957  -3.645  0.00  0.00     0.027 H 
ATOM     14  H   LIG d   1       7.902  -1.685  -5.143  0.00  0.00     0.030 H 
ATOM     15  H   LIG d   1       6.429  -1.833  -6.132  0.00  0.00     0.030 H 
ENDROOT
BRANCH   7  16
ATOM     16  O   LIG d   1       6.298   0.407  -4.668  0.00  0.00    -0.461 OA
BRANCH  16  17
ATOM     17  C   LIG d   1       6.988   1.242  -3.876  0.00  0.00     0.313 C 
ATOM     18  O   LIG d   1       6.401   2.002  -3.142  0.00  0.00    -0.250 OA
BRANCH  17  19
ATOM     19  C   LIG d   1       8.494   1.234  -3.903  0.00  0.00     0.085 C 
ATOM     20  H   LIG d   1       8.871   0.768  -2.993  0.00  0.00     0.044 H 
ATOM     21  H   LIG d   1       8.839   0.670  -4.771  0.00  0.00     0.044 H 
BRANCH  19  22
ATOM     22  C   LIG d   1       9.003   2.650  -3.991  0.00  0.00     0.044 C 
ATOM     23  N   LIG d   1       9.521   3.208  -2.961  0.00  0.00    -0.188 NA
BRANCH  23  24
ATOM     24  N   LIG d   1       9.994   4.524  -3.042  0.00  0.00    -0.191 N 
ATOM     25  C   LIG d   1      10.827   5.000  -2.095  0.00  0.00     0.317 C 
ATOM     26  O   LIG d   1      11.237   6.143  -2.164  0.00  0.00    -0.251 OA
ATOM     27  N   LIG d   1      11.205   4.210  -1.071  0.00  0.00    -0.312 N 
ATOM     28  H   LIG d   1      10.878   3.298  -1.016  0.00  0.00     0.146 HD
ATOM     29  H   LIG d   1      11.805   4.552  -0.390  0.00  0.00     0.146 HD
ATOM     30  H   LIG d   1       9.721   5.093  -3.779  0.00  0.00     0.179 HD
ENDBRANCH  23  24
BRANCH  22  31
ATOM     31  C   LIG d   1       8.903   3.409  -5.288  0.00  0.00    -0.024 C 
ATOM     32  H   LIG d   1       7.861   3.664  -5.480  0.00  0.00     0.029 H 
ATOM     33  H   LIG d   1       9.495   4.322  -5.222  0.00  0.00     0.029 H 
ATOM     34  H   LIG d   1       9.280   2.789  -6.101  0.00  0.00     0.029 H 
ENDBRANCH  22  31
ENDBRANCH  19  22
ENDBRANCH  17  19
ENDBRANCH  16  17
ENDBRANCH   7  16
BRANCH   5  35
ATOM     35  C   LIG d   1       3.896  -0.315  -3.231  0.00  0.00    -0.041 C 
ATOM     36  H   LIG d   1       4.087   0.708  -3.552  0.00  0.00     0.030 H 
BRANCH  35  37
ATOM     37  C   LIG d   1       4.410  -0.505  -1.802  0.00  0.00    -0.062 C 
ATOM     38  H   LIG d   1       5.095  -1.353  -1.772  0.00  0.00     0.023 H 
ATOM     39  H   LIG d   1       4.934   0.395  -1.482  0.00  0.00     0.023 H 
ATOM     40  H   LIG d   1       3.569  -0.694  -1.135  0.00  0.00     0.023 H 
ENDBRANCH  35  37
BRANCH  35  41
ATOM     41  C   LIG d   1       2.392  -0.592  -3.274  0.00  0.00    -0.062 C 
ATOM     42  H   LIG d   1       1.856   0.244  -2.826  0.00  0.00     0.023 H 
ATOM     43  H   LIG d   1       2.075  -0.714  -4.310  0.00  0.00     0.023 H 
ATOM     44  H   LIG d   1       2.175  -1.504  -2.718  0.00  0.00     0.023 H 
ENDBRANCH  35  41
ENDBRANCH   5  35
BRANCH   1  45
ATOM     45  C   LIG d   1       7.369  -4.326  -5.557  0.00  0.00    -0.062 C 
ATOM     46  H   LIG d   1       7.007  -5.339  -5.382  0.00  0.00     0.023 H 
ATOM     47  H   LIG d   1       7.176  -4.046  -6.592  0.00  0.00     0.023 H 
ATOM     48  H   LIG d   1       8.441  -4.286  -5.363  0.00  0.00     0.023 H 
ENDBRANCH   1  45
TORSDOF 10
ENDMDL
MODEL 5
REMARK VINA RESULT:      -5.3      2.185      3.281
REMARK  10 active torsions:
REMARK  status: ('A' for Active; 'I' for Inactive)
REMARK    1  A    between atoms: C_1  and  C_2 
REMARK    2  A    between atoms: C_6  and  C_22 
REMARK    3  A    between atoms: C_8  and  O_11 
REMARK    4  A    between atoms: O_11  and  C_12 
REMARK    5  A    between atoms: C_12  and  C_14 
REMARK    6  A    between atoms: C_14  and  C_15 
REMARK    7  A    between atoms: C_15  and  C_21 
REMARK    8  A    between atoms: N_16  and  N_17 
REMARK       I    between atoms: N_17  and  C_18 
REMARK       I    between atoms: C_18  and  N_20 
REMARK    9  A    between atoms: C_22  and  C_23 
REMARK   10  A    between atoms: C_22  and  C_24 
ROOT
ATOM      1  C   LIG d   1       5.913  -2.847  -4.283  0.00  0.00    -0.041 C 
ATOM      2  H   LIG d   1       6.647  -2.913  -3.480  0.00  0.00     0.030 H 
ATOM      3  C   LIG d   1       4.513  -2.696  -3.683  0.00  0.00    -0.050 C 
ATOM      4  C   LIG d   1       4.457  -1.423  -2.835  0.00  0.00    -0.046 C 
ATOM      5  C   LIG d   1       4.770  -0.210  -3.715  0.00  0.00    -0.002 C 
ATOM      6  H   LIG d   1       4.036  -0.145  -4.518  0.00  0.00     0.034 H 
ATOM      7  C   LIG d   1       6.170  -0.362  -4.315  0.00  0.00     0.106 C 
ATOM      8  H   LIG d   1       6.903  -0.428  -3.512  0.00  0.00     0.074 H 
ATOM      9  C   LIG d   1       6.225  -1.635  -5.162  0.00  0.00    -0.013 C 
ATOM     10  H   LIG d   1       4.290  -3.559  -3.057  0.00  0.00     0.027 H 
ATOM     11  H   LIG d   1       3.779  -2.629  -4.486  0.00  0.00     0.027 H 
ATOM     12  H   LIG d   1       5.192  -1.488  -2.033  0.00  0.00     0.027 H 
ATOM     13  H   LIG d   1       3.461  -1.314  -2.409  0.00  0.00     0.027 H 
ATOM     14  H   LIG d   1       7.222  -1.744  -5.590  0.00  0.00     0.030 H 
ATOM     15  H   LIG d   1       5.491  -1.569  -5.966  0.00  0.00     0.030 H 
ENDROOT
BRANCH   7  16
ATOM     16  O   LIG d   1       6.467   0.788  -5.149  0.00  0.00    -0.461 OA
BRANCH  16  17
ATOM     17  C   LIG d   1       7.760   1.107  -5.310  0.00  0.00     0.313 C 
ATOM     18  O   LIG d   1       8.554   0.874  -4.429  0.00  0.00    -0.250 OA
BRANCH  17  19
ATOM     19  C   LIG d   1       8.223   1.757  -6.589  0.00  0.00     0.085 C 
ATOM     20  H   LIG d   1       8.044   2.830  -6.536  0.00  0.00     0.044 H 
ATOM     21  H   LIG d   1       9.289   1.571  -6.725  0.00  0.00     0.044 H 
BRANCH  19  22
ATOM     22  C   LIG d   1       7.460   1.176  -7.752  0.00  0.00     0.044 C 
ATOM     23  N   LIG d   1       6.558   1.873  -8.336  0.00  0.00    -0.188 NA
BRANCH  23  24
ATOM     24  N   LIG d   1       5.849   1.333  -9.417  0.00  0.00    -0.191 N 
ATOM     25  C   LIG d   1       4.622   1.804  -9.720  0.00  0.00     0.317 C 
ATOM     26  O   LIG d   1       4.006   1.336 -10.658  0.00  0.00    -0.251 OA
ATOM     27  N   LIG d   1       4.079   2.792  -8.984  0.00  0.00    -0.312 N 
ATOM     28  H   LIG d   1       4.570   3.165  -8.235  0.00  0.00     0.146 HD
ATOM     29  H   LIG d   1       3.196   3.131  -9.202  0.00  0.00     0.146 HD
ATOM     30  H   LIG d   1       6.240   0.622  -9.947  0.00  0.00     0.179 HD
ENDBRANCH  23  24
BRANCH  22  31
ATOM     31  C   LIG d   1       7.758  -0.221  -8.227  0.00  0.00    -0.024 C 
ATOM     32  H   LIG d   1       8.830  -0.330  -8.388  0.00  0.00     0.029 H 
ATOM     33  H   LIG d   1       7.428  -0.939  -7.476  0.00  0.00     0.029 H 
ATOM     34  H   LIG d   1       7.230  -0.407  -9.163  0.00  0.00     0.029 H 
ENDBRANCH  22  31
ENDBRANCH  19  22
ENDBRANCH  17  19
ENDBRANCH  16  17
ENDBRANCH   7  16
BRANCH   5  35
ATOM     35  C   LIG d   1       4.714   1.063  -2.867  0.00  0.00    -0.041 C 
ATOM     36  H   LIG d   1       5.592   1.675  -3.072  0.00  0.00     0.030 H 
BRANCH  35  37
ATOM     37  C   LIG d   1       4.690   0.686  -1.384  0.00  0.00    -0.062 C 
ATOM     38  H   LIG d   1       3.701   0.891  -0.974  0.00  0.00     0.023 H 
ATOM     39  H   LIG d   1       4.915  -0.375  -1.276  0.00  0.00     0.023 H 
ATOM     40  H   LIG d   1       5.435   1.273  -0.847  0.00  0.00     0.023 H 
ENDBRANCH  35  37
BRANCH  35  41
ATOM     41  C   LIG d   1       3.450   1.852  -3.214  0.00  0.00    -0.062 C 
ATOM     42  H   LIG d   1       3.720   2.730  -3.801  0.00  0.00     0.023 H 
ATOM     43  H   LIG d   1       2.776   1.221  -3.793  0.00  0.00     0.023 H 
ATOM     44  H   LIG d   1       2.955   2.167  -2.296  0.00  0.00     0.023 H 
ENDBRANCH  35  41
ENDBRANCH   5  35
BRANCH   1  45
ATOM     45  C   LIG d   1       5.968  -4.120  -5.131  0.00  0.00    -0.062 C 
ATOM     46  H   LIG d   1       5.176  -4.094  -5.878  0.00  0.00     0.023 H 
ATOM     47  H   LIG d   1       6.935  -4.182  -5.630  0.00  0.00     0.023 H 
ATOM     48  H   LIG d   1       5.834  -4.991  -4.489  0.00  0.00     0.023 H 
ENDBRANCH   1  45
TORSDOF 10
ENDMDL
MODEL 6
REMARK VINA RESULT:      -5.0      3.586      6.006
REMARK  10 active torsions:
REMARK  status: ('A' for Active; 'I' for Inactive)
REMARK    1  A    between atoms: C_1  and  C_2 
REMARK    2  A    between atoms: C_6  and  C_22 
REMARK    3  A    between atoms: C_8  and  O_11 
REMARK    4  A    between atoms: O_11  and  C_12 
REMARK    5  A    between atoms: C_12  and  C_14 
REMARK    6  A    between atoms: C_14  and  C_15 
REMARK    7  A    between atoms: C_15  and  C_21 
REMARK    8  A    between atoms: N_16  and  N_17 
REMARK       I    between atoms: N_17  and  C_18 
REMARK       I    between atoms: C_18  and  N_20 
REMARK    9  A    between atoms: C_22  and  C_23 
REMARK   10  A    between atoms: C_22  and  C_24 
ROOT
ATOM      1  C   LIG d   1       9.879   2.274  -3.490  0.00  0.00    -0.041 C 
ATOM      2  H   LIG d   1      10.060   1.562  -2.685  0.00  0.00     0.030 H 
ATOM      3  C   LIG d   1      10.677   1.859  -4.728  0.00  0.00    -0.050 C 
ATOM      4  C   LIG d   1      10.237   0.462  -5.173  0.00  0.00    -0.046 C 
ATOM      5  C   LIG d   1       8.744   0.481  -5.511  0.00  0.00    -0.002 C 
ATOM      6  H   LIG d   1       8.563   1.193  -6.316  0.00  0.00     0.034 H 
ATOM      7  C   LIG d   1       7.947   0.897  -4.273  0.00  0.00     0.106 C 
ATOM      8  H   LIG d   1       8.129   0.185  -3.468  0.00  0.00     0.074 H 
ATOM      9  C   LIG d   1       8.386   2.293  -3.829  0.00  0.00    -0.013 C 
ATOM     10  H   LIG d   1      11.739   1.846  -4.488  0.00  0.00     0.027 H 
ATOM     11  H   LIG d   1      10.494   2.571  -5.533  0.00  0.00     0.027 H 
ATOM     12  H   LIG d   1      10.418  -0.250  -4.368  0.00  0.00     0.027 H 
ATOM     13  H   LIG d   1      10.805   0.167  -6.055  0.00  0.00     0.027 H 
ATOM     14  H   LIG d   1       7.818   2.589  -2.946  0.00  0.00     0.030 H 
ATOM     15  H   LIG d   1       8.204   3.005  -4.633  0.00  0.00     0.030 H 
ENDROOT
BRANCH   7  16
ATOM     16  O   LIG d   1       6.530   0.914  -4.593  0.00  0.00    -0.461 OA
BRANCH  16  17
ATOM     17  C   LIG d   1       5.680   0.568  -3.615  0.00  0.00     0.313 C 
ATOM     18  O   LIG d   1       4.745   1.284  -3.345  0.00  0.00    -0.250 OA
BRANCH  17  19
ATOM     19  C   LIG d   1       5.892  -0.714  -2.851  0.00  0.00     0.085 C 
ATOM     20  H   LIG d   1       6.910  -1.067  -3.009  0.00  0.00     0.044 H 
ATOM     21  H   LIG d   1       5.730  -0.534  -1.787  0.00  0.00     0.044 H 
BRANCH  19  22
ATOM     22  C   LIG d   1       4.917  -1.756  -3.337  0.00  0.00     0.044 C 
ATOM     23  N   LIG d   1       5.027  -2.231  -4.521  0.00  0.00    -0.188 NA
BRANCH  23  24
ATOM     24  N   LIG d   1       4.122  -3.199  -4.974  0.00  0.00    -0.191 N 
ATOM     25  C   LIG d   1       4.575  -4.388  -5.421  0.00  0.00     0.317 C 
ATOM     26  O   LIG d   1       3.789  -5.228  -5.815  0.00  0.00    -0.251 OA
ATOM     27  N   LIG d   1       5.897  -4.644  -5.433  0.00  0.00    -0.312 N 
ATOM     28  H   LIG d   1       6.524  -3.973  -5.120  0.00  0.00     0.146 HD
ATOM     29  H   LIG d   1       6.222  -5.499  -5.755  0.00  0.00     0.146 HD
ATOM     30  H   LIG d   1       3.170  -3.015  -4.966  0.00  0.00     0.179 HD
ENDBRANCH  23  24
BRANCH  22  31
ATOM     31  C   LIG d   1       3.815  -2.238  -2.432  0.00  0.00    -0.024 C 
ATOM     32  H   LIG d   1       2.859  -2.160  -2.949  0.00  0.00     0.029 H 
ATOM     33  H   LIG d   1       3.996  -3.277  -2.159  0.00  0.00     0.029 H 
ATOM     34  H   LIG d   1       3.790  -1.625  -1.531  0.00  0.00     0.029 H 
ENDBRANCH  22  31
ENDBRANCH  19  22
ENDBRANCH  17  19
ENDBRANCH  16  17
ENDBRANCH   7  16
BRANCH   5  35
ATOM     35  C   LIG d   1       8.305  -0.915  -5.956  0.00  0.00    -0.041 C 
ATOM     36  H   LIG d   1       7.218  -0.950  -6.023  0.00  0.00     0.030 H 
BRANCH  35  37
ATOM     37  C   LIG d   1       8.786  -1.950  -4.937  0.00  0.00    -0.062 C 
ATOM     38  H   LIG d   1       8.613  -2.953  -5.328  0.00  0.00     0.023 H 
ATOM     39  H   LIG d   1       9.852  -1.811  -4.754  0.00  0.00     0.023 H 
ATOM     40  H   LIG d   1       8.238  -1.824  -4.003  0.00  0.00     0.023 H 
ENDBRANCH  35  37
BRANCH  35  41
ATOM     41  C   LIG d   1       8.911  -1.228  -7.326  0.00  0.00    -0.062 C 
ATOM     42  H   LIG d   1       9.948  -1.539  -7.202  0.00  0.00     0.023 H 
ATOM     43  H   LIG d   1       8.345  -2.032  -7.798  0.00  0.00     0.023 H 
ATOM     44  H   LIG d   1       8.870  -0.338  -7.953  0.00  0.00     0.023 H 
ENDBRANCH  35  41
ENDBRANCH   5  35
BRANCH   1  45
ATOM     45  C   LIG d   1      10.318   3.671  -3.045  0.00  0.00    -0.062 C 
ATOM     46  H   LIG d   1       9.443   4.252  -2.756  0.00  0.00     0.023 H 
ATOM     47  H   LIG d   1      10.994   3.585  -2.195  0.00  0.00     0.023 H 
ATOM     48  H   LIG d   1      10.829   4.170  -3.868  0.00  0.00     0.023 H 
ENDBRANCH   1  45
TORSDOF 10
ENDMDL
MODEL 7
REMARK VINA RESULT:      -5.0      3.255      4.791
REMARK  10 active torsions:
REMARK  status: ('A' for Active; 'I' for Inactive)
REMARK    1  A    between atoms: C_1  and  C_2 
REMARK    2  A    between atoms: C_6  and  C_22 
REMARK    3  A    between atoms: C_8  and  O_11 
REMARK    4  A    between atoms: O_11  and  C_12 
REMARK    5  A    between atoms: C_12  and  C_14 
REMARK    6  A    between atoms: C_14  and  C_15 
REMARK    7  A    between atoms: C_15  and  C_21 
REMARK    8  A    between atoms: N_16  and  N_17 
REMARK       I    between atoms: N_17  and  C_18 
REMARK       I    between atoms: C_18  and  N_20 
REMARK    9  A    between atoms: C_22  and  C_23 
REMARK   10  A    between atoms: C_22  and  C_24 
ROOT
ATOM      1  C   LIG d   1       8.141  -3.970  -4.274  0.00  0.00    -0.041 C 
ATOM      2  H   LIG d   1       7.775  -4.885  -3.809  0.00  0.00     0.030 H 
ATOM      3  C   LIG d   1       8.170  -4.146  -5.794  0.00  0.00    -0.050 C 
ATOM      4  C   LIG d   1       6.757  -4.446  -6.299  0.00  0.00    -0.046 C 
ATOM      5  C   LIG d   1       5.829  -3.284  -5.937  0.00  0.00    -0.002 C 
ATOM      6  H   LIG d   1       6.194  -2.369  -6.402  0.00  0.00     0.034 H 
ATOM      7  C   LIG d   1       5.801  -3.108  -4.417  0.00  0.00     0.106 C 
ATOM      8  H   LIG d   1       5.435  -4.024  -3.952  0.00  0.00     0.074 H 
ATOM      9  C   LIG d   1       7.213  -2.808  -3.913  0.00  0.00    -0.013 C 
ATOM     10  H   LIG d   1       8.830  -4.973  -6.052  0.00  0.00     0.027 H 
ATOM     11  H   LIG d   1       8.534  -3.230  -6.259  0.00  0.00     0.027 H 
ATOM     12  H   LIG d   1       6.391  -5.361  -5.834  0.00  0.00     0.027 H 
ATOM     13  H   LIG d   1       6.777  -4.571  -7.381  0.00  0.00     0.027 H 
ATOM     14  H   LIG d   1       7.194  -2.683  -2.830  0.00  0.00     0.030 H 
ATOM     15  H   LIG d   1       7.579  -1.893  -4.377  0.00  0.00     0.030 H 
ENDROOT
BRANCH   7  16
ATOM     16  O   LIG d   1       4.920  -2.006  -4.073  0.00  0.00    -0.461 OA
BRANCH  16  17
ATOM     17  C   LIG d   1       4.316  -2.059  -2.877  0.00  0.00     0.313 C 
ATOM     18  O   LIG d   1       3.562  -2.969  -2.620  0.00  0.00    -0.250 OA
BRANCH  17  19
ATOM     19  C   LIG d   1       4.575  -0.984  -1.853  0.00  0.00     0.085 C 
ATOM     20  H   LIG d   1       3.674  -0.819  -1.263  0.00  0.00     0.044 H 
ATOM     21  H   LIG d   1       5.388  -1.297  -1.196  0.00  0.00     0.044 H 
BRANCH  19  22
ATOM     22  C   LIG d   1       4.958   0.294  -2.552  0.00  0.00     0.044 C 
ATOM     23  N   LIG d   1       6.150   0.448  -2.996  0.00  0.00    -0.188 NA
BRANCH  23  24
ATOM     24  N   LIG d   1       6.506   1.636  -3.647  0.00  0.00    -0.191 N 
ATOM     25  C   LIG d   1       7.754   1.788  -4.136  0.00  0.00     0.317 C 
ATOM     26  O   LIG d   1       8.064   2.820  -4.700  0.00  0.00    -0.251 OA
ATOM     27  N   LIG d   1       8.656   0.798  -3.999  0.00  0.00    -0.312 N 
ATOM     28  H   LIG d   1       8.409  -0.025  -3.549  0.00  0.00     0.146 HD
ATOM     29  H   LIG d   1       9.554   0.908  -4.351  0.00  0.00     0.146 HD
ATOM     30  H   LIG d   1       5.856   2.350  -3.745  0.00  0.00     0.179 HD
ENDBRANCH  23  24
BRANCH  22  31
ATOM     31  C   LIG d   1       3.942   1.391  -2.729  0.00  0.00    -0.024 C 
ATOM     32  H   LIG d   1       3.602   1.734  -1.752  0.00  0.00     0.029 H 
ATOM     33  H   LIG d   1       4.394   2.223  -3.269  0.00  0.00     0.029 H 
ATOM     34  H   LIG d   1       3.092   1.011  -3.296  0.00  0.00     0.029 H 
ENDBRANCH  22  31
ENDBRANCH  19  22
ENDBRANCH  17  19
ENDBRANCH  16  17
ENDBRANCH   7  16
BRANCH   5  35
ATOM     35  C   LIG d   1       4.415  -3.584  -6.442  0.00  0.00    -0.041 C 
ATOM     36  H   LIG d   1       3.693  -3.012  -5.860  0.00  0.00     0.030 H 
BRANCH  35  37
ATOM     37  C   LIG d   1       4.126  -5.078  -6.287  0.00  0.00    -0.062 C 
ATOM     38  H   LIG d   1       3.375  -5.224  -5.509  0.00  0.00     0.023 H 
ATOM     39  H   LIG d   1       3.751  -5.475  -7.230  0.00  0.00     0.023 H 
ATOM     40  H   LIG d   1       5.041  -5.600  -6.011  0.00  0.00     0.023 H 
ENDBRANCH  35  37
BRANCH  35  41
ATOM     41  C   LIG d   1       4.307  -3.193  -7.917  0.00  0.00    -0.062 C 
ATOM     42  H   LIG d   1       5.252  -2.762  -8.249  0.00  0.00     0.023 H 
ATOM     43  H   LIG d   1       4.083  -4.078  -8.511  0.00  0.00     0.023 H 
ATOM     44  H   LIG d   1       3.510  -2.460  -8.041  0.00  0.00     0.023 H 
ENDBRANCH  35  41
ENDBRANCH   5  35
BRANCH   1  45
ATOM     45  C   LIG d   1       9.554  -3.670  -3.769  0.00  0.00    -0.062 C 
ATOM     46  H   LIG d   1       9.935  -2.777  -4.264  0.00  0.00     0.023 H 
ATOM     47  H   LIG d   1       9.528  -3.506  -2.692  0.00  0.00     0.023 H 
ATOM     48  H   LIG d   1      10.207  -4.514  -3.993  0.00  0.00     0.023 H 
ENDBRANCH   1  45
TORSDOF 10
ENDMDL
MODEL 8
REMARK VINA RESULT:      -5.0      3.318      5.133
REMARK  10 active torsions:
REMARK  status: ('A' for Active; 'I' for Inactive)
REMARK    1  A    between atoms: C_1  and  C_2 
REMARK    2  A    between atoms: C_6  and  C_22 
REMARK    3  A    between atoms: C_8  and  O_11 
REMARK    4  A    between atoms: O_11  and  C_12 
REMARK    5  A    between atoms: C_12  and  C_14 
REMARK    6  A    between atoms: C_14  and  C_15 
REMARK    7  A    between atoms: C_15  and  C_21 
REMARK    8  A    between atoms: N_16  and  N_17 
REMARK       I    between atoms: N_17  and  C_18 
REMARK       I    between atoms: C_18  and  N_20 
REMARK    9  A    between atoms: C_22  and  C_23 
REMARK   10  A    between atoms: C_22  and  C_24 
ROOT
ATOM      1  C   LIG d   1       3.824  -0.214  -2.857  0.00  0.00    -0.041 C 
ATOM      2  H   LIG d   1       2.791  -0.562  -2.878  0.00  0.00     0.030 H 
ATOM      3  C   LIG d   1       4.739  -1.359  -2.419  0.00  0.00    -0.050 C 
ATOM      4  C   LIG d   1       4.612  -2.520  -3.409  0.00  0.00    -0.046 C 
ATOM      5  C   LIG d   1       5.019  -2.045  -4.806  0.00  0.00    -0.002 C 
ATOM      6  H   LIG d   1       6.052  -1.698  -4.785  0.00  0.00     0.034 H 
ATOM      7  C   LIG d   1       4.104  -0.900  -5.243  0.00  0.00     0.106 C 
ATOM      8  H   LIG d   1       3.071  -1.248  -5.264  0.00  0.00     0.074 H 
ATOM      9  C   LIG d   1       4.232   0.260  -4.254  0.00  0.00    -0.013 C 
ATOM     10  H   LIG d   1       4.450  -1.697  -1.425  0.00  0.00     0.027 H 
ATOM     11  H   LIG d   1       5.772  -1.011  -2.399  0.00  0.00     0.027 H 
ATOM     12  H   LIG d   1       3.579  -2.867  -3.430  0.00  0.00     0.027 H 
ATOM     13  H   LIG d   1       5.264  -3.335  -3.098  0.00  0.00     0.027 H 
ATOM     14  H   LIG d   1       3.579   1.076  -4.564  0.00  0.00     0.030 H 
ATOM     15  H   LIG d   1       5.264   0.608  -4.233  0.00  0.00     0.030 H 
ENDROOT
BRANCH   7  16
ATOM     16  O   LIG d   1       4.490  -0.451  -6.568  0.00  0.00    -0.461 OA
BRANCH  16  17
ATOM     17  C   LIG d   1       3.516  -0.349  -7.485  0.00  0.00     0.313 C 
ATOM     18  O   LIG d   1       2.424   0.059  -7.164  0.00  0.00    -0.250 OA
BRANCH  17  19
ATOM     19  C   LIG d   1       3.781  -0.744  -8.915  0.00  0.00     0.085 C 
ATOM     20  H   LIG d   1       3.549   0.093  -9.572  0.00  0.00     0.044 H 
ATOM     21  H   LIG d   1       4.832  -1.014  -9.028  0.00  0.00     0.044 H 
BRANCH  19  22
ATOM     22  C   LIG d   1       2.918  -1.924  -9.279  0.00  0.00     0.044 C 
ATOM     23  N   LIG d   1       3.303  -3.111  -8.993  0.00  0.00    -0.188 NA
BRANCH  23  24
ATOM     24  N   LIG d   1       2.500  -4.209  -9.331  0.00  0.00    -0.191 N 
ATOM     25  C   LIG d   1       2.943  -5.462  -9.106  0.00  0.00     0.317 C 
ATOM     26  O   LIG d   1       2.247  -6.415  -9.401  0.00  0.00    -0.251 OA
ATOM     27  N   LIG d   1       4.157  -5.659  -8.556  0.00  0.00    -0.312 N 
ATOM     28  H   LIG d   1       4.713  -4.899  -8.322  0.00  0.00     0.146 HD
ATOM     29  H   LIG d   1       4.475  -6.561  -8.394  0.00  0.00     0.146 HD
ATOM     30  H   LIG d   1       1.627  -4.067  -9.727  0.00  0.00     0.179 HD
ENDBRANCH  23  24
BRANCH  22  31
ATOM     31  C   LIG d   1       1.602  -1.709  -9.980  0.00  0.00    -0.024 C 
ATOM     32  H   LIG d   1       1.145  -2.673 -10.201  0.00  0.00     0.029 H 
ATOM     33  H   LIG d   1       0.938  -1.130  -9.338  0.00  0.00     0.029 H 
ATOM     34  H   LIG d   1       1.771  -1.166 -10.910  0.00  0.00     0.029 H 
ENDBRANCH  22  31
ENDBRANCH  19  22
ENDBRANCH  17  19
ENDBRANCH  16  17
ENDBRANCH   7  16
BRANCH   5  35
ATOM     35  C   LIG d   1       4.892  -3.206  -5.795  0.00  0.00    -0.041 C 
ATOM     36  H   LIG d   1       4.018  -3.051  -6.427  0.00  0.00     0.030 H 
BRANCH  35  37
ATOM     37  C   LIG d   1       4.736  -4.518  -5.024  0.00  0.00    -0.062 C 
ATOM     38  H   LIG d   1       3.732  -4.576  -4.603  0.00  0.00     0.023 H 
ATOM     39  H   LIG d   1       4.894  -5.358  -5.701  0.00  0.00     0.023 H 
ATOM     40  H   LIG d   1       5.469  -4.557  -4.219  0.00  0.00     0.023 H 
ENDBRANCH  35  37
BRANCH  35  41
ATOM     41  C   LIG d   1       6.147  -3.273  -6.668  0.00  0.00    -0.062 C 
ATOM     42  H   LIG d   1       5.888  -3.681  -7.645  0.00  0.00     0.023 H 
ATOM     43  H   LIG d   1       6.557  -2.271  -6.790  0.00  0.00     0.023 H 
ATOM     44  H   LIG d   1       6.888  -3.914  -6.191  0.00  0.00     0.023 H 
ENDBRANCH  35  41
ENDBRANCH   5  35
BRANCH   1  45
ATOM     45  C   LIG d   1       3.952   0.947  -1.868  0.00  0.00    -0.062 C 
ATOM     46  H   LIG d   1       4.991   1.271  -1.819  0.00  0.00     0.023 H 
ATOM     47  H   LIG d   1       3.328   1.777  -2.199  0.00  0.00     0.023 H 
ATOM     48  H   LIG d   1       3.627   0.620  -0.880  0.00  0.00     0.023 H 
ENDBRANCH   1  45
TORSDOF 10
ENDMDL
MODEL 9
REMARK VINA RESULT:      -4.9      3.207      3.815
REMARK  10 active torsions:
REMARK  status: ('A' for Active; 'I' for Inactive)
REMARK    1  A    between atoms: C_1  and  C_2 
REMARK    2  A    between atoms: C_6  and  C_22 
REMARK    3  A    between atoms: C_8  and  O_11 
REMARK    4  A    between atoms: O_11  and  C_12 
REMARK    5  A    between atoms: C_12  and  C_14 
REMARK    6  A    between atoms: C_14  and  C_15 
REMARK    7  A    between atoms: C_15  and  C_21 
REMARK    8  A    between atoms: N_16  and  N_17 
REMARK       I    between atoms: N_17  and  C_18 
REMARK       I    between atoms: C_18  and  N_20 
REMARK    9  A    between atoms: C_22  and  C_23 
REMARK   10  A    between atoms: C_22  and  C_24 
ROOT
ATOM      1  C   LIG d   1       7.458  -1.820  -4.770  0.00  0.00    -0.041 C 
ATOM      2  H   LIG d   1       7.902  -0.842  -4.953  0.00  0.00     0.030 H 
ATOM      3  C   LIG d   1       7.119  -1.959  -3.285  0.00  0.00    -0.050 C 
ATOM      4  C   LIG d   1       6.125  -0.865  -2.886  0.00  0.00    -0.046 C 
ATOM      5  C   LIG d   1       4.848  -1.009  -3.717  0.00  0.00    -0.002 C 
ATOM      6  H   LIG d   1       4.404  -1.987  -3.535  0.00  0.00     0.034 H 
ATOM      7  C   LIG d   1       5.188  -0.871  -5.203  0.00  0.00     0.106 C 
ATOM      8  H   LIG d   1       5.632   0.108  -5.384  0.00  0.00     0.074 H 
ATOM      9  C   LIG d   1       6.181  -1.964  -5.601  0.00  0.00    -0.013 C 
ATOM     10  H   LIG d   1       8.028  -1.856  -2.693  0.00  0.00     0.027 H 
ATOM     11  H   LIG d   1       6.674  -2.937  -3.103  0.00  0.00     0.027 H 
ATOM     12  H   LIG d   1       6.569   0.114  -3.068  0.00  0.00     0.027 H 
ATOM     13  H   LIG d   1       5.883  -0.963  -1.828  0.00  0.00     0.027 H 
ATOM     14  H   LIG d   1       6.424  -1.866  -6.659  0.00  0.00     0.030 H 
ATOM     15  H   LIG d   1       5.737  -2.943  -5.420  0.00  0.00     0.030 H 
ENDROOT
BRANCH   7  16
ATOM     16  O   LIG d   1       3.977  -1.006  -5.991  0.00  0.00    -0.461 OA
BRANCH  16  17
ATOM     17  C   LIG d   1       3.838  -0.184  -7.042  0.00  0.00     0.313 C 
ATOM     18  O   LIG d   1       4.754   0.533  -7.373  0.00  0.00    -0.250 OA
BRANCH  17  19
ATOM     19  C   LIG d   1       2.542  -0.153  -7.810  0.00  0.00     0.085 C 
ATOM     20  H   LIG d   1       1.755  -0.614  -7.213  0.00  0.00     0.044 H 
ATOM     21  H   LIG d   1       2.274   0.882  -8.028  0.00  0.00     0.044 H 
BRANCH  19  22
ATOM     22  C   LIG d   1       2.704  -0.913  -9.101  0.00  0.00     0.044 C 
ATOM     23  N   LIG d   1       2.380  -0.364 -10.211  0.00  0.00    -0.188 NA
BRANCH  23  24
ATOM     24  N   LIG d   1       2.530  -1.071 -11.411  0.00  0.00    -0.191 N 
ATOM     25  C   LIG d   1       1.444  -1.405 -12.137  0.00  0.00     0.317 C 
ATOM     26  O   LIG d   1       1.575  -2.019 -13.179  0.00  0.00    -0.251 OA
ATOM     27  N   LIG d   1       0.215  -1.059 -11.709  0.00  0.00    -0.312 N 
ATOM     28  H   LIG d   1       0.111  -0.569 -10.878  0.00  0.00     0.146 HD
ATOM     29  H   LIG d   1      -0.566  -1.299 -12.231  0.00  0.00     0.146 HD
ATOM     30  H   LIG d   1       3.416  -1.321 -11.720  0.00  0.00     0.179 HD
ENDBRANCH  23  24
BRANCH  22  31
ATOM     31  C   LIG d   1       3.246  -2.318  -9.085  0.00  0.00    -0.024 C 
ATOM     32  H   LIG d   1       3.989  -2.413  -8.294  0.00  0.00     0.029 H 
ATOM     33  H   LIG d   1       2.432  -3.021  -8.906  0.00  0.00     0.029 H 
ATOM     34  H   LIG d   1       3.711  -2.539 -10.047  0.00  0.00     0.029 H 
ENDBRANCH  22  31
ENDBRANCH  19  22
ENDBRANCH  17  19
ENDBRANCH  16  17
ENDBRANCH   7  16
BRANCH   5  35
ATOM     35  C   LIG d   1       3.855   0.085  -3.318  0.00  0.00    -0.041 C 
ATOM     36  H   LIG d   1       3.743   0.793  -4.139  0.00  0.00     0.030 H 
BRANCH  35  37
ATOM     37  C   LIG d   1       4.375   0.819  -2.080  0.00  0.00    -0.062 C 
ATOM     38  H   LIG d   1       5.343   1.268  -2.304  0.00  0.00     0.023 H 
ATOM     39  H   LIG d   1       3.669   1.601  -1.798  0.00  0.00     0.023 H 
ATOM     40  H   LIG d   1       4.484   0.113  -1.257  0.00  0.00     0.023 H 
ENDBRANCH  35  37
BRANCH  35  41
ATOM     41  C   LIG d   1       2.498  -0.548  -3.003  0.00  0.00    -0.062 C 
ATOM     42  H   LIG d   1       2.361  -1.438  -3.618  0.00  0.00     0.023 H 
ATOM     43  H   LIG d   1       2.463  -0.826  -1.950  0.00  0.00     0.023 H 
ATOM     44  H   LIG d   1       1.704   0.168  -3.217  0.00  0.00     0.023 H 
ENDBRANCH  35  41
ENDBRANCH   5  35
BRANCH   1  45
ATOM     45  C   LIG d   1       8.452  -2.914  -5.170  0.00  0.00    -0.062 C 
ATOM     46  H   LIG d   1       7.971  -3.889  -5.091  0.00  0.00     0.023 H 
ATOM     47  H   LIG d   1       8.777  -2.752  -6.197  0.00  0.00     0.023 H 
ATOM     48  H   LIG d   1       9.315  -2.881  -4.505  0.00  0.00     0.023 H 
ENDBRANCH   1  45
TORSDOF 10
ENDMDL
