MODEL 1
REMARK VINA RESULT:      -4.9      0.000      0.000
REMARK  4 active torsions:
REMARK  status: ('A' for Active; 'I' for Inactive)
REMARK    1  A    between atoms: C_2  and  C_3 
REMARK    2  A    between atoms: C_3  and  O_5 
REMARK    3  A    between atoms: O_5  and  C_6 
REMARK    4  A    between atoms: C_6  and  C_7 
ROOT
ATOM      1  C   LIG d   1       3.729  -0.139  -4.060  0.00  0.00     0.093 C 
ATOM      2  H   LIG d   1       3.832  -1.216  -4.189  0.00  0.00     0.063 H 
ATOM      3  C   LIG d   1       3.157   0.170  -2.659  0.00  0.00    -0.021 C 
ATOM      4  C   LIG d   1       4.436   0.515  -1.850  0.00  0.00    -0.027 C 
ATOM      5  C   LIG d   1       5.296   1.206  -2.938  0.00  0.00     0.048 C 
ATOM      6  O   LIG d   1       5.014   0.488  -4.149  0.00  0.00    -0.373 OA
ATOM      7  H   LIG d   1       2.479   1.022  -2.697  0.00  0.00     0.029 H 
ATOM      8  H   LIG d   1       2.658  -0.705  -2.242  0.00  0.00     0.029 H 
ATOM      9  H   LIG d   1       4.921  -0.387  -1.478  0.00  0.00     0.029 H 
ATOM     10  H   LIG d   1       4.211   1.202  -1.033  0.00  0.00     0.029 H 
ATOM     11  H   LIG d   1       6.354   1.128  -2.689  0.00  0.00     0.056 H 
ATOM     12  H   LIG d   1       5.008   2.251  -3.042  0.00  0.00     0.056 H 
ENDROOT
BRANCH   1  13
ATOM     13  C   LIG d   1       2.800   0.426  -5.136  0.00  0.00     0.119 C 
ATOM     14  H   LIG d   1       2.320   1.330  -4.763  0.00  0.00     0.072 H 
ATOM     15  H   LIG d   1       2.039  -0.314  -5.384  0.00  0.00     0.072 H 
BRANCH  13  16
ATOM     16  O   LIG d   1       3.573   0.743  -6.324  0.00  0.00    -0.459 OA
BRANCH  16  17
ATOM     17  C   LIG d   1       2.927   0.689  -7.506  0.00  0.00     0.332 C 
ATOM     18  O   LIG d   1       2.470  -0.365  -7.901  0.00  0.00    -0.246 OA
BRANCH  17  19
ATOM     19  C   LIG d   1       2.776   1.905  -8.316  0.00  0.00     0.015 C 
ATOM     20  C   LIG d   1       3.780   2.324  -9.083  0.00  0.00    -0.092 C 
ATOM     21  H   LIG d   1       3.670   3.221  -9.674  0.00  0.00     0.054 H 
ATOM     22  H   LIG d   1       4.705   1.767  -9.112  0.00  0.00     0.054 H 
ATOM     23  H   LIG d   1       1.851   2.462  -8.287  0.00  0.00     0.068 H 
ENDBRANCH  17  19
ENDBRANCH  16  17
ENDBRANCH  13  16
ENDBRANCH   1  13
TORSDOF 4
ENDMDL
MODEL 2
REMARK VINA RESULT:      -4.7      1.505      5.197
REMARK  4 active torsions:
REMARK  status: ('A' for Active; 'I' for Inactive)
REMARK    1  A    between atoms: C_2  and  C_3 
REMARK    2  A    between atoms: C_3  and  O_5 
REMARK    3  A    between atoms: O_5  and  C_6 
REMARK    4  A    between atoms: C_6  and  C_7 
ROOT
ATOM      1  C   LIG d   1       2.668   0.273  -6.614  0.00  0.00     0.093 C 
ATOM      2  H   LIG d   1       1.664   0.124  -6.219  0.00  0.00     0.063 H 
ATOM      3  C   LIG d   1       2.859  -0.565  -7.897  0.00  0.00    -0.021 C 
ATOM      4  C   LIG d   1       2.606   0.482  -9.015  0.00  0.00    -0.027 C 
ATOM      5  C   LIG d   1       3.187   1.760  -8.358  0.00  0.00     0.048 C 
ATOM      6  O   LIG d   1       2.854   1.649  -6.966  0.00  0.00    -0.373 OA
ATOM      7  H   LIG d   1       3.873  -0.959  -7.956  0.00  0.00     0.029 H 
ATOM      8  H   LIG d   1       2.126  -1.370  -7.946  0.00  0.00     0.029 H 
ATOM      9  H   LIG d   1       1.541   0.593  -9.217  0.00  0.00     0.029 H 
ATOM     10  H   LIG d   1       3.151   0.226  -9.924  0.00  0.00     0.029 H 
ATOM     11  H   LIG d   1       2.725   2.649  -8.789  0.00  0.00     0.056 H 
ATOM     12  H   LIG d   1       4.268   1.796  -8.487  0.00  0.00     0.056 H 
ENDROOT
BRANCH   1  13
ATOM     13  C   LIG d   1       3.705  -0.139  -5.567  0.00  0.00     0.119 C 
ATOM     14  H   LIG d   1       4.701  -0.098  -6.005  0.00  0.00     0.072 H 
ATOM     15  H   LIG d   1       3.497  -1.155  -5.230  0.00  0.00     0.072 H 
BRANCH  13  16
ATOM     16  O   LIG d   1       3.636   0.769  -4.435  0.00  0.00    -0.459 OA
BRANCH  16  17
ATOM     17  C   LIG d   1       3.341   0.230  -3.235  0.00  0.00     0.332 C 
ATOM     18  O   LIG d   1       3.304   0.934  -2.246  0.00  0.00    -0.246 OA
BRANCH  17  19
ATOM     19  C   LIG d   1       3.064  -1.208  -3.125  0.00  0.00     0.015 C 
ATOM     20  C   LIG d   1       3.826  -1.975  -2.347  0.00  0.00    -0.092 C 
ATOM     21  H   LIG d   1       3.625  -3.033  -2.270  0.00  0.00     0.054 H 
ATOM     22  H   LIG d   1       4.645  -1.538  -1.795  0.00  0.00     0.054 H 
ATOM     23  H   LIG d   1       2.245  -1.645  -3.677  0.00  0.00     0.068 H 
ENDBRANCH  17  19
ENDBRANCH  16  17
ENDBRANCH  13  16
ENDBRANCH   1  13
TORSDOF 4
ENDMDL
MODEL 3
REMARK VINA RESULT:      -4.7      2.681      3.986
REMARK  4 active torsions:
REMARK  status: ('A' for Active; 'I' for Inactive)
REMARK    1  A    between atoms: C_2  and  C_3 
REMARK    2  A    between atoms: C_3  and  O_5 
REMARK    3  A    between atoms: O_5  and  C_6 
REMARK    4  A    between atoms: C_6  and  C_7 
ROOT
ATOM      1  C   LIG d   1       5.521  -1.418  -5.173  0.00  0.00     0.093 C 
ATOM      2  H   LIG d   1       5.757  -2.067  -6.017  0.00  0.00     0.063 H 
ATOM      3  C   LIG d   1       5.569  -2.227  -3.859  0.00  0.00    -0.021 C 
ATOM      4  C   LIG d   1       6.983  -1.889  -3.315  0.00  0.00    -0.027 C 
ATOM      5  C   LIG d   1       7.139  -0.422  -3.790  0.00  0.00     0.048 C 
ATOM      6  O   LIG d   1       6.498  -0.375  -5.074  0.00  0.00    -0.373 OA
ATOM      7  H   LIG d   1       4.796  -1.890  -3.168  0.00  0.00     0.029 H 
ATOM      8  H   LIG d   1       5.473  -3.294  -4.056  0.00  0.00     0.029 H 
ATOM      9  H   LIG d   1       7.741  -2.531  -3.765  0.00  0.00     0.029 H 
ATOM     10  H   LIG d   1       7.013  -1.955  -2.227  0.00  0.00     0.029 H 
ATOM     11  H   LIG d   1       8.194  -0.166  -3.883  0.00  0.00     0.056 H 
ATOM     12  H   LIG d   1       6.646   0.256  -3.095  0.00  0.00     0.056 H 
ENDROOT
BRANCH   1  13
ATOM     13  C   LIG d   1       4.130  -0.811  -5.358  0.00  0.00     0.119 C 
ATOM     14  H   LIG d   1       3.486  -1.525  -5.871  0.00  0.00     0.072 H 
ATOM     15  H   LIG d   1       4.207   0.101  -5.951  0.00  0.00     0.072 H 
BRANCH  13  16
ATOM     16  O   LIG d   1       3.563  -0.496  -4.058  0.00  0.00    -0.459 OA
BRANCH  16  17
ATOM     17  C   LIG d   1       3.310   0.803  -3.800  0.00  0.00     0.332 C 
ATOM     18  O   LIG d   1       2.739   1.486  -4.627  0.00  0.00    -0.246 OA
BRANCH  17  19
ATOM     19  C   LIG d   1       3.723   1.391  -2.519  0.00  0.00     0.015 C 
ATOM     20  C   LIG d   1       4.507   0.702  -1.692  0.00  0.00    -0.092 C 
ATOM     21  H   LIG d   1       4.807   1.133  -0.749  0.00  0.00     0.054 H 
ATOM     22  H   LIG d   1       4.842  -0.288  -1.965  0.00  0.00     0.054 H 
ATOM     23  H   LIG d   1       3.389   2.381  -2.246  0.00  0.00     0.068 H 
ENDBRANCH  17  19
ENDBRANCH  16  17
ENDBRANCH  13  16
ENDBRANCH   1  13
TORSDOF 4
ENDMDL
MODEL 4
REMARK VINA RESULT:      -4.5      1.452      1.782
REMARK  4 active torsions:
REMARK  status: ('A' for Active; 'I' for Inactive)
REMARK    1  A    between atoms: C_2  and  C_3 
REMARK    2  A    between atoms: C_3  and  O_5 
REMARK    3  A    between atoms: O_5  and  C_6 
REMARK    4  A    between atoms: C_6  and  C_7 
ROOT
ATOM      1  C   LIG d   1       4.433  -0.660  -4.707  0.00  0.00     0.093 C 
ATOM      2  H   LIG d   1       5.402  -0.196  -4.527  0.00  0.00     0.063 H 
ATOM      3  C   LIG d   1       4.410  -2.081  -4.103  0.00  0.00    -0.021 C 
ATOM      4  C   LIG d   1       3.691  -1.850  -2.746  0.00  0.00    -0.027 C 
ATOM      5  C   LIG d   1       2.694  -0.728  -3.128  0.00  0.00     0.048 C 
ATOM      6  O   LIG d   1       3.402   0.099  -4.065  0.00  0.00    -0.373 OA
ATOM      7  H   LIG d   1       3.839  -2.762  -4.734  0.00  0.00     0.029 H 
ATOM      8  H   LIG d   1       5.422  -2.453  -3.947  0.00  0.00     0.029 H 
ATOM      9  H   LIG d   1       4.391  -1.511  -1.983  0.00  0.00     0.029 H 
ATOM     10  H   LIG d   1       3.166  -2.749  -2.421  0.00  0.00     0.029 H 
ATOM     11  H   LIG d   1       2.419  -0.150  -2.245  0.00  0.00     0.056 H 
ATOM     12  H   LIG d   1       1.805  -1.152  -3.594  0.00  0.00     0.056 H 
ENDROOT
BRANCH   1  13
ATOM     13  C   LIG d   1       4.164  -0.733  -6.211  0.00  0.00     0.119 C 
ATOM     14  H   LIG d   1       3.317  -1.391  -6.398  0.00  0.00     0.072 H 
ATOM     15  H   LIG d   1       5.046  -1.121  -6.720  0.00  0.00     0.072 H 
BRANCH  13  16
ATOM     16  O   LIG d   1       3.863   0.598  -6.713  0.00  0.00    -0.459 OA
BRANCH  16  17
ATOM     17  C   LIG d   1       2.994   0.682  -7.740  0.00  0.00     0.332 C 
ATOM     18  O   LIG d   1       2.345  -0.292  -8.068  0.00  0.00    -0.246 OA
BRANCH  17  19
ATOM     19  C   LIG d   1       2.832   1.951  -8.462  0.00  0.00     0.015 C 
ATOM     20  C   LIG d   1       3.854   2.465  -9.143  0.00  0.00    -0.092 C 
ATOM     21  H   LIG d   1       3.736   3.400  -9.670  0.00  0.00     0.054 H 
ATOM     22  H   LIG d   1       4.801   1.947  -9.168  0.00  0.00     0.054 H 
ATOM     23  H   LIG d   1       1.885   2.469  -8.437  0.00  0.00     0.068 H 
ENDBRANCH  17  19
ENDBRANCH  16  17
ENDBRANCH  13  16
ENDBRANCH   1  13
TORSDOF 4
ENDMDL
MODEL 5
REMARK VINA RESULT:      -4.5      1.639      5.074
REMARK  4 active torsions:
REMARK  status: ('A' for Active; 'I' for Inactive)
REMARK    1  A    between atoms: C_2  and  C_3 
REMARK    2  A    between atoms: C_3  and  O_5 
REMARK    3  A    between atoms: O_5  and  C_6 
REMARK    4  A    between atoms: C_6  and  C_7 
ROOT
ATOM      1  C   LIG d   1       4.117  -0.123  -7.124  0.00  0.00     0.093 C 
ATOM      2  H   LIG d   1       5.018   0.443  -7.358  0.00  0.00     0.063 H 
ATOM      3  C   LIG d   1       2.866   0.704  -7.492  0.00  0.00    -0.021 C 
ATOM      4  C   LIG d   1       2.486   0.126  -8.882  0.00  0.00    -0.027 C 
ATOM      5  C   LIG d   1       2.894  -1.359  -8.706  0.00  0.00     0.048 C 
ATOM      6  O   LIG d   1       4.083  -1.327  -7.900  0.00  0.00    -0.373 OA
ATOM      7  H   LIG d   1       2.066   0.539  -6.771  0.00  0.00     0.029 H 
ATOM      8  H   LIG d   1       3.110   1.763  -7.566  0.00  0.00     0.029 H 
ATOM      9  H   LIG d   1       3.063   0.600  -9.676  0.00  0.00     0.029 H 
ATOM     10  H   LIG d   1       1.416   0.220  -9.068  0.00  0.00     0.029 H 
ATOM     11  H   LIG d   1       3.105  -1.810  -9.675  0.00  0.00     0.056 H 
ATOM     12  H   LIG d   1       2.106  -1.911  -8.195  0.00  0.00     0.056 H 
ENDROOT
BRANCH   1  13
ATOM     13  C   LIG d   1       4.092  -0.466  -5.634  0.00  0.00     0.119 C 
ATOM     14  H   LIG d   1       5.109  -0.464  -5.243  0.00  0.00     0.072 H 
ATOM     15  H   LIG d   1       3.651  -1.454  -5.495  0.00  0.00     0.072 H 
BRANCH  13  16
ATOM     16  O   LIG d   1       3.298   0.522  -4.924  0.00  0.00    -0.459 OA
BRANCH  16  17
ATOM     17  C   LIG d   1       3.112   0.323  -3.604  0.00  0.00     0.332 C 
ATOM     18  O   LIG d   1       2.485  -0.644  -3.218  0.00  0.00    -0.246 OA
BRANCH  17  19
ATOM     19  C   LIG d   1       3.667   1.275  -2.632  0.00  0.00     0.015 C 
ATOM     20  C   LIG d   1       4.541   0.860  -1.718  0.00  0.00    -0.092 C 
ATOM     21  H   LIG d   1       4.945   1.559  -1.001  0.00  0.00     0.054 H 
ATOM     22  H   LIG d   1       4.845  -0.176  -1.693  0.00  0.00     0.054 H 
ATOM     23  H   LIG d   1       3.363   2.311  -2.656  0.00  0.00     0.068 H 
ENDBRANCH  17  19
ENDBRANCH  16  17
ENDBRANCH  13  16
ENDBRANCH   1  13
TORSDOF 4
ENDMDL
MODEL 6
REMARK VINA RESULT:      -4.4      2.845      4.241
REMARK  4 active torsions:
REMARK  status: ('A' for Active; 'I' for Inactive)
REMARK    1  A    between atoms: C_2  and  C_3 
REMARK    2  A    between atoms: C_3  and  O_5 
REMARK    3  A    between atoms: O_5  and  C_6 
REMARK    4  A    between atoms: C_6  and  C_7 
ROOT
ATOM      1  C   LIG d   1       4.184   0.971  -2.616  0.00  0.00     0.093 C 
ATOM      2  H   LIG d   1       3.836   1.618  -1.812  0.00  0.00     0.063 H 
ATOM      3  C   LIG d   1       3.861  -0.502  -2.284  0.00  0.00    -0.021 C 
ATOM      4  C   LIG d   1       2.553  -0.741  -3.086  0.00  0.00    -0.027 C 
ATOM      5  C   LIG d   1       2.804   0.147  -4.331  0.00  0.00     0.048 C 
ATOM      6  O   LIG d   1       3.504   1.299  -3.834  0.00  0.00    -0.373 OA
ATOM      7  H   LIG d   1       4.656  -1.162  -2.632  0.00  0.00     0.029 H 
ATOM      8  H   LIG d   1       3.690  -0.630  -1.216  0.00  0.00     0.029 H 
ATOM      9  H   LIG d   1       1.682  -0.399  -2.529  0.00  0.00     0.029 H 
ATOM     10  H   LIG d   1       2.450  -1.790  -3.367  0.00  0.00     0.029 H 
ATOM     11  H   LIG d   1       1.857   0.445  -4.780  0.00  0.00     0.056 H 
ATOM     12  H   LIG d   1       3.417  -0.383  -5.058  0.00  0.00     0.056 H 
ENDROOT
BRANCH   1  13
ATOM     13  C   LIG d   1       5.693   1.141  -2.803  0.00  0.00     0.119 C 
ATOM     14  H   LIG d   1       6.217   0.340  -2.282  0.00  0.00     0.072 H 
ATOM     15  H   LIG d   1       6.004   2.103  -2.396  0.00  0.00     0.072 H 
BRANCH  13  16
ATOM     16  O   LIG d   1       6.014   1.088  -4.219  0.00  0.00    -0.459 OA
BRANCH  16  17
ATOM     17  C   LIG d   1       6.528  -0.067  -4.687  0.00  0.00     0.332 C 
ATOM     18  O   LIG d   1       6.402  -0.357  -5.860  0.00  0.00    -0.246 OA
BRANCH  17  19
ATOM     19  C   LIG d   1       7.241  -0.975  -3.778  0.00  0.00     0.015 C 
ATOM     20  C   LIG d   1       6.897  -2.260  -3.716  0.00  0.00    -0.092 C 
ATOM     21  H   LIG d   1       7.418  -2.926  -3.044  0.00  0.00     0.054 H 
ATOM     22  H   LIG d   1       6.097  -2.635  -4.337  0.00  0.00     0.054 H 
ATOM     23  H   LIG d   1       8.041  -0.600  -3.157  0.00  0.00     0.068 H 
ENDBRANCH  17  19
ENDBRANCH  16  17
ENDBRANCH  13  16
ENDBRANCH   1  13
TORSDOF 4
ENDMDL
MODEL 7
REMARK VINA RESULT:      -4.2      2.916      4.701
REMARK  4 active torsions:
REMARK  status: ('A' for Active; 'I' for Inactive)
REMARK    1  A    between atoms: C_2  and  C_3 
REMARK    2  A    between atoms: C_3  and  O_5 
REMARK    3  A    between atoms: O_5  and  C_6 
REMARK    4  A    between atoms: C_6  and  C_7 
ROOT
ATOM      1  C   LIG d   1       4.497   0.560  -2.581  0.00  0.00     0.093 C 
ATOM      2  H   LIG d   1       4.327   1.109  -1.656  0.00  0.00     0.063 H 
ATOM      3  C   LIG d   1       3.899  -0.859  -2.468  0.00  0.00    -0.021 C 
ATOM      4  C   LIG d   1       2.532  -0.699  -3.187  0.00  0.00    -0.027 C 
ATOM      5  C   LIG d   1       2.896   0.331  -4.286  0.00  0.00     0.048 C 
ATOM      6  O   LIG d   1       3.838   1.221  -3.668  0.00  0.00    -0.373 OA
ATOM      7  H   LIG d   1       4.526  -1.587  -2.984  0.00  0.00     0.029 H 
ATOM      8  H   LIG d   1       3.759  -1.139  -1.425  0.00  0.00     0.029 H 
ATOM      9  H   LIG d   1       1.777  -0.301  -2.510  0.00  0.00     0.029 H 
ATOM     10  H   LIG d   1       2.205  -1.643  -3.625  0.00  0.00     0.029 H 
ATOM     11  H   LIG d   1       2.007   0.878  -4.600  0.00  0.00     0.056 H 
ATOM     12  H   LIG d   1       3.352  -0.170  -5.139  0.00  0.00     0.056 H 
ENDROOT
BRANCH   1  13
ATOM     13  C   LIG d   1       5.998   0.469  -2.862  0.00  0.00     0.119 C 
ATOM     14  H   LIG d   1       6.181  -0.291  -3.621  0.00  0.00     0.072 H 
ATOM     15  H   LIG d   1       6.524   0.203  -1.946  0.00  0.00     0.072 H 
BRANCH  13  16
ATOM     16  O   LIG d   1       6.478   1.755  -3.340  0.00  0.00    -0.459 OA
BRANCH  16  17
ATOM     17  C   LIG d   1       7.539   1.741  -4.172  0.00  0.00     0.332 C 
ATOM     18  O   LIG d   1       7.389   1.451  -5.342  0.00  0.00    -0.246 OA
BRANCH  17  19
ATOM     19  C   LIG d   1       8.876   2.076  -3.663  0.00  0.00     0.015 C 
ATOM     20  C   LIG d   1       9.956   1.769  -4.377  0.00  0.00    -0.092 C 
ATOM     21  H   LIG d   1      10.939   2.011  -4.001  0.00  0.00     0.054 H 
ATOM     22  H   LIG d   1       9.850   1.276  -5.332  0.00  0.00     0.054 H 
ATOM     23  H   LIG d   1       8.982   2.569  -2.708  0.00  0.00     0.068 H 
ENDBRANCH  17  19
ENDBRANCH  16  17
ENDBRANCH  13  16
ENDBRANCH   1  13
TORSDOF 4
ENDMDL
MODEL 8
REMARK VINA RESULT:      -4.2      3.231      4.575
REMARK  4 active torsions:
REMARK  status: ('A' for Active; 'I' for Inactive)
REMARK    1  A    between atoms: C_2  and  C_3 
REMARK    2  A    between atoms: C_3  and  O_5 
REMARK    3  A    between atoms: O_5  and  C_6 
REMARK    4  A    between atoms: C_6  and  C_7 
ROOT
ATOM      1  C   LIG d   1       4.961  -0.569  -3.050  0.00  0.00     0.093 C 
ATOM      2  H   LIG d   1       6.006  -0.319  -3.228  0.00  0.00     0.063 H 
ATOM      3  C   LIG d   1       4.448   0.170  -1.796  0.00  0.00    -0.021 C 
ATOM      4  C   LIG d   1       3.720   1.396  -2.410  0.00  0.00    -0.027 C 
ATOM      5  C   LIG d   1       3.155   0.779  -3.715  0.00  0.00     0.048 C 
ATOM      6  O   LIG d   1       4.163  -0.142  -4.160  0.00  0.00    -0.373 OA
ATOM      7  H   LIG d   1       3.753  -0.454  -1.235  0.00  0.00     0.029 H 
ATOM      8  H   LIG d   1       5.279   0.488  -1.166  0.00  0.00     0.029 H 
ATOM      9  H   LIG d   1       4.421   2.201  -2.628  0.00  0.00     0.029 H 
ATOM     10  H   LIG d   1       2.917   1.743  -1.760  0.00  0.00     0.029 H 
ATOM     11  H   LIG d   1       2.996   1.556  -4.462  0.00  0.00     0.056 H 
ATOM     12  H   LIG d   1       2.223   0.252  -3.513  0.00  0.00     0.056 H 
ENDROOT
BRANCH   1  13
ATOM     13  C   LIG d   1       4.816  -2.080  -2.857  0.00  0.00     0.119 C 
ATOM     14  H   LIG d   1       4.198  -2.277  -1.982  0.00  0.00     0.072 H 
ATOM     15  H   LIG d   1       5.801  -2.525  -2.715  0.00  0.00     0.072 H 
BRANCH  13  16
ATOM     16  O   LIG d   1       4.188  -2.659  -4.032  0.00  0.00    -0.459 OA
BRANCH  16  17
ATOM     17  C   LIG d   1       4.881  -3.610  -4.691  0.00  0.00     0.332 C 
ATOM     18  O   LIG d   1       4.315  -4.608  -5.089  0.00  0.00    -0.246 OA
BRANCH  17  19
ATOM     19  C   LIG d   1       6.321  -3.437  -4.926  0.00  0.00     0.015 C 
ATOM     20  C   LIG d   1       7.077  -4.491  -5.227  0.00  0.00    -0.092 C 
ATOM     21  H   LIG d   1       8.136  -4.365  -5.395  0.00  0.00     0.054 H 
ATOM     22  H   LIG d   1       6.631  -5.472  -5.303  0.00  0.00     0.054 H 
ATOM     23  H   LIG d   1       6.768  -2.457  -4.850  0.00  0.00     0.068 H 
ENDBRANCH  17  19
ENDBRANCH  16  17
ENDBRANCH  13  16
ENDBRANCH   1  13
TORSDOF 4
ENDMDL
MODEL 9
REMARK VINA RESULT:      -4.1      4.648      5.780
REMARK  4 active torsions:
REMARK  status: ('A' for Active; 'I' for Inactive)
REMARK    1  A    between atoms: C_2  and  C_3 
REMARK    2  A    between atoms: C_3  and  O_5 
REMARK    3  A    between atoms: O_5  and  C_6 
REMARK    4  A    between atoms: C_6  and  C_7 
ROOT
ATOM      1  C   LIG d   1       4.965  -2.151  -4.344  0.00  0.00     0.093 C 
ATOM      2  H   LIG d   1       4.880  -1.447  -5.172  0.00  0.00     0.063 H 
ATOM      3  C   LIG d   1       5.904  -1.578  -3.260  0.00  0.00    -0.021 C 
ATOM      4  C   LIG d   1       4.900  -0.983  -2.236  0.00  0.00    -0.027 C 
ATOM      5  C   LIG d   1       3.728  -1.991  -2.352  0.00  0.00     0.048 C 
ATOM      6  O   LIG d   1       3.680  -2.350  -3.742  0.00  0.00    -0.373 OA
ATOM      7  H   LIG d   1       6.499  -2.369  -2.806  0.00  0.00     0.029 H 
ATOM      8  H   LIG d   1       6.544  -0.799  -3.674  0.00  0.00     0.029 H 
ATOM      9  H   LIG d   1       4.587   0.019  -2.528  0.00  0.00     0.029 H 
ATOM     10  H   LIG d   1       5.319  -0.983  -1.229  0.00  0.00     0.029 H 
ATOM     11  H   LIG d   1       2.793  -1.519  -2.050  0.00  0.00     0.056 H 
ATOM     12  H   LIG d   1       3.922  -2.871  -1.740  0.00  0.00     0.056 H 
ENDROOT
BRANCH   1  13
ATOM     13  C   LIG d   1       5.512  -3.486  -4.852  0.00  0.00     0.119 C 
ATOM     14  H   LIG d   1       6.433  -3.726  -4.322  0.00  0.00     0.072 H 
ATOM     15  H   LIG d   1       5.716  -3.412  -5.921  0.00  0.00     0.072 H 
BRANCH  13  16
ATOM     16  O   LIG d   1       4.531  -4.531  -4.618  0.00  0.00    -0.459 OA
BRANCH  16  17
ATOM     17  C   LIG d   1       4.344  -5.428  -5.607  0.00  0.00     0.332 C 
ATOM     18  O   LIG d   1       3.364  -5.350  -6.320  0.00  0.00    -0.246 OA
BRANCH  17  19
ATOM     19  C   LIG d   1       5.327  -6.499  -5.822  0.00  0.00     0.015 C 
ATOM     20  C   LIG d   1       5.069  -7.734  -5.398  0.00  0.00    -0.092 C 
ATOM     21  H   LIG d   1       5.793  -8.520  -5.552  0.00  0.00     0.054 H 
ATOM     22  H   LIG d   1       4.135  -7.949  -4.899  0.00  0.00     0.054 H 
ATOM     23  H   LIG d   1       6.260  -6.283  -6.321  0.00  0.00     0.068 H 
ENDBRANCH  17  19
ENDBRANCH  16  17
ENDBRANCH  13  16
ENDBRANCH   1  13
TORSDOF 4
ENDMDL
MODEL 10
REMARK VINA RESULT:      -3.9      3.991      5.426
REMARK  4 active torsions:
REMARK  status: ('A' for Active; 'I' for Inactive)
REMARK    1  A    between atoms: C_2  and  C_3 
REMARK    2  A    between atoms: C_3  and  O_5 
REMARK    3  A    between atoms: O_5  and  C_6 
REMARK    4  A    between atoms: C_6  and  C_7 
ROOT
ATOM      1  C   LIG d   1       6.656  -2.154  -4.816  0.00  0.00     0.093 C 
ATOM      2  H   LIG d   1       6.739  -1.660  -5.783  0.00  0.00     0.063 H 
ATOM      3  C   LIG d   1       6.305  -3.645  -5.014  0.00  0.00    -0.021 C 
ATOM      4  C   LIG d   1       7.693  -4.330  -4.890  0.00  0.00    -0.027 C 
ATOM      5  C   LIG d   1       8.377  -3.422  -3.837  0.00  0.00     0.048 C 
ATOM      6  O   LIG d   1       7.913  -2.094  -4.130  0.00  0.00    -0.373 OA
ATOM      7  H   LIG d   1       5.629  -3.991  -4.233  0.00  0.00     0.029 H 
ATOM      8  H   LIG d   1       5.876  -3.813  -6.001  0.00  0.00     0.029 H 
ATOM      9  H   LIG d   1       8.229  -4.305  -5.838  0.00  0.00     0.029 H 
ATOM     10  H   LIG d   1       7.596  -5.352  -4.523  0.00  0.00     0.029 H 
ATOM     11  H   LIG d   1       9.460  -3.475  -3.939  0.00  0.00     0.056 H 
ATOM     12  H   LIG d   1       8.076  -3.714  -2.831  0.00  0.00     0.056 H 
ENDROOT
BRANCH   1  13
ATOM     13  C   LIG d   1       5.574  -1.474  -3.976  0.00  0.00     0.119 C 
ATOM     14  H   LIG d   1       4.958  -2.232  -3.493  0.00  0.00     0.072 H 
ATOM     15  H   LIG d   1       4.950  -0.853  -4.620  0.00  0.00     0.072 H 
BRANCH  13  16
ATOM     16  O   LIG d   1       6.200  -0.642  -2.962  0.00  0.00    -0.459 OA
BRANCH  16  17
ATOM     17  C   LIG d   1       5.768   0.631  -2.863  0.00  0.00     0.332 C 
ATOM     18  O   LIG d   1       6.271   1.498  -3.549  0.00  0.00    -0.246 OA
BRANCH  17  19
ATOM     19  C   LIG d   1       4.687   0.969  -1.927  0.00  0.00     0.015 C 
ATOM     20  C   LIG d   1       3.484   1.300  -2.390  0.00  0.00    -0.092 C 
ATOM     21  H   LIG d   1       2.692   1.553  -1.702  0.00  0.00     0.054 H 
ATOM     22  H   LIG d   1       3.301   1.316  -3.455  0.00  0.00     0.054 H 
ATOM     23  H   LIG d   1       4.870   0.953  -0.863  0.00  0.00     0.068 H 
ENDBRANCH  17  19
ENDBRANCH  16  17
ENDBRANCH  13  16
ENDBRANCH   1  13
TORSDOF 4
ENDMDL
