MODEL 1
REMARK VINA RESULT:      -6.1      0.000      0.000
REMARK  7 active torsions:
REMARK  status: ('A' for Active; 'I' for Inactive)
REMARK    1  A    between atoms: C_1  and  C_2 
REMARK    2  A    between atoms: C_2  and  C_20 
REMARK    3  A    between atoms: C_3  and  C_4 
REMARK    4  A    between atoms: C_4  and  C_5 
REMARK    5  A    between atoms: C_5  and  C_6 
REMARK    6  A    between atoms: C_11  and  O_19 
REMARK    7  A    between atoms: C_14  and  O_18 
ROOT
ATOM      1  C   LIG d   1       5.083  -2.143  -6.177  0.00  0.00     0.004 A 
ATOM      2  C   LIG d   1       4.779  -3.283  -6.811  0.00  0.00    -0.007 A 
ATOM      3  C   LIG d   1       3.880  -3.283  -7.980  0.00  0.00     0.191 A 
ATOM      4  O   LIG d   1       3.614  -4.326  -8.545  0.00  0.00    -0.287 OA
ATOM      5  C   LIG d   1       3.306  -2.014  -8.460  0.00  0.00     0.077 A 
ATOM      6  C   LIG d   1       2.453  -1.986  -9.565  0.00  0.00     0.129 A 
ATOM      7  C   LIG d   1       1.921  -0.769 -10.000  0.00  0.00    -0.016 A 
ATOM      8  C   LIG d   1       2.232   0.401  -9.349  0.00  0.00    -0.016 A 
ATOM      9  C   LIG d   1       3.085   0.392  -8.241  0.00  0.00     0.129 A 
ATOM     10  C   LIG d   1       3.625  -0.815  -7.792  0.00  0.00     0.078 A 
ATOM     11  C   LIG d   1       4.526  -0.853  -6.628  0.00  0.00     0.194 A 
ATOM     12  O   LIG d   1       4.811   0.172  -6.042  0.00  0.00    -0.287 OA
ATOM     13  H   LIG d   1       5.198  -4.214  -6.461  0.00  0.00     0.066 H 
ATOM     14  H   LIG d   1       1.260  -0.748 -10.854  0.00  0.00     0.066 H 
ATOM     15  H   LIG d   1       1.818   1.336  -9.698  0.00  0.00     0.066 H 
ENDROOT
BRANCH   1  16
ATOM     16  C   LIG d   1       6.004  -2.177  -4.985  0.00  0.00    -0.021 C 
ATOM     17  H   LIG d   1       6.678  -3.028  -5.071  0.00  0.00     0.032 H 
ATOM     18  H   LIG d   1       6.585  -1.255  -4.949  0.00  0.00     0.032 H 
BRANCH  16  19
ATOM     19  C   LIG d   1       5.177  -2.308  -3.705  0.00  0.00    -0.030 C 
ATOM     20  H   LIG d   1       4.125  -2.433  -3.963  0.00  0.00     0.031 H 
ATOM     21  H   LIG d   1       5.518  -3.175  -3.139  0.00  0.00     0.031 H 
BRANCH  19  22
ATOM     22  C   LIG d   1       5.344  -1.065  -2.869  0.00  0.00    -0.085 C 
ATOM     23  C   LIG d   1       4.295  -0.359  -2.526  0.00  0.00    -0.080 C 
ATOM     24  H   LIG d   1       6.330  -0.756  -2.553  0.00  0.00     0.057 H 
BRANCH  23  25
ATOM     25  C   LIG d   1       2.937  -0.713  -3.075  0.00  0.00    -0.044 C 
ATOM     26  H   LIG d   1       2.208  -0.718  -2.265  0.00  0.00     0.027 H 
ATOM     27  H   LIG d   1       2.644   0.024  -3.823  0.00  0.00     0.027 H 
ATOM     28  H   LIG d   1       2.977  -1.701  -3.535  0.00  0.00     0.027 H 
ENDBRANCH  23  25
BRANCH  23  29
ATOM     29  C   LIG d   1       4.446   0.805  -1.583  0.00  0.00    -0.044 C 
ATOM     30  H   LIG d   1       4.181   1.728  -2.098  0.00  0.00     0.027 H 
ATOM     31  H   LIG d   1       3.786   0.667  -0.725  0.00  0.00     0.027 H 
ATOM     32  H   LIG d   1       5.479   0.864  -1.240  0.00  0.00     0.027 H 
ENDBRANCH  23  29
ENDBRANCH  19  22
ENDBRANCH  16  19
ENDBRANCH   1  16
BRANCH   9  33
ATOM     33  O   LIG d   1       3.386   1.550  -7.605  0.00  0.00    -0.506 OA
ATOM     34  H   LIG d   1       4.112   2.044  -8.009  0.00  0.00     0.292 HD
ENDBRANCH   9  33
BRANCH   6  35
ATOM     35  O   LIG d   1       2.142  -3.135 -10.213  0.00  0.00    -0.506 OA
ATOM     36  H   LIG d   1       1.740  -3.000 -11.082  0.00  0.00     0.292 HD
ENDBRANCH   6  35
TORSDOF 7
ENDMDL
MODEL 2
REMARK VINA RESULT:      -5.9      2.386      5.520
REMARK  7 active torsions:
REMARK  status: ('A' for Active; 'I' for Inactive)
REMARK    1  A    between atoms: C_1  and  C_2 
REMARK    2  A    between atoms: C_2  and  C_20 
REMARK    3  A    between atoms: C_3  and  C_4 
REMARK    4  A    between atoms: C_4  and  C_5 
REMARK    5  A    between atoms: C_5  and  C_6 
REMARK    6  A    between atoms: C_11  and  O_19 
REMARK    7  A    between atoms: C_14  and  O_18 
ROOT
ATOM      1  C   LIG d   1       6.232  -1.179  -6.472  0.00  0.00     0.004 A 
ATOM      2  C   LIG d   1       5.562  -2.312  -6.223  0.00  0.00    -0.007 A 
ATOM      3  C   LIG d   1       4.873  -2.518  -4.936  0.00  0.00     0.191 A 
ATOM      4  O   LIG d   1       4.269  -3.552  -4.725  0.00  0.00    -0.287 OA
ATOM      5  C   LIG d   1       4.920  -1.466  -3.906  0.00  0.00     0.077 A 
ATOM      6  C   LIG d   1       4.276  -1.635  -2.680  0.00  0.00     0.129 A 
ATOM      7  C   LIG d   1       4.335  -0.621  -1.719  0.00  0.00    -0.016 A 
ATOM      8  C   LIG d   1       5.023   0.542  -1.973  0.00  0.00    -0.016 A 
ATOM      9  C   LIG d   1       5.674   0.728  -3.197  0.00  0.00     0.129 A 
ATOM     10  C   LIG d   1       5.625  -0.274  -4.167  0.00  0.00     0.078 A 
ATOM     11  C   LIG d   1       6.301  -0.103  -5.465  0.00  0.00     0.194 A 
ATOM     12  O   LIG d   1       6.913   0.919  -5.705  0.00  0.00    -0.287 OA
ATOM     13  H   LIG d   1       5.526  -3.085  -6.976  0.00  0.00     0.066 H 
ATOM     14  H   LIG d   1       3.838  -0.752  -0.769  0.00  0.00     0.066 H 
ATOM     15  H   LIG d   1       5.058   1.319  -1.224  0.00  0.00     0.066 H 
ENDROOT
BRANCH   1  16
ATOM     16  C   LIG d   1       6.926  -1.000  -7.797  0.00  0.00    -0.021 C 
ATOM     17  H   LIG d   1       7.513  -0.082  -7.780  0.00  0.00     0.032 H 
ATOM     18  H   LIG d   1       7.584  -1.849  -7.980  0.00  0.00     0.032 H 
BRANCH  16  19
ATOM     19  C   LIG d   1       5.881  -0.916  -8.912  0.00  0.00    -0.030 C 
ATOM     20  H   LIG d   1       6.240  -1.455  -9.788  0.00  0.00     0.031 H 
ATOM     21  H   LIG d   1       4.947  -1.361  -8.568  0.00  0.00     0.031 H 
BRANCH  19  22
ATOM     22  C   LIG d   1       5.646   0.529  -9.272  0.00  0.00    -0.085 C 
ATOM     23  C   LIG d   1       4.501   1.098  -8.989  0.00  0.00    -0.080 C 
ATOM     24  H   LIG d   1       6.423   1.095  -9.764  0.00  0.00     0.057 H 
BRANCH  23  25
ATOM     25  C   LIG d   1       3.371   0.276  -8.423  0.00  0.00    -0.044 C 
ATOM     26  H   LIG d   1       3.293   0.454  -7.351  0.00  0.00     0.027 H 
ATOM     27  H   LIG d   1       2.437   0.560  -8.908  0.00  0.00     0.027 H 
ATOM     28  H   LIG d   1       3.567  -0.782  -8.603  0.00  0.00     0.027 H 
ENDBRANCH  23  25
BRANCH  23  29
ATOM     29  C   LIG d   1       4.313   2.573  -9.227  0.00  0.00    -0.044 C 
ATOM     30  H   LIG d   1       3.789   2.725 -10.170  0.00  0.00     0.027 H 
ATOM     31  H   LIG d   1       3.727   3.001  -8.413  0.00  0.00     0.027 H 
ATOM     32  H   LIG d   1       5.287   3.061  -9.268  0.00  0.00     0.027 H 
ENDBRANCH  23  29
ENDBRANCH  19  22
ENDBRANCH  16  19
ENDBRANCH   1  16
BRANCH   9  33
ATOM     33  O   LIG d   1       6.350   1.878  -3.439  0.00  0.00    -0.506 OA
ATOM     34  H   LIG d   1       6.916   2.163  -2.709  0.00  0.00     0.292 HD
ENDBRANCH   9  33
BRANCH   6  35
ATOM     35  O   LIG d   1       3.595  -2.777  -2.420  0.00  0.00    -0.506 OA
ATOM     36  H   LIG d   1       3.555  -3.008  -1.482  0.00  0.00     0.292 HD
ENDBRANCH   6  35
TORSDOF 7
ENDMDL
MODEL 3
REMARK VINA RESULT:      -5.9      2.045      6.713
REMARK  7 active torsions:
REMARK  status: ('A' for Active; 'I' for Inactive)
REMARK    1  A    between atoms: C_1  and  C_2 
REMARK    2  A    between atoms: C_2  and  C_20 
REMARK    3  A    between atoms: C_3  and  C_4 
REMARK    4  A    between atoms: C_4  and  C_5 
REMARK    5  A    between atoms: C_5  and  C_6 
REMARK    6  A    between atoms: C_11  and  O_19 
REMARK    7  A    between atoms: C_14  and  O_18 
ROOT
ATOM      1  C   LIG d   1       3.459  -0.680  -6.987  0.00  0.00     0.004 A 
ATOM      2  C   LIG d   1       2.888   0.447  -6.540  0.00  0.00    -0.007 A 
ATOM      3  C   LIG d   1       2.939   0.806  -5.111  0.00  0.00     0.191 A 
ATOM      4  O   LIG d   1       2.417   1.833  -4.720  0.00  0.00    -0.287 OA
ATOM      5  C   LIG d   1       3.624  -0.084  -4.157  0.00  0.00     0.077 A 
ATOM      6  C   LIG d   1       3.687   0.233  -2.800  0.00  0.00     0.129 A 
ATOM      7  C   LIG d   1       4.343  -0.629  -1.916  0.00  0.00    -0.016 A 
ATOM      8  C   LIG d   1       4.927  -1.785  -2.374  0.00  0.00    -0.016 A 
ATOM      9  C   LIG d   1       4.875  -2.118  -3.731  0.00  0.00     0.129 A 
ATOM     10  C   LIG d   1       4.223  -1.270  -4.627  0.00  0.00     0.078 A 
ATOM     11  C   LIG d   1       4.153  -1.596  -6.062  0.00  0.00     0.194 A 
ATOM     12  O   LIG d   1       4.665  -2.615  -6.482  0.00  0.00    -0.287 OA
ATOM     13  H   LIG d   1       2.385   1.101  -7.236  0.00  0.00     0.066 H 
ATOM     14  H   LIG d   1       4.390  -0.384  -0.865  0.00  0.00     0.066 H 
ATOM     15  H   LIG d   1       5.435  -2.440  -1.681  0.00  0.00     0.066 H 
ENDROOT
BRANCH   1  16
ATOM     16  C   LIG d   1       3.389  -1.018  -8.453  0.00  0.00    -0.021 C 
ATOM     17  H   LIG d   1       4.397  -1.068  -8.863  0.00  0.00     0.032 H 
ATOM     18  H   LIG d   1       2.897  -1.983  -8.580  0.00  0.00     0.032 H 
BRANCH  16  19
ATOM     19  C   LIG d   1       2.592   0.061  -9.188  0.00  0.00    -0.030 C 
ATOM     20  H   LIG d   1       2.113   0.717  -8.461  0.00  0.00     0.031 H 
ATOM     21  H   LIG d   1       3.264   0.645  -9.817  0.00  0.00     0.031 H 
BRANCH  19  22
ATOM     22  C   LIG d   1       1.539  -0.590 -10.047  0.00  0.00    -0.085 C 
ATOM     23  C   LIG d   1       1.810  -0.909 -11.288  0.00  0.00    -0.080 C 
ATOM     24  H   LIG d   1       0.560  -0.795  -9.639  0.00  0.00     0.057 H 
BRANCH  23  25
ATOM     25  C   LIG d   1       3.128  -0.505 -11.899  0.00  0.00    -0.044 C 
ATOM     26  H   LIG d   1       3.403  -1.219 -12.675  0.00  0.00     0.027 H 
ATOM     27  H   LIG d   1       3.037   0.489 -12.335  0.00  0.00     0.027 H 
ATOM     28  H   LIG d   1       3.897  -0.495 -11.126  0.00  0.00     0.027 H 
ENDBRANCH  23  25
BRANCH  23  29
ATOM     29  C   LIG d   1       0.806  -1.678 -12.106  0.00  0.00    -0.044 C 
ATOM     30  H   LIG d   1       0.152  -2.243 -11.442  0.00  0.00     0.027 H 
ATOM     31  H   LIG d   1       0.209  -0.983 -12.697  0.00  0.00     0.027 H 
ATOM     32  H   LIG d   1       1.329  -2.364 -12.772  0.00  0.00     0.027 H 
ENDBRANCH  23  29
ENDBRANCH  19  22
ENDBRANCH  16  19
ENDBRANCH   1  16
BRANCH   9  33
ATOM     33  O   LIG d   1       5.453  -3.261  -4.173  0.00  0.00    -0.506 OA
ATOM     34  H   LIG d   1       6.414  -3.282  -4.068  0.00  0.00     0.292 HD
ENDBRANCH   9  33
BRANCH   6  35
ATOM     35  O   LIG d   1       3.114   1.372  -2.340  0.00  0.00    -0.506 OA
ATOM     36  H   LIG d   1       3.253   1.529  -1.396  0.00  0.00     0.292 HD
ENDBRANCH   6  35
TORSDOF 7
ENDMDL
MODEL 4
REMARK VINA RESULT:      -5.8      2.220      5.887
REMARK  7 active torsions:
REMARK  status: ('A' for Active; 'I' for Inactive)
REMARK    1  A    between atoms: C_1  and  C_2 
REMARK    2  A    between atoms: C_2  and  C_20 
REMARK    3  A    between atoms: C_3  and  C_4 
REMARK    4  A    between atoms: C_4  and  C_5 
REMARK    5  A    between atoms: C_5  and  C_6 
REMARK    6  A    between atoms: C_11  and  O_19 
REMARK    7  A    between atoms: C_14  and  O_18 
ROOT
ATOM      1  C   LIG d   1       3.264   0.268  -7.025  0.00  0.00     0.004 A 
ATOM      2  C   LIG d   1       3.818  -0.864  -7.479  0.00  0.00    -0.007 A 
ATOM      3  C   LIG d   1       4.328  -1.884  -6.544  0.00  0.00     0.191 A 
ATOM      4  O   LIG d   1       4.829  -2.907  -6.970  0.00  0.00    -0.287 OA
ATOM      5  C   LIG d   1       4.228  -1.659  -5.091  0.00  0.00     0.077 A 
ATOM      6  C   LIG d   1       4.702  -2.610  -4.186  0.00  0.00     0.129 A 
ATOM      7  C   LIG d   1       4.596  -2.372  -2.812  0.00  0.00    -0.016 A 
ATOM      8  C   LIG d   1       4.027  -1.210  -2.347  0.00  0.00    -0.016 A 
ATOM      9  C   LIG d   1       3.547  -0.248  -3.240  0.00  0.00     0.129 A 
ATOM     10  C   LIG d   1       3.645  -0.468  -4.615  0.00  0.00     0.078 A 
ATOM     11  C   LIG d   1       3.147   0.528  -5.578  0.00  0.00     0.194 A 
ATOM     12  O   LIG d   1       2.642   1.560  -5.183  0.00  0.00    -0.287 OA
ATOM     13  H   LIG d   1       3.893  -1.031  -8.543  0.00  0.00     0.066 H 
ATOM     14  H   LIG d   1       4.963  -3.107  -2.111  0.00  0.00     0.066 H 
ATOM     15  H   LIG d   1       3.947  -1.041  -1.283  0.00  0.00     0.066 H 
ENDROOT
BRANCH   1  16
ATOM     16  C   LIG d   1       2.753   1.291  -8.007  0.00  0.00    -0.021 C 
ATOM     17  H   LIG d   1       1.969   0.847  -8.620  0.00  0.00     0.032 H 
ATOM     18  H   LIG d   1       2.349   2.145  -7.463  0.00  0.00     0.032 H 
BRANCH  16  19
ATOM     19  C   LIG d   1       3.902   1.755  -8.904  0.00  0.00    -0.030 C 
ATOM     20  H   LIG d   1       3.969   2.842  -8.876  0.00  0.00     0.031 H 
ATOM     21  H   LIG d   1       4.837   1.323  -8.548  0.00  0.00     0.031 H 
BRANCH  19  22
ATOM     22  C   LIG d   1       3.647   1.305 -10.320  0.00  0.00    -0.085 C 
ATOM     23  C   LIG d   1       4.526   0.556 -10.938  0.00  0.00    -0.080 C 
ATOM     24  H   LIG d   1       2.738   1.598 -10.824  0.00  0.00     0.057 H 
BRANCH  23  25
ATOM     25  C   LIG d   1       5.851   0.255 -10.284  0.00  0.00    -0.044 C 
ATOM     26  H   LIG d   1       6.280  -0.642 -10.731  0.00  0.00     0.027 H 
ATOM     27  H   LIG d   1       6.529   1.095 -10.433  0.00  0.00     0.027 H 
ATOM     28  H   LIG d   1       5.701   0.093  -9.217  0.00  0.00     0.027 H 
ENDBRANCH  23  25
BRANCH  23  29
ATOM     29  C   LIG d   1       4.214  -0.004 -12.301  0.00  0.00    -0.044 C 
ATOM     30  H   LIG d   1       3.134  -0.089 -12.420  0.00  0.00     0.027 H 
ATOM     31  H   LIG d   1       4.612   0.662 -13.067  0.00  0.00     0.027 H 
ATOM     32  H   LIG d   1       4.670  -0.989 -12.402  0.00  0.00     0.027 H 
ENDBRANCH  23  29
ENDBRANCH  19  22
ENDBRANCH  16  19
ENDBRANCH   1  16
BRANCH   9  33
ATOM     33  O   LIG d   1       2.988   0.895  -2.773  0.00  0.00    -0.506 OA
ATOM     34  H   LIG d   1       2.750   1.528  -3.463  0.00  0.00     0.292 HD
ENDBRANCH   9  33
BRANCH   6  35
ATOM     35  O   LIG d   1       5.263  -3.758  -4.635  0.00  0.00    -0.506 OA
ATOM     36  H   LIG d   1       5.758  -3.658  -5.460  0.00  0.00     0.292 HD
ENDBRANCH   6  35
TORSDOF 7
ENDMDL
MODEL 5
REMARK VINA RESULT:      -5.7      0.927      2.841
REMARK  7 active torsions:
REMARK  status: ('A' for Active; 'I' for Inactive)
REMARK    1  A    between atoms: C_1  and  C_2 
REMARK    2  A    between atoms: C_2  and  C_20 
REMARK    3  A    between atoms: C_3  and  C_4 
REMARK    4  A    between atoms: C_4  and  C_5 
REMARK    5  A    between atoms: C_5  and  C_6 
REMARK    6  A    between atoms: C_11  and  O_19 
REMARK    7  A    between atoms: C_14  and  O_18 
ROOT
ATOM      1  C   LIG d   1       4.801  -2.054  -6.086  0.00  0.00     0.004 A 
ATOM      2  C   LIG d   1       4.547  -0.740  -6.146  0.00  0.00    -0.007 A 
ATOM      3  C   LIG d   1       3.770  -0.170  -7.262  0.00  0.00     0.191 A 
ATOM      4  O   LIG d   1       3.548   1.025  -7.302  0.00  0.00    -0.287 OA
ATOM      5  C   LIG d   1       3.266  -1.053  -8.328  0.00  0.00     0.077 A 
ATOM      6  C   LIG d   1       2.528  -0.538  -9.394  0.00  0.00     0.129 A 
ATOM      7  C   LIG d   1       2.060  -1.397 -10.393  0.00  0.00    -0.016 A 
ATOM      8  C   LIG d   1       2.321  -2.745 -10.332  0.00  0.00    -0.016 A 
ATOM      9  C   LIG d   1       3.058  -3.278  -9.270  0.00  0.00     0.129 A 
ATOM     10  C   LIG d   1       3.534  -2.435  -8.265  0.00  0.00     0.078 A 
ATOM     11  C   LIG d   1       4.313  -2.969  -7.134  0.00  0.00     0.194 A 
ATOM     12  O   LIG d   1       4.551  -4.159  -7.066  0.00  0.00    -0.287 OA
ATOM     13  H   LIG d   1       4.915  -0.091  -5.366  0.00  0.00     0.066 H 
ATOM     14  H   LIG d   1       1.490  -0.999 -11.220  0.00  0.00     0.066 H 
ATOM     15  H   LIG d   1       1.951  -3.399 -11.108  0.00  0.00     0.066 H 
ENDROOT
BRANCH   1  16
ATOM     16  C   LIG d   1       5.597  -2.606  -4.932  0.00  0.00    -0.021 C 
ATOM     17  H   LIG d   1       5.882  -3.636  -5.146  0.00  0.00     0.032 H 
ATOM     18  H   LIG d   1       6.494  -2.003  -4.789  0.00  0.00     0.032 H 
BRANCH  16  19
ATOM     19  C   LIG d   1       4.748  -2.565  -3.660  0.00  0.00    -0.030 C 
ATOM     20  H   LIG d   1       3.693  -2.521  -3.929  0.00  0.00     0.031 H 
ATOM     21  H   LIG d   1       4.935  -3.462  -3.069  0.00  0.00     0.031 H 
BRANCH  19  22
ATOM     22  C   LIG d   1       5.111  -1.346  -2.852  0.00  0.00    -0.085 C 
ATOM     23  C   LIG d   1       4.178  -0.509  -2.473  0.00  0.00    -0.080 C 
ATOM     24  H   LIG d   1       6.141  -1.162  -2.585  0.00  0.00     0.057 H 
BRANCH  23  25
ATOM     25  C   LIG d   1       2.761  -0.691  -2.955  0.00  0.00    -0.044 C 
ATOM     26  H   LIG d   1       2.071  -0.286  -2.216  0.00  0.00     0.027 H 
ATOM     27  H   LIG d   1       2.629  -0.167  -3.902  0.00  0.00     0.027 H 
ATOM     28  H   LIG d   1       2.560  -1.753  -3.097  0.00  0.00     0.027 H 
ENDBRANCH  23  25
BRANCH  23  29
ATOM     29  C   LIG d   1       4.519   0.636  -1.556  0.00  0.00    -0.044 C 
ATOM     30  H   LIG d   1       5.486   1.052  -1.838  0.00  0.00     0.027 H 
ATOM     31  H   LIG d   1       3.754   1.409  -1.638  0.00  0.00     0.027 H 
ATOM     32  H   LIG d   1       4.563   0.278  -0.528  0.00  0.00     0.027 H 
ENDBRANCH  23  29
ENDBRANCH  19  22
ENDBRANCH  16  19
ENDBRANCH   1  16
BRANCH   9  33
ATOM     33  O   LIG d   1       3.312  -4.608  -9.218  0.00  0.00    -0.506 OA
ATOM     34  H   LIG d   1       3.604  -4.920  -8.351  0.00  0.00     0.292 HD
ENDBRANCH   9  33
BRANCH   6  35
ATOM     35  O   LIG d   1       2.265   0.790  -9.462  0.00  0.00    -0.506 OA
ATOM     36  H   LIG d   1       1.554   1.020 -10.076  0.00  0.00     0.292 HD
ENDBRANCH   6  35
TORSDOF 7
ENDMDL
MODEL 6
REMARK VINA RESULT:      -5.6      4.295      5.882
REMARK  7 active torsions:
REMARK  status: ('A' for Active; 'I' for Inactive)
REMARK    1  A    between atoms: C_1  and  C_2 
REMARK    2  A    between atoms: C_2  and  C_20 
REMARK    3  A    between atoms: C_3  and  C_4 
REMARK    4  A    between atoms: C_4  and  C_5 
REMARK    5  A    between atoms: C_5  and  C_6 
REMARK    6  A    between atoms: C_11  and  O_19 
REMARK    7  A    between atoms: C_14  and  O_18 
ROOT
ATOM      1  C   LIG d   1       7.484  -2.250  -4.912  0.00  0.00     0.004 A 
ATOM      2  C   LIG d   1       6.469  -3.109  -4.740  0.00  0.00    -0.007 A 
ATOM      3  C   LIG d   1       5.247  -2.702  -4.023  0.00  0.00     0.191 A 
ATOM      4  O   LIG d   1       4.334  -3.492  -3.875  0.00  0.00    -0.287 OA
ATOM      5  C   LIG d   1       5.135  -1.335  -3.486  0.00  0.00     0.077 A 
ATOM      6  C   LIG d   1       3.988  -0.925  -2.805  0.00  0.00     0.129 A 
ATOM      7  C   LIG d   1       3.907   0.379  -2.305  0.00  0.00    -0.016 A 
ATOM      8  C   LIG d   1       4.948   1.259  -2.481  0.00  0.00    -0.016 A 
ATOM      9  C   LIG d   1       6.104   0.865  -3.162  0.00  0.00     0.129 A 
ATOM     10  C   LIG d   1       6.203  -0.432  -3.666  0.00  0.00     0.078 A 
ATOM     11  C   LIG d   1       7.408  -0.874  -4.388  0.00  0.00     0.194 A 
ATOM     12  O   LIG d   1       8.337  -0.107  -4.552  0.00  0.00    -0.287 OA
ATOM     13  H   LIG d   1       6.549  -4.112  -5.132  0.00  0.00     0.066 H 
ATOM     14  H   LIG d   1       3.020   0.696  -1.776  0.00  0.00     0.066 H 
ATOM     15  H   LIG d   1       4.871   2.265  -2.093  0.00  0.00     0.066 H 
ENDROOT
BRANCH   1  16
ATOM     16  C   LIG d   1       8.720  -2.697  -5.649  0.00  0.00    -0.021 C 
ATOM     17  H   LIG d   1       8.466  -3.515  -6.323  0.00  0.00     0.032 H 
ATOM     18  H   LIG d   1       9.120  -1.862  -6.225  0.00  0.00     0.032 H 
BRANCH  16  19
ATOM     19  C   LIG d   1       9.769  -3.173  -4.643  0.00  0.00    -0.030 C 
ATOM     20  H   LIG d   1      10.762  -2.888  -4.990  0.00  0.00     0.031 H 
ATOM     21  H   LIG d   1       9.577  -2.713  -3.673  0.00  0.00     0.031 H 
BRANCH  19  22
ATOM     22  C   LIG d   1       9.695  -4.673  -4.511  0.00  0.00    -0.085 C 
ATOM     23  C   LIG d   1       9.567  -5.221  -3.329  0.00  0.00    -0.080 C 
ATOM     24  H   LIG d   1       9.747  -5.295  -5.392  0.00  0.00     0.057 H 
BRANCH  23  25
ATOM     25  C   LIG d   1       9.627  -4.364  -2.090  0.00  0.00    -0.044 C 
ATOM     26  H   LIG d   1       8.689  -4.452  -1.542  0.00  0.00     0.027 H 
ATOM     27  H   LIG d   1      10.450  -4.697  -1.458  0.00  0.00     0.027 H 
ATOM     28  H   LIG d   1       9.785  -3.325  -2.376  0.00  0.00     0.027 H 
ENDBRANCH  23  25
BRANCH  23  29
ATOM     29  C   LIG d   1       9.359  -6.708  -3.207  0.00  0.00    -0.044 C 
ATOM     30  H   LIG d   1      10.274  -7.174  -2.840  0.00  0.00     0.027 H 
ATOM     31  H   LIG d   1       8.546  -6.906  -2.507  0.00  0.00     0.027 H 
ATOM     32  H   LIG d   1       9.106  -7.121  -4.183  0.00  0.00     0.027 H 
ENDBRANCH  23  29
ENDBRANCH  19  22
ENDBRANCH  16  19
ENDBRANCH   1  16
BRANCH   9  33
ATOM     33  O   LIG d   1       7.125   1.740  -3.330  0.00  0.00    -0.506 OA
ATOM     34  H   LIG d   1       7.999   1.362  -3.161  0.00  0.00     0.292 HD
ENDBRANCH   9  33
BRANCH   6  35
ATOM     35  O   LIG d   1       2.957  -1.786  -2.628  0.00  0.00    -0.506 OA
ATOM     36  H   LIG d   1       2.132  -1.503  -3.045  0.00  0.00     0.292 HD
ENDBRANCH   6  35
TORSDOF 7
ENDMDL
MODEL 7
REMARK VINA RESULT:      -5.6      2.204      6.061
REMARK  7 active torsions:
REMARK  status: ('A' for Active; 'I' for Inactive)
REMARK    1  A    between atoms: C_1  and  C_2 
REMARK    2  A    between atoms: C_2  and  C_20 
REMARK    3  A    between atoms: C_3  and  C_4 
REMARK    4  A    between atoms: C_4  and  C_5 
REMARK    5  A    between atoms: C_5  and  C_6 
REMARK    6  A    between atoms: C_11  and  O_19 
REMARK    7  A    between atoms: C_14  and  O_18 
ROOT
ATOM      1  C   LIG d   1       5.695  -2.288  -6.188  0.00  0.00     0.004 A 
ATOM      2  C   LIG d   1       6.394  -1.166  -6.408  0.00  0.00    -0.007 A 
ATOM      3  C   LIG d   1       6.438  -0.091  -5.400  0.00  0.00     0.191 A 
ATOM      4  O   LIG d   1       7.076   0.921  -5.615  0.00  0.00    -0.287 OA
ATOM      5  C   LIG d   1       5.704  -0.248  -4.132  0.00  0.00     0.077 A 
ATOM      6  C   LIG d   1       5.730   0.754  -3.161  0.00  0.00     0.129 A 
ATOM      7  C   LIG d   1       5.026   0.581  -1.966  0.00  0.00    -0.016 A 
ATOM      8  C   LIG d   1       4.308  -0.570  -1.740  0.00  0.00    -0.016 A 
ATOM      9  C   LIG d   1       4.272  -1.584  -2.701  0.00  0.00     0.129 A 
ATOM     10  C   LIG d   1       4.969  -1.428  -3.901  0.00  0.00     0.078 A 
ATOM     11  C   LIG d   1       4.948  -2.480  -4.931  0.00  0.00     0.194 A 
ATOM     12  O   LIG d   1       4.319  -3.503  -4.745  0.00  0.00    -0.287 OA
ATOM     13  H   LIG d   1       6.932  -1.048  -7.337  0.00  0.00     0.066 H 
ATOM     14  H   LIG d   1       5.045   1.357  -1.215  0.00  0.00     0.066 H 
ATOM     15  H   LIG d   1       3.772  -0.693  -0.811  0.00  0.00     0.066 H 
ENDROOT
BRANCH   1  16
ATOM     16  C   LIG d   1       5.671  -3.368  -7.238  0.00  0.00    -0.021 C 
ATOM     17  H   LIG d   1       6.656  -3.828  -7.310  0.00  0.00     0.032 H 
ATOM     18  H   LIG d   1       4.935  -4.124  -6.964  0.00  0.00     0.032 H 
BRANCH  16  19
ATOM     19  C   LIG d   1       5.294  -2.756  -8.589  0.00  0.00    -0.030 C 
ATOM     20  H   LIG d   1       5.912  -1.878  -8.775  0.00  0.00     0.031 H 
ATOM     21  H   LIG d   1       5.457  -3.490  -9.378  0.00  0.00     0.031 H 
BRANCH  19  22
ATOM     22  C   LIG d   1       3.842  -2.353  -8.570  0.00  0.00    -0.085 C 
ATOM     23  C   LIG d   1       3.480  -1.183  -9.034  0.00  0.00    -0.080 C 
ATOM     24  H   LIG d   1       3.099  -3.030  -8.175  0.00  0.00     0.057 H 
BRANCH  23  25
ATOM     25  C   LIG d   1       4.527  -0.186  -9.463  0.00  0.00    -0.044 C 
ATOM     26  H   LIG d   1       4.814   0.428  -8.610  0.00  0.00     0.027 H 
ATOM     27  H   LIG d   1       5.400  -0.717  -9.840  0.00  0.00     0.027 H 
ATOM     28  H   LIG d   1       4.120   0.450 -10.249  0.00  0.00     0.027 H 
ENDBRANCH  23  25
BRANCH  23  29
ATOM     29  C   LIG d   1       2.019  -0.832  -9.138  0.00  0.00    -0.044 C 
ATOM     30  H   LIG d   1       1.892  -0.005  -9.836  0.00  0.00     0.027 H 
ATOM     31  H   LIG d   1       1.462  -1.698  -9.498  0.00  0.00     0.027 H 
ATOM     32  H   LIG d   1       1.643  -0.542  -8.157  0.00  0.00     0.027 H 
ENDBRANCH  23  29
ENDBRANCH  19  22
ENDBRANCH  16  19
ENDBRANCH   1  16
BRANCH   9  33
ATOM     33  O   LIG d   1       3.562  -2.715  -2.470  0.00  0.00    -0.506 OA
ATOM     34  H   LIG d   1       2.811  -2.838  -3.068  0.00  0.00     0.292 HD
ENDBRANCH   9  33
BRANCH   6  35
ATOM     35  O   LIG d   1       6.435   1.891  -3.376  0.00  0.00    -0.506 OA
ATOM     36  H   LIG d   1       5.907   2.623  -3.721  0.00  0.00     0.292 HD
ENDBRANCH   6  35
TORSDOF 7
ENDMDL
MODEL 8
REMARK VINA RESULT:      -5.6      1.931      2.190
REMARK  7 active torsions:
REMARK  status: ('A' for Active; 'I' for Inactive)
REMARK    1  A    between atoms: C_1  and  C_2 
REMARK    2  A    between atoms: C_2  and  C_20 
REMARK    3  A    between atoms: C_3  and  C_4 
REMARK    4  A    between atoms: C_4  and  C_5 
REMARK    5  A    between atoms: C_5  and  C_6 
REMARK    6  A    between atoms: C_11  and  O_19 
REMARK    7  A    between atoms: C_14  and  O_18 
ROOT
ATOM      1  C   LIG d   1       4.632  -1.576  -6.480  0.00  0.00     0.004 A 
ATOM      2  C   LIG d   1       5.296  -2.202  -7.460  0.00  0.00    -0.007 A 
ATOM      3  C   LIG d   1       5.363  -1.627  -8.816  0.00  0.00     0.191 A 
ATOM      4  O   LIG d   1       5.969  -2.208  -9.696  0.00  0.00    -0.287 OA
ATOM      5  C   LIG d   1       4.692  -0.347  -9.102  0.00  0.00     0.077 A 
ATOM      6  C   LIG d   1       4.741   0.219 -10.376  0.00  0.00     0.129 A 
ATOM      7  C   LIG d   1       4.095   1.435 -10.621  0.00  0.00    -0.016 A 
ATOM      8  C   LIG d   1       3.414   2.077  -9.615  0.00  0.00    -0.016 A 
ATOM      9  C   LIG d   1       3.355   1.525  -8.332  0.00  0.00     0.129 A 
ATOM     10  C   LIG d   1       3.993   0.311  -8.070  0.00  0.00     0.078 A 
ATOM     11  C   LIG d   1       3.947  -0.293  -6.728  0.00  0.00     0.194 A 
ATOM     12  O   LIG d   1       3.349   0.263  -5.828  0.00  0.00    -0.287 OA
ATOM     13  H   LIG d   1       5.788  -3.141  -7.255  0.00  0.00     0.066 H 
ATOM     14  H   LIG d   1       4.132   1.872 -11.608  0.00  0.00     0.066 H 
ATOM     15  H   LIG d   1       2.923   3.019  -9.816  0.00  0.00     0.066 H 
ENDROOT
BRANCH   1  16
ATOM     16  C   LIG d   1       4.582  -2.190  -5.105  0.00  0.00    -0.021 C 
ATOM     17  H   LIG d   1       3.599  -2.019  -4.666  0.00  0.00     0.032 H 
ATOM     18  H   LIG d   1       4.766  -3.262  -5.179  0.00  0.00     0.032 H 
BRANCH  16  19
ATOM     19  C   LIG d   1       5.654  -1.549  -4.221  0.00  0.00    -0.030 C 
ATOM     20  H   LIG d   1       6.353  -2.314  -3.885  0.00  0.00     0.031 H 
ATOM     21  H   LIG d   1       6.191  -0.792  -4.793  0.00  0.00     0.031 H 
BRANCH  19  22
ATOM     22  C   LIG d   1       5.000  -0.906  -3.025  0.00  0.00    -0.085 C 
ATOM     23  C   LIG d   1       5.312   0.321  -2.688  0.00  0.00    -0.080 C 
ATOM     24  H   LIG d   1       4.274  -1.457  -2.446  0.00  0.00     0.057 H 
BRANCH  23  25
ATOM     25  C   LIG d   1       6.419   1.043  -3.413  0.00  0.00    -0.044 C 
ATOM     26  H   LIG d   1       6.472   0.688  -4.442  0.00  0.00     0.027 H 
ATOM     27  H   LIG d   1       6.218   2.114  -3.408  0.00  0.00     0.027 H 
ATOM     28  H   LIG d   1       7.367   0.849  -2.912  0.00  0.00     0.027 H 
ENDBRANCH  23  25
BRANCH  23  29
ATOM     29  C   LIG d   1       4.565   1.010  -1.576  0.00  0.00    -0.044 C 
ATOM     30  H   LIG d   1       4.404   0.310  -0.757  0.00  0.00     0.027 H 
ATOM     31  H   LIG d   1       5.148   1.860  -1.218  0.00  0.00     0.027 H 
ATOM     32  H   LIG d   1       3.602   1.361  -1.948  0.00  0.00     0.027 H 
ENDBRANCH  23  29
ENDBRANCH  19  22
ENDBRANCH  16  19
ENDBRANCH   1  16
BRANCH   9  33
ATOM     33  O   LIG d   1       2.680   2.165  -7.346  0.00  0.00    -0.506 OA
ATOM     34  H   LIG d   1       2.636   1.673  -6.515  0.00  0.00     0.292 HD
ENDBRANCH   9  33
BRANCH   6  35
ATOM     35  O   LIG d   1       5.411  -0.407 -11.374  0.00  0.00    -0.506 OA
ATOM     36  H   LIG d   1       6.372  -0.316 -11.320  0.00  0.00     0.292 HD
ENDBRANCH   6  35
TORSDOF 7
ENDMDL
MODEL 9
REMARK VINA RESULT:      -5.6      3.991      5.767
REMARK  7 active torsions:
REMARK  status: ('A' for Active; 'I' for Inactive)
REMARK    1  A    between atoms: C_1  and  C_2 
REMARK    2  A    between atoms: C_2  and  C_20 
REMARK    3  A    between atoms: C_3  and  C_4 
REMARK    4  A    between atoms: C_4  and  C_5 
REMARK    5  A    between atoms: C_5  and  C_6 
REMARK    6  A    between atoms: C_11  and  O_19 
REMARK    7  A    between atoms: C_14  and  O_18 
ROOT
ATOM      1  C   LIG d   1       6.334  -3.493  -5.087  0.00  0.00     0.004 A 
ATOM      2  C   LIG d   1       5.063  -3.786  -5.393  0.00  0.00    -0.007 A 
ATOM      3  C   LIG d   1       4.662  -5.167  -5.718  0.00  0.00     0.191 A 
ATOM      4  O   LIG d   1       3.504  -5.418  -5.994  0.00  0.00    -0.287 OA
ATOM      5  C   LIG d   1       5.668  -6.243  -5.707  0.00  0.00     0.077 A 
ATOM      6  C   LIG d   1       5.314  -7.558  -6.009  0.00  0.00     0.129 A 
ATOM      7  C   LIG d   1       6.289  -8.560  -5.992  0.00  0.00    -0.016 A 
ATOM      8  C   LIG d   1       7.593  -8.260  -5.678  0.00  0.00    -0.016 A 
ATOM      9  C   LIG d   1       7.965  -6.948  -5.372  0.00  0.00     0.129 A 
ATOM     10  C   LIG d   1       7.005  -5.934  -5.385  0.00  0.00     0.078 A 
ATOM     11  C   LIG d   1       7.369  -4.543  -5.066  0.00  0.00     0.194 A 
ATOM     12  O   LIG d   1       8.518  -4.262  -4.786  0.00  0.00    -0.287 OA
ATOM     13  H   LIG d   1       4.323  -3.000  -5.402  0.00  0.00     0.066 H 
ATOM     14  H   LIG d   1       6.015  -9.579  -6.227  0.00  0.00     0.066 H 
ATOM     15  H   LIG d   1       8.336  -9.044  -5.664  0.00  0.00     0.066 H 
ENDROOT
BRANCH   1  16
ATOM     16  C   LIG d   1       6.711  -2.072  -4.760  0.00  0.00    -0.021 C 
ATOM     17  H   LIG d   1       7.732  -1.881  -5.091  0.00  0.00     0.032 H 
ATOM     18  H   LIG d   1       6.031  -1.389  -5.269  0.00  0.00     0.032 H 
BRANCH  16  19
ATOM     19  C   LIG d   1       6.616  -1.854  -3.249  0.00  0.00    -0.030 C 
ATOM     20  H   LIG d   1       6.077  -2.685  -2.795  0.00  0.00     0.031 H 
ATOM     21  H   LIG d   1       7.619  -1.797  -2.826  0.00  0.00     0.031 H 
BRANCH  19  22
ATOM     22  C   LIG d   1       5.881  -0.567  -2.972  0.00  0.00    -0.085 C 
ATOM     23  C   LIG d   1       4.682  -0.597  -2.445  0.00  0.00    -0.080 C 
ATOM     24  H   LIG d   1       6.343   0.380  -3.209  0.00  0.00     0.057 H 
BRANCH  23  25
ATOM     25  C   LIG d   1       3.984  -1.917  -2.237  0.00  0.00    -0.044 C 
ATOM     26  H   LIG d   1       2.928  -1.812  -2.487  0.00  0.00     0.027 H 
ATOM     27  H   LIG d   1       4.437  -2.673  -2.878  0.00  0.00     0.027 H 
ATOM     28  H   LIG d   1       4.082  -2.219  -1.194  0.00  0.00     0.027 H 
ENDBRANCH  23  25
BRANCH  23  29
ATOM     29  C   LIG d   1       4.002   0.686  -2.046  0.00  0.00    -0.044 C 
ATOM     30  H   LIG d   1       3.047   0.460  -1.574  0.00  0.00     0.027 H 
ATOM     31  H   LIG d   1       4.634   1.230  -1.343  0.00  0.00     0.027 H 
ATOM     32  H   LIG d   1       3.835   1.299  -2.931  0.00  0.00     0.027 H 
ENDBRANCH  23  29
ENDBRANCH  19  22
ENDBRANCH  16  19
ENDBRANCH   1  16
BRANCH   9  33
ATOM     33  O   LIG d   1       9.253  -6.660  -5.064  0.00  0.00    -0.506 OA
ATOM     34  H   LIG d   1       9.354  -5.978  -4.386  0.00  0.00     0.292 HD
ENDBRANCH   9  33
BRANCH   6  35
ATOM     35  O   LIG d   1       4.031  -7.864  -6.319  0.00  0.00    -0.506 OA
ATOM     36  H   LIG d   1       3.485  -8.092  -5.554  0.00  0.00     0.292 HD
ENDBRANCH   6  35
TORSDOF 7
ENDMDL
MODEL 10
REMARK VINA RESULT:      -5.5      3.666      5.816
REMARK  7 active torsions:
REMARK  status: ('A' for Active; 'I' for Inactive)
REMARK    1  A    between atoms: C_1  and  C_2 
REMARK    2  A    between atoms: C_2  and  C_20 
REMARK    3  A    between atoms: C_3  and  C_4 
REMARK    4  A    between atoms: C_4  and  C_5 
REMARK    5  A    between atoms: C_5  and  C_6 
REMARK    6  A    between atoms: C_11  and  O_19 
REMARK    7  A    between atoms: C_14  and  O_18 
ROOT
ATOM      1  C   LIG d   1       7.923   0.032  -4.951  0.00  0.00     0.004 A 
ATOM      2  C   LIG d   1       7.753  -1.178  -5.500  0.00  0.00    -0.007 A 
ATOM      3  C   LIG d   1       6.659  -2.062  -5.059  0.00  0.00     0.191 A 
ATOM      4  O   LIG d   1       6.518  -3.158  -5.567  0.00  0.00    -0.287 OA
ATOM      5  C   LIG d   1       5.738  -1.614  -4.001  0.00  0.00     0.077 A 
ATOM      6  C   LIG d   1       4.694  -2.432  -3.567  0.00  0.00     0.129 A 
ATOM      7  C   LIG d   1       3.833  -1.982  -2.561  0.00  0.00    -0.016 A 
ATOM      8  C   LIG d   1       4.007  -0.741  -1.997  0.00  0.00    -0.016 A 
ATOM      9  C   LIG d   1       5.048   0.092  -2.420  0.00  0.00     0.129 A 
ATOM     10  C   LIG d   1       5.917  -0.341  -3.423  0.00  0.00     0.078 A 
ATOM     11  C   LIG d   1       7.021   0.515  -3.889  0.00  0.00     0.194 A 
ATOM     12  O   LIG d   1       7.188   1.615  -3.400  0.00  0.00    -0.287 OA
ATOM     13  H   LIG d   1       8.427  -1.510  -6.276  0.00  0.00     0.066 H 
ATOM     14  H   LIG d   1       3.025  -2.615  -2.224  0.00  0.00     0.066 H 
ATOM     15  H   LIG d   1       3.333  -0.403  -1.223  0.00  0.00     0.066 H 
ENDROOT
BRANCH   1  16
ATOM     16  C   LIG d   1       9.052   0.912  -5.423  0.00  0.00    -0.021 C 
ATOM     17  H   LIG d   1       8.888   1.932  -5.075  0.00  0.00     0.032 H 
ATOM     18  H   LIG d   1       9.995   0.538  -5.024  0.00  0.00     0.032 H 
BRANCH  16  19
ATOM     19  C   LIG d   1       9.103   0.897  -6.952  0.00  0.00    -0.030 C 
ATOM     20  H   LIG d   1      10.048   1.323  -7.288  0.00  0.00     0.031 H 
ATOM     21  H   LIG d   1       9.020  -0.130  -7.308  0.00  0.00     0.031 H 
BRANCH  19  22
ATOM     22  C   LIG d   1       7.962   1.714  -7.501  0.00  0.00    -0.085 C 
ATOM     23  C   LIG d   1       7.202   1.224  -8.450  0.00  0.00    -0.080 C 
ATOM     24  H   LIG d   1       7.769   2.702  -7.112  0.00  0.00     0.057 H 
BRANCH  23  25
ATOM     25  C   LIG d   1       7.549  -0.098  -9.085  0.00  0.00    -0.044 C 
ATOM     26  H   LIG d   1       7.139  -0.134 -10.095  0.00  0.00     0.027 H 
ATOM     27  H   LIG d   1       8.632  -0.208  -9.128  0.00  0.00     0.027 H 
ATOM     28  H   LIG d   1       7.124  -0.908  -8.492  0.00  0.00     0.027 H 
ENDBRANCH  23  25
BRANCH  23  29
ATOM     29  C   LIG d   1       5.983   1.983  -8.905  0.00  0.00    -0.044 C 
ATOM     30  H   LIG d   1       5.092   1.383  -8.722  0.00  0.00     0.027 H 
ATOM     31  H   LIG d   1       5.909   2.920  -8.352  0.00  0.00     0.027 H 
ATOM     32  H   LIG d   1       6.065   2.196  -9.971  0.00  0.00     0.027 H 
ENDBRANCH  23  29
ENDBRANCH  19  22
ENDBRANCH  16  19
ENDBRANCH   1  16
BRANCH   9  33
ATOM     33  O   LIG d   1       5.212   1.314  -1.858  0.00  0.00    -0.506 OA
ATOM     34  H   LIG d   1       5.390   2.019  -2.495  0.00  0.00     0.292 HD
ENDBRANCH   9  33
BRANCH   6  35
ATOM     35  O   LIG d   1       4.514  -3.656  -4.117  0.00  0.00    -0.506 OA
ATOM     36  H   LIG d   1       5.193  -3.903  -4.760  0.00  0.00     0.292 HD
ENDBRANCH   6  35
TORSDOF 7
ENDMDL
