MODEL 1
REMARK VINA RESULT:      -7.7      0.000      0.000
REMARK  6 active torsions:
REMARK  status: ('A' for Active; 'I' for Inactive)
REMARK    1  A    between atoms: C_1  and  O_2 
REMARK    2  A    between atoms: O_2  and  C_3 
REMARK    3  A    between atoms: C_3  and  C_5 
REMARK    4  A    between atoms: C_8  and  O_11 
REMARK    5  A    between atoms: O_11  and  C_12 
REMARK    6  A    between atoms: N_24  and  C_27 
ROOT
ATOM      1  C   LIG d   1      10.829   4.461  -3.834  0.00  0.00     0.210 A 
ATOM      2  C   LIG d   1      10.118   3.875  -2.852  0.00  0.00     0.139 A 
ATOM      3  O   LIG d   1       9.161   2.969  -3.092  0.00  0.00    -0.459 OA
ATOM      4  C   LIG d   1       8.838   2.572  -4.340  0.00  0.00     0.146 A 
ATOM      5  C   LIG d   1       9.515   3.119  -5.444  0.00  0.00     0.068 A 
ATOM      6  C   LIG d   1      10.565   4.123  -5.193  0.00  0.00     0.234 A 
ATOM      7  O   LIG d   1      11.184   4.636  -6.108  0.00  0.00    -0.283 OA
ATOM      8  C   LIG d   1       9.187   2.718  -6.739  0.00  0.00    -0.044 A 
ATOM      9  C   LIG d   1       8.206   1.789  -6.930  0.00  0.00    -0.019 A 
ATOM     10  C   LIG d   1       7.527   1.238  -5.841  0.00  0.00     0.130 A 
ATOM     11  C   LIG d   1       7.843   1.626  -4.551  0.00  0.00     0.051 A 
ATOM     12  C   LIG d   1       7.125   1.031  -3.367  0.00  0.00     0.034 C 
ATOM     13  N   LIG d   1       5.878   0.395  -3.815  0.00  0.00    -0.263 N 
ATOM     14  C   LIG d   1       6.143  -0.486  -4.962  0.00  0.00     0.144 C 
ATOM     15  O   LIG d   1       6.555   0.317  -6.070  0.00  0.00    -0.476 OA
ATOM     16  H   LIG d   1      10.328   4.146  -1.828  0.00  0.00     0.107 H 
ATOM     17  H   LIG d   1       9.708   3.140  -7.586  0.00  0.00     0.063 H 
ATOM     18  H   LIG d   1       7.951   1.478  -7.932  0.00  0.00     0.065 H 
ATOM     19  H   LIG d   1       7.763   0.286  -2.893  0.00  0.00     0.048 H 
ATOM     20  H   LIG d   1       6.893   1.820  -2.650  0.00  0.00     0.048 H 
ATOM     21  H   LIG d   1       6.935  -1.191  -4.707  0.00  0.00     0.087 H 
ATOM     22  H   LIG d   1       5.236  -1.032  -5.223  0.00  0.00     0.087 H 
ENDROOT
BRANCH   1  23
ATOM     23  O   LIG d   1      11.792   5.376  -3.532  0.00  0.00    -0.449 OA
BRANCH  23  24
ATOM     24  C   LIG d   1      11.700   6.026  -2.345  0.00  0.00     0.129 A 
ATOM     25  C   LIG d   1      10.816   7.089  -2.201  0.00  0.00    -0.019 A 
ATOM     26  C   LIG d   1      10.721   7.751  -0.999  0.00  0.00    -0.044 A 
ATOM     27  H   LIG d   1      10.202   7.396  -3.036  0.00  0.00     0.065 H 
ATOM     28  C   LIG d   1      11.516   7.353   0.080  0.00  0.00     0.059 A 
ATOM     29  H   LIG d   1      10.033   8.577  -0.888  0.00  0.00     0.063 H 
ATOM     30  C   LIG d   1      12.409   6.288  -0.069  0.00  0.00    -0.044 A 
ATOM     31  C   LIG d   1      12.493   5.627  -1.274  0.00  0.00    -0.019 A 
ATOM     32  H   LIG d   1      13.028   5.981   0.761  0.00  0.00     0.063 H 
ATOM     33  H   LIG d   1      13.178   4.800  -1.389  0.00  0.00     0.065 H 
BRANCH  28  34
ATOM     34  C   LIG d   1      11.418   8.060   1.372  0.00  0.00     0.339 C 
ATOM     35  O   LIG d   1      11.400   7.429   2.410  0.00  0.00    -0.245 OA
BRANCH  34  36
ATOM     36  O   LIG d   1      11.350   9.405   1.400  0.00  0.00    -0.465 OA
BRANCH  36  37
ATOM     37  C   LIG d   1      12.221  10.080   2.308  0.00  0.00     0.082 C 
ATOM     38  H   LIG d   1      13.074  10.483   1.762  0.00  0.00     0.066 H 
ATOM     39  H   LIG d   1      11.682  10.895   2.792  0.00  0.00     0.066 H 
ATOM     40  H   LIG d   1      12.572   9.378   3.064  0.00  0.00     0.066 H 
ENDBRANCH  36  37
ENDBRANCH  34  36
ENDBRANCH  28  34
ENDBRANCH  23  24
ENDBRANCH   1  23
BRANCH  13  41
ATOM     41  C   LIG d   1       5.241  -0.345  -2.717  0.00  0.00     0.014 C 
ATOM     42  C   LIG d   1       3.813   0.180  -2.486  0.00  0.00    -0.037 C 
ATOM     43  C   LIG d   1       2.862  -1.010  -2.730  0.00  0.00    -0.052 C 
ATOM     44  H   LIG d   1       3.708   0.538  -1.462  0.00  0.00     0.028 H 
ATOM     45  H   LIG d   1       3.592   0.984  -3.187  0.00  0.00     0.028 H 
ATOM     46  C   LIG d   1       3.745  -2.259  -2.489  0.00  0.00    -0.052 C 
ATOM     47  H   LIG d   1       2.490  -0.997  -3.754  0.00  0.00     0.027 H 
ATOM     48  H   LIG d   1       2.033  -0.986  -2.021  0.00  0.00     0.027 H 
ATOM     49  C   LIG d   1       5.107  -1.835  -3.093  0.00  0.00    -0.037 C 
ATOM     50  H   LIG d   1       3.342  -3.124  -3.014  0.00  0.00     0.027 H 
ATOM     51  H   LIG d   1       3.843  -2.463  -1.423  0.00  0.00     0.027 H 
ATOM     52  H   LIG d   1       5.098  -1.955  -4.177  0.00  0.00     0.028 H 
ATOM     53  H   LIG d   1       5.917  -2.414  -2.651  0.00  0.00     0.028 H 
ATOM     54  H   LIG d   1       5.830  -0.241  -1.806  0.00  0.00     0.046 H 
ENDBRANCH  13  41
TORSDOF 6
ENDMDL
MODEL 2
REMARK VINA RESULT:      -7.6      1.866      2.414
REMARK  6 active torsions:
REMARK  status: ('A' for Active; 'I' for Inactive)
REMARK    1  A    between atoms: C_1  and  O_2 
REMARK    2  A    between atoms: O_2  and  C_3 
REMARK    3  A    between atoms: C_3  and  C_5 
REMARK    4  A    between atoms: C_8  and  O_11 
REMARK    5  A    between atoms: O_11  and  C_12 
REMARK    6  A    between atoms: N_24  and  C_27 
ROOT
ATOM      1  C   LIG d   1      10.705   4.836  -3.872  0.00  0.00     0.210 A 
ATOM      2  C   LIG d   1       9.996   4.247  -2.889  0.00  0.00     0.139 A 
ATOM      3  O   LIG d   1       9.103   3.277  -3.121  0.00  0.00    -0.459 OA
ATOM      4  C   LIG d   1       8.846   2.812  -4.361  0.00  0.00     0.146 A 
ATOM      5  C   LIG d   1       9.527   3.356  -5.465  0.00  0.00     0.068 A 
ATOM      6  C   LIG d   1      10.507   4.430  -5.222  0.00  0.00     0.234 A 
ATOM      7  O   LIG d   1      11.125   4.944  -6.139  0.00  0.00    -0.283 OA
ATOM      8  C   LIG d   1       9.268   2.884  -6.752  0.00  0.00    -0.044 A 
ATOM      9  C   LIG d   1       8.350   1.891  -6.935  0.00  0.00    -0.019 A 
ATOM     10  C   LIG d   1       7.668   1.344  -5.847  0.00  0.00     0.130 A 
ATOM     11  C   LIG d   1       7.917   1.800  -4.565  0.00  0.00     0.051 A 
ATOM     12  C   LIG d   1       7.195   1.210  -3.381  0.00  0.00     0.034 C 
ATOM     13  N   LIG d   1       6.004   0.483  -3.840  0.00  0.00    -0.263 N 
ATOM     14  C   LIG d   1       6.359  -0.425  -4.942  0.00  0.00     0.144 C 
ATOM     15  O   LIG d   1       6.760   0.358  -6.068  0.00  0.00    -0.476 OA
ATOM     16  H   LIG d   1      10.155   4.570  -1.871  0.00  0.00     0.107 H 
ATOM     17  H   LIG d   1       9.791   3.304  -7.599  0.00  0.00     0.063 H 
ATOM     18  H   LIG d   1       8.147   1.527  -7.932  0.00  0.00     0.065 H 
ATOM     19  H   LIG d   1       7.859   0.524  -2.856  0.00  0.00     0.048 H 
ATOM     20  H   LIG d   1       6.893   2.011  -2.704  0.00  0.00     0.048 H 
ATOM     21  H   LIG d   1       7.183  -1.070  -4.633  0.00  0.00     0.087 H 
ATOM     22  H   LIG d   1       5.495  -1.034  -5.208  0.00  0.00     0.087 H 
ENDROOT
BRANCH   1  23
ATOM     23  O   LIG d   1      11.600   5.819  -3.577  0.00  0.00    -0.449 OA
BRANCH  23  24
ATOM     24  C   LIG d   1      11.116   7.033  -3.217  0.00  0.00     0.129 A 
ATOM     25  C   LIG d   1      10.626   7.902  -4.186  0.00  0.00    -0.019 A 
ATOM     26  C   LIG d   1      10.134   9.135  -3.824  0.00  0.00    -0.044 A 
ATOM     27  H   LIG d   1      10.632   7.607  -5.225  0.00  0.00     0.065 H 
ATOM     28  C   LIG d   1      10.128   9.515  -2.479  0.00  0.00     0.059 A 
ATOM     29  H   LIG d   1       9.754   9.808  -4.578  0.00  0.00     0.063 H 
ATOM     30  C   LIG d   1      10.628   8.642  -1.507  0.00  0.00    -0.044 A 
ATOM     31  C   LIG d   1      11.111   7.408  -1.877  0.00  0.00    -0.019 A 
ATOM     32  H   LIG d   1      10.629   8.934  -0.467  0.00  0.00     0.063 H 
ATOM     33  H   LIG d   1      11.492   6.731  -1.127  0.00  0.00     0.065 H 
BRANCH  28  34
ATOM     34  C   LIG d   1       9.602  10.836  -2.086  0.00  0.00     0.339 C 
ATOM     35  O   LIG d   1      10.110  11.442  -1.164  0.00  0.00    -0.245 OA
BRANCH  34  36
ATOM     36  O   LIG d   1       8.559  11.370  -2.749  0.00  0.00    -0.465 OA
BRANCH  36  37
ATOM     37  C   LIG d   1       8.757  12.651  -3.348  0.00  0.00     0.082 C 
ATOM     38  H   LIG d   1       8.374  12.639  -4.369  0.00  0.00     0.066 H 
ATOM     39  H   LIG d   1       8.227  13.409  -2.770  0.00  0.00     0.066 H 
ATOM     40  H   LIG d   1       9.821  12.885  -3.362  0.00  0.00     0.066 H 
ENDBRANCH  36  37
ENDBRANCH  34  36
ENDBRANCH  28  34
ENDBRANCH  23  24
ENDBRANCH   1  23
BRANCH  13  41
ATOM     41  C   LIG d   1       5.375  -0.251  -2.734  0.00  0.00     0.014 C 
ATOM     42  C   LIG d   1       3.948   0.275  -2.496  0.00  0.00    -0.037 C 
ATOM     43  C   LIG d   1       2.996  -0.917  -2.726  0.00  0.00    -0.052 C 
ATOM     44  H   LIG d   1       3.850   0.639  -1.474  0.00  0.00     0.028 H 
ATOM     45  H   LIG d   1       3.722   1.075  -3.201  0.00  0.00     0.028 H 
ATOM     46  C   LIG d   1       3.882  -2.164  -2.483  0.00  0.00    -0.052 C 
ATOM     47  H   LIG d   1       2.617  -0.912  -3.748  0.00  0.00     0.027 H 
ATOM     48  H   LIG d   1       2.172  -0.890  -2.012  0.00  0.00     0.027 H 
ATOM     49  C   LIG d   1       5.240  -1.743  -3.100  0.00  0.00    -0.037 C 
ATOM     50  H   LIG d   1       3.476  -3.033  -3.001  0.00  0.00     0.027 H 
ATOM     51  H   LIG d   1       3.988  -2.362  -1.417  0.00  0.00     0.027 H 
ATOM     52  H   LIG d   1       5.223  -1.870  -4.182  0.00  0.00     0.028 H 
ATOM     53  H   LIG d   1       6.053  -2.319  -2.660  0.00  0.00     0.028 H 
ATOM     54  H   LIG d   1       5.970  -0.141  -1.827  0.00  0.00     0.046 H 
ENDBRANCH  13  41
TORSDOF 6
ENDMDL
MODEL 3
REMARK VINA RESULT:      -7.5      1.823      2.221
REMARK  6 active torsions:
REMARK  status: ('A' for Active; 'I' for Inactive)
REMARK    1  A    between atoms: C_1  and  O_2 
REMARK    2  A    between atoms: O_2  and  C_3 
REMARK    3  A    between atoms: C_3  and  C_5 
REMARK    4  A    between atoms: C_8  and  O_11 
REMARK    5  A    between atoms: O_11  and  C_12 
REMARK    6  A    between atoms: N_24  and  C_27 
ROOT
ATOM      1  C   LIG d   1       9.679   3.414  -4.510  0.00  0.00     0.210 A 
ATOM      2  C   LIG d   1       8.372   3.220  -4.248  0.00  0.00     0.139 A 
ATOM      3  O   LIG d   1       7.777   2.027  -4.377  0.00  0.00    -0.459 OA
ATOM      4  C   LIG d   1       8.445   0.926  -4.779  0.00  0.00     0.146 A 
ATOM      5  C   LIG d   1       9.814   1.012  -5.083  0.00  0.00     0.068 A 
ATOM      6  C   LIG d   1      10.479   2.321  -4.951  0.00  0.00     0.234 A 
ATOM      7  O   LIG d   1      11.663   2.460  -5.204  0.00  0.00    -0.283 OA
ATOM      8  C   LIG d   1      10.514  -0.120  -5.501  0.00  0.00    -0.044 A 
ATOM      9  C   LIG d   1       9.862  -1.313  -5.614  0.00  0.00    -0.019 A 
ATOM     10  C   LIG d   1       8.502  -1.411  -5.314  0.00  0.00     0.130 A 
ATOM     11  C   LIG d   1       7.796  -0.297  -4.897  0.00  0.00     0.051 A 
ATOM     12  C   LIG d   1       6.330  -0.391  -4.560  0.00  0.00     0.034 C 
ATOM     13  N   LIG d   1       5.770  -1.624  -5.133  0.00  0.00    -0.263 N 
ATOM     14  C   LIG d   1       6.622  -2.773  -4.791  0.00  0.00     0.144 C 
ATOM     15  O   LIG d   1       7.885  -2.615  -5.441  0.00  0.00    -0.476 OA
ATOM     16  H   LIG d   1       7.780   4.060  -3.919  0.00  0.00     0.107 H 
ATOM     17  H   LIG d   1      11.566  -0.052  -5.735  0.00  0.00     0.063 H 
ATOM     18  H   LIG d   1      10.402  -2.190  -5.939  0.00  0.00     0.065 H 
ATOM     19  H   LIG d   1       6.206  -0.406  -3.478  0.00  0.00     0.048 H 
ATOM     20  H   LIG d   1       5.807   0.472  -4.974  0.00  0.00     0.048 H 
ATOM     21  H   LIG d   1       6.769  -2.812  -3.711  0.00  0.00     0.087 H 
ATOM     22  H   LIG d   1       6.149  -3.695  -5.130  0.00  0.00     0.087 H 
ENDROOT
BRANCH   1  23
ATOM     23  O   LIG d   1      10.232   4.650  -4.362  0.00  0.00    -0.449 OA
BRANCH  23  24
ATOM     24  C   LIG d   1      10.471   5.092  -3.102  0.00  0.00     0.129 A 
ATOM     25  C   LIG d   1       9.754   6.171  -2.597  0.00  0.00    -0.019 A 
ATOM     26  C   LIG d   1       9.995   6.622  -1.319  0.00  0.00    -0.044 A 
ATOM     27  H   LIG d   1       9.007   6.655  -3.209  0.00  0.00     0.065 H 
ATOM     28  C   LIG d   1      10.962   5.995  -0.529  0.00  0.00     0.059 A 
ATOM     29  H   LIG d   1       9.436   7.461  -0.928  0.00  0.00     0.063 H 
ATOM     30  C   LIG d   1      11.686   4.915  -1.043  0.00  0.00    -0.044 A 
ATOM     31  C   LIG d   1      11.434   4.465  -2.319  0.00  0.00    -0.019 A 
ATOM     32  H   LIG d   1      12.437   4.430  -0.436  0.00  0.00     0.063 H 
ATOM     33  H   LIG d   1      11.989   3.627  -2.715  0.00  0.00     0.065 H 
BRANCH  28  34
ATOM     34  C   LIG d   1      11.223   6.475   0.841  0.00  0.00     0.339 C 
ATOM     35  O   LIG d   1      10.674   5.946   1.786  0.00  0.00    -0.245 OA
BRANCH  34  36
ATOM     36  O   LIG d   1      12.072   7.502   1.044  0.00  0.00    -0.465 OA
BRANCH  36  37
ATOM     37  C   LIG d   1      11.505   8.736   1.487  0.00  0.00     0.082 C 
ATOM     38  H   LIG d   1      11.167   9.310   0.624  0.00  0.00     0.066 H 
ATOM     39  H   LIG d   1      10.657   8.532   2.141  0.00  0.00     0.066 H 
ATOM     40  H   LIG d   1      12.256   9.306   2.032  0.00  0.00     0.066 H 
ENDBRANCH  36  37
ENDBRANCH  34  36
ENDBRANCH  28  34
ENDBRANCH  23  24
ENDBRANCH   1  23
BRANCH  13  41
ATOM     41  C   LIG d   1       4.390  -1.837  -4.679  0.00  0.00     0.014 C 
ATOM     42  C   LIG d   1       4.377  -2.757  -3.446  0.00  0.00    -0.037 C 
ATOM     43  C   LIG d   1       3.746  -1.943  -2.296  0.00  0.00    -0.052 C 
ATOM     44  H   LIG d   1       3.777  -3.644  -3.647  0.00  0.00     0.028 H 
ATOM     45  H   LIG d   1       5.395  -3.045  -3.184  0.00  0.00     0.028 H 
ATOM     46  C   LIG d   1       2.891  -0.871  -3.015  0.00  0.00    -0.052 C 
ATOM     47  H   LIG d   1       4.521  -1.471  -1.693  0.00  0.00     0.027 H 
ATOM     48  H   LIG d   1       3.116  -2.583  -1.678  0.00  0.00     0.027 H 
ATOM     49  C   LIG d   1       3.767  -0.497  -4.237  0.00  0.00    -0.037 C 
ATOM     50  H   LIG d   1       2.737  -0.005  -2.371  0.00  0.00     0.027 H 
ATOM     51  H   LIG d   1       1.938  -1.289  -3.337  0.00  0.00     0.027 H 
ATOM     52  H   LIG d   1       4.546   0.208  -3.946  0.00  0.00     0.028 H 
ATOM     53  H   LIG d   1       3.152  -0.081  -5.034  0.00  0.00     0.028 H 
ATOM     54  H   LIG d   1       3.797  -2.278  -5.481  0.00  0.00     0.046 H 
ENDBRANCH  13  41
TORSDOF 6
ENDMDL
MODEL 4
REMARK VINA RESULT:      -7.0      2.176      3.057
REMARK  6 active torsions:
REMARK  status: ('A' for Active; 'I' for Inactive)
REMARK    1  A    between atoms: C_1  and  O_2 
REMARK    2  A    between atoms: O_2  and  C_3 
REMARK    3  A    between atoms: C_3  and  C_5 
REMARK    4  A    between atoms: C_8  and  O_11 
REMARK    5  A    between atoms: O_11  and  C_12 
REMARK    6  A    between atoms: N_24  and  C_27 
ROOT
ATOM      1  C   LIG d   1      10.678   4.950  -3.851  0.00  0.00     0.210 A 
ATOM      2  C   LIG d   1       9.979   4.344  -2.871  0.00  0.00     0.139 A 
ATOM      3  O   LIG d   1       9.110   3.353  -3.108  0.00  0.00    -0.459 OA
ATOM      4  C   LIG d   1       8.869   2.884  -4.349  0.00  0.00     0.146 A 
ATOM      5  C   LIG d   1       9.541   3.443  -5.450  0.00  0.00     0.068 A 
ATOM      6  C   LIG d   1      10.495   4.540  -5.203  0.00  0.00     0.234 A 
ATOM      7  O   LIG d   1      11.105   5.069  -6.116  0.00  0.00    -0.283 OA
ATOM      8  C   LIG d   1       9.298   2.967  -6.738  0.00  0.00    -0.044 A 
ATOM      9  C   LIG d   1       8.405   1.953  -6.926  0.00  0.00    -0.019 A 
ATOM     10  C   LIG d   1       7.732   1.389  -5.841  0.00  0.00     0.130 A 
ATOM     11  C   LIG d   1       7.964   1.850  -4.557  0.00  0.00     0.051 A 
ATOM     12  C   LIG d   1       7.252   1.243  -3.376  0.00  0.00     0.034 C 
ATOM     13  N   LIG d   1       6.080   0.488  -3.841  0.00  0.00    -0.263 N 
ATOM     14  C   LIG d   1       6.461  -0.411  -4.942  0.00  0.00     0.144 C 
ATOM     15  O   LIG d   1       6.848   0.382  -6.066  0.00  0.00    -0.476 OA
ATOM     16  H   LIG d   1      10.126   4.670  -1.852  0.00  0.00     0.107 H 
ATOM     17  H   LIG d   1       9.815   3.399  -7.583  0.00  0.00     0.063 H 
ATOM     18  H   LIG d   1       8.215   1.584  -7.923  0.00  0.00     0.065 H 
ATOM     19  H   LIG d   1       7.930   0.572  -2.849  0.00  0.00     0.048 H 
ATOM     20  H   LIG d   1       6.929   2.036  -2.700  0.00  0.00     0.048 H 
ATOM     21  H   LIG d   1       7.298  -1.037  -4.630  0.00  0.00     0.087 H 
ATOM     22  H   LIG d   1       5.612  -1.040  -5.212  0.00  0.00     0.087 H 
ENDROOT
BRANCH   1  23
ATOM     23  O   LIG d   1      11.549   5.953  -3.552  0.00  0.00    -0.449 OA
BRANCH  23  24
ATOM     24  C   LIG d   1      12.649   5.644  -2.822  0.00  0.00     0.129 A 
ATOM     25  C   LIG d   1      13.598   4.765  -3.333  0.00  0.00    -0.019 A 
ATOM     26  C   LIG d   1      14.714   4.448  -2.595  0.00  0.00    -0.044 A 
ATOM     27  H   LIG d   1      13.456   4.330  -4.312  0.00  0.00     0.065 H 
ATOM     28  C   LIG d   1      14.896   5.012  -1.328  0.00  0.00     0.059 A 
ATOM     29  H   LIG d   1      15.451   3.765  -2.993  0.00  0.00     0.063 H 
ATOM     30  C   LIG d   1      13.937   5.891  -0.815  0.00  0.00    -0.044 A 
ATOM     31  C   LIG d   1      12.826   6.208  -1.563  0.00  0.00    -0.019 A 
ATOM     32  H   LIG d   1      14.072   6.325   0.165  0.00  0.00     0.063 H 
ATOM     33  H   LIG d   1      12.087   6.891  -1.169  0.00  0.00     0.065 H 
BRANCH  28  34
ATOM     34  C   LIG d   1      16.092   4.676  -0.533  0.00  0.00     0.339 C 
ATOM     35  O   LIG d   1      16.607   5.518   0.175  0.00  0.00    -0.245 OA
BRANCH  34  36
ATOM     36  O   LIG d   1      16.612   3.435  -0.592  0.00  0.00    -0.465 OA
BRANCH  36  37
ATOM     37  C   LIG d   1      17.351   2.986   0.546  0.00  0.00     0.082 C 
ATOM     38  H   LIG d   1      16.769   2.237   1.084  0.00  0.00     0.066 H 
ATOM     39  H   LIG d   1      18.293   2.547   0.218  0.00  0.00     0.066 H 
ATOM     40  H   LIG d   1      17.553   3.831   1.204  0.00  0.00     0.066 H 
ENDBRANCH  36  37
ENDBRANCH  34  36
ENDBRANCH  28  34
ENDBRANCH  23  24
ENDBRANCH   1  23
BRANCH  13  41
ATOM     41  C   LIG d   1       5.464  -0.261  -2.738  0.00  0.00     0.014 C 
ATOM     42  C   LIG d   1       4.069   0.309  -2.428  0.00  0.00    -0.037 C 
ATOM     43  C   LIG d   1       3.063  -0.838  -2.662  0.00  0.00    -0.052 C 
ATOM     44  H   LIG d   1       4.022   0.639  -1.390  0.00  0.00     0.028 H 
ATOM     45  H   LIG d   1       3.848   1.141  -3.095  0.00  0.00     0.028 H 
ATOM     46  C   LIG d   1       3.908  -2.125  -2.497  0.00  0.00    -0.052 C 
ATOM     47  H   LIG d   1       2.647  -0.780  -3.668  0.00  0.00     0.027 H 
ATOM     48  H   LIG d   1       2.267  -0.805  -1.917  0.00  0.00     0.027 H 
ATOM     49  C   LIG d   1       5.258  -1.733  -3.150  0.00  0.00    -0.037 C 
ATOM     50  H   LIG d   1       3.450  -2.958  -3.029  0.00  0.00     0.027 H 
ATOM     51  H   LIG d   1       4.045  -2.365  -1.443  0.00  0.00     0.027 H 
ATOM     52  H   LIG d   1       5.196  -1.820  -4.235  0.00  0.00     0.028 H 
ATOM     53  H   LIG d   1       6.063  -2.355  -2.761  0.00  0.00     0.028 H 
ATOM     54  H   LIG d   1       6.096  -0.207  -1.851  0.00  0.00     0.046 H 
ENDBRANCH  13  41
TORSDOF 6
ENDMDL
MODEL 5
REMARK VINA RESULT:      -6.8      7.556     10.138
REMARK  6 active torsions:
REMARK  status: ('A' for Active; 'I' for Inactive)
REMARK    1  A    between atoms: C_1  and  O_2 
REMARK    2  A    between atoms: O_2  and  C_3 
REMARK    3  A    between atoms: C_3  and  C_5 
REMARK    4  A    between atoms: C_8  and  O_11 
REMARK    5  A    between atoms: O_11  and  C_12 
REMARK    6  A    between atoms: N_24  and  C_27 
ROOT
ATOM      1  C   LIG d   1       8.264  -2.453  -4.570  0.00  0.00     0.210 A 
ATOM      2  C   LIG d   1       7.953  -2.082  -5.828  0.00  0.00     0.139 A 
ATOM      3  O   LIG d   1       6.788  -1.504  -6.145  0.00  0.00    -0.459 OA
ATOM      4  C   LIG d   1       5.834  -1.247  -5.227  0.00  0.00     0.146 A 
ATOM      5  C   LIG d   1       6.049  -1.594  -3.881  0.00  0.00     0.068 A 
ATOM      6  C   LIG d   1       7.326  -2.237  -3.521  0.00  0.00     0.234 A 
ATOM      7  O   LIG d   1       7.569  -2.564  -2.372  0.00  0.00    -0.283 OA
ATOM      8  C   LIG d   1       5.069  -1.334  -2.923  0.00  0.00    -0.044 A 
ATOM      9  C   LIG d   1       3.899  -0.740  -3.298  0.00  0.00    -0.019 A 
ATOM     10  C   LIG d   1       3.675  -0.391  -4.631  0.00  0.00     0.130 A 
ATOM     11  C   LIG d   1       4.639  -0.641  -5.591  0.00  0.00     0.051 A 
ATOM     12  C   LIG d   1       4.413  -0.260  -7.032  0.00  0.00     0.034 C 
ATOM     13  N   LIG d   1       2.979  -0.030  -7.263  0.00  0.00    -0.263 N 
ATOM     14  C   LIG d   1       2.438   0.866  -6.229  0.00  0.00     0.144 C 
ATOM     15  O   LIG d   1       2.497   0.196  -4.968  0.00  0.00    -0.476 OA
ATOM     16  H   LIG d   1       8.674  -2.257  -6.612  0.00  0.00     0.107 H 
ATOM     17  H   LIG d   1       5.236  -1.602  -1.890  0.00  0.00     0.063 H 
ATOM     18  H   LIG d   1       3.139  -0.540  -2.557  0.00  0.00     0.065 H 
ATOM     19  H   LIG d   1       4.968   0.651  -7.258  0.00  0.00     0.048 H 
ATOM     20  H   LIG d   1       4.760  -1.066  -7.679  0.00  0.00     0.048 H 
ATOM     21  H   LIG d   1       3.034   1.779  -6.186  0.00  0.00     0.087 H 
ATOM     22  H   LIG d   1       1.403   1.114  -6.464  0.00  0.00     0.087 H 
ENDROOT
BRANCH   1  23
ATOM     23  O   LIG d   1       9.466  -3.037  -4.304  0.00  0.00    -0.449 OA
BRANCH  23  24
ATOM     24  C   LIG d   1       9.463  -4.290  -3.787  0.00  0.00     0.129 A 
ATOM     25  C   LIG d   1       8.882  -5.335  -4.498  0.00  0.00    -0.019 A 
ATOM     26  C   LIG d   1       8.877  -6.607  -3.975  0.00  0.00    -0.044 A 
ATOM     27  H   LIG d   1       8.433  -5.145  -5.462  0.00  0.00     0.065 H 
ATOM     28  C   LIG d   1       9.457  -6.850  -2.726  0.00  0.00     0.059 A 
ATOM     29  H   LIG d   1       8.425  -7.418  -4.528  0.00  0.00     0.063 H 
ATOM     30  C   LIG d   1      10.035  -5.797  -2.011  0.00  0.00    -0.044 A 
ATOM     31  C   LIG d   1      10.042  -4.528  -2.544  0.00  0.00    -0.019 A 
ATOM     32  H   LIG d   1      10.481  -5.980  -1.044  0.00  0.00     0.063 H 
ATOM     33  H   LIG d   1      10.493  -3.714  -1.995  0.00  0.00     0.065 H 
BRANCH  28  34
ATOM     34  C   LIG d   1       9.454  -8.213  -2.162  0.00  0.00     0.339 C 
ATOM     35  O   LIG d   1      10.284  -8.529  -1.333  0.00  0.00    -0.245 OA
BRANCH  34  36
ATOM     36  O   LIG d   1       8.531  -9.107  -2.565  0.00  0.00    -0.465 OA
BRANCH  36  37
ATOM     37  C   LIG d   1       7.505  -9.447  -1.631  0.00  0.00     0.082 C 
ATOM     38  H   LIG d   1       7.208 -10.485  -1.779  0.00  0.00     0.066 H 
ATOM     39  H   LIG d   1       7.880  -9.318  -0.615  0.00  0.00     0.066 H 
ATOM     40  H   LIG d   1       6.644  -8.797  -1.784  0.00  0.00     0.066 H 
ENDBRANCH  36  37
ENDBRANCH  34  36
ENDBRANCH  28  34
ENDBRANCH  23  24
ENDBRANCH   1  23
BRANCH  13  41
ATOM     41  C   LIG d   1       2.743   0.513  -8.607  0.00  0.00     0.014 C 
ATOM     42  C   LIG d   1       2.740   2.051  -8.562  0.00  0.00    -0.037 C 
ATOM     43  C   LIG d   1       3.887   2.520  -9.482  0.00  0.00    -0.052 C 
ATOM     44  H   LIG d   1       1.788   2.434  -8.928  0.00  0.00     0.028 H 
ATOM     45  H   LIG d   1       2.915   2.395  -7.543  0.00  0.00     0.028 H 
ATOM     46  C   LIG d   1       4.096   1.339 -10.461  0.00  0.00    -0.052 C 
ATOM     47  H   LIG d   1       4.792   2.699  -8.902  0.00  0.00     0.027 H 
ATOM     48  H   LIG d   1       3.596   3.419 -10.025  0.00  0.00     0.027 H 
ATOM     49  C   LIG d   1       3.889   0.101  -9.552  0.00  0.00    -0.037 C 
ATOM     50  H   LIG d   1       5.105   1.351 -10.872  0.00  0.00     0.027 H 
ATOM     51  H   LIG d   1       3.352   1.361 -11.257  0.00  0.00     0.027 H 
ATOM     52  H   LIG d   1       4.795  -0.110  -8.984  0.00  0.00     0.028 H 
ATOM     53  H   LIG d   1       3.601  -0.765 -10.147  0.00  0.00     0.028 H 
ATOM     54  H   LIG d   1       1.790   0.149  -8.994  0.00  0.00     0.046 H 
ENDBRANCH  13  41
TORSDOF 6
ENDMDL
MODEL 6
REMARK VINA RESULT:      -6.8      2.705      3.567
REMARK  6 active torsions:
REMARK  status: ('A' for Active; 'I' for Inactive)
REMARK    1  A    between atoms: C_1  and  O_2 
REMARK    2  A    between atoms: O_2  and  C_3 
REMARK    3  A    between atoms: C_3  and  C_5 
REMARK    4  A    between atoms: C_8  and  O_11 
REMARK    5  A    between atoms: O_11  and  C_12 
REMARK    6  A    between atoms: N_24  and  C_27 
ROOT
ATOM      1  C   LIG d   1      10.794   3.974  -3.868  0.00  0.00     0.210 A 
ATOM      2  C   LIG d   1       9.689   3.758  -3.128  0.00  0.00     0.139 A 
ATOM      3  O   LIG d   1       8.906   2.684  -3.293  0.00  0.00    -0.459 OA
ATOM      4  C   LIG d   1       9.166   1.735  -4.215  0.00  0.00     0.146 A 
ATOM      5  C   LIG d   1      10.293   1.858  -5.046  0.00  0.00     0.068 A 
ATOM      6  C   LIG d   1      11.159   3.039  -4.878  0.00  0.00     0.234 A 
ATOM      7  O   LIG d   1      12.148   3.204  -5.571  0.00  0.00    -0.283 OA
ATOM      8  C   LIG d   1      10.570   0.883  -6.004  0.00  0.00    -0.044 A 
ATOM      9  C   LIG d   1       9.741  -0.194  -6.131  0.00  0.00    -0.019 A 
ATOM     10  C   LIG d   1       8.619  -0.328  -5.311  0.00  0.00     0.130 A 
ATOM     11  C   LIG d   1       8.333   0.631  -4.356  0.00  0.00     0.051 A 
ATOM     12  C   LIG d   1       7.131   0.493  -3.457  0.00  0.00     0.034 C 
ATOM     13  N   LIG d   1       6.195  -0.483  -4.032  0.00  0.00    -0.263 N 
ATOM     14  C   LIG d   1       6.912  -1.713  -4.403  0.00  0.00     0.144 C 
ATOM     15  O   LIG d   1       7.816  -1.412  -5.468  0.00  0.00    -0.476 OA
ATOM     16  H   LIG d   1       9.425   4.479  -2.369  0.00  0.00     0.107 H 
ATOM     17  H   LIG d   1      11.436   0.980  -6.642  0.00  0.00     0.063 H 
ATOM     18  H   LIG d   1       9.954  -0.949  -6.873  0.00  0.00     0.065 H 
ATOM     19  H   LIG d   1       7.451   0.154  -2.472  0.00  0.00     0.048 H 
ATOM     20  H   LIG d   1       6.635   1.461  -3.364  0.00  0.00     0.048 H 
ATOM     21  H   LIG d   1       7.470  -2.085  -3.543  0.00  0.00     0.087 H 
ATOM     22  H   LIG d   1       6.197  -2.468  -4.731  0.00  0.00     0.087 H 
ENDROOT
BRANCH   1  23
ATOM     23  O   LIG d   1      11.555   5.084  -3.656  0.00  0.00    -0.449 OA
BRANCH  23  24
ATOM     24  C   LIG d   1      11.061   6.280  -4.061  0.00  0.00     0.129 A 
ATOM     25  C   LIG d   1      10.752   7.258  -3.121  0.00  0.00    -0.019 A 
ATOM     26  C   LIG d   1      10.250   8.473  -3.529  0.00  0.00    -0.044 A 
ATOM     27  H   LIG d   1      10.906   7.063  -2.070  0.00  0.00     0.065 H 
ATOM     28  C   LIG d   1      10.051   8.724  -4.889  0.00  0.00     0.059 A 
ATOM     29  H   LIG d   1      10.011   9.232  -2.797  0.00  0.00     0.063 H 
ATOM     30  C   LIG d   1      10.356   7.737  -5.831  0.00  0.00    -0.044 A 
ATOM     31  C   LIG d   1      10.865   6.526  -5.416  0.00  0.00    -0.019 A 
ATOM     32  H   LIG d   1      10.199   7.925  -6.883  0.00  0.00     0.063 H 
ATOM     33  H   LIG d   1      11.106   5.765  -6.143  0.00  0.00     0.065 H 
BRANCH  28  34
ATOM     34  C   LIG d   1       9.513  10.025  -5.330  0.00  0.00     0.339 C 
ATOM     35  O   LIG d   1       9.589  10.349  -6.499  0.00  0.00    -0.245 OA
BRANCH  34  36
ATOM     36  O   LIG d   1       8.936  10.853  -4.438  0.00  0.00    -0.465 OA
BRANCH  36  37
ATOM     37  C   LIG d   1       9.329  12.226  -4.479  0.00  0.00     0.082 C 
ATOM     38  H   LIG d   1      10.029  12.379  -5.300  0.00  0.00     0.066 H 
ATOM     39  H   LIG d   1       8.449  12.852  -4.630  0.00  0.00     0.066 H 
ATOM     40  H   LIG d   1       9.808  12.495  -3.538  0.00  0.00     0.066 H 
ENDBRANCH  36  37
ENDBRANCH  34  36
ENDBRANCH  28  34
ENDBRANCH  23  24
ENDBRANCH   1  23
BRANCH  13  41
ATOM     41  C   LIG d   1       5.098  -0.773  -3.099  0.00  0.00     0.014 C 
ATOM     42  C   LIG d   1       4.893   0.413  -2.141  0.00  0.00    -0.037 C 
ATOM     43  C   LIG d   1       3.453   0.919  -2.369  0.00  0.00    -0.052 C 
ATOM     44  H   LIG d   1       5.014   0.085  -1.109  0.00  0.00     0.028 H 
ATOM     45  H   LIG d   1       5.607   1.204  -2.367  0.00  0.00     0.028 H 
ATOM     46  C   LIG d   1       2.708  -0.305  -2.955  0.00  0.00    -0.052 C 
ATOM     47  H   LIG d   1       3.448   1.746  -3.079  0.00  0.00     0.027 H 
ATOM     48  H   LIG d   1       3.002   1.224  -1.424  0.00  0.00     0.027 H 
ATOM     49  C   LIG d   1       3.776  -0.946  -3.876  0.00  0.00    -0.037 C 
ATOM     50  H   LIG d   1       1.840   0.012  -3.533  0.00  0.00     0.027 H 
ATOM     51  H   LIG d   1       2.416  -0.995  -2.164  0.00  0.00     0.027 H 
ATOM     52  H   LIG d   1       3.823  -0.421  -4.830  0.00  0.00     0.028 H 
ATOM     53  H   LIG d   1       3.561  -2.003  -4.031  0.00  0.00     0.028 H 
ATOM     54  H   LIG d   1       5.319  -1.678  -2.532  0.00  0.00     0.046 H 
ENDBRANCH  13  41
TORSDOF 6
ENDMDL
MODEL 7
REMARK VINA RESULT:      -6.7      3.147      8.895
REMARK  6 active torsions:
REMARK  status: ('A' for Active; 'I' for Inactive)
REMARK    1  A    between atoms: C_1  and  O_2 
REMARK    2  A    between atoms: O_2  and  C_3 
REMARK    3  A    between atoms: C_3  and  C_5 
REMARK    4  A    between atoms: C_8  and  O_11 
REMARK    5  A    between atoms: O_11  and  C_12 
REMARK    6  A    between atoms: N_24  and  C_27 
ROOT
ATOM      1  C   LIG d   1       9.125   1.838  -4.617  0.00  0.00     0.210 A 
ATOM      2  C   LIG d   1       9.265   2.556  -3.486  0.00  0.00     0.139 A 
ATOM      3  O   LIG d   1       9.520   3.871  -3.489  0.00  0.00    -0.459 OA
ATOM      4  C   LIG d   1       9.654   4.578  -4.630  0.00  0.00     0.146 A 
ATOM      5  C   LIG d   1       9.530   3.931  -5.871  0.00  0.00     0.068 A 
ATOM      6  C   LIG d   1       9.256   2.482  -5.880  0.00  0.00     0.234 A 
ATOM      7  O   LIG d   1       9.142   1.864  -6.925  0.00  0.00    -0.283 OA
ATOM      8  C   LIG d   1       9.669   4.652  -7.057  0.00  0.00    -0.044 A 
ATOM      9  C   LIG d   1       9.925   5.991  -7.006  0.00  0.00    -0.019 A 
ATOM     10  C   LIG d   1      10.050   6.645  -5.780  0.00  0.00     0.130 A 
ATOM     11  C   LIG d   1       9.913   5.943  -4.596  0.00  0.00     0.051 A 
ATOM     12  C   LIG d   1      10.036   6.638  -3.265  0.00  0.00     0.034 C 
ATOM     13  N   LIG d   1      10.701   7.936  -3.445  0.00  0.00    -0.263 N 
ATOM     14  C   LIG d   1      10.068   8.680  -4.546  0.00  0.00     0.144 C 
ATOM     15  O   LIG d   1      10.309   7.979  -5.768  0.00  0.00    -0.476 OA
ATOM     16  H   LIG d   1       9.166   2.051  -2.536  0.00  0.00     0.107 H 
ATOM     17  H   LIG d   1       9.574   4.153  -8.010  0.00  0.00     0.063 H 
ATOM     18  H   LIG d   1      10.035   6.551  -7.924  0.00  0.00     0.065 H 
ATOM     19  H   LIG d   1       9.043   6.795  -2.844  0.00  0.00     0.048 H 
ATOM     20  H   LIG d   1      10.624   6.020  -2.585  0.00  0.00     0.048 H 
ATOM     21  H   LIG d   1       8.995   8.751  -4.370  0.00  0.00     0.087 H 
ATOM     22  H   LIG d   1      10.498   9.680  -4.607  0.00  0.00     0.087 H 
ENDROOT
BRANCH   1  23
ATOM     23  O   LIG d   1       8.866   0.502  -4.554  0.00  0.00    -0.449 OA
BRANCH  23  24
ATOM     24  C   LIG d   1       7.647   0.111  -4.105  0.00  0.00     0.129 A 
ATOM     25  C   LIG d   1       7.256  -1.218  -4.224  0.00  0.00    -0.019 A 
ATOM     26  C   LIG d   1       6.020  -1.617  -3.770  0.00  0.00    -0.044 A 
ATOM     27  H   LIG d   1       7.924  -1.937  -4.676  0.00  0.00     0.065 H 
ATOM     28  C   LIG d   1       5.157  -0.685  -3.187  0.00  0.00     0.059 A 
ATOM     29  H   LIG d   1       5.718  -2.650  -3.864  0.00  0.00     0.063 H 
ATOM     30  C   LIG d   1       5.551   0.652  -3.074  0.00  0.00    -0.044 A 
ATOM     31  C   LIG d   1       6.792   1.042  -3.524  0.00  0.00    -0.019 A 
ATOM     32  H   LIG d   1       4.885   1.376  -2.628  0.00  0.00     0.063 H 
ATOM     33  H   LIG d   1       7.099   2.073  -3.432  0.00  0.00     0.065 H 
BRANCH  28  34
ATOM     34  C   LIG d   1       3.831  -1.109  -2.699  0.00  0.00     0.339 C 
ATOM     35  O   LIG d   1       3.710  -2.163  -2.107  0.00  0.00    -0.245 OA
BRANCH  34  36
ATOM     36  O   LIG d   1       2.755  -0.326  -2.908  0.00  0.00    -0.465 OA
BRANCH  36  37
ATOM     37  C   LIG d   1       2.409  -0.048  -4.266  0.00  0.00     0.082 C 
ATOM     38  H   LIG d   1       3.317   0.134  -4.842  0.00  0.00     0.066 H 
ATOM     39  H   LIG d   1       1.877  -0.900  -4.688  0.00  0.00     0.066 H 
ATOM     40  H   LIG d   1       1.771   0.835  -4.305  0.00  0.00     0.066 H 
ENDBRANCH  36  37
ENDBRANCH  34  36
ENDBRANCH  28  34
ENDBRANCH  23  24
ENDBRANCH   1  23
BRANCH  13  41
ATOM     41  C   LIG d   1      10.680   8.717  -2.201  0.00  0.00     0.014 C 
ATOM     42  C   LIG d   1      10.452  10.206  -2.517  0.00  0.00    -0.037 C 
ATOM     43  C   LIG d   1       9.140  10.609  -1.812  0.00  0.00    -0.052 C 
ATOM     44  H   LIG d   1      11.280  10.801  -2.132  0.00  0.00     0.028 H 
ATOM     45  H   LIG d   1      10.357  10.349  -3.593  0.00  0.00     0.028 H 
ATOM     46  C   LIG d   1       8.993   9.579  -0.664  0.00  0.00    -0.052 C 
ATOM     47  H   LIG d   1       8.299  10.535  -2.500  0.00  0.00     0.027 H 
ATOM     48  H   LIG d   1       9.219  11.619  -1.409  0.00  0.00     0.027 H 
ATOM     49  C   LIG d   1       9.500   8.268  -1.316  0.00  0.00    -0.037 C 
ATOM     50  H   LIG d   1       7.950   9.482  -0.363  0.00  0.00     0.027 H 
ATOM     51  H   LIG d   1       9.618   9.854   0.185  0.00  0.00     0.027 H 
ATOM     52  H   LIG d   1       8.717   7.816  -1.925  0.00  0.00     0.028 H 
ATOM     53  H   LIG d   1       9.841   7.569  -0.552  0.00  0.00     0.028 H 
ATOM     54  H   LIG d   1      11.620   8.589  -1.664  0.00  0.00     0.046 H 
ENDBRANCH  13  41
TORSDOF 6
ENDMDL
MODEL 8
REMARK VINA RESULT:      -6.7      1.914      2.961
REMARK  6 active torsions:
REMARK  status: ('A' for Active; 'I' for Inactive)
REMARK    1  A    between atoms: C_1  and  O_2 
REMARK    2  A    between atoms: O_2  and  C_3 
REMARK    3  A    between atoms: C_3  and  C_5 
REMARK    4  A    between atoms: C_8  and  O_11 
REMARK    5  A    between atoms: O_11  and  C_12 
REMARK    6  A    between atoms: N_24  and  C_27 
ROOT
ATOM      1  C   LIG d   1       9.531   3.082  -5.881  0.00  0.00     0.210 A 
ATOM      2  C   LIG d   1       8.694   2.648  -4.918  0.00  0.00     0.139 A 
ATOM      3  O   LIG d   1       7.797   1.675  -5.122  0.00  0.00    -0.459 OA
ATOM      4  C   LIG d   1       7.665   1.051  -6.311  0.00  0.00     0.146 A 
ATOM      5  C   LIG d   1       8.485   1.424  -7.390  0.00  0.00     0.068 A 
ATOM      6  C   LIG d   1       9.471   2.499  -7.180  0.00  0.00     0.234 A 
ATOM      7  O   LIG d   1      10.208   2.869  -8.078  0.00  0.00    -0.283 OA
ATOM      8  C   LIG d   1       8.355   0.787  -8.624  0.00  0.00    -0.044 A 
ATOM      9  C   LIG d   1       7.427  -0.202  -8.779  0.00  0.00    -0.019 A 
ATOM     10  C   LIG d   1       6.608  -0.581  -7.715  0.00  0.00     0.130 A 
ATOM     11  C   LIG d   1       6.727   0.042  -6.485  0.00  0.00     0.051 A 
ATOM     12  C   LIG d   1       5.855  -0.365  -5.325  0.00  0.00     0.034 C 
ATOM     13  N   LIG d   1       4.696  -1.122  -5.819  0.00  0.00    -0.263 N 
ATOM     14  C   LIG d   1       5.139  -2.180  -6.741  0.00  0.00     0.144 C 
ATOM     15  O   LIG d   1       5.693  -1.567  -7.907  0.00  0.00    -0.476 OA
ATOM     16  H   LIG d   1       8.750   3.104  -3.941  0.00  0.00     0.107 H 
ATOM     17  H   LIG d   1       8.986   1.075  -9.452  0.00  0.00     0.063 H 
ATOM     18  H   LIG d   1       7.325  -0.695  -9.735  0.00  0.00     0.065 H 
ATOM     19  H   LIG d   1       6.429  -0.988  -4.639  0.00  0.00     0.048 H 
ATOM     20  H   LIG d   1       5.509   0.527  -4.801  0.00  0.00     0.048 H 
ATOM     21  H   LIG d   1       5.898  -2.795  -6.255  0.00  0.00     0.087 H 
ATOM     22  H   LIG d   1       4.288  -2.800  -7.023  0.00  0.00     0.087 H 
ENDROOT
BRANCH   1  23
ATOM     23  O   LIG d   1      10.424   4.076  -5.618  0.00  0.00    -0.449 OA
BRANCH  23  24
ATOM     24  C   LIG d   1      10.255   4.798  -4.483  0.00  0.00     0.129 A 
ATOM     25  C   LIG d   1      10.876   4.397  -3.305  0.00  0.00    -0.019 A 
ATOM     26  C   LIG d   1      10.706   5.128  -2.151  0.00  0.00    -0.044 A 
ATOM     27  H   LIG d   1      11.493   3.511  -3.297  0.00  0.00     0.065 H 
ATOM     28  C   LIG d   1       9.907   6.275  -2.164  0.00  0.00     0.059 A 
ATOM     29  H   LIG d   1      11.190   4.815  -1.237  0.00  0.00     0.063 H 
ATOM     30  C   LIG d   1       9.279   6.672  -3.348  0.00  0.00    -0.044 A 
ATOM     31  C   LIG d   1       9.459   5.939  -4.500  0.00  0.00    -0.019 A 
ATOM     32  H   LIG d   1       8.657   7.555  -3.361  0.00  0.00     0.063 H 
ATOM     33  H   LIG d   1       8.979   6.248  -5.416  0.00  0.00     0.065 H 
BRANCH  28  34
ATOM     34  C   LIG d   1       9.722   7.061  -0.930  0.00  0.00     0.339 C 
ATOM     35  O   LIG d   1      10.292   6.732   0.092  0.00  0.00    -0.245 OA
BRANCH  34  36
ATOM     36  O   LIG d   1       8.921   8.145  -0.935  0.00  0.00    -0.465 OA
BRANCH  36  37
ATOM     37  C   LIG d   1       9.556   9.421  -0.846  0.00  0.00     0.082 C 
ATOM     38  H   LIG d   1       9.063  10.019  -0.080  0.00  0.00     0.066 H 
ATOM     39  H   LIG d   1      10.606   9.288  -0.583  0.00  0.00     0.066 H 
ATOM     40  H   LIG d   1       9.485   9.930  -1.807  0.00  0.00     0.066 H 
ENDBRANCH  36  37
ENDBRANCH  34  36
ENDBRANCH  28  34
ENDBRANCH  23  24
ENDBRANCH   1  23
BRANCH  13  41
ATOM     41  C   LIG d   1       3.919  -1.684  -4.706  0.00  0.00     0.014 C 
ATOM     42  C   LIG d   1       4.865  -2.312  -3.668  0.00  0.00    -0.037 C 
ATOM     43  C   LIG d   1       4.636  -1.549  -2.346  0.00  0.00    -0.052 C 
ATOM     44  H   LIG d   1       4.627  -3.367  -3.535  0.00  0.00     0.028 H 
ATOM     45  H   LIG d   1       5.900  -2.200  -3.989  0.00  0.00     0.028 H 
ATOM     46  C   LIG d   1       3.208  -0.966  -2.486  0.00  0.00    -0.052 C 
ATOM     47  H   LIG d   1       5.366  -0.747  -2.237  0.00  0.00     0.027 H 
ATOM     48  H   LIG d   1       4.688  -2.232  -1.498  0.00  0.00     0.027 H 
ATOM     49  C   LIG d   1       3.149  -0.562  -3.981  0.00  0.00    -0.037 C 
ATOM     50  H   LIG d   1       3.082  -0.094  -1.845  0.00  0.00     0.027 H 
ATOM     51  H   LIG d   1       2.458  -1.724  -2.262  0.00  0.00     0.027 H 
ATOM     52  H   LIG d   1       3.639   0.399  -4.136  0.00  0.00     0.028 H 
ATOM     53  H   LIG d   1       2.116  -0.524  -4.325  0.00  0.00     0.028 H 
ATOM     54  H   LIG d   1       3.222  -2.435  -5.080  0.00  0.00     0.046 H 
ENDBRANCH  13  41
TORSDOF 6
ENDMDL
MODEL 9
REMARK VINA RESULT:      -6.5      2.719      9.358
REMARK  6 active torsions:
REMARK  status: ('A' for Active; 'I' for Inactive)
REMARK    1  A    between atoms: C_1  and  O_2 
REMARK    2  A    between atoms: O_2  and  C_3 
REMARK    3  A    between atoms: C_3  and  C_5 
REMARK    4  A    between atoms: C_8  and  O_11 
REMARK    5  A    between atoms: O_11  and  C_12 
REMARK    6  A    between atoms: N_24  and  C_27 
ROOT
ATOM      1  C   LIG d   1       9.655   2.842  -4.361  0.00  0.00     0.210 A 
ATOM      2  C   LIG d   1       9.840   3.181  -3.070  0.00  0.00     0.139 A 
ATOM      3  O   LIG d   1       9.947   4.452  -2.662  0.00  0.00    -0.459 OA
ATOM      4  C   LIG d   1       9.876   5.494  -3.516  0.00  0.00     0.146 A 
ATOM      5  C   LIG d   1       9.686   5.259  -4.889  0.00  0.00     0.068 A 
ATOM      6  C   LIG d   1       9.574   3.863  -5.351  0.00  0.00     0.234 A 
ATOM      7  O   LIG d   1       9.413   3.596  -6.529  0.00  0.00    -0.283 OA
ATOM      8  C   LIG d   1       9.613   6.328  -5.782  0.00  0.00    -0.044 A 
ATOM      9  C   LIG d   1       9.725   7.606  -5.315  0.00  0.00    -0.019 A 
ATOM     10  C   LIG d   1       9.913   7.851  -3.954  0.00  0.00     0.130 A 
ATOM     11  C   LIG d   1       9.986   6.800  -3.057  0.00  0.00     0.051 A 
ATOM     12  C   LIG d   1      10.178   7.052  -1.584  0.00  0.00     0.034 C 
ATOM     13  N   LIG d   1      10.673   8.420  -1.377  0.00  0.00    -0.263 N 
ATOM     14  C   LIG d   1       9.844   9.377  -2.128  0.00  0.00     0.144 C 
ATOM     15  O   LIG d   1      10.023   9.136  -3.526  0.00  0.00    -0.476 OA
ATOM     16  H   LIG d   1       9.903   2.394  -2.333  0.00  0.00     0.107 H 
ATOM     17  H   LIG d   1       9.468   6.146  -6.836  0.00  0.00     0.063 H 
ATOM     18  H   LIG d   1       9.670   8.435  -6.005  0.00  0.00     0.065 H 
ATOM     19  H   LIG d   1       9.227   6.928  -1.067  0.00  0.00     0.048 H 
ATOM     20  H   LIG d   1      10.902   6.340  -1.186  0.00  0.00     0.048 H 
ATOM     21  H   LIG d   1       8.795   9.238  -1.865  0.00  0.00     0.087 H 
ATOM     22  H   LIG d   1      10.152  10.395  -1.890  0.00  0.00     0.087 H 
ENDROOT
BRANCH   1  23
ATOM     23  O   LIG d   1       9.553   1.532  -4.719  0.00  0.00    -0.449 OA
BRANCH  23  24
ATOM     24  C   LIG d   1       8.317   0.975  -4.744  0.00  0.00     0.129 A 
ATOM     25  C   LIG d   1       7.849   0.374  -5.908  0.00  0.00    -0.019 A 
ATOM     26  C   LIG d   1       6.596  -0.192  -5.938  0.00  0.00    -0.044 A 
ATOM     27  H   LIG d   1       8.472   0.354  -6.791  0.00  0.00     0.065 H 
ATOM     28  C   LIG d   1       5.791  -0.163  -4.795  0.00  0.00     0.059 A 
ATOM     29  H   LIG d   1       6.234  -0.658  -6.843  0.00  0.00     0.063 H 
ATOM     30  C   LIG d   1       6.262   0.446  -3.628  0.00  0.00    -0.044 A 
ATOM     31  C   LIG d   1       7.520   1.005  -3.605  0.00  0.00    -0.019 A 
ATOM     32  H   LIG d   1       5.641   0.474  -2.744  0.00  0.00     0.063 H 
ATOM     33  H   LIG d   1       7.886   1.471  -2.702  0.00  0.00     0.065 H 
BRANCH  28  34
ATOM     34  C   LIG d   1       4.446  -0.769  -4.821  0.00  0.00     0.339 C 
ATOM     35  O   LIG d   1       4.288  -1.876  -5.295  0.00  0.00    -0.245 OA
BRANCH  34  36
ATOM     36  O   LIG d   1       3.394  -0.094  -4.320  0.00  0.00    -0.465 OA
BRANCH  36  37
ATOM     37  C   LIG d   1       2.736  -0.666  -3.188  0.00  0.00     0.082 C 
ATOM     38  H   LIG d   1       3.226  -0.329  -2.274  0.00  0.00     0.066 H 
ATOM     39  H   LIG d   1       1.692  -0.352  -3.176  0.00  0.00     0.066 H 
ATOM     40  H   LIG d   1       2.787  -1.753  -3.248  0.00  0.00     0.066 H 
ENDBRANCH  36  37
ENDBRANCH  34  36
ENDBRANCH  28  34
ENDBRANCH  23  24
ENDBRANCH   1  23
BRANCH  13  41
ATOM     41  C   LIG d   1      10.704   8.759   0.052  0.00  0.00     0.014 C 
ATOM     42  C   LIG d   1      12.067   8.378   0.654  0.00  0.00    -0.037 C 
ATOM     43  C   LIG d   1      12.695   9.684   1.184  0.00  0.00    -0.052 C 
ATOM     44  H   LIG d   1      11.930   7.671   1.472  0.00  0.00     0.028 H 
ATOM     45  H   LIG d   1      12.706   7.941  -0.113  0.00  0.00     0.028 H 
ATOM     46  C   LIG d   1      11.484  10.617   1.427  0.00  0.00    -0.052 C 
ATOM     47  H   LIG d   1      13.365  10.115   0.440  0.00  0.00     0.027 H 
ATOM     48  H   LIG d   1      13.228   9.499   2.117  0.00  0.00     0.027 H 
ATOM     49  C   LIG d   1      10.551  10.283   0.236  0.00  0.00    -0.037 C 
ATOM     50  H   LIG d   1      11.789  11.663   1.397  0.00  0.00     0.027 H 
ATOM     51  H   LIG d   1      10.999  10.382   2.374  0.00  0.00     0.027 H 
ATOM     52  H   LIG d   1      10.874  10.810  -0.661  0.00  0.00     0.028 H 
ATOM     53  H   LIG d   1       9.519  10.536   0.478  0.00  0.00     0.028 H 
ATOM     54  H   LIG d   1       9.904   8.237   0.577  0.00  0.00     0.046 H 
ENDBRANCH  13  41
TORSDOF 6
ENDMDL
