MODEL 1
REMARK VINA RESULT:      -6.7      0.000      0.000
REMARK  12 active torsions:
REMARK  status: ('A' for Active; 'I' for Inactive)
REMARK    1  A    between atoms: C_1  and  C_2 
REMARK    2  A    between atoms: C_2  and  O_3 
REMARK    3  A    between atoms: O_3  and  C_4 
REMARK    4  A    between atoms: C_4  and  C_6 
REMARK    5  A    between atoms: C_6  and  C_20 
REMARK    6  A    between atoms: C_7  and  C_8 
REMARK    7  A    between atoms: C_7  and  C_14 
REMARK    8  A    between atoms: C_20  and  C_22 
REMARK    9  A    between atoms: C_20  and  N_28 
REMARK   10  A    between atoms: N_28  and  S_29 
REMARK   11  A    between atoms: S_29  and  C_32 
REMARK   12  A    between atoms: C_35  and  C_38 
ROOT
ATOM      1  C   LIG d   1       4.781  -2.100  -7.245  0.00  0.00     0.068 C 
ATOM      2  C   LIG d   1       4.579  -0.871  -6.690  0.00  0.00     0.001 C 
ENDROOT
BRANCH   1   3
ATOM      3  C   LIG d   1       4.624  -2.280  -8.638  0.00  0.00     0.338 C 
ATOM      4  O   LIG d   1       5.597  -2.258  -9.369  0.00  0.00    -0.245 OA
BRANCH   3   5
ATOM      5  O   LIG d   1       3.394  -2.477  -9.159  0.00  0.00    -0.462 OA
BRANCH   5   6
ATOM      6  C   LIG d   1       3.068  -1.750 -10.344  0.00  0.00     0.090 C 
ATOM      7  H   LIG d   1       3.770  -0.926 -10.470  0.00  0.00     0.070 H 
ATOM      8  H   LIG d   1       3.127  -2.414 -11.206  0.00  0.00     0.070 H 
BRANCH   6   9
ATOM      9  C   LIG d   1       1.646  -1.194 -10.226  0.00  0.00    -0.031 C 
ATOM     10  H   LIG d   1       1.180  -1.580  -9.320  0.00  0.00     0.026 H 
ATOM     11  H   LIG d   1       1.686  -0.105 -10.178  0.00  0.00     0.026 H 
ATOM     12  H   LIG d   1       1.063  -1.499 -11.094  0.00  0.00     0.026 H 
ENDBRANCH   6   9
ENDBRANCH   5   6
ENDBRANCH   3   5
ENDBRANCH   1   3
BRANCH   1  13
ATOM     13  C   LIG d   1       5.172  -3.265  -6.374  0.00  0.00     0.086 C 
ATOM     14  H   LIG d   1       4.455  -3.366  -5.559  0.00  0.00     0.058 H 
BRANCH  13  15
ATOM     15  C   LIG d   1       6.548  -3.030  -5.807  0.00  0.00    -0.024 A 
ATOM     16  C   LIG d   1       6.796  -3.277  -4.470  0.00  0.00    -0.057 A 
ATOM     17  C   LIG d   1       8.059  -3.061  -3.950  0.00  0.00    -0.061 A 
ATOM     18  H   LIG d   1       6.003  -3.637  -3.831  0.00  0.00     0.062 H 
ATOM     19  C   LIG d   1       9.074  -2.600  -4.767  0.00  0.00    -0.062 A 
ATOM     20  H   LIG d   1       8.253  -3.253  -2.905  0.00  0.00     0.062 H 
ATOM     21  C   LIG d   1       8.826  -2.354  -6.105  0.00  0.00    -0.061 A 
ATOM     22  H   LIG d   1      10.060  -2.431  -4.362  0.00  0.00     0.062 H 
ATOM     23  C   LIG d   1       7.564  -2.574  -6.626  0.00  0.00    -0.057 A 
ATOM     24  H   LIG d   1       9.618  -1.994  -6.744  0.00  0.00     0.062 H 
ATOM     25  H   LIG d   1       7.371  -2.386  -7.672  0.00  0.00     0.062 H 
ENDBRANCH  13  15
BRANCH  13  26
ATOM     26  N   LIG d   1       5.176  -4.493  -7.174  0.00  0.00    -0.178 N 
ATOM     27  H   LIG d   1       5.696  -4.537  -7.991  0.00  0.00     0.149 HD
BRANCH  26  28
ATOM     28  S   LIG d   1       4.294  -5.805  -6.682  0.00  0.00     0.059 S 
ATOM     29  O   LIG d   1       3.867  -6.474  -7.862  0.00  0.00    -0.153 OA
ATOM     30  O   LIG d   1       3.381  -5.336  -5.700  0.00  0.00    -0.153 OA
BRANCH  28  31
ATOM     31  C   LIG d   1       5.403  -6.899  -5.858  0.00  0.00     0.105 A 
ATOM     32  C   LIG d   1       4.932  -8.080  -5.314  0.00  0.00    -0.035 A 
ATOM     33  C   LIG d   1       5.803  -8.940  -4.671  0.00  0.00    -0.057 A 
ATOM     34  H   LIG d   1       3.884  -8.329  -5.390  0.00  0.00     0.064 H 
ATOM     35  C   LIG d   1       7.145  -8.621  -4.575  0.00  0.00    -0.050 A 
ATOM     36  H   LIG d   1       5.435  -9.862  -4.246  0.00  0.00     0.062 H 
ATOM     37  C   LIG d   1       7.615  -7.440  -5.119  0.00  0.00    -0.057 A 
ATOM     38  C   LIG d   1       6.744  -6.579  -5.760  0.00  0.00    -0.035 A 
ATOM     39  H   LIG d   1       8.663  -7.191  -5.043  0.00  0.00     0.062 H 
ATOM     40  H   LIG d   1       7.112  -5.657  -6.185  0.00  0.00     0.064 H 
BRANCH  35  41
ATOM     41  C   LIG d   1       8.094  -9.559  -3.875  0.00  0.00    -0.040 C 
ATOM     42  H   LIG d   1       7.580 -10.495  -3.652  0.00  0.00     0.028 H 
ATOM     43  H   LIG d   1       8.949  -9.759  -4.520  0.00  0.00     0.028 H 
ATOM     44  H   LIG d   1       8.437  -9.103  -2.946  0.00  0.00     0.028 H 
ENDBRANCH  35  41
ENDBRANCH  28  31
ENDBRANCH  26  28
ENDBRANCH  13  26
ENDBRANCH   1  13
BRANCH   2  45
ATOM     45  C   LIG d   1       4.320   0.299  -7.555  0.00  0.00    -0.017 A 
ATOM     46  C   LIG d   1       3.039   0.850  -7.625  0.00  0.00    -0.054 A 
ATOM     47  C   LIG d   1       2.806   1.942  -8.435  0.00  0.00    -0.061 A 
ATOM     48  H   LIG d   1       2.235   0.425  -7.044  0.00  0.00     0.062 H 
ATOM     49  C   LIG d   1       3.836   2.490  -9.178  0.00  0.00    -0.062 A 
ATOM     50  H   LIG d   1       1.816   2.371  -8.489  0.00  0.00     0.062 H 
ATOM     51  C   LIG d   1       5.108   1.946  -9.115  0.00  0.00    -0.061 A 
ATOM     52  H   LIG d   1       3.648   3.344  -9.811  0.00  0.00     0.062 H 
ATOM     53  C   LIG d   1       5.357   0.859  -8.304  0.00  0.00    -0.054 A 
ATOM     54  H   LIG d   1       5.908   2.379  -9.698  0.00  0.00     0.062 H 
ATOM     55  H   LIG d   1       6.352   0.440  -8.252  0.00  0.00     0.062 H 
ENDBRANCH   2  45
BRANCH   2  56
ATOM     56  C   LIG d   1       4.618  -0.709  -5.221  0.00  0.00    -0.017 A 
ATOM     57  C   LIG d   1       5.665  -0.006  -4.620  0.00  0.00    -0.054 A 
ATOM     58  C   LIG d   1       5.696   0.142  -3.249  0.00  0.00    -0.061 A 
ATOM     59  H   LIG d   1       6.448   0.423  -5.229  0.00  0.00     0.062 H 
ATOM     60  C   LIG d   1       4.692  -0.405  -2.469  0.00  0.00    -0.062 A 
ATOM     61  H   LIG d   1       6.504   0.686  -2.784  0.00  0.00     0.062 H 
ATOM     62  C   LIG d   1       3.652  -1.104  -3.057  0.00  0.00    -0.061 A 
ATOM     63  H   LIG d   1       4.722  -0.287  -1.396  0.00  0.00     0.062 H 
ATOM     64  C   LIG d   1       3.607  -1.254  -4.428  0.00  0.00    -0.054 A 
ATOM     65  H   LIG d   1       2.873  -1.528  -2.441  0.00  0.00     0.062 H 
ATOM     66  H   LIG d   1       2.791  -1.795  -4.885  0.00  0.00     0.062 H 
ENDBRANCH   2  56
TORSDOF 12
ENDMDL
MODEL 2
REMARK VINA RESULT:      -6.7      1.855      7.004
REMARK  12 active torsions:
REMARK  status: ('A' for Active; 'I' for Inactive)
REMARK    1  A    between atoms: C_1  and  C_2 
REMARK    2  A    between atoms: C_2  and  O_3 
REMARK    3  A    between atoms: O_3  and  C_4 
REMARK    4  A    between atoms: C_4  and  C_6 
REMARK    5  A    between atoms: C_6  and  C_20 
REMARK    6  A    between atoms: C_7  and  C_8 
REMARK    7  A    between atoms: C_7  and  C_14 
REMARK    8  A    between atoms: C_20  and  C_22 
REMARK    9  A    between atoms: C_20  and  N_28 
REMARK   10  A    between atoms: N_28  and  S_29 
REMARK   11  A    between atoms: S_29  and  C_32 
REMARK   12  A    between atoms: C_35  and  C_38 
ROOT
ATOM      1  C   LIG d   1       6.562  -2.994  -5.414  0.00  0.00     0.068 C 
ATOM      2  C   LIG d   1       7.609  -2.313  -4.868  0.00  0.00     0.001 C 
ENDROOT
BRANCH   1   3
ATOM      3  C   LIG d   1       6.610  -4.403  -5.512  0.00  0.00     0.338 C 
ATOM      4  O   LIG d   1       5.833  -5.085  -4.869  0.00  0.00    -0.245 OA
BRANCH   3   5
ATOM      5  O   LIG d   1       7.517  -4.994  -6.319  0.00  0.00    -0.462 OA
BRANCH   5   6
ATOM      6  C   LIG d   1       7.647  -6.413  -6.218  0.00  0.00     0.090 C 
ATOM      7  H   LIG d   1       6.739  -6.832  -5.785  0.00  0.00     0.070 H 
ATOM      8  H   LIG d   1       7.806  -6.835  -7.210  0.00  0.00     0.070 H 
BRANCH   6   9
ATOM      9  C   LIG d   1       8.841  -6.752  -5.322  0.00  0.00    -0.031 C 
ATOM     10  H   LIG d   1       8.482  -7.063  -4.341  0.00  0.00     0.026 H 
ATOM     11  H   LIG d   1       9.415  -7.562  -5.773  0.00  0.00     0.026 H 
ATOM     12  H   LIG d   1       9.476  -5.874  -5.215  0.00  0.00     0.026 H 
ENDBRANCH   6   9
ENDBRANCH   5   6
ENDBRANCH   3   5
ENDBRANCH   1   3
BRANCH   1  13
ATOM     13  C   LIG d   1       5.355  -2.245  -5.915  0.00  0.00     0.086 C 
ATOM     14  H   LIG d   1       5.678  -1.401  -6.525  0.00  0.00     0.058 H 
BRANCH  13  15
ATOM     15  C   LIG d   1       4.554  -1.740  -4.742  0.00  0.00    -0.024 A 
ATOM     16  C   LIG d   1       3.866  -0.545  -4.838  0.00  0.00    -0.057 A 
ATOM     17  C   LIG d   1       3.132  -0.082  -3.762  0.00  0.00    -0.061 A 
ATOM     18  H   LIG d   1       3.904   0.028  -5.754  0.00  0.00     0.062 H 
ATOM     19  C   LIG d   1       3.085  -0.814  -2.591  0.00  0.00    -0.062 A 
ATOM     20  H   LIG d   1       2.595   0.852  -3.837  0.00  0.00     0.062 H 
ATOM     21  C   LIG d   1       3.772  -2.010  -2.496  0.00  0.00    -0.061 A 
ATOM     22  H   LIG d   1       2.511  -0.453  -1.751  0.00  0.00     0.062 H 
ATOM     23  C   LIG d   1       4.502  -2.475  -3.573  0.00  0.00    -0.057 A 
ATOM     24  H   LIG d   1       3.735  -2.582  -1.581  0.00  0.00     0.062 H 
ATOM     25  H   LIG d   1       5.036  -3.411  -3.500  0.00  0.00     0.062 H 
ENDBRANCH  13  15
BRANCH  13  26
ATOM     26  N   LIG d   1       4.524  -3.142  -6.724  0.00  0.00    -0.178 N 
ATOM     27  H   LIG d   1       4.061  -3.882  -6.305  0.00  0.00     0.149 HD
BRANCH  26  28
ATOM     28  S   LIG d   1       4.376  -2.889  -8.354  0.00  0.00     0.059 S 
ATOM     29  O   LIG d   1       3.143  -3.476  -8.746  0.00  0.00    -0.153 OA
ATOM     30  O   LIG d   1       5.617  -3.262  -8.937  0.00  0.00    -0.153 OA
BRANCH  28  31
ATOM     31  C   LIG d   1       4.207  -1.152  -8.598  0.00  0.00     0.105 A 
ATOM     32  C   LIG d   1       5.309  -0.392  -8.944  0.00  0.00    -0.035 A 
ATOM     33  C   LIG d   1       5.175   0.970  -9.140  0.00  0.00    -0.057 A 
ATOM     34  H   LIG d   1       6.275  -0.862  -9.058  0.00  0.00     0.064 H 
ATOM     35  C   LIG d   1       3.939   1.571  -8.993  0.00  0.00    -0.050 A 
ATOM     36  H   LIG d   1       6.036   1.564  -9.409  0.00  0.00     0.062 H 
ATOM     37  C   LIG d   1       2.837   0.811  -8.648  0.00  0.00    -0.057 A 
ATOM     38  C   LIG d   1       2.971  -0.550  -8.449  0.00  0.00    -0.035 A 
ATOM     39  H   LIG d   1       1.872   1.281  -8.533  0.00  0.00     0.062 H 
ATOM     40  H   LIG d   1       2.110  -1.144  -8.180  0.00  0.00     0.064 H 
BRANCH  35  41
ATOM     41  C   LIG d   1       3.793   3.056  -9.208  0.00  0.00    -0.040 C 
ATOM     42  H   LIG d   1       3.439   3.522  -8.289  0.00  0.00     0.028 H 
ATOM     43  H   LIG d   1       4.759   3.480  -9.481  0.00  0.00     0.028 H 
ATOM     44  H   LIG d   1       3.077   3.240 -10.008  0.00  0.00     0.028 H 
ENDBRANCH  35  41
ENDBRANCH  28  31
ENDBRANCH  26  28
ENDBRANCH  13  26
ENDBRANCH   1  13
BRANCH   2  45
ATOM     45  C   LIG d   1       8.736  -3.052  -4.261  0.00  0.00    -0.017 A 
ATOM     46  C   LIG d   1       9.953  -3.153  -4.939  0.00  0.00    -0.054 A 
ATOM     47  C   LIG d   1      11.001  -3.844  -4.367  0.00  0.00    -0.061 A 
ATOM     48  H   LIG d   1      10.074  -2.690  -5.906  0.00  0.00     0.062 H 
ATOM     49  C   LIG d   1      10.849  -4.437  -3.126  0.00  0.00    -0.062 A 
ATOM     50  H   LIG d   1      11.943  -3.922  -4.889  0.00  0.00     0.062 H 
ATOM     51  C   LIG d   1       9.644  -4.341  -2.450  0.00  0.00    -0.061 A 
ATOM     52  H   LIG d   1      11.672  -4.977  -2.683  0.00  0.00     0.062 H 
ATOM     53  C   LIG d   1       8.590  -3.647  -3.007  0.00  0.00    -0.054 A 
ATOM     54  H   LIG d   1       9.532  -4.806  -1.481  0.00  0.00     0.062 H 
ATOM     55  H   LIG d   1       7.653  -3.569  -2.476  0.00  0.00     0.062 H 
ENDBRANCH   2  45
BRANCH   2  56
ATOM     56  C   LIG d   1       7.616  -0.835  -4.880  0.00  0.00    -0.017 A 
ATOM     57  C   LIG d   1       7.896  -0.144  -6.061  0.00  0.00    -0.054 A 
ATOM     58  C   LIG d   1       7.900   1.236  -6.065  0.00  0.00    -0.061 A 
ATOM     59  H   LIG d   1       8.107  -0.689  -6.970  0.00  0.00     0.062 H 
ATOM     60  C   LIG d   1       7.629   1.935  -4.902  0.00  0.00    -0.062 A 
ATOM     61  H   LIG d   1       8.116   1.771  -6.978  0.00  0.00     0.062 H 
ATOM     62  C   LIG d   1       7.351   1.257  -3.728  0.00  0.00    -0.061 A 
ATOM     63  H   LIG d   1       7.634   3.015  -4.911  0.00  0.00     0.062 H 
ATOM     64  C   LIG d   1       7.338  -0.123  -3.711  0.00  0.00    -0.054 A 
ATOM     65  H   LIG d   1       7.141   1.809  -2.824  0.00  0.00     0.062 H 
ATOM     66  H   LIG d   1       7.116  -0.650  -2.795  0.00  0.00     0.062 H 
ENDBRANCH   2  56
TORSDOF 12
ENDMDL
MODEL 3
REMARK VINA RESULT:      -6.7      3.672      7.526
REMARK  12 active torsions:
REMARK  status: ('A' for Active; 'I' for Inactive)
REMARK    1  A    between atoms: C_1  and  C_2 
REMARK    2  A    between atoms: C_2  and  O_3 
REMARK    3  A    between atoms: O_3  and  C_4 
REMARK    4  A    between atoms: C_4  and  C_6 
REMARK    5  A    between atoms: C_6  and  C_20 
REMARK    6  A    between atoms: C_7  and  C_8 
REMARK    7  A    between atoms: C_7  and  C_14 
REMARK    8  A    between atoms: C_20  and  C_22 
REMARK    9  A    between atoms: C_20  and  N_28 
REMARK   10  A    between atoms: N_28  and  S_29 
REMARK   11  A    between atoms: S_29  and  C_32 
REMARK   12  A    between atoms: C_35  and  C_38 
ROOT
ATOM      1  C   LIG d   1       6.062  -1.084  -6.062  0.00  0.00     0.068 C 
ATOM      2  C   LIG d   1       6.390  -2.340  -6.475  0.00  0.00     0.001 C 
ENDROOT
BRANCH   1   3
ATOM      3  C   LIG d   1       5.011  -0.384  -6.696  0.00  0.00     0.338 C 
ATOM      4  O   LIG d   1       5.263   0.492  -7.504  0.00  0.00    -0.245 OA
BRANCH   3   5
ATOM      5  O   LIG d   1       3.727  -0.685  -6.408  0.00  0.00    -0.462 OA
BRANCH   5   6
ATOM      6  C   LIG d   1       2.831   0.411  -6.214  0.00  0.00     0.090 C 
ATOM      7  H   LIG d   1       3.345   1.345  -6.442  0.00  0.00     0.070 H 
ATOM      8  H   LIG d   1       1.971   0.298  -6.874  0.00  0.00     0.070 H 
BRANCH   6   9
ATOM      9  C   LIG d   1       2.358   0.431  -4.758  0.00  0.00    -0.031 C 
ATOM     10  H   LIG d   1       2.220  -0.591  -4.408  0.00  0.00     0.026 H 
ATOM     11  H   LIG d   1       3.107   0.929  -4.141  0.00  0.00     0.026 H 
ATOM     12  H   LIG d   1       1.414   0.971  -4.690  0.00  0.00     0.026 H 
ENDBRANCH   6   9
ENDBRANCH   5   6
ENDBRANCH   3   5
ENDBRANCH   1   3
BRANCH   1  13
ATOM     13  C   LIG d   1       6.818  -0.441  -4.929  0.00  0.00     0.086 C 
ATOM     14  H   LIG d   1       7.687  -1.050  -4.680  0.00  0.00     0.058 H 
BRANCH  13  15
ATOM     15  C   LIG d   1       5.919  -0.330  -3.724  0.00  0.00    -0.024 A 
ATOM     16  C   LIG d   1       5.695   0.904  -3.140  0.00  0.00    -0.057 A 
ATOM     17  C   LIG d   1       4.871   1.005  -2.035  0.00  0.00    -0.061 A 
ATOM     18  H   LIG d   1       6.164   1.787  -3.548  0.00  0.00     0.062 H 
ATOM     19  C   LIG d   1       4.271  -0.126  -1.513  0.00  0.00    -0.062 A 
ATOM     20  H   LIG d   1       4.696   1.968  -1.579  0.00  0.00     0.062 H 
ATOM     21  C   LIG d   1       4.495  -1.359  -2.098  0.00  0.00    -0.061 A 
ATOM     22  H   LIG d   1       3.627  -0.046  -0.650  0.00  0.00     0.062 H 
ATOM     23  C   LIG d   1       5.315  -1.459  -3.206  0.00  0.00    -0.057 A 
ATOM     24  H   LIG d   1       4.026  -2.242  -1.690  0.00  0.00     0.062 H 
ATOM     25  H   LIG d   1       5.487  -2.422  -3.665  0.00  0.00     0.062 H 
ENDBRANCH  13  15
BRANCH  13  26
ATOM     26  N   LIG d   1       7.260   0.897  -5.333  0.00  0.00    -0.178 N 
ATOM     27  H   LIG d   1       6.613   1.613  -5.429  0.00  0.00     0.149 HD
BRANCH  26  28
ATOM     28  S   LIG d   1       8.864   1.186  -5.625  0.00  0.00     0.059 S 
ATOM     29  O   LIG d   1       8.994   1.378  -7.028  0.00  0.00    -0.153 OA
ATOM     30  O   LIG d   1       9.591   0.187  -4.923  0.00  0.00    -0.153 OA
BRANCH  28  31
ATOM     31  C   LIG d   1       9.263   2.726  -4.867  0.00  0.00     0.105 A 
ATOM     32  C   LIG d   1       9.340   3.874  -5.634  0.00  0.00    -0.035 A 
ATOM     33  C   LIG d   1       9.648   5.083  -5.038  0.00  0.00    -0.057 A 
ATOM     34  H   LIG d   1       9.162   3.825  -6.698  0.00  0.00     0.064 H 
ATOM     35  C   LIG d   1       9.877   5.144  -3.676  0.00  0.00    -0.050 A 
ATOM     36  H   LIG d   1       9.709   5.980  -5.637  0.00  0.00     0.062 H 
ATOM     37  C   LIG d   1       9.799   3.996  -2.910  0.00  0.00    -0.057 A 
ATOM     38  C   LIG d   1       9.493   2.787  -3.506  0.00  0.00    -0.035 A 
ATOM     39  H   LIG d   1       9.978   4.044  -1.846  0.00  0.00     0.062 H 
ATOM     40  H   LIG d   1       9.433   1.890  -2.907  0.00  0.00     0.064 H 
BRANCH  35  41
ATOM     41  C   LIG d   1      10.212   6.463  -3.027  0.00  0.00    -0.040 C 
ATOM     42  H   LIG d   1       9.317   7.083  -2.983  0.00  0.00     0.028 H 
ATOM     43  H   LIG d   1      10.583   6.287  -2.018  0.00  0.00     0.028 H 
ATOM     44  H   LIG d   1      10.978   6.971  -3.612  0.00  0.00     0.028 H 
ENDBRANCH  35  41
ENDBRANCH  28  31
ENDBRANCH  26  28
ENDBRANCH  13  26
ENDBRANCH   1  13
BRANCH   2  45
ATOM     45  C   LIG d   1       5.569  -3.021  -7.499  0.00  0.00    -0.017 A 
ATOM     46  C   LIG d   1       5.858  -2.853  -8.854  0.00  0.00    -0.054 A 
ATOM     47  C   LIG d   1       5.087  -3.491  -9.804  0.00  0.00    -0.061 A 
ATOM     48  H   LIG d   1       6.683  -2.227  -9.159  0.00  0.00     0.062 H 
ATOM     49  C   LIG d   1       4.030  -4.296  -9.416  0.00  0.00    -0.062 A 
ATOM     50  H   LIG d   1       5.309  -3.363 -10.853  0.00  0.00     0.062 H 
ATOM     51  C   LIG d   1       3.739  -4.465  -8.073  0.00  0.00    -0.061 A 
ATOM     52  H   LIG d   1       3.430  -4.792 -10.163  0.00  0.00     0.062 H 
ATOM     53  C   LIG d   1       4.505  -3.838  -7.113  0.00  0.00    -0.054 A 
ATOM     54  H   LIG d   1       2.912  -5.095  -7.778  0.00  0.00     0.062 H 
ATOM     55  H   LIG d   1       4.279  -3.976  -6.066  0.00  0.00     0.062 H 
ENDBRANCH   2  45
BRANCH   2  56
ATOM     56  C   LIG d   1       7.568  -3.023  -5.899  0.00  0.00    -0.017 A 
ATOM     57  C   LIG d   1       7.420  -3.870  -4.799  0.00  0.00    -0.054 A 
ATOM     58  C   LIG d   1       8.524  -4.503  -4.266  0.00  0.00    -0.061 A 
ATOM     59  H   LIG d   1       6.443  -4.029  -4.366  0.00  0.00     0.062 H 
ATOM     60  C   LIG d   1       9.776  -4.301  -4.820  0.00  0.00    -0.062 A 
ATOM     61  H   LIG d   1       8.410  -5.159  -3.416  0.00  0.00     0.062 H 
ATOM     62  C   LIG d   1       9.930  -3.463  -5.910  0.00  0.00    -0.061 A 
ATOM     63  H   LIG d   1      10.636  -4.800  -4.399  0.00  0.00     0.062 H 
ATOM     64  C   LIG d   1       8.834  -2.827  -6.456  0.00  0.00    -0.054 A 
ATOM     65  H   LIG d   1      10.910  -3.309  -6.337  0.00  0.00     0.062 H 
ATOM     66  H   LIG d   1       8.955  -2.177  -7.310  0.00  0.00     0.062 H 
ENDBRANCH   2  56
TORSDOF 12
ENDMDL
MODEL 4
REMARK VINA RESULT:      -6.7      2.455      6.383
REMARK  12 active torsions:
REMARK  status: ('A' for Active; 'I' for Inactive)
REMARK    1  A    between atoms: C_1  and  C_2 
REMARK    2  A    between atoms: C_2  and  O_3 
REMARK    3  A    between atoms: O_3  and  C_4 
REMARK    4  A    between atoms: C_4  and  C_6 
REMARK    5  A    between atoms: C_6  and  C_20 
REMARK    6  A    between atoms: C_7  and  C_8 
REMARK    7  A    between atoms: C_7  and  C_14 
REMARK    8  A    between atoms: C_20  and  C_22 
REMARK    9  A    between atoms: C_20  and  N_28 
REMARK   10  A    between atoms: N_28  and  S_29 
REMARK   11  A    between atoms: S_29  and  C_32 
REMARK   12  A    between atoms: C_35  and  C_38 
ROOT
ATOM      1  C   LIG d   1       6.505  -1.830  -5.661  0.00  0.00     0.068 C 
ATOM      2  C   LIG d   1       5.293  -2.403  -5.414  0.00  0.00     0.001 C 
ENDROOT
BRANCH   1   3
ATOM      3  C   LIG d   1       6.768  -0.514  -5.217  0.00  0.00     0.338 C 
ATOM      4  O   LIG d   1       6.663   0.422  -5.989  0.00  0.00    -0.245 OA
BRANCH   3   5
ATOM      5  O   LIG d   1       7.136  -0.293  -3.937  0.00  0.00    -0.462 OA
BRANCH   5   6
ATOM      6  C   LIG d   1       7.068   1.053  -3.466  0.00  0.00     0.090 C 
ATOM      7  H   LIG d   1       7.868   1.227  -2.746  0.00  0.00     0.070 H 
ATOM      8  H   LIG d   1       7.177   1.739  -4.305  0.00  0.00     0.070 H 
BRANCH   6   9
ATOM      9  C   LIG d   1       5.715   1.288  -2.788  0.00  0.00    -0.031 C 
ATOM     10  H   LIG d   1       5.036   1.770  -3.492  0.00  0.00     0.026 H 
ATOM     11  H   LIG d   1       5.295   0.333  -2.475  0.00  0.00     0.026 H 
ATOM     12  H   LIG d   1       5.851   1.929  -1.918  0.00  0.00     0.026 H 
ENDBRANCH   6   9
ENDBRANCH   5   6
ENDBRANCH   3   5
ENDBRANCH   1   3
BRANCH   1  13
ATOM     13  C   LIG d   1       7.564  -2.598  -6.408  0.00  0.00     0.086 C 
ATOM     14  H   LIG d   1       7.124  -3.495  -6.843  0.00  0.00     0.058 H 
BRANCH  13  15
ATOM     15  C   LIG d   1       8.665  -2.991  -5.456  0.00  0.00    -0.024 A 
ATOM     16  C   LIG d   1       9.966  -2.594  -5.702  0.00  0.00    -0.057 A 
ATOM     17  C   LIG d   1      10.975  -2.955  -4.829  0.00  0.00    -0.061 A 
ATOM     18  H   LIG d   1      10.194  -2.004  -6.578  0.00  0.00     0.062 H 
ATOM     19  C   LIG d   1      10.684  -3.710  -3.709  0.00  0.00    -0.062 A 
ATOM     20  H   LIG d   1      11.992  -2.645  -5.022  0.00  0.00     0.062 H 
ATOM     21  C   LIG d   1       9.382  -4.106  -3.462  0.00  0.00    -0.061 A 
ATOM     22  H   LIG d   1      11.472  -3.992  -3.027  0.00  0.00     0.062 H 
ATOM     23  C   LIG d   1       8.373  -3.742  -4.333  0.00  0.00    -0.057 A 
ATOM     24  H   LIG d   1       9.155  -4.696  -2.587  0.00  0.00     0.062 H 
ATOM     25  H   LIG d   1       7.355  -4.047  -4.138  0.00  0.00     0.062 H 
ENDBRANCH  13  15
BRANCH  13  26
ATOM     26  N   LIG d   1       8.117  -1.758  -7.474  0.00  0.00    -0.178 N 
ATOM     27  H   LIG d   1       8.877  -1.184  -7.293  0.00  0.00     0.149 HD
BRANCH  26  28
ATOM     28  S   LIG d   1       7.446  -1.792  -8.987  0.00  0.00     0.059 S 
ATOM     29  O   LIG d   1       6.818  -3.060  -9.125  0.00  0.00    -0.153 OA
ATOM     30  O   LIG d   1       8.447  -1.337  -9.886  0.00  0.00    -0.153 OA
BRANCH  28  31
ATOM     31  C   LIG d   1       6.159  -0.588  -9.013  0.00  0.00     0.105 A 
ATOM     32  C   LIG d   1       4.849  -0.973  -8.800  0.00  0.00    -0.035 A 
ATOM     33  C   LIG d   1       3.840  -0.028  -8.815  0.00  0.00    -0.057 A 
ATOM     34  H   LIG d   1       4.613  -2.012  -8.622  0.00  0.00     0.064 H 
ATOM     35  C   LIG d   1       4.142   1.302  -9.042  0.00  0.00    -0.050 A 
ATOM     36  H   LIG d   1       2.816  -0.328  -8.649  0.00  0.00     0.062 H 
ATOM     37  C   LIG d   1       5.453   1.686  -9.256  0.00  0.00    -0.057 A 
ATOM     38  C   LIG d   1       6.461   0.741  -9.242  0.00  0.00    -0.035 A 
ATOM     39  H   LIG d   1       5.688   2.725  -9.434  0.00  0.00     0.062 H 
ATOM     40  H   LIG d   1       7.485   1.042  -9.409  0.00  0.00     0.064 H 
BRANCH  35  41
ATOM     41  C   LIG d   1       3.042   2.332  -9.059  0.00  0.00    -0.040 C 
ATOM     42  H   LIG d   1       3.400   3.253  -8.601  0.00  0.00     0.028 H 
ATOM     43  H   LIG d   1       2.745   2.530 -10.089  0.00  0.00     0.028 H 
ATOM     44  H   LIG d   1       2.184   1.957  -8.500  0.00  0.00     0.028 H 
ENDBRANCH  35  41
ENDBRANCH  28  31
ENDBRANCH  26  28
ENDBRANCH  13  26
ENDBRANCH   1  13
BRANCH   2  45
ATOM     45  C   LIG d   1       4.300  -1.701  -4.574  0.00  0.00    -0.017 A 
ATOM     46  C   LIG d   1       4.125  -2.071  -3.239  0.00  0.00    -0.054 A 
ATOM     47  C   LIG d   1       3.196  -1.411  -2.461  0.00  0.00    -0.061 A 
ATOM     48  H   LIG d   1       4.715  -2.870  -2.817  0.00  0.00     0.062 H 
ATOM     49  C   LIG d   1       2.439  -0.386  -3.000  0.00  0.00    -0.062 A 
ATOM     50  H   LIG d   1       3.060  -1.696  -1.428  0.00  0.00     0.062 H 
ATOM     51  C   LIG d   1       2.608  -0.015  -4.323  0.00  0.00    -0.061 A 
ATOM     52  H   LIG d   1       1.714   0.126  -2.387  0.00  0.00     0.062 H 
ATOM     53  C   LIG d   1       3.537  -0.662  -5.111  0.00  0.00    -0.054 A 
ATOM     54  H   LIG d   1       2.013   0.786  -4.737  0.00  0.00     0.062 H 
ATOM     55  H   LIG d   1       3.671  -0.368  -6.142  0.00  0.00     0.062 H 
ENDBRANCH   2  45
BRANCH   2  56
ATOM     56  C   LIG d   1       4.972  -3.727  -5.986  0.00  0.00    -0.017 A 
ATOM     57  C   LIG d   1       5.361  -4.892  -5.322  0.00  0.00    -0.054 A 
ATOM     58  C   LIG d   1       5.058  -6.125  -5.862  0.00  0.00    -0.061 A 
ATOM     59  H   LIG d   1       5.897  -4.828  -4.386  0.00  0.00     0.062 H 
ATOM     60  C   LIG d   1       4.370  -6.209  -7.059  0.00  0.00    -0.062 A 
ATOM     61  H   LIG d   1       5.358  -7.026  -5.348  0.00  0.00     0.062 H 
ATOM     62  C   LIG d   1       3.982  -5.059  -7.724  0.00  0.00    -0.061 A 
ATOM     63  H   LIG d   1       4.136  -7.177  -7.477  0.00  0.00     0.062 H 
ATOM     64  C   LIG d   1       4.274  -3.820  -7.192  0.00  0.00    -0.054 A 
ATOM     65  H   LIG d   1       3.446  -5.132  -8.659  0.00  0.00     0.062 H 
ATOM     66  H   LIG d   1       3.965  -2.923  -7.710  0.00  0.00     0.062 H 
ENDBRANCH   2  56
TORSDOF 12
ENDMDL
MODEL 5
REMARK VINA RESULT:      -6.6      2.415      4.466
REMARK  12 active torsions:
REMARK  status: ('A' for Active; 'I' for Inactive)
REMARK    1  A    between atoms: C_1  and  C_2 
REMARK    2  A    between atoms: C_2  and  O_3 
REMARK    3  A    between atoms: O_3  and  C_4 
REMARK    4  A    between atoms: C_4  and  C_6 
REMARK    5  A    between atoms: C_6  and  C_20 
REMARK    6  A    between atoms: C_7  and  C_8 
REMARK    7  A    between atoms: C_7  and  C_14 
REMARK    8  A    between atoms: C_20  and  C_22 
REMARK    9  A    between atoms: C_20  and  N_28 
REMARK   10  A    between atoms: N_28  and  S_29 
REMARK   11  A    between atoms: S_29  and  C_32 
REMARK   12  A    between atoms: C_35  and  C_38 
ROOT
ATOM      1  C   LIG d   1       6.143  -1.561  -6.224  0.00  0.00     0.068 C 
ATOM      2  C   LIG d   1       6.403  -1.908  -4.932  0.00  0.00     0.001 C 
ENDROOT
BRANCH   1   3
ATOM      3  C   LIG d   1       5.162  -0.585  -6.510  0.00  0.00     0.338 C 
ATOM      4  O   LIG d   1       5.498   0.542  -6.827  0.00  0.00    -0.245 OA
BRANCH   3   5
ATOM      5  O   LIG d   1       3.852  -0.900  -6.432  0.00  0.00    -0.462 OA
BRANCH   5   6
ATOM      6  C   LIG d   1       2.924   0.186  -6.395  0.00  0.00     0.090 C 
ATOM      7  H   LIG d   1       3.402   1.085  -6.783  0.00  0.00     0.070 H 
ATOM      8  H   LIG d   1       2.055  -0.057  -7.005  0.00  0.00     0.070 H 
BRANCH   6   9
ATOM      9  C   LIG d   1       2.482   0.428  -4.950  0.00  0.00    -0.031 C 
ATOM     10  H   LIG d   1       2.960  -0.301  -4.297  0.00  0.00     0.026 H 
ATOM     11  H   LIG d   1       2.772   1.434  -4.645  0.00  0.00     0.026 H 
ATOM     12  H   LIG d   1       1.400   0.326  -4.879  0.00  0.00     0.026 H 
ENDBRANCH   6   9
ENDBRANCH   5   6
ENDBRANCH   3   5
ENDBRANCH   1   3
BRANCH   1  13
ATOM     13  C   LIG d   1       6.900  -2.219  -7.348  0.00  0.00     0.086 C 
ATOM     14  H   LIG d   1       6.860  -3.302  -7.229  0.00  0.00     0.058 H 
BRANCH  13  15
ATOM     15  C   LIG d   1       8.337  -1.764  -7.321  0.00  0.00    -0.024 A 
ATOM     16  C   LIG d   1       9.354  -2.672  -7.546  0.00  0.00    -0.057 A 
ATOM     17  C   LIG d   1      10.671  -2.254  -7.521  0.00  0.00    -0.061 A 
ATOM     18  H   LIG d   1       9.119  -3.709  -7.740  0.00  0.00     0.062 H 
ATOM     19  C   LIG d   1      10.972  -0.928  -7.272  0.00  0.00    -0.062 A 
ATOM     20  H   LIG d   1      11.467  -2.964  -7.696  0.00  0.00     0.062 H 
ATOM     21  C   LIG d   1       9.954  -0.019  -7.048  0.00  0.00    -0.061 A 
ATOM     22  H   LIG d   1      12.001  -0.602  -7.253  0.00  0.00     0.062 H 
ATOM     23  C   LIG d   1       8.636  -0.437  -7.078  0.00  0.00    -0.057 A 
ATOM     24  H   LIG d   1      10.189   1.016  -6.854  0.00  0.00     0.062 H 
ATOM     25  H   LIG d   1       7.841   0.274  -6.907  0.00  0.00     0.062 H 
ENDBRANCH  13  15
BRANCH  13  26
ATOM     26  N   LIG d   1       6.294  -1.847  -8.630  0.00  0.00    -0.178 N 
ATOM     27  H   LIG d   1       6.477  -0.978  -9.018  0.00  0.00     0.149 HD
BRANCH  26  28
ATOM     28  S   LIG d   1       5.297  -2.911  -9.415  0.00  0.00     0.059 S 
ATOM     29  O   LIG d   1       5.982  -3.316 -10.593  0.00  0.00    -0.153 OA
ATOM     30  O   LIG d   1       4.010  -2.312  -9.450  0.00  0.00    -0.153 OA
BRANCH  28  31
ATOM     31  C   LIG d   1       5.159  -4.343  -8.397  0.00  0.00     0.105 A 
ATOM     32  C   LIG d   1       4.157  -4.422  -7.448  0.00  0.00    -0.035 A 
ATOM     33  C   LIG d   1       4.045  -5.548  -6.653  0.00  0.00    -0.057 A 
ATOM     34  H   LIG d   1       3.462  -3.604  -7.327  0.00  0.00     0.064 H 
ATOM     35  C   LIG d   1       4.935  -6.595  -6.808  0.00  0.00    -0.050 A 
ATOM     36  H   LIG d   1       3.263  -5.610  -5.911  0.00  0.00     0.062 H 
ATOM     37  C   LIG d   1       5.937  -6.515  -7.757  0.00  0.00    -0.057 A 
ATOM     38  C   LIG d   1       6.050  -5.389  -8.550  0.00  0.00    -0.035 A 
ATOM     39  H   LIG d   1       6.633  -7.332  -7.877  0.00  0.00     0.062 H 
ATOM     40  H   LIG d   1       6.833  -5.327  -9.291  0.00  0.00     0.064 H 
BRANCH  35  41
ATOM     41  C   LIG d   1       4.813  -7.821  -5.941  0.00  0.00    -0.040 C 
ATOM     42  H   LIG d   1       5.808  -8.170  -5.664  0.00  0.00     0.028 H 
ATOM     43  H   LIG d   1       4.251  -7.575  -5.040  0.00  0.00     0.028 H 
ATOM     44  H   LIG d   1       4.292  -8.605  -6.491  0.00  0.00     0.028 H 
ENDBRANCH  35  41
ENDBRANCH  28  31
ENDBRANCH  26  28
ENDBRANCH  13  26
ENDBRANCH   1  13
BRANCH   2  45
ATOM     45  C   LIG d   1       5.755  -1.175  -3.824  0.00  0.00    -0.017 A 
ATOM     46  C   LIG d   1       4.802  -1.812  -3.026  0.00  0.00    -0.054 A 
ATOM     47  C   LIG d   1       4.200  -1.121  -1.994  0.00  0.00    -0.061 A 
ATOM     48  H   LIG d   1       4.539  -2.841  -3.214  0.00  0.00     0.062 H 
ATOM     49  C   LIG d   1       4.538   0.198  -1.749  0.00  0.00    -0.062 A 
ATOM     50  H   LIG d   1       3.464  -1.612  -1.375  0.00  0.00     0.062 H 
ATOM     51  C   LIG d   1       5.481   0.835  -2.539  0.00  0.00    -0.061 A 
ATOM     52  H   LIG d   1       4.064   0.734  -0.941  0.00  0.00     0.062 H 
ATOM     53  C   LIG d   1       6.095   0.155  -3.570  0.00  0.00    -0.054 A 
ATOM     54  H   LIG d   1       5.740   1.865  -2.342  0.00  0.00     0.062 H 
ATOM     55  H   LIG d   1       6.834   0.652  -4.181  0.00  0.00     0.062 H 
ENDBRANCH   2  45
BRANCH   2  56
ATOM     56  C   LIG d   1       7.336  -3.016  -4.638  0.00  0.00    -0.017 A 
ATOM     57  C   LIG d   1       8.526  -2.769  -3.951  0.00  0.00    -0.054 A 
ATOM     58  C   LIG d   1       9.392  -3.809  -3.681  0.00  0.00    -0.061 A 
ATOM     59  H   LIG d   1       8.768  -1.766  -3.631  0.00  0.00     0.062 H 
ATOM     60  C   LIG d   1       9.083  -5.095  -4.088  0.00  0.00    -0.062 A 
ATOM     61  H   LIG d   1      10.312  -3.618  -3.149  0.00  0.00     0.062 H 
ATOM     62  C   LIG d   1       7.905  -5.347  -4.770  0.00  0.00    -0.061 A 
ATOM     63  H   LIG d   1       9.764  -5.905  -3.873  0.00  0.00     0.062 H 
ATOM     64  C   LIG d   1       7.028  -4.317  -5.042  0.00  0.00    -0.054 A 
ATOM     65  H   LIG d   1       7.670  -6.353  -5.085  0.00  0.00     0.062 H 
ATOM     66  H   LIG d   1       6.107  -4.517  -5.570  0.00  0.00     0.062 H 
ENDBRANCH   2  56
TORSDOF 12
ENDMDL
MODEL 6
REMARK VINA RESULT:      -6.4      3.289      7.345
REMARK  12 active torsions:
REMARK  status: ('A' for Active; 'I' for Inactive)
REMARK    1  A    between atoms: C_1  and  C_2 
REMARK    2  A    between atoms: C_2  and  O_3 
REMARK    3  A    between atoms: O_3  and  C_4 
REMARK    4  A    between atoms: C_4  and  C_6 
REMARK    5  A    between atoms: C_6  and  C_20 
REMARK    6  A    between atoms: C_7  and  C_8 
REMARK    7  A    between atoms: C_7  and  C_14 
REMARK    8  A    between atoms: C_20  and  C_22 
REMARK    9  A    between atoms: C_20  and  N_28 
REMARK   10  A    between atoms: N_28  and  S_29 
REMARK   11  A    between atoms: S_29  and  C_32 
REMARK   12  A    between atoms: C_35  and  C_38 
ROOT
ATOM      1  C   LIG d   1       5.769  -1.805  -6.574  0.00  0.00     0.068 C 
ATOM      2  C   LIG d   1       5.445  -2.603  -5.518  0.00  0.00     0.001 C 
ENDROOT
BRANCH   1   3
ATOM      3  C   LIG d   1       6.373  -2.364  -7.723  0.00  0.00     0.338 C 
ATOM      4  O   LIG d   1       7.578  -2.280  -7.881  0.00  0.00    -0.245 OA
BRANCH   3   5
ATOM      5  O   LIG d   1       5.615  -2.993  -8.647  0.00  0.00    -0.462 OA
BRANCH   5   6
ATOM      6  C   LIG d   1       5.716  -2.527  -9.994  0.00  0.00     0.090 C 
ATOM      7  H   LIG d   1       6.118  -1.514 -10.000  0.00  0.00     0.070 H 
ATOM      8  H   LIG d   1       6.377  -3.184 -10.558  0.00  0.00     0.070 H 
BRANCH   6   9
ATOM      9  C   LIG d   1       4.327  -2.527 -10.638  0.00  0.00    -0.031 C 
ATOM     10  H   LIG d   1       4.112  -1.537 -11.038  0.00  0.00     0.026 H 
ATOM     11  H   LIG d   1       4.302  -3.258 -11.446  0.00  0.00     0.026 H 
ATOM     12  H   LIG d   1       3.580  -2.788  -9.890  0.00  0.00     0.026 H 
ENDBRANCH   6   9
ENDBRANCH   5   6
ENDBRANCH   3   5
ENDBRANCH   1   3
BRANCH   1  13
ATOM     13  C   LIG d   1       5.485  -0.327  -6.518  0.00  0.00     0.086 C 
ATOM     14  H   LIG d   1       5.062  -0.075  -5.545  0.00  0.00     0.058 H 
BRANCH  13  15
ATOM     15  C   LIG d   1       4.503   0.038  -7.602  0.00  0.00    -0.024 A 
ATOM     16  C   LIG d   1       3.223  -0.484  -7.580  0.00  0.00    -0.057 A 
ATOM     17  C   LIG d   1       2.323  -0.150  -8.574  0.00  0.00    -0.061 A 
ATOM     18  H   LIG d   1       2.927  -1.154  -6.785  0.00  0.00     0.062 H 
ATOM     19  C   LIG d   1       2.702   0.707  -9.590  0.00  0.00    -0.062 A 
ATOM     20  H   LIG d   1       1.323  -0.558  -8.557  0.00  0.00     0.062 H 
ATOM     21  C   LIG d   1       3.982   1.230  -9.612  0.00  0.00    -0.061 A 
ATOM     22  H   LIG d   1       1.999   0.969 -10.367  0.00  0.00     0.062 H 
ATOM     23  C   LIG d   1       4.881   0.899  -8.615  0.00  0.00    -0.057 A 
ATOM     24  H   LIG d   1       4.278   1.899 -10.406  0.00  0.00     0.062 H 
ATOM     25  H   LIG d   1       5.879   1.310  -8.630  0.00  0.00     0.062 H 
ENDBRANCH  13  15
BRANCH  13  26
ATOM     26  N   LIG d   1       6.731   0.419  -6.716  0.00  0.00    -0.178 N 
ATOM     27  H   LIG d   1       7.006   0.673  -7.610  0.00  0.00     0.149 HD
BRANCH  26  28
ATOM     28  S   LIG d   1       7.667   0.829  -5.414  0.00  0.00     0.059 S 
ATOM     29  O   LIG d   1       8.626  -0.210  -5.259  0.00  0.00    -0.153 OA
ATOM     30  O   LIG d   1       6.774   1.202  -4.373  0.00  0.00    -0.153 OA
BRANCH  28  31
ATOM     31  C   LIG d   1       8.565   2.280  -5.853  0.00  0.00     0.105 A 
ATOM     32  C   LIG d   1       8.931   2.494  -7.168  0.00  0.00    -0.035 A 
ATOM     33  C   LIG d   1       9.631   3.636  -7.514  0.00  0.00    -0.057 A 
ATOM     34  H   LIG d   1       8.672   1.769  -7.926  0.00  0.00     0.064 H 
ATOM     35  C   LIG d   1       9.962   4.563  -6.544  0.00  0.00    -0.050 A 
ATOM     36  H   LIG d   1       9.918   3.803  -8.541  0.00  0.00     0.062 H 
ATOM     37  C   LIG d   1       9.595   4.349  -5.228  0.00  0.00    -0.057 A 
ATOM     38  C   LIG d   1       8.898   3.207  -4.883  0.00  0.00    -0.035 A 
ATOM     39  H   LIG d   1       9.855   5.073  -4.470  0.00  0.00     0.062 H 
ATOM     40  H   LIG d   1       8.611   3.040  -3.855  0.00  0.00     0.064 H 
BRANCH  35  41
ATOM     41  C   LIG d   1      10.725   5.808  -6.921  0.00  0.00    -0.040 C 
ATOM     42  H   LIG d   1      10.143   6.386  -7.638  0.00  0.00     0.028 H 
ATOM     43  H   LIG d   1      10.903   6.408  -6.029  0.00  0.00     0.028 H 
ATOM     44  H   LIG d   1      11.679   5.528  -7.367  0.00  0.00     0.028 H 
ENDBRANCH  35  41
ENDBRANCH  28  31
ENDBRANCH  26  28
ENDBRANCH  13  26
ENDBRANCH   1  13
BRANCH   2  45
ATOM     45  C   LIG d   1       5.606  -4.069  -5.621  0.00  0.00    -0.017 A 
ATOM     46  C   LIG d   1       6.855  -4.654  -5.403  0.00  0.00    -0.054 A 
ATOM     47  C   LIG d   1       6.998  -6.023  -5.501  0.00  0.00    -0.061 A 
ATOM     48  H   LIG d   1       7.706  -4.037  -5.156  0.00  0.00     0.062 H 
ATOM     49  C   LIG d   1       5.908  -6.815  -5.816  0.00  0.00    -0.062 A 
ATOM     50  H   LIG d   1       7.963  -6.477  -5.331  0.00  0.00     0.062 H 
ATOM     51  C   LIG d   1       4.668  -6.240  -6.035  0.00  0.00    -0.061 A 
ATOM     52  H   LIG d   1       6.026  -7.885  -5.892  0.00  0.00     0.062 H 
ATOM     53  C   LIG d   1       4.509  -4.874  -5.933  0.00  0.00    -0.054 A 
ATOM     54  H   LIG d   1       3.821  -6.865  -6.280  0.00  0.00     0.062 H 
ATOM     55  H   LIG d   1       3.539  -4.428  -6.100  0.00  0.00     0.062 H 
ENDBRANCH   2  45
BRANCH   2  56
ATOM     56  C   LIG d   1       4.931  -2.003  -4.269  0.00  0.00    -0.017 A 
ATOM     57  C   LIG d   1       5.792  -1.777  -3.192  0.00  0.00    -0.054 A 
ATOM     58  C   LIG d   1       5.305  -1.217  -2.030  0.00  0.00    -0.061 A 
ATOM     59  H   LIG d   1       6.837  -2.041  -3.271  0.00  0.00     0.062 H 
ATOM     60  C   LIG d   1       3.967  -0.878  -1.928  0.00  0.00    -0.062 A 
ATOM     61  H   LIG d   1       5.970  -1.042  -1.197  0.00  0.00     0.062 H 
ATOM     62  C   LIG d   1       3.108  -1.099  -2.991  0.00  0.00    -0.061 A 
ATOM     63  H   LIG d   1       3.592  -0.439  -1.016  0.00  0.00     0.062 H 
ATOM     64  C   LIG d   1       3.583  -1.654  -4.162  0.00  0.00    -0.054 A 
ATOM     65  H   LIG d   1       2.065  -0.832  -2.905  0.00  0.00     0.062 H 
ATOM     66  H   LIG d   1       2.913  -1.821  -4.992  0.00  0.00     0.062 H 
ENDBRANCH   2  56
TORSDOF 12
ENDMDL
MODEL 7
REMARK VINA RESULT:      -6.3      2.487      3.432
REMARK  12 active torsions:
REMARK  status: ('A' for Active; 'I' for Inactive)
REMARK    1  A    between atoms: C_1  and  C_2 
REMARK    2  A    between atoms: C_2  and  O_3 
REMARK    3  A    between atoms: O_3  and  C_4 
REMARK    4  A    between atoms: C_4  and  C_6 
REMARK    5  A    between atoms: C_6  and  C_20 
REMARK    6  A    between atoms: C_7  and  C_8 
REMARK    7  A    between atoms: C_7  and  C_14 
REMARK    8  A    between atoms: C_20  and  C_22 
REMARK    9  A    between atoms: C_20  and  N_28 
REMARK   10  A    between atoms: N_28  and  S_29 
REMARK   11  A    between atoms: S_29  and  C_32 
REMARK   12  A    between atoms: C_35  and  C_38 
ROOT
ATOM      1  C   LIG d   1       5.997  -1.084  -6.690  0.00  0.00     0.068 C 
ATOM      2  C   LIG d   1       4.675  -0.854  -6.445  0.00  0.00     0.001 C 
ENDROOT
BRANCH   1   3
ATOM      3  C   LIG d   1       6.458  -1.204  -8.021  0.00  0.00     0.338 C 
ATOM      4  O   LIG d   1       6.692  -2.304  -8.488  0.00  0.00    -0.245 OA
BRANCH   3   5
ATOM      5  O   LIG d   1       6.639  -0.099  -8.776  0.00  0.00    -0.462 OA
BRANCH   5   6
ATOM      6  C   LIG d   1       6.844  -0.296 -10.176  0.00  0.00     0.090 C 
ATOM      7  H   LIG d   1       7.593   0.408 -10.536  0.00  0.00     0.070 H 
ATOM      8  H   LIG d   1       7.186  -1.315 -10.353  0.00  0.00     0.070 H 
BRANCH   6   9
ATOM      9  C   LIG d   1       5.527  -0.064 -10.921  0.00  0.00    -0.031 C 
ATOM     10  H   LIG d   1       5.493  -0.701 -11.805  0.00  0.00     0.026 H 
ATOM     11  H   LIG d   1       4.691  -0.308 -10.266  0.00  0.00     0.026 H 
ATOM     12  H   LIG d   1       5.459   0.981 -11.223  0.00  0.00     0.026 H 
ENDBRANCH   6   9
ENDBRANCH   5   6
ENDBRANCH   3   5
ENDBRANCH   1   3
BRANCH   1  13
ATOM     13  C   LIG d   1       6.966  -1.210  -5.544  0.00  0.00     0.086 C 
ATOM     14  H   LIG d   1       6.437  -1.564  -4.659  0.00  0.00     0.058 H 
BRANCH  13  15
ATOM     15  C   LIG d   1       7.582   0.135  -5.257  0.00  0.00    -0.024 A 
ATOM     16  C   LIG d   1       7.260   0.809  -4.094  0.00  0.00    -0.057 A 
ATOM     17  C   LIG d   1       7.826   2.042  -3.831  0.00  0.00    -0.061 A 
ATOM     18  H   LIG d   1       6.565   0.372  -3.391  0.00  0.00     0.062 H 
ATOM     19  C   LIG d   1       8.714   2.602  -4.729  0.00  0.00    -0.062 A 
ATOM     20  H   LIG d   1       7.573   2.569  -2.922  0.00  0.00     0.062 H 
ATOM     21  C   LIG d   1       9.037   1.927  -5.892  0.00  0.00    -0.061 A 
ATOM     22  H   LIG d   1       9.156   3.565  -4.524  0.00  0.00     0.062 H 
ATOM     23  C   LIG d   1       8.475   0.692  -6.153  0.00  0.00    -0.057 A 
ATOM     24  H   LIG d   1       9.732   2.364  -6.594  0.00  0.00     0.062 H 
ATOM     25  H   LIG d   1       8.730   0.163  -7.059  0.00  0.00     0.062 H 
ENDBRANCH  13  15
BRANCH  13  26
ATOM     26  N   LIG d   1       8.019  -2.165  -5.897  0.00  0.00    -0.178 N 
ATOM     27  H   LIG d   1       8.459  -2.105  -6.759  0.00  0.00     0.149 HD
BRANCH  26  28
ATOM     28  S   LIG d   1       8.460  -3.347  -4.824  0.00  0.00     0.059 S 
ATOM     29  O   LIG d   1       8.088  -2.882  -3.533  0.00  0.00    -0.153 OA
ATOM     30  O   LIG d   1       9.795  -3.712  -5.147  0.00  0.00    -0.153 OA
BRANCH  28  31
ATOM     31  C   LIG d   1       7.457  -4.756  -5.160  0.00  0.00     0.105 A 
ATOM     32  C   LIG d   1       7.995  -6.026  -5.065  0.00  0.00    -0.035 A 
ATOM     33  C   LIG d   1       7.207  -7.132  -5.324  0.00  0.00    -0.057 A 
ATOM     34  H   LIG d   1       9.032  -6.154  -4.790  0.00  0.00     0.064 H 
ATOM     35  C   LIG d   1       5.880  -6.968  -5.675  0.00  0.00    -0.050 A 
ATOM     36  H   LIG d   1       7.627  -8.124  -5.250  0.00  0.00     0.062 H 
ATOM     37  C   LIG d   1       5.342  -5.698  -5.770  0.00  0.00    -0.057 A 
ATOM     38  C   LIG d   1       6.131  -4.592  -5.513  0.00  0.00    -0.035 A 
ATOM     39  H   LIG d   1       4.305  -5.569  -6.045  0.00  0.00     0.062 H 
ATOM     40  H   LIG d   1       5.710  -3.600  -5.587  0.00  0.00     0.064 H 
BRANCH  35  41
ATOM     41  C   LIG d   1       5.020  -8.174  -5.957  0.00  0.00    -0.040 C 
ATOM     42  H   LIG d   1       5.646  -8.987  -6.324  0.00  0.00     0.028 H 
ATOM     43  H   LIG d   1       4.520  -8.486  -5.040  0.00  0.00     0.028 H 
ATOM     44  H   LIG d   1       4.274  -7.921  -6.710  0.00  0.00     0.028 H 
ENDBRANCH  35  41
ENDBRANCH  28  31
ENDBRANCH  26  28
ENDBRANCH  13  26
ENDBRANCH   1  13
BRANCH   2  45
ATOM     45  C   LIG d   1       3.747  -0.604  -7.568  0.00  0.00    -0.017 A 
ATOM     46  C   LIG d   1       3.233  -1.674  -8.303  0.00  0.00    -0.054 A 
ATOM     47  C   LIG d   1       2.367  -1.432  -9.350  0.00  0.00    -0.061 A 
ATOM     48  H   LIG d   1       3.510  -2.686  -8.053  0.00  0.00     0.062 H 
ATOM     49  C   LIG d   1       2.008  -0.135  -9.672  0.00  0.00    -0.062 A 
ATOM     50  H   LIG d   1       1.967  -2.258  -9.919  0.00  0.00     0.062 H 
ATOM     51  C   LIG d   1       2.516   0.929  -8.947  0.00  0.00    -0.061 A 
ATOM     52  H   LIG d   1       1.331   0.048 -10.492  0.00  0.00     0.062 H 
ATOM     53  C   LIG d   1       3.378   0.703  -7.894  0.00  0.00    -0.054 A 
ATOM     54  H   LIG d   1       2.232   1.940  -9.204  0.00  0.00     0.062 H 
ATOM     55  H   LIG d   1       3.769   1.534  -7.326  0.00  0.00     0.062 H 
ENDBRANCH   2  45
BRANCH   2  56
ATOM     56  C   LIG d   1       4.171  -0.855  -5.056  0.00  0.00    -0.017 A 
ATOM     57  C   LIG d   1       3.615   0.304  -4.510  0.00  0.00    -0.054 A 
ATOM     58  C   LIG d   1       3.147   0.297  -3.213  0.00  0.00    -0.061 A 
ATOM     59  H   LIG d   1       3.552   1.205  -5.104  0.00  0.00     0.062 H 
ATOM     60  C   LIG d   1       3.227  -0.857  -2.452  0.00  0.00    -0.062 A 
ATOM     61  H   LIG d   1       2.717   1.192  -2.790  0.00  0.00     0.062 H 
ATOM     62  C   LIG d   1       3.777  -2.009  -2.985  0.00  0.00    -0.061 A 
ATOM     63  H   LIG d   1       2.859  -0.857  -1.437  0.00  0.00     0.062 H 
ATOM     64  C   LIG d   1       4.244  -2.016  -4.284  0.00  0.00    -0.054 A 
ATOM     65  H   LIG d   1       3.837  -2.905  -2.386  0.00  0.00     0.062 H 
ATOM     66  H   LIG d   1       4.669  -2.918  -4.701  0.00  0.00     0.062 H 
ENDBRANCH   2  56
TORSDOF 12
ENDMDL
MODEL 8
REMARK VINA RESULT:      -6.3      3.810      7.577
REMARK  12 active torsions:
REMARK  status: ('A' for Active; 'I' for Inactive)
REMARK    1  A    between atoms: C_1  and  C_2 
REMARK    2  A    between atoms: C_2  and  O_3 
REMARK    3  A    between atoms: O_3  and  C_4 
REMARK    4  A    between atoms: C_4  and  C_6 
REMARK    5  A    between atoms: C_6  and  C_20 
REMARK    6  A    between atoms: C_7  and  C_8 
REMARK    7  A    between atoms: C_7  and  C_14 
REMARK    8  A    between atoms: C_20  and  C_22 
REMARK    9  A    between atoms: C_20  and  N_28 
REMARK   10  A    between atoms: N_28  and  S_29 
REMARK   11  A    between atoms: S_29  and  C_32 
REMARK   12  A    between atoms: C_35  and  C_38 
ROOT
ATOM      1  C   LIG d   1       6.280  -0.695  -6.060  0.00  0.00     0.068 C 
ATOM      2  C   LIG d   1       6.595  -1.947  -6.498  0.00  0.00     0.001 C 
ENDROOT
BRANCH   1   3
ATOM      3  C   LIG d   1       5.326   0.079  -6.758  0.00  0.00     0.338 C 
ATOM      4  O   LIG d   1       5.686   0.858  -7.621  0.00  0.00    -0.245 OA
BRANCH   3   5
ATOM      5  O   LIG d   1       4.013  -0.045  -6.468  0.00  0.00    -0.462 OA
BRANCH   5   6
ATOM      6  C   LIG d   1       3.090   0.584  -7.358  0.00  0.00     0.090 C 
ATOM      7  H   LIG d   1       2.281   1.036  -6.784  0.00  0.00     0.070 H 
ATOM      8  H   LIG d   1       3.605   1.354  -7.931  0.00  0.00     0.070 H 
BRANCH   6   9
ATOM      9  C   LIG d   1       2.511  -0.462  -8.315  0.00  0.00    -0.031 C 
ATOM     10  H   LIG d   1       1.611  -0.066  -8.784  0.00  0.00     0.026 H 
ATOM     11  H   LIG d   1       3.247  -0.698  -9.083  0.00  0.00     0.026 H 
ATOM     12  H   LIG d   1       2.263  -1.365  -7.758  0.00  0.00     0.026 H 
ENDBRANCH   6   9
ENDBRANCH   5   6
ENDBRANCH   3   5
ENDBRANCH   1   3
BRANCH   1  13
ATOM     13  C   LIG d   1       6.951  -0.135  -4.833  0.00  0.00     0.086 C 
ATOM     14  H   LIG d   1       7.835  -0.728  -4.599  0.00  0.00     0.058 H 
BRANCH  13  15
ATOM     15  C   LIG d   1       5.993  -0.183  -3.670  0.00  0.00    -0.024 A 
ATOM     16  C   LIG d   1       5.609   0.988  -3.042  0.00  0.00    -0.057 A 
ATOM     17  C   LIG d   1       4.730   0.943  -1.976  0.00  0.00    -0.061 A 
ATOM     18  H   LIG d   1       5.997   1.936  -3.384  0.00  0.00     0.062 H 
ATOM     19  C   LIG d   1       4.234  -0.270  -1.538  0.00  0.00    -0.062 A 
ATOM     20  H   LIG d   1       4.431   1.857  -1.484  0.00  0.00     0.062 H 
ATOM     21  C   LIG d   1       4.617  -1.441  -2.167  0.00  0.00    -0.061 A 
ATOM     22  H   LIG d   1       3.548  -0.305  -0.706  0.00  0.00     0.062 H 
ATOM     23  C   LIG d   1       5.493  -1.396  -3.236  0.00  0.00    -0.057 A 
ATOM     24  H   LIG d   1       4.229  -2.388  -1.826  0.00  0.00     0.062 H 
ATOM     25  H   LIG d   1       5.788  -2.309  -3.730  0.00  0.00     0.062 H 
ENDBRANCH  13  15
BRANCH  13  26
ATOM     26  N   LIG d   1       7.347   1.254  -5.082  0.00  0.00    -0.178 N 
ATOM     27  H   LIG d   1       6.719   1.871  -5.486  0.00  0.00     0.149 HD
BRANCH  26  28
ATOM     28  S   LIG d   1       8.867   1.768  -4.673  0.00  0.00     0.059 S 
ATOM     29  O   LIG d   1       9.759   0.719  -5.025  0.00  0.00    -0.153 OA
ATOM     30  O   LIG d   1       8.780   2.282  -3.351  0.00  0.00    -0.153 OA
BRANCH  28  31
ATOM     31  C   LIG d   1       9.255   3.132  -5.719  0.00  0.00     0.105 A 
ATOM     32  C   LIG d   1       9.524   4.371  -5.168  0.00  0.00    -0.035 A 
ATOM     33  C   LIG d   1       9.833   5.440  -5.988  0.00  0.00    -0.057 A 
ATOM     34  H   LIG d   1       9.491   4.504  -4.096  0.00  0.00     0.064 H 
ATOM     35  C   LIG d   1       9.876   5.269  -7.359  0.00  0.00    -0.050 A 
ATOM     36  H   LIG d   1      10.043   6.408  -5.558  0.00  0.00     0.062 H 
ATOM     37  C   LIG d   1       9.607   4.029  -7.910  0.00  0.00    -0.057 A 
ATOM     38  C   LIG d   1       9.296   2.961  -7.090  0.00  0.00    -0.035 A 
ATOM     39  H   LIG d   1       9.640   3.896  -8.981  0.00  0.00     0.062 H 
ATOM     40  H   LIG d   1       9.086   1.994  -7.521  0.00  0.00     0.064 H 
BRANCH  35  41
ATOM     41  C   LIG d   1      10.214   6.434  -8.254  0.00  0.00    -0.040 C 
ATOM     42  H   LIG d   1      10.464   6.067  -9.249  0.00  0.00     0.028 H 
ATOM     43  H   LIG d   1       9.355   7.103  -8.318  0.00  0.00     0.028 H 
ATOM     44  H   LIG d   1      11.065   6.975  -7.840  0.00  0.00     0.028 H 
ENDBRANCH  35  41
ENDBRANCH  28  31
ENDBRANCH  26  28
ENDBRANCH  13  26
ENDBRANCH   1  13
BRANCH   2  45
ATOM     45  C   LIG d   1       5.848  -2.546  -7.624  0.00  0.00    -0.017 A 
ATOM     46  C   LIG d   1       4.707  -3.313  -7.379  0.00  0.00    -0.054 A 
ATOM     47  C   LIG d   1       4.014  -3.869  -8.435  0.00  0.00    -0.061 A 
ATOM     48  H   LIG d   1       4.366  -3.468  -6.367  0.00  0.00     0.062 H 
ATOM     49  C   LIG d   1       4.448  -3.669  -9.734  0.00  0.00    -0.062 A 
ATOM     50  H   LIG d   1       3.131  -4.461  -8.248  0.00  0.00     0.062 H 
ATOM     51  C   LIG d   1       5.580  -2.910  -9.982  0.00  0.00    -0.061 A 
ATOM     52  H   LIG d   1       3.903  -4.106 -10.556  0.00  0.00     0.062 H 
ATOM     53  C   LIG d   1       6.278  -2.343  -8.937  0.00  0.00    -0.054 A 
ATOM     54  H   LIG d   1       5.913  -2.759 -10.999  0.00  0.00     0.062 H 
ATOM     55  H   LIG d   1       7.157  -1.748  -9.134  0.00  0.00     0.062 H 
ENDBRANCH   2  45
BRANCH   2  56
ATOM     56  C   LIG d   1       7.682  -2.707  -5.846  0.00  0.00    -0.017 A 
ATOM     57  C   LIG d   1       7.383  -3.689  -4.899  0.00  0.00    -0.054 A 
ATOM     58  C   LIG d   1       8.403  -4.393  -4.294  0.00  0.00    -0.061 A 
ATOM     59  H   LIG d   1       6.354  -3.897  -4.642  0.00  0.00     0.062 H 
ATOM     60  C   LIG d   1       9.721  -4.129  -4.624  0.00  0.00    -0.062 A 
ATOM     61  H   LIG d   1       8.172  -5.153  -3.563  0.00  0.00     0.062 H 
ATOM     62  C   LIG d   1      10.025  -3.156  -5.560  0.00  0.00    -0.061 A 
ATOM     63  H   LIG d   1      10.515  -4.684  -4.147  0.00  0.00     0.062 H 
ATOM     64  C   LIG d   1       9.014  -2.448  -6.177  0.00  0.00    -0.054 A 
ATOM     65  H   LIG d   1      11.056  -2.955  -5.812  0.00  0.00     0.062 H 
ATOM     66  H   LIG d   1       9.253  -1.693  -6.911  0.00  0.00     0.062 H 
ENDBRANCH   2  56
TORSDOF 12
ENDMDL
MODEL 9
REMARK VINA RESULT:      -6.3      1.855      4.339
REMARK  12 active torsions:
REMARK  status: ('A' for Active; 'I' for Inactive)
REMARK    1  A    between atoms: C_1  and  C_2 
REMARK    2  A    between atoms: C_2  and  O_3 
REMARK    3  A    between atoms: O_3  and  C_4 
REMARK    4  A    between atoms: C_4  and  C_6 
REMARK    5  A    between atoms: C_6  and  C_20 
REMARK    6  A    between atoms: C_7  and  C_8 
REMARK    7  A    between atoms: C_7  and  C_14 
REMARK    8  A    between atoms: C_20  and  C_22 
REMARK    9  A    between atoms: C_20  and  N_28 
REMARK   10  A    between atoms: N_28  and  S_29 
REMARK   11  A    between atoms: S_29  and  C_32 
REMARK   12  A    between atoms: C_35  and  C_38 
ROOT
ATOM      1  C   LIG d   1       5.799  -1.664  -6.646  0.00  0.00     0.068 C 
ATOM      2  C   LIG d   1       5.528  -1.040  -7.827  0.00  0.00     0.001 C 
ENDROOT
BRANCH   1   3
ATOM      3  C   LIG d   1       7.078  -1.537  -6.057  0.00  0.00     0.338 C 
ATOM      4  O   LIG d   1       7.922  -2.394  -6.242  0.00  0.00    -0.245 OA
BRANCH   3   5
ATOM      5  O   LIG d   1       7.364  -0.464  -5.288  0.00  0.00    -0.462 OA
BRANCH   5   6
ATOM      6  C   LIG d   1       8.680   0.082  -5.401  0.00  0.00     0.090 C 
ATOM      7  H   LIG d   1       9.309  -0.320  -4.607  0.00  0.00     0.070 H 
ATOM      8  H   LIG d   1       9.102  -0.184  -6.370  0.00  0.00     0.070 H 
BRANCH   6   9
ATOM      9  C   LIG d   1       8.611   1.606  -5.274  0.00  0.00    -0.031 C 
ATOM     10  H   LIG d   1       7.645   1.956  -5.634  0.00  0.00     0.026 H 
ATOM     11  H   LIG d   1       8.734   1.889  -4.229  0.00  0.00     0.026 H 
ATOM     12  H   LIG d   1       9.406   2.056  -5.869  0.00  0.00     0.026 H 
ENDBRANCH   6   9
ENDBRANCH   5   6
ENDBRANCH   3   5
ENDBRANCH   1   3
BRANCH   1  13
ATOM     13  C   LIG d   1       4.737  -2.489  -5.967  0.00  0.00     0.086 C 
ATOM     14  H   LIG d   1       3.891  -2.619  -6.643  0.00  0.00     0.058 H 
BRANCH  13  15
ATOM     15  C   LIG d   1       4.278  -1.786  -4.716  0.00  0.00    -0.024 A 
ATOM     16  C   LIG d   1       4.410  -2.406  -3.487  0.00  0.00    -0.057 A 
ATOM     17  C   LIG d   1       3.988  -1.762  -2.339  0.00  0.00    -0.061 A 
ATOM     18  H   LIG d   1       4.841  -3.395  -3.425  0.00  0.00     0.062 H 
ATOM     19  C   LIG d   1       3.436  -0.497  -2.419  0.00  0.00    -0.062 A 
ATOM     20  H   LIG d   1       4.091  -2.246  -1.379  0.00  0.00     0.062 H 
ATOM     21  C   LIG d   1       3.305   0.123  -3.648  0.00  0.00    -0.061 A 
ATOM     22  H   LIG d   1       3.107   0.006  -1.522  0.00  0.00     0.062 H 
ATOM     23  C   LIG d   1       3.730  -0.520  -4.795  0.00  0.00    -0.057 A 
ATOM     24  H   LIG d   1       2.873   1.111  -3.710  0.00  0.00     0.062 H 
ATOM     25  H   LIG d   1       3.632  -0.034  -5.754  0.00  0.00     0.062 H 
ENDBRANCH  13  15
BRANCH  13  26
ATOM     26  N   LIG d   1       5.287  -3.802  -5.617  0.00  0.00    -0.178 N 
ATOM     27  H   LIG d   1       5.936  -3.879  -4.902  0.00  0.00     0.149 HD
BRANCH  26  28
ATOM     28  S   LIG d   1       4.798  -5.151  -6.442  0.00  0.00     0.059 S 
ATOM     29  O   LIG d   1       5.299  -5.023  -7.766  0.00  0.00    -0.153 OA
ATOM     30  O   LIG d   1       3.414  -5.318  -6.164  0.00  0.00    -0.153 OA
BRANCH  28  31
ATOM     31  C   LIG d   1       5.626  -6.531  -5.722  0.00  0.00     0.105 A 
ATOM     32  C   LIG d   1       6.984  -6.466  -5.470  0.00  0.00    -0.035 A 
ATOM     33  C   LIG d   1       7.633  -7.546  -4.901  0.00  0.00    -0.057 A 
ATOM     34  H   LIG d   1       7.538  -5.573  -5.719  0.00  0.00     0.064 H 
ATOM     35  C   LIG d   1       6.924  -8.689  -4.583  0.00  0.00    -0.050 A 
ATOM     36  H   LIG d   1       8.694  -7.497  -4.704  0.00  0.00     0.062 H 
ATOM     37  C   LIG d   1       5.566  -8.753  -4.835  0.00  0.00    -0.057 A 
ATOM     38  C   LIG d   1       4.918  -7.674  -5.406  0.00  0.00    -0.035 A 
ATOM     39  H   LIG d   1       5.012  -9.646  -4.587  0.00  0.00     0.062 H 
ATOM     40  H   LIG d   1       3.857  -7.725  -5.603  0.00  0.00     0.064 H 
BRANCH  35  41
ATOM     41  C   LIG d   1       7.632  -9.867  -3.962  0.00  0.00    -0.040 C 
ATOM     42  H   LIG d   1       8.107  -9.555  -3.033  0.00  0.00     0.028 H 
ATOM     43  H   LIG d   1       6.910 -10.656  -3.754  0.00  0.00     0.028 H 
ATOM     44  H   LIG d   1       8.389 -10.240  -4.651  0.00  0.00     0.028 H 
ENDBRANCH  35  41
ENDBRANCH  28  31
ENDBRANCH  26  28
ENDBRANCH  13  26
ENDBRANCH   1  13
BRANCH   2  45
ATOM     45  C   LIG d   1       6.525  -0.129  -8.428  0.00  0.00    -0.017 A 
ATOM     46  C   LIG d   1       7.562  -0.642  -9.210  0.00  0.00    -0.054 A 
ATOM     47  C   LIG d   1       8.489   0.214  -9.768  0.00  0.00    -0.061 A 
ATOM     48  H   LIG d   1       7.637  -1.706  -9.379  0.00  0.00     0.062 H 
ATOM     49  C   LIG d   1       8.393   1.578  -9.555  0.00  0.00    -0.062 A 
ATOM     50  H   LIG d   1       9.291  -0.181 -10.373  0.00  0.00     0.062 H 
ATOM     51  C   LIG d   1       7.367   2.092  -8.780  0.00  0.00    -0.061 A 
ATOM     52  H   LIG d   1       9.120   2.243  -9.993  0.00  0.00     0.062 H 
ATOM     53  C   LIG d   1       6.430   1.248  -8.221  0.00  0.00    -0.054 A 
ATOM     54  H   LIG d   1       7.298   3.158  -8.617  0.00  0.00     0.062 H 
ATOM     55  H   LIG d   1       5.628   1.653  -7.621  0.00  0.00     0.062 H 
ENDBRANCH   2  45
BRANCH   2  56
ATOM     56  C   LIG d   1       4.237  -1.274  -8.507  0.00  0.00    -0.017 A 
ATOM     57  C   LIG d   1       3.189  -0.363  -8.358  0.00  0.00    -0.054 A 
ATOM     58  C   LIG d   1       1.987  -0.588  -8.994  0.00  0.00    -0.061 A 
ATOM     59  H   LIG d   1       3.322   0.518  -7.745  0.00  0.00     0.062 H 
ATOM     60  C   LIG d   1       1.816  -1.714  -9.780  0.00  0.00    -0.062 A 
ATOM     61  H   LIG d   1       1.177   0.117  -8.880  0.00  0.00     0.062 H 
ATOM     62  C   LIG d   1       2.850  -2.623  -9.932  0.00  0.00    -0.061 A 
ATOM     63  H   LIG d   1       0.873  -1.886 -10.276  0.00  0.00     0.062 H 
ATOM     64  C   LIG d   1       4.060  -2.407  -9.305  0.00  0.00    -0.054 A 
ATOM     65  H   LIG d   1       2.710  -3.500 -10.546  0.00  0.00     0.062 H 
ATOM     66  H   LIG d   1       4.867  -3.114  -9.428  0.00  0.00     0.062 H 
ENDBRANCH   2  56
TORSDOF 12
ENDMDL
