MODEL 1
REMARK VINA RESULT:      -5.2      0.000      0.000
REMARK  3 active torsions:
REMARK  status: ('A' for Active; 'I' for Inactive)
REMARK    1  A    between atoms: C_1  and  C_2 
REMARK    2  A    between atoms: CA_3  and  C_13 
REMARK    3  A    between atoms: CA_7  and  N_22 
ROOT
ATOM      1  C   LIG d   1       4.474  -1.234  -3.271  0.00  0.00    -0.040 C 
ATOM      2  CA  LIG d   1       5.177  -0.114  -3.190  0.00  0.00     0.060 C 
ATOM      3  N   LIG d   1       6.462  -0.046  -3.746  0.00  0.00    -0.247 N 
ATOM      4  C   LIG d   1       7.342  -1.182  -4.133  0.00  0.00     0.129 C 
ATOM      5  H   LIG d   1       7.894  -1.633  -3.308  0.00  0.00     0.068 H 
ATOM      6  CA  LIG d   1       8.147  -0.236  -5.005  0.00  0.00     0.082 C 
ATOM      7  HA  LIG d   1       7.942  -0.325  -6.072  0.00  0.00     0.098 H 
ATOM      8  C   LIG d   1       7.318   0.808  -4.294  0.00  0.00     0.272 C 
ATOM      9  O   LIG d   1       7.406   2.016  -4.243  0.00  0.00    -0.269 OA
ATOM     10  S   LIG d   1       6.271  -2.358  -5.028  0.00  0.00    -0.128 SA
ATOM     11  C   LIG d   1       4.885  -2.543  -3.863  0.00  0.00     0.018 C 
ATOM     12  H   LIG d   1       4.034  -2.976  -4.391  0.00  0.00     0.042 H 
ATOM     13  H   LIG d   1       5.183  -3.218  -3.062  0.00  0.00     0.042 H 
ENDROOT
BRANCH   6  14
ATOM     14  N   LIG d   1       9.587  -0.216  -4.693  0.00  0.00     0.229 N 
ATOM     15  H1  LIG d   1       9.919   0.745  -4.642  0.00  0.00     0.200 HD
ATOM     16  H2  LIG d   1       9.758  -0.682  -3.804  0.00  0.00     0.200 HD
ATOM     17  H3  LIG d   1      10.100  -0.709  -5.433  0.00  0.00     0.200 HD
ENDBRANCH   6  14
BRANCH   2  18
ATOM     18  C   LIG d   1       4.607   1.063  -2.512  0.00  0.00     0.086 C 
ATOM     19  O   LIG d   1       4.756   1.206  -1.315  0.00  0.00    -0.543 OA
ATOM     20  OXT LIG d   1       3.921   1.982  -3.220  0.00  0.00    -0.543 OA
ENDBRANCH   2  18
BRANCH   1  21
ATOM     21  C   LIG d   1       3.084  -1.183  -2.691  0.00  0.00    -0.041 C 
ATOM     22  H   LIG d   1       3.111  -1.511  -1.651  0.00  0.00     0.028 H 
ATOM     23  H   LIG d   1       2.707  -0.161  -2.740  0.00  0.00     0.028 H 
ATOM     24  H   LIG d   1       2.427  -1.839  -3.262  0.00  0.00     0.028 H 
ENDBRANCH   1  21
TORSDOF 3
ENDMDL
MODEL 2
REMARK VINA RESULT:      -4.8      1.896      3.592
REMARK  3 active torsions:
REMARK  status: ('A' for Active; 'I' for Inactive)
REMARK    1  A    between atoms: C_1  and  C_2 
REMARK    2  A    between atoms: CA_3  and  C_13 
REMARK    3  A    between atoms: CA_7  and  N_22 
ROOT
ATOM      1  C   LIG d   1       6.986   0.417  -4.151  0.00  0.00    -0.040 C 
ATOM      2  CA  LIG d   1       5.782   0.053  -3.732  0.00  0.00     0.060 C 
ATOM      3  N   LIG d   1       5.262  -1.200  -4.082  0.00  0.00    -0.247 N 
ATOM      4  C   LIG d   1       5.719  -2.095  -5.180  0.00  0.00     0.129 C 
ATOM      5  H   LIG d   1       5.338  -1.837  -6.168  0.00  0.00     0.068 H 
ATOM      6  CA  LIG d   1       5.013  -3.255  -4.503  0.00  0.00     0.082 C 
ATOM      7  HA  LIG d   1       5.678  -3.938  -3.973  0.00  0.00     0.098 H 
ATOM      8  C   LIG d   1       4.442  -2.149  -3.646  0.00  0.00     0.272 C 
ATOM      9  O   LIG d   1       3.540  -2.134  -2.836  0.00  0.00    -0.269 OA
ATOM     10  S   LIG d   1       7.542  -2.115  -5.079  0.00  0.00    -0.128 SA
ATOM     11  C   LIG d   1       7.921  -0.336  -5.041  0.00  0.00     0.018 C 
ATOM     12  H   LIG d   1       8.941  -0.199  -4.680  0.00  0.00     0.042 H 
ATOM     13  H   LIG d   1       7.848   0.064  -6.051  0.00  0.00     0.042 H 
ENDROOT
BRANCH   6  14
ATOM     14  N   LIG d   1       4.041  -3.949  -5.365  0.00  0.00     0.229 N 
ATOM     15  H1  LIG d   1       3.109  -3.565  -5.219  0.00  0.00     0.200 HD
ATOM     16  H2  LIG d   1       4.303  -3.840  -6.343  0.00  0.00     0.200 HD
ATOM     17  H3  LIG d   1       4.033  -4.948  -5.130  0.00  0.00     0.200 HD
ENDBRANCH   6  14
BRANCH   2  18
ATOM     18  C   LIG d   1       4.988   0.970  -2.895  0.00  0.00     0.086 C 
ATOM     19  O   LIG d   1       5.107   0.947  -1.687  0.00  0.00    -0.543 OA
ATOM     20  OXT LIG d   1       4.130   1.836  -3.471  0.00  0.00    -0.543 OA
ENDBRANCH   2  18
BRANCH   1  21
ATOM     21  C   LIG d   1       7.473   1.760  -3.671  0.00  0.00    -0.041 C 
ATOM     22  H   LIG d   1       7.789   1.681  -2.630  0.00  0.00     0.028 H 
ATOM     23  H   LIG d   1       8.314   2.081  -4.284  0.00  0.00     0.028 H 
ATOM     24  H   LIG d   1       6.666   2.489  -3.751  0.00  0.00     0.028 H 
ENDBRANCH   1  21
TORSDOF 3
ENDMDL
MODEL 3
REMARK VINA RESULT:      -4.6      2.805      3.494
REMARK  3 active torsions:
REMARK  status: ('A' for Active; 'I' for Inactive)
REMARK    1  A    between atoms: C_1  and  C_2 
REMARK    2  A    between atoms: CA_3  and  C_13 
REMARK    3  A    between atoms: CA_7  and  N_22 
ROOT
ATOM      1  C   LIG d   1       5.250   0.255  -2.959  0.00  0.00    -0.040 C 
ATOM      2  CA  LIG d   1       4.645  -0.754  -3.569  0.00  0.00     0.060 C 
ATOM      3  N   LIG d   1       5.142  -1.243  -4.785  0.00  0.00    -0.247 N 
ATOM      4  C   LIG d   1       6.081  -0.562  -5.718  0.00  0.00     0.129 C 
ATOM      5  H   LIG d   1       5.616   0.167  -6.382  0.00  0.00     0.068 H 
ATOM      6  CA  LIG d   1       6.391  -1.904  -6.354  0.00  0.00     0.082 C 
ATOM      7  HA  LIG d   1       7.350  -2.331  -6.058  0.00  0.00     0.098 H 
ATOM      8  C   LIG d   1       5.221  -2.352  -5.511  0.00  0.00     0.272 C 
ATOM      9  O   LIG d   1       4.573  -3.377  -5.500  0.00  0.00    -0.269 OA
ATOM     10  S   LIG d   1       7.402   0.137  -4.671  0.00  0.00    -0.128 SA
ATOM     11  C   LIG d   1       6.435   1.039  -3.422  0.00  0.00     0.018 C 
ATOM     12  H   LIG d   1       7.075   1.253  -2.565  0.00  0.00     0.042 H 
ATOM     13  H   LIG d   1       6.092   1.980  -3.850  0.00  0.00     0.042 H 
ENDROOT
BRANCH   6  14
ATOM     14  N   LIG d   1       6.168  -1.941  -7.810  0.00  0.00     0.229 N 
ATOM     15  H1  LIG d   1       6.464  -1.062  -8.231  0.00  0.00     0.200 HD
ATOM     16  H2  LIG d   1       6.693  -2.710  -8.224  0.00  0.00     0.200 HD
ATOM     17  H3  LIG d   1       5.168  -2.082  -7.996  0.00  0.00     0.200 HD
ENDBRANCH   6  14
BRANCH   2  18
ATOM     18  C   LIG d   1       3.446  -1.363  -2.968  0.00  0.00     0.086 C 
ATOM     19  O   LIG d   1       2.369  -0.809  -3.064  0.00  0.00    -0.543 OA
ATOM     20  OXT LIG d   1       3.543  -2.536  -2.311  0.00  0.00    -0.543 OA
ENDBRANCH   2  18
BRANCH   1  21
ATOM     21  C   LIG d   1       4.668   0.665  -1.630  0.00  0.00    -0.041 C 
ATOM     22  H   LIG d   1       3.686   1.112  -1.785  0.00  0.00     0.028 H 
ATOM     23  H   LIG d   1       4.573  -0.211  -0.989  0.00  0.00     0.028 H 
ATOM     24  H   LIG d   1       5.326   1.392  -1.155  0.00  0.00     0.028 H 
ENDBRANCH   1  21
TORSDOF 3
ENDMDL
MODEL 4
REMARK VINA RESULT:      -4.4      2.577      2.914
REMARK  3 active torsions:
REMARK  status: ('A' for Active; 'I' for Inactive)
REMARK    1  A    between atoms: C_1  and  C_2 
REMARK    2  A    between atoms: CA_3  and  C_13 
REMARK    3  A    between atoms: CA_7  and  N_22 
ROOT
ATOM      1  C   LIG d   1       3.989  -0.514  -6.645  0.00  0.00    -0.040 C 
ATOM      2  CA  LIG d   1       4.075  -0.335  -5.334  0.00  0.00     0.060 C 
ATOM      3  N   LIG d   1       5.222  -0.746  -4.641  0.00  0.00    -0.247 N 
ATOM      4  C   LIG d   1       6.264  -1.703  -5.102  0.00  0.00     0.129 C 
ATOM      5  H   LIG d   1       6.005  -2.755  -4.979  0.00  0.00     0.068 H 
ATOM      6  CA  LIG d   1       7.210  -1.149  -4.053  0.00  0.00     0.082 C 
ATOM      7  HA  LIG d   1       7.972  -0.476  -4.447  0.00  0.00     0.098 H 
ATOM      8  C   LIG d   1       5.956  -0.457  -3.572  0.00  0.00     0.272 C 
ATOM      9  O   LIG d   1       5.705   0.154  -2.556  0.00  0.00    -0.269 OA
ATOM     10  S   LIG d   1       6.639  -1.237  -6.826  0.00  0.00    -0.128 SA
ATOM     11  C   LIG d   1       4.973  -1.175  -7.555  0.00  0.00     0.018 C 
ATOM     12  H   LIG d   1       5.017  -0.620  -8.492  0.00  0.00     0.042 H 
ATOM     13  H   LIG d   1       4.639  -2.191  -7.761  0.00  0.00     0.042 H 
ENDROOT
BRANCH   6  14
ATOM     14  N   LIG d   1       7.755  -2.169  -3.140  0.00  0.00     0.229 N 
ATOM     15  H1  LIG d   1       7.060  -2.894  -2.973  0.00  0.00     0.200 HD
ATOM     16  H2  LIG d   1       8.591  -2.586  -3.544  0.00  0.00     0.200 HD
ATOM     17  H3  LIG d   1       7.999  -1.727  -2.246  0.00  0.00     0.200 HD
ENDBRANCH   6  14
BRANCH   2  18
ATOM     18  C   LIG d   1       2.962   0.297  -4.605  0.00  0.00     0.086 C 
ATOM     19  O   LIG d   1       2.171  -0.390  -3.990  0.00  0.00    -0.543 OA
ATOM     20  OXT LIG d   1       2.822   1.637  -4.619  0.00  0.00    -0.543 OA
ENDBRANCH   2  18
BRANCH   1  21
ATOM     21  C   LIG d   1       2.740   0.016  -7.301  0.00  0.00    -0.041 C 
ATOM     22  H   LIG d   1       1.930   0.046  -6.571  0.00  0.00     0.028 H 
ATOM     23  H   LIG d   1       2.926   1.020  -7.680  0.00  0.00     0.028 H 
ATOM     24  H   LIG d   1       2.459  -0.637  -8.128  0.00  0.00     0.028 H 
ENDBRANCH   1  21
TORSDOF 3
ENDMDL
MODEL 5
REMARK VINA RESULT:      -4.4      3.076      3.585
REMARK  3 active torsions:
REMARK  status: ('A' for Active; 'I' for Inactive)
REMARK    1  A    between atoms: C_1  and  C_2 
REMARK    2  A    between atoms: CA_3  and  C_13 
REMARK    3  A    between atoms: CA_7  and  N_22 
ROOT
ATOM      1  C   LIG d   1       3.342  -0.146  -4.405  0.00  0.00    -0.040 C 
ATOM      2  CA  LIG d   1       4.294  -0.564  -5.227  0.00  0.00     0.060 C 
ATOM      3  N   LIG d   1       5.419  -1.232  -4.723  0.00  0.00    -0.247 N 
ATOM      4  C   LIG d   1       5.906  -1.249  -3.318  0.00  0.00     0.129 C 
ATOM      5  H   LIG d   1       6.490  -0.376  -3.025  0.00  0.00     0.068 H 
ATOM      6  CA  LIG d   1       6.721  -2.489  -3.636  0.00  0.00     0.082 C 
ATOM      7  HA  LIG d   1       6.291  -3.418  -3.261  0.00  0.00     0.098 H 
ATOM      8  C   LIG d   1       6.326  -2.144  -5.052  0.00  0.00     0.272 C 
ATOM      9  O   LIG d   1       6.708  -2.560  -6.125  0.00  0.00    -0.269 OA
ATOM     10  S   LIG d   1       4.428  -1.523  -2.282  0.00  0.00    -0.128 SA
ATOM     11  C   LIG d   1       3.302  -0.241  -2.914  0.00  0.00     0.018 C 
ATOM     12  H   LIG d   1       2.284  -0.479  -2.602  0.00  0.00     0.042 H 
ATOM     13  H   LIG d   1       3.586   0.721  -2.489  0.00  0.00     0.042 H 
ENDROOT
BRANCH   6  14
ATOM     14  N   LIG d   1       8.157  -2.355  -3.333  0.00  0.00     0.229 N 
ATOM     15  H1  LIG d   1       8.699  -2.373  -4.195  0.00  0.00     0.200 HD
ATOM     16  H2  LIG d   1       8.329  -1.479  -2.842  0.00  0.00     0.200 HD
ATOM     17  H3  LIG d   1       8.451  -3.136  -2.735  0.00  0.00     0.200 HD
ENDBRANCH   6  14
BRANCH   2  18
ATOM     18  C   LIG d   1       4.169  -0.325  -6.676  0.00  0.00     0.086 C 
ATOM     19  O   LIG d   1       4.586   0.708  -7.159  0.00  0.00    -0.543 OA
ATOM     20  OXT LIG d   1       3.593  -1.254  -7.465  0.00  0.00    -0.543 OA
ENDBRANCH   2  18
BRANCH   1  21
ATOM     21  C   LIG d   1       2.151   0.509  -5.055  0.00  0.00    -0.041 C 
ATOM     22  H   LIG d   1       1.424   0.783  -4.290  0.00  0.00     0.028 H 
ATOM     23  H   LIG d   1       2.473   1.402  -5.588  0.00  0.00     0.028 H 
ATOM     24  H   LIG d   1       1.692  -0.187  -5.758  0.00  0.00     0.028 H 
ENDBRANCH   1  21
TORSDOF 3
ENDMDL
MODEL 6
REMARK VINA RESULT:      -4.4      2.937      3.416
REMARK  3 active torsions:
REMARK  status: ('A' for Active; 'I' for Inactive)
REMARK    1  A    between atoms: C_1  and  C_2 
REMARK    2  A    between atoms: CA_3  and  C_13 
REMARK    3  A    between atoms: CA_7  and  N_22 
ROOT
ATOM      1  C   LIG d   1       4.554  -1.965  -3.938  0.00  0.00    -0.040 C 
ATOM      2  CA  LIG d   1       4.251  -0.836  -4.562  0.00  0.00     0.060 C 
ATOM      3  N   LIG d   1       4.333  -0.758  -5.958  0.00  0.00    -0.247 N 
ATOM      4  C   LIG d   1       5.066  -1.674  -6.874  0.00  0.00     0.129 C 
ATOM      5  H   LIG d   1       6.135  -1.478  -6.958  0.00  0.00     0.068 H 
ATOM      6  CA  LIG d   1       4.226  -1.160  -8.029  0.00  0.00     0.082 C 
ATOM      7  HA  LIG d   1       3.435  -1.839  -8.346  0.00  0.00     0.098 H 
ATOM      8  C   LIG d   1       3.798  -0.137  -7.003  0.00  0.00     0.272 C 
ATOM      9  O   LIG d   1       3.175   0.899  -7.101  0.00  0.00    -0.269 OA
ATOM     10  S   LIG d   1       4.673  -3.364  -6.306  0.00  0.00    -0.128 SA
ATOM     11  C   LIG d   1       5.050  -3.245  -4.530  0.00  0.00     0.018 C 
ATOM     12  H   LIG d   1       4.580  -4.081  -4.012  0.00  0.00     0.042 H 
ATOM     13  H   LIG d   1       6.128  -3.305  -4.392  0.00  0.00     0.042 H 
ENDROOT
BRANCH   6  14
ATOM     14  N   LIG d   1       5.017  -0.630  -9.154  0.00  0.00     0.229 N 
ATOM     15  H1  LIG d   1       5.954  -1.029  -9.140  0.00  0.00     0.200 HD
ATOM     16  H2  LIG d   1       4.563  -0.857 -10.036  0.00  0.00     0.200 HD
ATOM     17  H3  LIG d   1       5.087   0.391  -9.066  0.00  0.00     0.200 HD
ENDBRANCH   6  14
BRANCH   2  18
ATOM     18  C   LIG d   1       3.827   0.342  -3.784  0.00  0.00     0.086 C 
ATOM     19  O   LIG d   1       2.664   0.466  -3.456  0.00  0.00    -0.543 OA
ATOM     20  OXT LIG d   1       4.729   1.280  -3.435  0.00  0.00    -0.543 OA
ENDBRANCH   2  18
BRANCH   1  21
ATOM     21  C   LIG d   1       4.376  -1.959  -2.441  0.00  0.00    -0.041 C 
ATOM     22  H   LIG d   1       5.127  -2.604  -1.983  0.00  0.00     0.028 H 
ATOM     23  H   LIG d   1       4.493  -0.942  -2.066  0.00  0.00     0.028 H 
ATOM     24  H   LIG d   1       3.381  -2.326  -2.191  0.00  0.00     0.028 H 
ENDBRANCH   1  21
TORSDOF 3
ENDMDL
MODEL 7
REMARK VINA RESULT:      -4.2      3.446      4.398
REMARK  3 active torsions:
REMARK  status: ('A' for Active; 'I' for Inactive)
REMARK    1  A    between atoms: C_1  and  C_2 
REMARK    2  A    between atoms: CA_3  and  C_13 
REMARK    3  A    between atoms: CA_7  and  N_22 
ROOT
ATOM      1  C   LIG d   1       4.931  -2.828  -5.846  0.00  0.00    -0.040 C 
ATOM      2  CA  LIG d   1       4.462  -1.744  -5.245  0.00  0.00     0.060 C 
ATOM      3  N   LIG d   1       3.934  -0.690  -6.003  0.00  0.00    -0.247 N 
ATOM      4  C   LIG d   1       4.134  -0.430  -7.454  0.00  0.00     0.129 C 
ATOM      5  H   LIG d   1       5.071   0.068  -7.704  0.00  0.00     0.068 H 
ATOM      6  CA  LIG d   1       2.911   0.469  -7.442  0.00  0.00     0.082 C 
ATOM      7  HA  LIG d   1       2.019   0.018  -7.876  0.00  0.00     0.098 H 
ATOM      8  C   LIG d   1       3.039   0.290  -5.948  0.00  0.00     0.272 C 
ATOM      9  O   LIG d   1       2.505   0.851  -5.015  0.00  0.00    -0.269 OA
ATOM     10  S   LIG d   1       3.918  -2.043  -8.282  0.00  0.00    -0.128 SA
ATOM     11  C   LIG d   1       5.036  -3.100  -7.312  0.00  0.00     0.018 C 
ATOM     12  H   LIG d   1       4.784  -4.145  -7.497  0.00  0.00     0.042 H 
ATOM     13  H   LIG d   1       6.061  -2.921  -7.634  0.00  0.00     0.042 H 
ENDROOT
BRANCH   6  14
ATOM     14  N   LIG d   1       3.168   1.833  -7.937  0.00  0.00     0.229 N 
ATOM     15  H1  LIG d   1       4.170   1.986  -8.034  0.00  0.00     0.200 HD
ATOM     16  H2  LIG d   1       2.715   1.967  -8.839  0.00  0.00     0.200 HD
ATOM     17  H3  LIG d   1       2.788   2.512  -7.267  0.00  0.00     0.200 HD
ENDBRANCH   6  14
BRANCH   2  18
ATOM     18  C   LIG d   1       4.496  -1.647  -3.775  0.00  0.00     0.086 C 
ATOM     19  O   LIG d   1       3.543  -2.019  -3.120  0.00  0.00    -0.543 OA
ATOM     20  OXT LIG d   1       5.584  -1.147  -3.157  0.00  0.00    -0.543 OA
ENDBRANCH   2  18
BRANCH   1  21
ATOM     21  C   LIG d   1       5.423  -3.925  -4.937  0.00  0.00    -0.041 C 
ATOM     22  H   LIG d   1       6.254  -4.447  -5.413  0.00  0.00     0.028 H 
ATOM     23  H   LIG d   1       5.757  -3.493  -3.994  0.00  0.00     0.028 H 
ATOM     24  H   LIG d   1       4.613  -4.629  -4.746  0.00  0.00     0.028 H 
ENDBRANCH   1  21
TORSDOF 3
ENDMDL
MODEL 8
REMARK VINA RESULT:      -4.1      3.421      4.738
REMARK  3 active torsions:
REMARK  status: ('A' for Active; 'I' for Inactive)
REMARK    1  A    between atoms: C_1  and  C_2 
REMARK    2  A    between atoms: CA_3  and  C_13 
REMARK    3  A    between atoms: CA_7  and  N_22 
ROOT
ATOM      1  C   LIG d   1       5.321  -0.669  -7.457  0.00  0.00    -0.040 C 
ATOM      2  CA  LIG d   1       4.198  -0.439  -6.793  0.00  0.00     0.060 C 
ATOM      3  N   LIG d   1       4.055  -0.889  -5.473  0.00  0.00    -0.247 N 
ATOM      4  C   LIG d   1       4.863  -1.927  -4.778  0.00  0.00     0.129 C 
ATOM      5  H   LIG d   1       4.570  -2.955  -4.993  0.00  0.00     0.068 H 
ATOM      6  CA  LIG d   1       4.378  -1.386  -3.446  0.00  0.00     0.082 C 
ATOM      7  HA  LIG d   1       5.111  -0.779  -2.914  0.00  0.00     0.098 H 
ATOM      8  C   LIG d   1       3.441  -0.599  -4.331  0.00  0.00     0.272 C 
ATOM      9  O   LIG d   1       2.461   0.071  -4.084  0.00  0.00    -0.269 OA
ATOM     10  S   LIG d   1       6.603  -1.560  -5.190  0.00  0.00    -0.128 SA
ATOM     11  C   LIG d   1       6.526  -1.428  -7.003  0.00  0.00     0.018 C 
ATOM     12  H   LIG d   1       7.421  -0.919  -7.359  0.00  0.00     0.042 H 
ATOM     13  H   LIG d   1       6.496  -2.430  -7.430  0.00  0.00     0.042 H 
ENDROOT
BRANCH   6  14
ATOM     14  N   LIG d   1       3.733  -2.397  -2.589  0.00  0.00     0.229 N 
ATOM     15  H1  LIG d   1       3.065  -1.949  -1.964  0.00  0.00     0.200 HD
ATOM     16  H2  LIG d   1       3.252  -3.085  -3.165  0.00  0.00     0.200 HD
ATOM     17  H3  LIG d   1       4.450  -2.872  -2.029  0.00  0.00     0.200 HD
ENDBRANCH   6  14
BRANCH   2  18
ATOM     18  C   LIG d   1       3.096   0.291  -7.443  0.00  0.00     0.086 C 
ATOM     19  O   LIG d   1       2.246  -0.317  -8.062  0.00  0.00    -0.543 OA
ATOM     20  OXT LIG d   1       3.031   1.634  -7.352  0.00  0.00    -0.543 OA
ENDBRANCH   2  18
BRANCH   1  21
ATOM     21  C   LIG d   1       5.393  -0.094  -8.848  0.00  0.00    -0.041 C 
ATOM     22  H   LIG d   1       5.088  -0.850  -9.571  0.00  0.00     0.028 H 
ATOM     23  H   LIG d   1       4.728   0.767  -8.920  0.00  0.00     0.028 H 
ATOM     24  H   LIG d   1       6.415   0.220  -9.059  0.00  0.00     0.028 H 
ENDBRANCH   1  21
TORSDOF 3
ENDMDL
MODEL 9
REMARK VINA RESULT:      -4.0     12.189     13.404
REMARK  3 active torsions:
REMARK  status: ('A' for Active; 'I' for Inactive)
REMARK    1  A    between atoms: C_1  and  C_2 
REMARK    2  A    between atoms: CA_3  and  C_13 
REMARK    3  A    between atoms: CA_7  and  N_22 
ROOT
ATOM      1  C   LIG d   1      10.803  10.977  -7.242  0.00  0.00    -0.040 C 
ATOM      2  CA  LIG d   1      10.143  12.017  -6.752  0.00  0.00     0.060 C 
ATOM      3  N   LIG d   1       9.545  11.940  -5.487  0.00  0.00    -0.247 N 
ATOM      4  C   LIG d   1       9.223  10.711  -4.711  0.00  0.00     0.129 C 
ATOM      5  H   LIG d   1       8.298  10.214  -5.004  0.00  0.00     0.068 H 
ATOM      6  CA  LIG d   1       9.129  11.554  -3.452  0.00  0.00     0.082 C 
ATOM      7  HA  LIG d   1       9.993  11.473  -2.792  0.00  0.00     0.098 H 
ATOM      8  C   LIG d   1       9.205  12.690  -4.445  0.00  0.00     0.272 C 
ATOM      9  O   LIG d   1       9.019  13.882  -4.329  0.00  0.00    -0.269 OA
ATOM     10  S   LIG d   1      10.699   9.644  -4.835  0.00  0.00    -0.128 SA
ATOM     11  C   LIG d   1      10.980   9.624  -6.633  0.00  0.00     0.018 C 
ATOM     12  H   LIG d   1      11.995   9.277  -6.829  0.00  0.00     0.042 H 
ATOM     13  H   LIG d   1      10.276   8.932  -7.094  0.00  0.00     0.042 H 
ENDROOT
BRANCH   6  14
ATOM     14  N   LIG d   1       7.845  11.424  -2.741  0.00  0.00     0.229 N 
ATOM     15  H1  LIG d   1       7.073  11.619  -3.377  0.00  0.00     0.200 HD
ATOM     16  H2  LIG d   1       7.748  10.482  -2.367  0.00  0.00     0.200 HD
ATOM     17  H3  LIG d   1       7.818  12.097  -1.966  0.00  0.00     0.200 HD
ENDBRANCH   6  14
BRANCH   2  18
ATOM     18  C   LIG d   1      10.038  13.257  -7.540  0.00  0.00     0.086 C 
ATOM     19  O   LIG d   1       9.104  13.417  -8.300  0.00  0.00    -0.543 OA
ATOM     20  OXT LIG d   1      10.977  14.216  -7.417  0.00  0.00    -0.543 OA
ENDBRANCH   2  18
BRANCH   1  21
ATOM     21  C   LIG d   1      11.456  11.184  -8.584  0.00  0.00    -0.041 C 
ATOM     22  H   LIG d   1      11.213  10.348  -9.240  0.00  0.00     0.028 H 
ATOM     23  H   LIG d   1      11.091  12.111  -9.026  0.00  0.00     0.028 H 
ATOM     24  H   LIG d   1      12.537  11.244  -8.457  0.00  0.00     0.028 H 
ENDBRANCH   1  21
TORSDOF 3
ENDMDL
