MODEL 1
REMARK VINA RESULT:      -6.4      0.000      0.000
REMARK  15 active torsions:
REMARK  status: ('A' for Active; 'I' for Inactive)
REMARK    1  A    between atoms: C_1  and  C_2 
REMARK    2  A    between atoms: C_3  and  C_4 
REMARK    3  A    between atoms: C_3  and  C_5 
REMARK    4  A    between atoms: C_5  and  O_7 
REMARK    5  A    between atoms: O_7  and  C_8 
REMARK    6  A    between atoms: C_19  and  C_41 
REMARK    7  A    between atoms: C_21  and  C_40 
REMARK    8  A    between atoms: C_26  and  C_39 
REMARK    9  A    between atoms: C_29  and  C_33 
REMARK   10  A    between atoms: C_29  and  O_38 
REMARK   11  A    between atoms: C_30  and  C_31 
REMARK   12  A    between atoms: C_30  and  C_32 
REMARK   13  A    between atoms: C_33  and  C_34 
REMARK   14  A    between atoms: C_34  and  O_36 
REMARK   15  A    between atoms: O_36  and  C_37 
ROOT
ATOM      1  C   LIG d   1       5.690  -0.164  -7.393  0.00  0.00     0.121 C 
ATOM      2  H   LIG d   1       5.518   0.896  -7.132  0.00  0.00     0.075 H 
ATOM      3  C   LIG d   1       7.117  -0.521  -7.014  0.00  0.00     0.059 C 
ATOM      4  H   LIG d   1       7.798   0.279  -7.361  0.00  0.00     0.042 H 
ATOM      5  C   LIG d   1       7.561  -1.839  -7.630  0.00  0.00    -0.018 C 
ATOM      6  C   LIG d   1       7.113  -3.064  -6.877  0.00  0.00    -0.064 C 
ATOM      7  C   LIG d   1       7.050  -4.197  -7.534  0.00  0.00    -0.050 C 
ATOM      8  C   LIG d   1       7.403  -4.241  -9.021  0.00  0.00     0.067 C 
ATOM      9  C   LIG d   1       6.150  -4.824  -9.664  0.00  0.00     0.312 C 
ATOM     10  O   LIG d   1       5.647  -4.297 -10.625  0.00  0.00    -0.251 OA
ATOM     11  O   LIG d   1       5.628  -5.941  -9.128  0.00  0.00    -0.455 OA
ATOM     12  C   LIG d   1       5.376  -5.982  -7.716  0.00  0.00     0.140 C 
ATOM     13  H   LIG d   1       4.535  -5.331  -7.474  0.00  0.00     0.080 H 
ATOM     14  C   LIG d   1       6.627  -5.530  -6.967  0.00  0.00     0.031 C 
ATOM     15  C   LIG d   1       6.456  -5.483  -5.463  0.00  0.00    -0.040 C 
ATOM     16  C   LIG d   1       5.815  -4.156  -5.056  0.00  0.00    -0.045 C 
ATOM     17  C   LIG d   1       6.774  -3.030  -5.413  0.00  0.00    -0.005 C 
ATOM     18  H   LIG d   1       7.732  -3.255  -4.877  0.00  0.00     0.036 H 
ATOM     19  C   LIG d   1       6.300  -1.683  -4.901  0.00  0.00     0.063 C 
ATOM     20  C   LIG d   1       7.217  -0.624  -5.508  0.00  0.00     0.149 C 
ATOM     21  O   LIG d   1       7.945   0.059  -4.837  0.00  0.00    -0.296 OA
ATOM     22  C   LIG d   1       4.870  -1.317  -5.254  0.00  0.00     0.097 C 
ATOM     23  C   LIG d   1       4.617  -0.993  -6.716  0.00  0.00     0.033 C 
ATOM     24  H   LIG d   1       7.169  -1.875  -8.656  0.00  0.00     0.032 H 
ATOM     25  H   LIG d   1       8.657  -1.853  -7.698  0.00  0.00     0.032 H 
ATOM     26  H   LIG d   1       7.615  -3.262  -9.428  0.00  0.00     0.042 H 
ATOM     27  H   LIG d   1       8.257  -4.895  -9.198  0.00  0.00     0.042 H 
ATOM     28  H   LIG d   1       5.859  -6.303  -5.096  0.00  0.00     0.028 H 
ATOM     29  H   LIG d   1       7.449  -5.538  -5.001  0.00  0.00     0.028 H 
ATOM     30  H   LIG d   1       4.885  -4.062  -5.606  0.00  0.00     0.027 H 
ATOM     31  H   LIG d   1       5.626  -4.171  -3.986  0.00  0.00     0.027 H 
ENDROOT
BRANCH   1  32
ATOM     32  O   LIG d   1       5.525  -0.250  -8.819  0.00  0.00    -0.457 OA
BRANCH  32  33
ATOM     33  C   LIG d   1       5.600   0.902  -9.515  0.00  0.00     0.335 C 
ATOM     34  O   LIG d   1       6.686   1.386  -9.773  0.00  0.00    -0.245 OA
BRANCH  33  35
ATOM     35  C   LIG d   1       4.372   1.572  -9.964  0.00  0.00     0.029 C 
ATOM     36  C   LIG d   1       3.765   1.170 -11.078  0.00  0.00    -0.077 C 
ATOM     37  H   LIG d   1       2.861   1.661 -11.409  0.00  0.00     0.057 H 
BRANCH  36  38
ATOM     38  C   LIG d   1       4.337   0.029 -11.879  0.00  0.00    -0.046 C 
ATOM     39  H   LIG d   1       4.728  -0.731 -11.202  0.00  0.00     0.027 H 
ATOM     40  H   LIG d   1       3.555  -0.406 -12.501  0.00  0.00     0.027 H 
ATOM     41  H   LIG d   1       5.142   0.399 -12.514  0.00  0.00     0.027 H 
ENDBRANCH  36  38
BRANCH  35  42
ATOM     42  C   LIG d   1       3.800   2.713  -9.163  0.00  0.00    -0.033 C 
ATOM     43  H   LIG d   1       3.361   3.446  -9.839  0.00  0.00     0.028 H 
ATOM     44  H   LIG d   1       3.032   2.334  -8.488  0.00  0.00     0.028 H 
ATOM     45  H   LIG d   1       4.595   3.183  -8.583  0.00  0.00     0.028 H 
ENDBRANCH  35  42
ENDBRANCH  33  35
ENDBRANCH  32  33
ENDBRANCH   1  32
BRANCH  23  46
ATOM     46  C   LIG d   1       3.311  -0.153  -6.752  0.00  0.00    -0.054 C 
ATOM     47  H   LIG d   1       3.561   0.900  -6.887  0.00  0.00     0.024 H 
ATOM     48  H   LIG d   1       2.687  -0.486  -7.582  0.00  0.00     0.024 H 
ATOM     49  H   LIG d   1       2.770  -0.281  -5.815  0.00  0.00     0.024 H 
ENDBRANCH  23  46
BRANCH  23  50
ATOM     50  C   LIG d   1       4.320  -2.257  -7.522  0.00  0.00    -0.054 C 
ATOM     51  H   LIG d   1       3.872  -1.982  -8.477  0.00  0.00     0.024 H 
ATOM     52  H   LIG d   1       5.248  -2.802  -7.699  0.00  0.00     0.024 H 
ATOM     53  H   LIG d   1       3.629  -2.889  -6.965  0.00  0.00     0.024 H 
ENDBRANCH  23  50
BRANCH  22  54
ATOM     54  C   LIG d   1       4.491  -0.061  -4.429  0.00  0.00     0.075 C 
ATOM     55  H   LIG d   1       5.381   0.327  -3.931  0.00  0.00     0.041 H 
ATOM     56  H   LIG d   1       4.085   0.701  -5.093  0.00  0.00     0.041 H 
BRANCH  54  57
ATOM     57  C   LIG d   1       3.459  -0.431  -3.396  0.00  0.00     0.310 C 
ATOM     58  O   LIG d   1       2.328  -0.690  -3.738  0.00  0.00    -0.251 OA
BRANCH  57  59
ATOM     59  O   LIG d   1       3.793  -0.474  -2.097  0.00  0.00    -0.468 OA
BRANCH  59  60
ATOM     60  C   LIG d   1       4.531   0.635  -1.580  0.00  0.00     0.082 C 
ATOM     61  H   LIG d   1       3.864   1.281  -1.008  0.00  0.00     0.066 H 
ATOM     62  H   LIG d   1       5.328   0.271  -0.932  0.00  0.00     0.066 H 
ATOM     63  H   LIG d   1       4.964   1.201  -2.406  0.00  0.00     0.066 H 
ENDBRANCH  59  60
ENDBRANCH  57  59
ENDBRANCH  54  57
ENDBRANCH  22  54
BRANCH  22  64
ATOM     64  O   LIG d   1       3.963  -2.351  -4.835  0.00  0.00    -0.386 OA
ATOM     65  H   LIG d   1       4.261  -3.245  -5.049  0.00  0.00     0.210 HD
ENDBRANCH  22  64
BRANCH  19  66
ATOM     66  C   LIG d   1       6.466  -1.620  -3.365  0.00  0.00    -0.050 C 
ATOM     67  H   LIG d   1       6.048  -0.685  -2.992  0.00  0.00     0.024 H 
ATOM     68  H   LIG d   1       5.942  -2.460  -2.908  0.00  0.00     0.024 H 
ATOM     69  H   LIG d   1       7.524  -1.672  -3.111  0.00  0.00     0.024 H 
ENDBRANCH  19  66
BRANCH  14  70
ATOM     70  C   LIG d   1       7.734  -6.545  -7.258  0.00  0.00    -0.052 C 
ATOM     71  H   LIG d   1       7.455  -7.150  -8.119  0.00  0.00     0.024 H 
ATOM     72  H   LIG d   1       8.664  -6.017  -7.470  0.00  0.00     0.024 H 
ATOM     73  H   LIG d   1       7.872  -7.189  -6.390  0.00  0.00     0.024 H 
ENDBRANCH  14  70
BRANCH  12  74
ATOM     74  C   LIG d   1       5.029  -7.397  -7.333  0.00  0.00     0.031 A 
ATOM     75  C   LIG d   1       4.649  -7.827  -6.117  0.00  0.00     0.098 A 
ATOM     76  O   LIG d   1       4.428  -9.151  -6.184  0.00  0.00    -0.471 OA
ATOM     77  H   LIG d   1       4.538  -7.214  -5.235  0.00  0.00     0.103 H 
ATOM     78  C   LIG d   1       4.670  -9.581  -7.434  0.00  0.00     0.092 A 
ATOM     79  C   LIG d   1       5.045  -8.528  -8.181  0.00  0.00    -0.017 A 
ATOM     80  H   LIG d   1       4.578 -10.601  -7.779  0.00  0.00     0.103 H 
ATOM     81  H   LIG d   1       5.308  -8.543  -9.229  0.00  0.00     0.065 H 
ENDBRANCH  12  74
TORSDOF 15
ENDMDL
MODEL 2
REMARK VINA RESULT:      -6.1      1.975      4.938
REMARK  15 active torsions:
REMARK  status: ('A' for Active; 'I' for Inactive)
REMARK    1  A    between atoms: C_1  and  C_2 
REMARK    2  A    between atoms: C_3  and  C_4 
REMARK    3  A    between atoms: C_3  and  C_5 
REMARK    4  A    between atoms: C_5  and  O_7 
REMARK    5  A    between atoms: O_7  and  C_8 
REMARK    6  A    between atoms: C_19  and  C_41 
REMARK    7  A    between atoms: C_21  and  C_40 
REMARK    8  A    between atoms: C_26  and  C_39 
REMARK    9  A    between atoms: C_29  and  C_33 
REMARK   10  A    between atoms: C_29  and  O_38 
REMARK   11  A    between atoms: C_30  and  C_31 
REMARK   12  A    between atoms: C_30  and  C_32 
REMARK   13  A    between atoms: C_33  and  C_34 
REMARK   14  A    between atoms: C_34  and  O_36 
REMARK   15  A    between atoms: O_36  and  C_37 
ROOT
ATOM      1  C   LIG d   1       4.881  -0.236  -5.797  0.00  0.00     0.121 C 
ATOM      2  H   LIG d   1       4.925   0.762  -5.326  0.00  0.00     0.075 H 
ATOM      3  C   LIG d   1       4.362  -0.071  -7.215  0.00  0.00     0.059 C 
ATOM      4  H   LIG d   1       3.485   0.605  -7.206  0.00  0.00     0.042 H 
ATOM      5  C   LIG d   1       3.947  -1.397  -7.833  0.00  0.00    -0.018 C 
ATOM      6  C   LIG d   1       5.084  -2.204  -8.403  0.00  0.00    -0.064 C 
ATOM      7  C   LIG d   1       4.910  -3.496  -8.537  0.00  0.00    -0.050 C 
ATOM      8  C   LIG d   1       3.595  -4.142  -8.099  0.00  0.00     0.067 C 
ATOM      9  C   LIG d   1       4.038  -5.204  -7.101  0.00  0.00     0.312 C 
ATOM     10  O   LIG d   1       3.508  -5.295  -6.021  0.00  0.00    -0.251 OA
ATOM     11  O   LIG d   1       5.033  -6.032  -7.461  0.00  0.00    -0.455 OA
ATOM     12  C   LIG d   1       6.250  -5.474  -7.976  0.00  0.00     0.140 C 
ATOM     13  H   LIG d   1       6.796  -4.978  -7.172  0.00  0.00     0.080 H 
ATOM     14  C   LIG d   1       5.918  -4.476  -9.083  0.00  0.00     0.031 C 
ATOM     15  C   LIG d   1       7.132  -3.783  -9.665  0.00  0.00    -0.040 C 
ATOM     16  C   LIG d   1       7.512  -2.585  -8.794  0.00  0.00    -0.045 C 
ATOM     17  C   LIG d   1       6.375  -1.575  -8.845  0.00  0.00    -0.005 C 
ATOM     18  H   LIG d   1       6.232  -1.321  -9.926  0.00  0.00     0.036 H 
ATOM     19  C   LIG d   1       6.724  -0.277  -8.141  0.00  0.00     0.063 C 
ATOM     20  C   LIG d   1       5.444   0.552  -8.068  0.00  0.00     0.149 C 
ATOM     21  O   LIG d   1       5.324   1.602  -8.641  0.00  0.00    -0.296 OA
ATOM     22  C   LIG d   1       7.263  -0.424  -6.729  0.00  0.00     0.097 C 
ATOM     23  C   LIG d   1       6.254  -0.868  -5.685  0.00  0.00     0.033 C 
ATOM     24  H   LIG d   1       3.436  -1.981  -7.054  0.00  0.00     0.032 H 
ATOM     25  H   LIG d   1       3.217  -1.210  -8.632  0.00  0.00     0.032 H 
ATOM     26  H   LIG d   1       2.921  -3.439  -7.629  0.00  0.00     0.042 H 
ATOM     27  H   LIG d   1       3.091  -4.608  -8.946  0.00  0.00     0.042 H 
ATOM     28  H   LIG d   1       7.976  -4.448  -9.756  0.00  0.00     0.028 H 
ATOM     29  H   LIG d   1       6.871  -3.409 -10.663  0.00  0.00     0.028 H 
ATOM     30  H   LIG d   1       7.659  -2.953  -7.784  0.00  0.00     0.027 H 
ATOM     31  H   LIG d   1       8.429  -2.148  -9.178  0.00  0.00     0.027 H 
ENDROOT
BRANCH   1  32
ATOM     32  O   LIG d   1       3.944  -0.999  -5.018  0.00  0.00    -0.457 OA
BRANCH  32  33
ATOM     33  C   LIG d   1       3.164  -0.316  -4.155  0.00  0.00     0.335 C 
ATOM     34  O   LIG d   1       2.042   0.015  -4.483  0.00  0.00    -0.245 OA
BRANCH  33  35
ATOM     35  C   LIG d   1       3.672   0.027  -2.820  0.00  0.00     0.029 C 
ATOM     36  C   LIG d   1       4.036  -0.938  -1.979  0.00  0.00    -0.077 C 
ATOM     37  H   LIG d   1       4.410  -0.687  -0.997  0.00  0.00     0.057 H 
BRANCH  36  38
ATOM     38  C   LIG d   1       3.931  -2.382  -2.397  0.00  0.00    -0.046 C 
ATOM     39  H   LIG d   1       4.831  -2.916  -2.091  0.00  0.00     0.027 H 
ATOM     40  H   LIG d   1       3.061  -2.835  -1.923  0.00  0.00     0.027 H 
ATOM     41  H   LIG d   1       3.825  -2.440  -3.481  0.00  0.00     0.027 H 
ENDBRANCH  36  38
BRANCH  35  42
ATOM     42  C   LIG d   1       3.777   1.471  -2.402  0.00  0.00    -0.033 C 
ATOM     43  H   LIG d   1       2.852   1.776  -1.915  0.00  0.00     0.028 H 
ATOM     44  H   LIG d   1       4.609   1.589  -1.708  0.00  0.00     0.028 H 
ATOM     45  H   LIG d   1       3.946   2.092  -3.282  0.00  0.00     0.028 H 
ENDBRANCH  35  42
ENDBRANCH  33  35
ENDBRANCH  32  33
ENDBRANCH   1  32
BRANCH  23  46
ATOM     46  C   LIG d   1       6.836  -0.435  -4.311  0.00  0.00    -0.054 C 
ATOM     47  H   LIG d   1       7.341  -1.282  -3.848  0.00  0.00     0.024 H 
ATOM     48  H   LIG d   1       7.549   0.377  -4.457  0.00  0.00     0.024 H 
ATOM     49  H   LIG d   1       6.027  -0.096  -3.664  0.00  0.00     0.024 H 
ENDBRANCH  23  46
BRANCH  23  50
ATOM     50  C   LIG d   1       6.146  -2.392  -5.628  0.00  0.00    -0.054 C 
ATOM     51  H   LIG d   1       5.203  -2.672  -5.160  0.00  0.00     0.024 H 
ATOM     52  H   LIG d   1       6.186  -2.797  -6.640  0.00  0.00     0.024 H 
ATOM     53  H   LIG d   1       6.975  -2.792  -5.043  0.00  0.00     0.024 H 
ENDBRANCH  23  50
BRANCH  22  54
ATOM     54  C   LIG d   1       7.807   0.959  -6.290  0.00  0.00     0.075 C 
ATOM     55  H   LIG d   1       7.609   1.692  -7.073  0.00  0.00     0.041 H 
ATOM     56  H   LIG d   1       7.314   1.268  -5.369  0.00  0.00     0.041 H 
BRANCH  54  57
ATOM     57  C   LIG d   1       9.292   0.862  -6.056  0.00  0.00     0.310 C 
ATOM     58  O   LIG d   1      10.056   0.916  -6.992  0.00  0.00    -0.251 OA
BRANCH  57  59
ATOM     59  O   LIG d   1       9.769   0.716  -4.810  0.00  0.00    -0.468 OA
BRANCH  59  60
ATOM     60  C   LIG d   1       9.890   1.899  -4.018  0.00  0.00     0.082 C 
ATOM     61  H   LIG d   1      10.143   1.627  -2.993  0.00  0.00     0.066 H 
ATOM     62  H   LIG d   1      10.675   2.533  -4.430  0.00  0.00     0.066 H 
ATOM     63  H   LIG d   1       8.943   2.441  -4.027  0.00  0.00     0.066 H 
ENDBRANCH  59  60
ENDBRANCH  57  59
ENDBRANCH  54  57
ENDBRANCH  22  54
BRANCH  22  64
ATOM     64  O   LIG d   1       8.390  -1.316  -6.706  0.00  0.00    -0.386 OA
ATOM     65  H   LIG d   1       8.250  -2.140  -7.192  0.00  0.00     0.210 HD
ENDBRANCH  22  64
BRANCH  19  66
ATOM     66  C   LIG d   1       7.748   0.517  -8.985  0.00  0.00    -0.050 C 
ATOM     67  H   LIG d   1       8.742   0.403  -8.552  0.00  0.00     0.024 H 
ATOM     68  H   LIG d   1       7.752   0.135 -10.006  0.00  0.00     0.024 H 
ATOM     69  H   LIG d   1       7.473   1.571  -8.993  0.00  0.00     0.024 H 
ENDBRANCH  19  66
BRANCH  14  70
ATOM     70  C   LIG d   1       5.260  -5.253 -10.225  0.00  0.00    -0.052 C 
ATOM     71  H   LIG d   1       4.203  -4.995 -10.278  0.00  0.00     0.024 H 
ATOM     72  H   LIG d   1       5.745  -4.995 -11.167  0.00  0.00     0.024 H 
ATOM     73  H   LIG d   1       5.365  -6.322 -10.044  0.00  0.00     0.024 H 
ENDBRANCH  14  70
BRANCH  12  74
ATOM     74  C   LIG d   1       7.095  -6.593  -8.527  0.00  0.00     0.031 A 
ATOM     75  C   LIG d   1       6.678  -7.832  -8.843  0.00  0.00     0.098 A 
ATOM     76  O   LIG d   1       7.730  -8.530  -9.302  0.00  0.00    -0.471 OA
ATOM     77  H   LIG d   1       5.668  -8.203  -8.746  0.00  0.00     0.103 H 
ATOM     78  C   LIG d   1       8.826  -7.755  -9.278  0.00  0.00     0.092 A 
ATOM     79  C   LIG d   1       8.481  -6.544  -8.804  0.00  0.00    -0.017 A 
ATOM     80  H   LIG d   1       9.818  -8.053  -9.586  0.00  0.00     0.103 H 
ATOM     81  H   LIG d   1       9.136  -5.697  -8.662  0.00  0.00     0.065 H 
ENDBRANCH  12  74
TORSDOF 15
ENDMDL
MODEL 3
REMARK VINA RESULT:      -5.8      2.743      7.286
REMARK  15 active torsions:
REMARK  status: ('A' for Active; 'I' for Inactive)
REMARK    1  A    between atoms: C_1  and  C_2 
REMARK    2  A    between atoms: C_3  and  C_4 
REMARK    3  A    between atoms: C_3  and  C_5 
REMARK    4  A    between atoms: C_5  and  O_7 
REMARK    5  A    between atoms: O_7  and  C_8 
REMARK    6  A    between atoms: C_19  and  C_41 
REMARK    7  A    between atoms: C_21  and  C_40 
REMARK    8  A    between atoms: C_26  and  C_39 
REMARK    9  A    between atoms: C_29  and  C_33 
REMARK   10  A    between atoms: C_29  and  O_38 
REMARK   11  A    between atoms: C_30  and  C_31 
REMARK   12  A    between atoms: C_30  and  C_32 
REMARK   13  A    between atoms: C_33  and  C_34 
REMARK   14  A    between atoms: C_34  and  O_36 
REMARK   15  A    between atoms: O_36  and  C_37 
ROOT
ATOM      1  C   LIG d   1       3.947  -1.009  -6.200  0.00  0.00     0.121 C 
ATOM      2  H   LIG d   1       2.908  -1.359  -6.060  0.00  0.00     0.075 H 
ATOM      3  C   LIG d   1       4.882  -2.177  -5.942  0.00  0.00     0.059 C 
ATOM      4  H   LIG d   1       4.566  -2.701  -5.019  0.00  0.00     0.042 H 
ATOM      5  C   LIG d   1       6.327  -1.731  -5.778  0.00  0.00    -0.018 C 
ATOM      6  C   LIG d   1       7.061  -1.502  -7.072  0.00  0.00    -0.064 C 
ATOM      7  C   LIG d   1       8.110  -0.715  -7.049  0.00  0.00    -0.050 C 
ATOM      8  C   LIG d   1       8.538  -0.046  -5.743  0.00  0.00     0.067 C 
ATOM      9  C   LIG d   1       8.540   1.438  -6.091  0.00  0.00     0.312 C 
ATOM     10  O   LIG d   1       7.985   2.239  -5.379  0.00  0.00    -0.251 OA
ATOM     11  O   LIG d   1       9.177   1.823  -7.210  0.00  0.00    -0.455 OA
ATOM     12  C   LIG d   1       8.882   1.152  -8.443  0.00  0.00     0.140 C 
ATOM     13  H   LIG d   1       7.881   1.424  -8.779  0.00  0.00     0.080 H 
ATOM     14  C   LIG d   1       8.977  -0.357  -8.231  0.00  0.00     0.031 C 
ATOM     15  C   LIG d   1       8.632  -1.170  -9.461  0.00  0.00    -0.040 C 
ATOM     16  C   LIG d   1       7.116  -1.348  -9.555  0.00  0.00    -0.045 C 
ATOM     17  C   LIG d   1       6.653  -2.164  -8.358  0.00  0.00    -0.005 C 
ATOM     18  H   LIG d   1       7.225  -3.126  -8.396  0.00  0.00     0.036 H 
ATOM     19  C   LIG d   1       5.184  -2.533  -8.444  0.00  0.00     0.063 C 
ATOM     20  C   LIG d   1       4.795  -3.145  -7.100  0.00  0.00     0.149 C 
ATOM     21  O   LIG d   1       4.453  -4.293  -6.991  0.00  0.00    -0.296 OA
ATOM     22  C   LIG d   1       4.236  -1.380  -8.721  0.00  0.00     0.097 C 
ATOM     23  C   LIG d   1       4.052  -0.394  -7.581  0.00  0.00     0.033 C 
ATOM     24  H   LIG d   1       6.323  -0.803  -5.188  0.00  0.00     0.032 H 
ATOM     25  H   LIG d   1       6.873  -2.486  -5.196  0.00  0.00     0.032 H 
ATOM     26  H   LIG d   1       7.852  -0.242  -4.930  0.00  0.00     0.042 H 
ATOM     27  H   LIG d   1       9.538  -0.366  -5.453  0.00  0.00     0.042 H 
ATOM     28  H   LIG d   1       9.002  -0.716 -10.366  0.00  0.00     0.028 H 
ATOM     29  H   LIG d   1       9.085  -2.164  -9.357  0.00  0.00     0.028 H 
ATOM     30  H   LIG d   1       6.673  -0.358  -9.545  0.00  0.00     0.027 H 
ATOM     31  H   LIG d   1       6.880  -1.862 -10.482  0.00  0.00     0.027 H 
ENDROOT
BRANCH   1  32
ATOM     32  O   LIG d   1       4.155   0.014  -5.211  0.00  0.00    -0.457 OA
BRANCH  32  33
ATOM     33  C   LIG d   1       3.349  -0.006  -4.130  0.00  0.00     0.335 C 
ATOM     34  O   LIG d   1       2.150  -0.156  -4.269  0.00  0.00    -0.245 OA
BRANCH  33  35
ATOM     35  C   LIG d   1       3.918   0.152  -2.785  0.00  0.00     0.029 C 
ATOM     36  C   LIG d   1       4.168  -0.921  -2.038  0.00  0.00    -0.077 C 
ATOM     37  H   LIG d   1       4.588  -0.805  -1.049  0.00  0.00     0.057 H 
BRANCH  36  38
ATOM     38  C   LIG d   1       3.868  -2.298  -2.572  0.00  0.00    -0.046 C 
ATOM     39  H   LIG d   1       3.681  -2.977  -1.740  0.00  0.00     0.027 H 
ATOM     40  H   LIG d   1       2.988  -2.255  -3.212  0.00  0.00     0.027 H 
ATOM     41  H   LIG d   1       4.720  -2.656  -3.149  0.00  0.00     0.027 H 
ENDBRANCH  36  38
BRANCH  35  42
ATOM     42  C   LIG d   1       4.218   1.529  -2.251  0.00  0.00    -0.033 C 
ATOM     43  H   LIG d   1       4.227   1.502  -1.162  0.00  0.00     0.028 H 
ATOM     44  H   LIG d   1       5.192   1.856  -2.615  0.00  0.00     0.028 H 
ATOM     45  H   LIG d   1       3.451   2.225  -2.591  0.00  0.00     0.028 H 
ENDBRANCH  35  42
ENDBRANCH  33  35
ENDBRANCH  32  33
ENDBRANCH   1  32
BRANCH  23  46
ATOM     46  C   LIG d   1       2.706   0.332  -7.852  0.00  0.00    -0.054 C 
ATOM     47  H   LIG d   1       1.890  -0.235  -7.401  0.00  0.00     0.024 H 
ATOM     48  H   LIG d   1       2.737   1.331  -7.417  0.00  0.00     0.024 H 
ATOM     49  H   LIG d   1       2.544   0.408  -8.927  0.00  0.00     0.024 H 
ENDBRANCH  23  46
BRANCH  23  50
ATOM     50  C   LIG d   1       5.124   0.695  -7.610  0.00  0.00    -0.054 C 
ATOM     51  H   LIG d   1       5.661   0.701  -6.661  0.00  0.00     0.024 H 
ATOM     52  H   LIG d   1       5.824   0.495  -8.423  0.00  0.00     0.024 H 
ATOM     53  H   LIG d   1       4.652   1.664  -7.767  0.00  0.00     0.024 H 
ENDBRANCH  23  50
BRANCH  22  54
ATOM     54  C   LIG d   1       2.845  -1.985  -9.040  0.00  0.00     0.075 C 
ATOM     55  H   LIG d   1       2.894  -3.072  -8.957  0.00  0.00     0.041 H 
ATOM     56  H   LIG d   1       2.111  -1.600  -8.333  0.00  0.00     0.041 H 
BRANCH  54  57
ATOM     57  C   LIG d   1       2.442  -1.606 -10.441  0.00  0.00     0.310 C 
ATOM     58  O   LIG d   1       1.746  -0.634 -10.628  0.00  0.00    -0.251 OA
BRANCH  57  59
ATOM     59  O   LIG d   1       2.854  -2.346 -11.482  0.00  0.00    -0.468 OA
BRANCH  59  60
ATOM     60  C   LIG d   1       2.826  -1.727 -12.770  0.00  0.00     0.082 C 
ATOM     61  H   LIG d   1       3.842  -1.468 -13.071  0.00  0.00     0.066 H 
ATOM     62  H   LIG d   1       2.397  -2.417 -13.496  0.00  0.00     0.066 H 
ATOM     63  H   LIG d   1       2.219  -0.822 -12.725  0.00  0.00     0.066 H 
ENDBRANCH  59  60
ENDBRANCH  57  59
ENDBRANCH  54  57
ENDBRANCH  22  54
BRANCH  22  64
ATOM     64  O   LIG d   1       4.636  -0.667  -9.904  0.00  0.00    -0.386 OA
ATOM     65  H   LIG d   1       4.024   0.034 -10.165  0.00  0.00     0.210 HD
ENDBRANCH  22  64
BRANCH  19  66
ATOM     66  C   LIG d   1       4.980  -3.617  -9.528  0.00  0.00    -0.050 C 
ATOM     67  H   LIG d   1       4.467  -4.475  -9.093  0.00  0.00     0.024 H 
ATOM     68  H   LIG d   1       4.380  -3.210 -10.342  0.00  0.00     0.024 H 
ATOM     69  H   LIG d   1       5.949  -3.932  -9.915  0.00  0.00     0.024 H 
ENDBRANCH  19  66
BRANCH  14  70
ATOM     70  C   LIG d   1      10.428  -0.685  -7.874  0.00  0.00    -0.052 C 
ATOM     71  H   LIG d   1      10.912  -1.166  -8.724  0.00  0.00     0.024 H 
ATOM     72  H   LIG d   1      10.959   0.235  -7.626  0.00  0.00     0.024 H 
ATOM     73  H   LIG d   1      10.448  -1.358  -7.017  0.00  0.00     0.024 H 
ENDBRANCH  14  70
BRANCH  12  74
ATOM     74  C   LIG d   1       9.884   1.591  -9.478  0.00  0.00     0.031 A 
ATOM     75  C   LIG d   1      11.069   2.185  -9.247  0.00  0.00     0.098 A 
ATOM     76  O   LIG d   1      11.667   2.416 -10.427  0.00  0.00    -0.471 OA
ATOM     77  H   LIG d   1      11.473   2.432  -8.276  0.00  0.00     0.103 H 
ATOM     78  C   LIG d   1      10.874   1.983 -11.422  0.00  0.00     0.092 A 
ATOM     79  C   LIG d   1       9.758   1.464 -10.881  0.00  0.00    -0.017 A 
ATOM     80  H   LIG d   1      11.096   2.043 -12.477  0.00  0.00     0.103 H 
ATOM     81  H   LIG d   1       8.924   1.032 -11.415  0.00  0.00     0.065 H 
ENDBRANCH  12  74
TORSDOF 15
ENDMDL
MODEL 4
REMARK VINA RESULT:      -5.7      2.271      6.509
REMARK  15 active torsions:
REMARK  status: ('A' for Active; 'I' for Inactive)
REMARK    1  A    between atoms: C_1  and  C_2 
REMARK    2  A    between atoms: C_3  and  C_4 
REMARK    3  A    between atoms: C_3  and  C_5 
REMARK    4  A    between atoms: C_5  and  O_7 
REMARK    5  A    between atoms: O_7  and  C_8 
REMARK    6  A    between atoms: C_19  and  C_41 
REMARK    7  A    between atoms: C_21  and  C_40 
REMARK    8  A    between atoms: C_26  and  C_39 
REMARK    9  A    between atoms: C_29  and  C_33 
REMARK   10  A    between atoms: C_29  and  O_38 
REMARK   11  A    between atoms: C_30  and  C_31 
REMARK   12  A    between atoms: C_30  and  C_32 
REMARK   13  A    between atoms: C_33  and  C_34 
REMARK   14  A    between atoms: C_34  and  O_36 
REMARK   15  A    between atoms: O_36  and  C_37 
ROOT
ATOM      1  C   LIG d   1       6.764  -1.769  -5.522  0.00  0.00     0.121 C 
ATOM      2  H   LIG d   1       7.501  -2.117  -4.776  0.00  0.00     0.075 H 
ATOM      3  C   LIG d   1       7.456  -0.785  -6.451  0.00  0.00     0.059 C 
ATOM      4  H   LIG d   1       8.052  -0.073  -5.849  0.00  0.00     0.042 H 
ATOM      5  C   LIG d   1       6.464   0.001  -7.295  0.00  0.00    -0.018 C 
ATOM      6  C   LIG d   1       5.973  -0.724  -8.520  0.00  0.00    -0.064 C 
ATOM      7  C   LIG d   1       4.830  -0.343  -9.039  0.00  0.00    -0.050 C 
ATOM      8  C   LIG d   1       4.032   0.786  -8.388  0.00  0.00     0.067 C 
ATOM      9  C   LIG d   1       2.676   0.147  -8.112  0.00  0.00     0.312 C 
ATOM     10  O   LIG d   1       2.158   0.243  -7.026  0.00  0.00    -0.251 OA
ATOM     11  O   LIG d   1       2.079  -0.523  -9.112  0.00  0.00    -0.455 OA
ATOM     12  C   LIG d   1       2.825  -1.522  -9.821  0.00  0.00     0.140 C 
ATOM     13  H   LIG d   1       2.983  -2.389  -9.177  0.00  0.00     0.080 H 
ATOM     14  C   LIG d   1       4.166  -0.937 -10.256  0.00  0.00     0.031 C 
ATOM     15  C   LIG d   1       5.063  -1.926 -10.971  0.00  0.00    -0.040 C 
ATOM     16  C   LIG d   1       5.836  -2.758  -9.947  0.00  0.00    -0.045 C 
ATOM     17  C   LIG d   1       6.756  -1.828  -9.171  0.00  0.00    -0.005 C 
ATOM     18  H   LIG d   1       7.408  -1.327  -9.932  0.00  0.00     0.036 H 
ATOM     19  C   LIG d   1       7.687  -2.582  -8.239  0.00  0.00     0.063 C 
ATOM     20  C   LIG d   1       8.389  -1.544  -7.368  0.00  0.00     0.149 C 
ATOM     21  O   LIG d   1       9.576  -1.358  -7.418  0.00  0.00    -0.296 OA
ATOM     22  C   LIG d   1       7.015  -3.584  -7.316  0.00  0.00     0.097 C 
ATOM     23  C   LIG d   1       6.175  -2.989  -6.201  0.00  0.00     0.033 C 
ATOM     24  H   LIG d   1       5.610   0.257  -6.652  0.00  0.00     0.032 H 
ATOM     25  H   LIG d   1       6.929   0.945  -7.611  0.00  0.00     0.032 H 
ATOM     26  H   LIG d   1       4.479   1.137  -7.467  0.00  0.00     0.042 H 
ATOM     27  H   LIG d   1       3.919   1.627  -9.073  0.00  0.00     0.042 H 
ATOM     28  H   LIG d   1       4.507  -2.579 -11.625  0.00  0.00     0.028 H 
ATOM     29  H   LIG d   1       5.789  -1.364 -11.571  0.00  0.00     0.028 H 
ATOM     30  H   LIG d   1       5.108  -3.221  -9.289  0.00  0.00     0.027 H 
ATOM     31  H   LIG d   1       6.411  -3.514 -10.472  0.00  0.00     0.027 H 
ENDROOT
BRANCH   1  32
ATOM     32  O   LIG d   1       5.734  -1.098  -4.777  0.00  0.00    -0.457 OA
BRANCH  32  33
ATOM     33  C   LIG d   1       5.831  -1.132  -3.432  0.00  0.00     0.335 C 
ATOM     34  O   LIG d   1       6.925  -1.154  -2.902  0.00  0.00    -0.245 OA
BRANCH  33  35
ATOM     35  C   LIG d   1       4.615  -1.140  -2.607  0.00  0.00     0.029 C 
ATOM     36  C   LIG d   1       4.191  -0.014  -2.037  0.00  0.00    -0.077 C 
ATOM     37  H   LIG d   1       3.296  -0.019  -1.431  0.00  0.00     0.057 H 
BRANCH  36  38
ATOM     38  C   LIG d   1       4.958   1.268  -2.237  0.00  0.00    -0.046 C 
ATOM     39  H   LIG d   1       4.950   1.534  -3.294  0.00  0.00     0.027 H 
ATOM     40  H   LIG d   1       4.491   2.064  -1.658  0.00  0.00     0.027 H 
ATOM     41  H   LIG d   1       5.986   1.131  -1.903  0.00  0.00     0.027 H 
ENDBRANCH  36  38
BRANCH  35  42
ATOM     42  C   LIG d   1       3.848  -2.422  -2.408  0.00  0.00    -0.033 C 
ATOM     43  H   LIG d   1       3.202  -2.596  -3.267  0.00  0.00     0.028 H 
ATOM     44  H   LIG d   1       4.548  -3.251  -2.305  0.00  0.00     0.028 H 
ATOM     45  H   LIG d   1       3.241  -2.344  -1.505  0.00  0.00     0.028 H 
ENDBRANCH  35  42
ENDBRANCH  33  35
ENDBRANCH  32  33
ENDBRANCH   1  32
BRANCH  23  46
ATOM     46  C   LIG d   1       6.054  -4.092  -5.115  0.00  0.00    -0.054 C 
ATOM     47  H   LIG d   1       6.320  -5.057  -5.547  0.00  0.00     0.024 H 
ATOM     48  H   LIG d   1       6.729  -3.866  -4.290  0.00  0.00     0.024 H 
ATOM     49  H   LIG d   1       5.029  -4.129  -4.747  0.00  0.00     0.024 H 
ENDBRANCH  23  46
BRANCH  23  50
ATOM     50  C   LIG d   1       4.747  -2.710  -6.671  0.00  0.00    -0.054 C 
ATOM     51  H   LIG d   1       4.559  -1.636  -6.645  0.00  0.00     0.024 H 
ATOM     52  H   LIG d   1       4.620  -3.077  -7.689  0.00  0.00     0.024 H 
ATOM     53  H   LIG d   1       4.043  -3.217  -6.011  0.00  0.00     0.024 H 
ENDBRANCH  23  50
BRANCH  22  54
ATOM     54  C   LIG d   1       8.132  -4.430  -6.653  0.00  0.00     0.075 C 
ATOM     55  H   LIG d   1       9.106  -4.048  -6.959  0.00  0.00     0.041 H 
ATOM     56  H   LIG d   1       8.040  -4.368  -5.570  0.00  0.00     0.041 H 
BRANCH  54  57
ATOM     57  C   LIG d   1       7.997  -5.867  -7.087  0.00  0.00     0.310 C 
ATOM     58  O   LIG d   1       8.607  -6.266  -8.052  0.00  0.00    -0.251 OA
BRANCH  57  59
ATOM     59  O   LIG d   1       7.201  -6.704  -6.404  0.00  0.00    -0.468 OA
BRANCH  59  60
ATOM     60  C   LIG d   1       7.788  -7.412  -5.311  0.00  0.00     0.082 C 
ATOM     61  H   LIG d   1       8.274  -8.315  -5.681  0.00  0.00     0.066 H 
ATOM     62  H   LIG d   1       8.526  -6.777  -4.821  0.00  0.00     0.066 H 
ATOM     63  H   LIG d   1       7.012  -7.685  -4.595  0.00  0.00     0.066 H 
ENDBRANCH  59  60
ENDBRANCH  57  59
ENDBRANCH  54  57
ENDBRANCH  22  54
BRANCH  22  64
ATOM     64  O   LIG d   1       6.214  -4.510  -8.070  0.00  0.00    -0.386 OA
ATOM     65  H   LIG d   1       6.490  -5.432  -7.979  0.00  0.00     0.210 HD
ENDBRANCH  22  64
BRANCH  19  66
ATOM     66  C   LIG d   1       8.772  -3.313  -9.063  0.00  0.00    -0.050 C 
ATOM     67  H   LIG d   1       9.429  -2.580  -9.529  0.00  0.00     0.024 H 
ATOM     68  H   LIG d   1       9.356  -3.958  -8.405  0.00  0.00     0.024 H 
ATOM     69  H   LIG d   1       8.297  -3.919  -9.834  0.00  0.00     0.024 H 
ENDBRANCH  19  66
BRANCH  14  70
ATOM     70  C   LIG d   1       3.879   0.196 -11.243  0.00  0.00    -0.052 C 
ATOM     71  H   LIG d   1       2.822   0.458 -11.199  0.00  0.00     0.024 H 
ATOM     72  H   LIG d   1       4.480   1.067 -10.982  0.00  0.00     0.024 H 
ATOM     73  H   LIG d   1       4.131  -0.129 -12.252  0.00  0.00     0.024 H 
ENDBRANCH  14  70
BRANCH  12  74
ATOM     74  C   LIG d   1       2.031  -1.946 -11.029  0.00  0.00     0.031 A 
ATOM     75  C   LIG d   1       2.159  -3.100 -11.708  0.00  0.00     0.098 A 
ATOM     76  O   LIG d   1       1.271  -3.100 -12.716  0.00  0.00    -0.471 OA
ATOM     77  H   LIG d   1       2.856  -3.893 -11.481  0.00  0.00     0.103 H 
ATOM     78  C   LIG d   1       0.575  -1.951 -12.699  0.00  0.00     0.092 A 
ATOM     79  C   LIG d   1       1.012  -1.204 -11.670  0.00  0.00    -0.017 A 
ATOM     80  H   LIG d   1      -0.204  -1.675 -13.395  0.00  0.00     0.103 H 
ATOM     81  H   LIG d   1       0.654  -0.225 -11.387  0.00  0.00     0.065 H 
ENDBRANCH  12  74
TORSDOF 15
ENDMDL
MODEL 5
REMARK VINA RESULT:      -5.6      7.538      9.859
REMARK  15 active torsions:
REMARK  status: ('A' for Active; 'I' for Inactive)
REMARK    1  A    between atoms: C_1  and  C_2 
REMARK    2  A    between atoms: C_3  and  C_4 
REMARK    3  A    between atoms: C_3  and  C_5 
REMARK    4  A    between atoms: C_5  and  O_7 
REMARK    5  A    between atoms: O_7  and  C_8 
REMARK    6  A    between atoms: C_19  and  C_41 
REMARK    7  A    between atoms: C_21  and  C_40 
REMARK    8  A    between atoms: C_26  and  C_39 
REMARK    9  A    between atoms: C_29  and  C_33 
REMARK   10  A    between atoms: C_29  and  O_38 
REMARK   11  A    between atoms: C_30  and  C_31 
REMARK   12  A    between atoms: C_30  and  C_32 
REMARK   13  A    between atoms: C_33  and  C_34 
REMARK   14  A    between atoms: C_34  and  O_36 
REMARK   15  A    between atoms: O_36  and  C_37 
ROOT
ATOM      1  C   LIG d   1      11.777   7.401  -4.934  0.00  0.00     0.121 C 
ATOM      2  H   LIG d   1      12.154   8.387  -4.609  0.00  0.00     0.075 H 
ATOM      3  C   LIG d   1      12.901   6.390  -4.787  0.00  0.00     0.059 C 
ATOM      4  H   LIG d   1      13.834   6.819  -5.200  0.00  0.00     0.042 H 
ATOM      5  C   LIG d   1      12.600   5.088  -5.514  0.00  0.00    -0.018 C 
ATOM      6  C   LIG d   1      11.718   4.135  -4.750  0.00  0.00    -0.064 C 
ATOM      7  C   LIG d   1      11.056   3.233  -5.434  0.00  0.00    -0.050 C 
ATOM      8  C   LIG d   1      11.174   3.188  -6.958  0.00  0.00     0.067 C 
ATOM      9  C   LIG d   1       9.731   3.316  -7.428  0.00  0.00     0.312 C 
ATOM     10  O   LIG d   1       9.428   4.114  -8.281  0.00  0.00    -0.251 OA
ATOM     11  O   LIG d   1       8.810   2.516  -6.864  0.00  0.00    -0.455 OA
ATOM     12  C   LIG d   1       8.731   2.448  -5.433  0.00  0.00     0.140 C 
ATOM     13  H   LIG d   1       8.328   3.384  -5.043  0.00  0.00     0.080 H 
ATOM     14  C   LIG d   1      10.124   2.193  -4.863  0.00  0.00     0.031 C 
ATOM     15  C   LIG d   1      10.168   2.156  -3.350  0.00  0.00    -0.040 C 
ATOM     16  C   LIG d   1      10.278   3.578  -2.799  0.00  0.00    -0.045 C 
ATOM     17  C   LIG d   1      11.605   4.167  -3.252  0.00  0.00    -0.005 C 
ATOM     18  H   LIG d   1      12.399   3.473  -2.875  0.00  0.00     0.036 H 
ATOM     19  C   LIG d   1      11.881   5.520  -2.623  0.00  0.00     0.063 C 
ATOM     20  C   LIG d   1      13.112   6.096  -3.319  0.00  0.00     0.149 C 
ATOM     21  O   LIG d   1      14.147   6.293  -2.738  0.00  0.00    -0.296 OA
ATOM     22  C   LIG d   1      10.761   6.537  -2.743  0.00  0.00     0.097 C 
ATOM     23  C   LIG d   1      10.526   7.092  -4.137  0.00  0.00     0.033 C 
ATOM     24  H   LIG d   1      12.123   5.344  -6.470  0.00  0.00     0.032 H 
ATOM     25  H   LIG d   1      13.545   4.579  -5.746  0.00  0.00     0.032 H 
ATOM     26  H   LIG d   1      11.774   3.996  -7.354  0.00  0.00     0.042 H 
ATOM     27  H   LIG d   1      11.594   2.237  -7.286  0.00  0.00     0.042 H 
ATOM     28  H   LIG d   1       9.302   1.669  -2.930  0.00  0.00     0.028 H 
ATOM     29  H   LIG d   1      11.065   1.603  -3.044  0.00  0.00     0.028 H 
ATOM     30  H   LIG d   1       9.445   4.146  -3.200  0.00  0.00     0.027 H 
ATOM     31  H   LIG d   1      10.227   3.540  -1.715  0.00  0.00     0.027 H 
ENDROOT
BRANCH   1  32
ATOM     32  O   LIG d   1      11.429   7.549  -6.321  0.00  0.00    -0.457 OA
BRANCH  32  33
ATOM     33  C   LIG d   1      11.893   8.646  -6.955  0.00  0.00     0.335 C 
ATOM     34  O   LIG d   1      12.901   8.575  -7.631  0.00  0.00    -0.245 OA
BRANCH  33  35
ATOM     35  C   LIG d   1      11.180   9.924  -6.830  0.00  0.00     0.029 C 
ATOM     36  C   LIG d   1       9.956  10.055  -7.336  0.00  0.00    -0.077 C 
ATOM     37  H   LIG d   1       9.430  10.994  -7.244  0.00  0.00     0.057 H 
BRANCH  36  38
ATOM     38  C   LIG d   1       9.301   8.892  -8.037  0.00  0.00    -0.046 C 
ATOM     39  H   LIG d   1       8.418   9.241  -8.571  0.00  0.00     0.027 H 
ATOM     40  H   LIG d   1      10.004   8.452  -8.745  0.00  0.00     0.027 H 
ATOM     41  H   LIG d   1       9.010   8.143  -7.302  0.00  0.00     0.027 H 
ENDBRANCH  36  38
BRANCH  35  42
ATOM     42  C   LIG d   1      11.834  11.086  -6.129  0.00  0.00    -0.033 C 
ATOM     43  H   LIG d   1      11.413  12.019  -6.503  0.00  0.00     0.028 H 
ATOM     44  H   LIG d   1      11.656  11.011  -5.056  0.00  0.00     0.028 H 
ATOM     45  H   LIG d   1      12.907  11.069  -6.322  0.00  0.00     0.028 H 
ENDBRANCH  35  42
ENDBRANCH  33  35
ENDBRANCH  32  33
ENDBRANCH   1  32
BRANCH  23  46
ATOM     46  C   LIG d   1       9.773   8.437  -3.944  0.00  0.00    -0.054 C 
ATOM     47  H   LIG d   1      10.200   9.190  -4.608  0.00  0.00     0.024 H 
ATOM     48  H   LIG d   1       8.718   8.301  -4.182  0.00  0.00     0.024 H 
ATOM     49  H   LIG d   1       9.874   8.766  -2.911  0.00  0.00     0.024 H 
ENDBRANCH  23  46
BRANCH  23  50
ATOM     50  C   LIG d   1       9.580   6.198  -4.938  0.00  0.00    -0.054 C 
ATOM     51  H   LIG d   1       9.547   6.538  -5.973  0.00  0.00     0.024 H 
ATOM     52  H   LIG d   1       9.937   5.168  -4.905  0.00  0.00     0.024 H 
ATOM     53  H   LIG d   1       8.580   6.250  -4.507  0.00  0.00     0.024 H 
ENDBRANCH  23  50
BRANCH  22  54
ATOM     54  C   LIG d   1      11.114   7.733  -1.822  0.00  0.00     0.075 C 
ATOM     55  H   LIG d   1      12.131   7.613  -1.446  0.00  0.00     0.041 H 
ATOM     56  H   LIG d   1      11.043   8.661  -2.388  0.00  0.00     0.041 H 
BRANCH  54  57
ATOM     57  C   LIG d   1      10.152   7.775  -0.664  0.00  0.00     0.310 C 
ATOM     58  O   LIG d   1      10.500   7.381   0.426  0.00  0.00    -0.251 OA
BRANCH  57  59
ATOM     59  O   LIG d   1       8.908   8.249  -0.840  0.00  0.00    -0.468 OA
BRANCH  59  60
ATOM     60  C   LIG d   1       8.718   9.654  -0.667  0.00  0.00     0.082 C 
ATOM     61  H   LIG d   1       7.967   9.828   0.104  0.00  0.00     0.066 H 
ATOM     62  H   LIG d   1       9.660  10.114  -0.367  0.00  0.00     0.066 H 
ATOM     63  H   LIG d   1       8.383  10.094  -1.607  0.00  0.00     0.066 H 
ENDBRANCH  59  60
ENDBRANCH  57  59
ENDBRANCH  54  57
ENDBRANCH  22  54
BRANCH  22  64
ATOM     64  O   LIG d   1       9.529   5.999  -2.234  0.00  0.00    -0.386 OA
ATOM     65  H   LIG d   1       9.505   5.916  -1.271  0.00  0.00     0.210 HD
ENDBRANCH  22  64
BRANCH  19  66
ATOM     66  C   LIG d   1      12.232   5.339  -1.127  0.00  0.00    -0.050 C 
ATOM     67  H   LIG d   1      13.309   5.217  -1.019  0.00  0.00     0.024 H 
ATOM     68  H   LIG d   1      11.907   6.217  -0.569  0.00  0.00     0.024 H 
ATOM     69  H   LIG d   1      11.725   4.455  -0.740  0.00  0.00     0.024 H 
ENDBRANCH  19  66
BRANCH  14  70
ATOM     70  C   LIG d   1      10.583   0.820  -5.355  0.00  0.00    -0.052 C 
ATOM     71  H   LIG d   1      10.824   0.189  -4.500  0.00  0.00     0.024 H 
ATOM     72  H   LIG d   1       9.785   0.357  -5.936  0.00  0.00     0.024 H 
ATOM     73  H   LIG d   1      11.468   0.936  -5.982  0.00  0.00     0.024 H 
ENDBRANCH  14  70
BRANCH  12  74
ATOM     74  C   LIG d   1       7.806   1.320  -5.057  0.00  0.00     0.031 A 
ATOM     75  C   LIG d   1       7.387   0.326  -5.860  0.00  0.00     0.098 A 
ATOM     76  O   LIG d   1       6.576  -0.479  -5.153  0.00  0.00    -0.471 OA
ATOM     77  H   LIG d   1       7.657   0.195  -6.898  0.00  0.00     0.103 H 
ATOM     78  C   LIG d   1       6.462  -0.008  -3.900  0.00  0.00     0.092 A 
ATOM     79  C   LIG d   1       7.207   1.106  -3.794  0.00  0.00    -0.017 A 
ATOM     80  H   LIG d   1       5.871  -0.450  -3.111  0.00  0.00     0.103 H 
ATOM     81  H   LIG d   1       7.327   1.720  -2.914  0.00  0.00     0.065 H 
ENDBRANCH  12  74
TORSDOF 15
ENDMDL
MODEL 6
REMARK VINA RESULT:      -5.5      8.463     12.719
REMARK  15 active torsions:
REMARK  status: ('A' for Active; 'I' for Inactive)
REMARK    1  A    between atoms: C_1  and  C_2 
REMARK    2  A    between atoms: C_3  and  C_4 
REMARK    3  A    between atoms: C_3  and  C_5 
REMARK    4  A    between atoms: C_5  and  O_7 
REMARK    5  A    between atoms: O_7  and  C_8 
REMARK    6  A    between atoms: C_19  and  C_41 
REMARK    7  A    between atoms: C_21  and  C_40 
REMARK    8  A    between atoms: C_26  and  C_39 
REMARK    9  A    between atoms: C_29  and  C_33 
REMARK   10  A    between atoms: C_29  and  O_38 
REMARK   11  A    between atoms: C_30  and  C_31 
REMARK   12  A    between atoms: C_30  and  C_32 
REMARK   13  A    between atoms: C_33  and  C_34 
REMARK   14  A    between atoms: C_34  and  O_36 
REMARK   15  A    between atoms: O_36  and  C_37 
ROOT
ATOM      1  C   LIG d   1      11.096   5.360  -6.355  0.00  0.00     0.121 C 
ATOM      2  H   LIG d   1      11.260   4.593  -7.133  0.00  0.00     0.075 H 
ATOM      3  C   LIG d   1       9.661   5.246  -5.869  0.00  0.00     0.059 C 
ATOM      4  H   LIG d   1       8.987   5.152  -6.742  0.00  0.00     0.042 H 
ATOM      5  C   LIG d   1       9.234   6.456  -5.052  0.00  0.00    -0.018 C 
ATOM      6  C   LIG d   1       9.666   6.420  -3.610  0.00  0.00    -0.064 C 
ATOM      7  C   LIG d   1       9.747   7.560  -2.967  0.00  0.00    -0.050 C 
ATOM      8  C   LIG d   1       9.430   8.870  -3.688  0.00  0.00     0.067 C 
ATOM      9  C   LIG d   1      10.698   9.693  -3.499  0.00  0.00     0.312 C 
ATOM     10  O   LIG d   1      11.224  10.242  -4.437  0.00  0.00    -0.251 OA
ATOM     11  O   LIG d   1      11.210   9.788  -2.260  0.00  0.00    -0.455 OA
ATOM     12  C   LIG d   1      11.428   8.588  -1.505  0.00  0.00     0.140 C 
ATOM     13  H   LIG d   1      12.262   8.031  -1.933  0.00  0.00     0.080 H 
ATOM     14  C   LIG d   1      10.158   7.740  -1.527  0.00  0.00     0.031 C 
ATOM     15  C   LIG d   1      10.293   6.418  -0.801  0.00  0.00    -0.040 C 
ATOM     16  C   LIG d   1      10.921   5.379  -1.730  0.00  0.00    -0.045 C 
ATOM     17  C   LIG d   1       9.969   5.136  -2.891  0.00  0.00    -0.005 C 
ATOM     18  H   LIG d   1       8.999   4.809  -2.436  0.00  0.00     0.036 H 
ATOM     19  C   LIG d   1      10.429   4.000  -3.787  0.00  0.00     0.063 C 
ATOM     20  C   LIG d   1       9.525   4.004  -5.017  0.00  0.00     0.149 C 
ATOM     21  O   LIG d   1       8.780   3.095  -5.272  0.00  0.00    -0.296 OA
ATOM     22  C   LIG d   1      11.866   4.087  -4.266  0.00  0.00     0.097 C 
ATOM     23  C   LIG d   1      12.153   5.175  -5.285  0.00  0.00     0.033 C 
ATOM     24  H   LIG d   1       9.651   7.349  -5.538  0.00  0.00     0.032 H 
ATOM     25  H   LIG d   1       8.140   6.545  -5.086  0.00  0.00     0.032 H 
ATOM     26  H   LIG d   1       9.225   8.728  -4.741  0.00  0.00     0.042 H 
ATOM     27  H   LIG d   1       8.582   9.374  -3.224  0.00  0.00     0.042 H 
ATOM     28  H   LIG d   1      10.882   6.506   0.098  0.00  0.00     0.028 H 
ATOM     29  H   LIG d   1       9.289   6.069  -0.529  0.00  0.00     0.028 H 
ATOM     30  H   LIG d   1      11.864   5.785  -2.081  0.00  0.00     0.027 H 
ATOM     31  H   LIG d   1      11.085   4.462  -1.172  0.00  0.00     0.027 H 
ENDROOT
BRANCH   1  32
ATOM     32  O   LIG d   1      11.295   6.628  -7.003  0.00  0.00    -0.457 OA
BRANCH  32  33
ATOM     33  C   LIG d   1      10.970   6.706  -8.309  0.00  0.00     0.335 C 
ATOM     34  O   LIG d   1      11.822   6.532  -9.159  0.00  0.00    -0.245 OA
BRANCH  33  35
ATOM     35  C   LIG d   1       9.586   7.001  -8.705  0.00  0.00     0.029 C 
ATOM     36  C   LIG d   1       9.033   8.165  -8.372  0.00  0.00    -0.077 C 
ATOM     37  H   LIG d   1       8.015   8.383  -8.664  0.00  0.00     0.057 H 
BRANCH  36  38
ATOM     38  C   LIG d   1       9.826   9.180  -7.591  0.00  0.00    -0.046 C 
ATOM     39  H   LIG d   1       9.432  10.178  -7.787  0.00  0.00     0.027 H 
ATOM     40  H   LIG d   1       9.746   8.962  -6.526  0.00  0.00     0.027 H 
ATOM     41  H   LIG d   1      10.871   9.136  -7.894  0.00  0.00     0.027 H 
ENDBRANCH  36  38
BRANCH  35  42
ATOM     42  C   LIG d   1       8.793   5.985  -9.487  0.00  0.00    -0.033 C 
ATOM     43  H   LIG d   1       9.476   5.296  -9.983  0.00  0.00     0.028 H 
ATOM     44  H   LIG d   1       8.145   5.430  -8.809  0.00  0.00     0.028 H 
ATOM     45  H   LIG d   1       8.185   6.496 -10.234  0.00  0.00     0.028 H 
ENDBRANCH  35  42
ENDBRANCH  33  35
ENDBRANCH  32  33
ENDBRANCH   1  32
BRANCH  23  46
ATOM     46  C   LIG d   1      13.458   4.751  -6.013  0.00  0.00    -0.054 C 
ATOM     47  H   LIG d   1      14.194   4.424  -5.278  0.00  0.00     0.024 H 
ATOM     48  H   LIG d   1      13.243   3.933  -6.700  0.00  0.00     0.024 H 
ATOM     49  H   LIG d   1      13.855   5.599  -6.571  0.00  0.00     0.024 H 
ENDBRANCH  23  46
BRANCH  23  50
ATOM     50  C   LIG d   1      12.472   6.505  -4.603  0.00  0.00    -0.054 C 
ATOM     51  H   LIG d   1      12.667   6.333  -3.544  0.00  0.00     0.024 H 
ATOM     52  H   LIG d   1      13.352   6.951  -5.068  0.00  0.00     0.024 H 
ATOM     53  H   LIG d   1      11.623   7.180  -4.710  0.00  0.00     0.024 H 
ENDBRANCH  23  50
BRANCH  22  54
ATOM     54  C   LIG d   1      12.223   2.730  -4.925  0.00  0.00     0.075 C 
ATOM     55  H   LIG d   1      11.331   2.103  -4.969  0.00  0.00     0.041 H 
ATOM     56  H   LIG d   1      12.597   2.902  -5.933  0.00  0.00     0.041 H 
BRANCH  54  57
ATOM     57  C   LIG d   1      13.282   2.038  -4.107  0.00  0.00     0.310 C 
ATOM     58  O   LIG d   1      12.988   1.093  -3.412  0.00  0.00    -0.251 OA
BRANCH  57  59
ATOM     59  O   LIG d   1      14.552   2.470  -4.148  0.00  0.00    -0.468 OA
BRANCH  59  60
ATOM     60  C   LIG d   1      15.443   1.966  -3.151  0.00  0.00     0.082 C 
ATOM     61  H   LIG d   1      15.213   0.918  -2.954  0.00  0.00     0.066 H 
ATOM     62  H   LIG d   1      16.470   2.052  -3.504  0.00  0.00     0.066 H 
ATOM     63  H   LIG d   1      15.324   2.542  -2.232  0.00  0.00     0.066 H 
ENDBRANCH  59  60
ENDBRANCH  57  59
ENDBRANCH  54  57
ENDBRANCH  22  54
BRANCH  22  64
ATOM     64  O   LIG d   1      12.765   4.232  -3.153  0.00  0.00    -0.386 OA
ATOM     65  H   LIG d   1      13.696   4.110  -3.381  0.00  0.00     0.210 HD
ENDBRANCH  22  64
BRANCH  19  66
ATOM     66  C   LIG d   1      10.226   2.648  -3.062  0.00  0.00    -0.050 C 
ATOM     67  H   LIG d   1      10.398   2.779  -1.994  0.00  0.00     0.024 H 
ATOM     68  H   LIG d   1       9.207   2.297  -3.226  0.00  0.00     0.024 H 
ATOM     69  H   LIG d   1      10.929   1.915  -3.456  0.00  0.00     0.024 H 
ENDBRANCH  19  66
BRANCH  14  70
ATOM     70  C   LIG d   1       9.061   8.530  -0.812  0.00  0.00    -0.052 C 
ATOM     71  H   LIG d   1       8.607   9.234  -1.509  0.00  0.00     0.024 H 
ATOM     72  H   LIG d   1       8.299   7.842  -0.443  0.00  0.00     0.024 H 
ATOM     73  H   LIG d   1       9.494   9.076   0.026  0.00  0.00     0.024 H 
ENDBRANCH  14  70
BRANCH  12  74
ATOM     74  C   LIG d   1      11.768   8.969  -0.087  0.00  0.00     0.031 A 
ATOM     75  C   LIG d   1      12.447   8.224   0.802  0.00  0.00     0.098 A 
ATOM     76  O   LIG d   1      12.545   8.915   1.950  0.00  0.00    -0.471 OA
ATOM     77  H   LIG d   1      12.848   7.236   0.624  0.00  0.00     0.103 H 
ATOM     78  C   LIG d   1      11.927  10.100   1.812  0.00  0.00     0.092 A 
ATOM     79  C   LIG d   1      11.431  10.178   0.565  0.00  0.00    -0.017 A 
ATOM     80  H   LIG d   1      11.844  10.861   2.574  0.00  0.00     0.103 H 
ATOM     81  H   LIG d   1      10.879  11.005   0.141  0.00  0.00     0.065 H 
ENDBRANCH  12  74
TORSDOF 15
ENDMDL
MODEL 7
REMARK VINA RESULT:      -5.3      2.996      5.641
REMARK  15 active torsions:
REMARK  status: ('A' for Active; 'I' for Inactive)
REMARK    1  A    between atoms: C_1  and  C_2 
REMARK    2  A    between atoms: C_3  and  C_4 
REMARK    3  A    between atoms: C_3  and  C_5 
REMARK    4  A    between atoms: C_5  and  O_7 
REMARK    5  A    between atoms: O_7  and  C_8 
REMARK    6  A    between atoms: C_19  and  C_41 
REMARK    7  A    between atoms: C_21  and  C_40 
REMARK    8  A    between atoms: C_26  and  C_39 
REMARK    9  A    between atoms: C_29  and  C_33 
REMARK   10  A    between atoms: C_29  and  O_38 
REMARK   11  A    between atoms: C_30  and  C_31 
REMARK   12  A    between atoms: C_30  and  C_32 
REMARK   13  A    between atoms: C_33  and  C_34 
REMARK   14  A    between atoms: C_34  and  O_36 
REMARK   15  A    between atoms: O_36  and  C_37 
ROOT
ATOM      1  C   LIG d   1       6.049   0.238  -5.519  0.00  0.00     0.121 C 
ATOM      2  H   LIG d   1       5.616   1.232  -5.300  0.00  0.00     0.075 H 
ATOM      3  C   LIG d   1       6.195   0.104  -7.024  0.00  0.00     0.059 C 
ATOM      4  H   LIG d   1       5.265   0.451  -7.514  0.00  0.00     0.042 H 
ATOM      5  C   LIG d   1       6.462  -1.332  -7.449  0.00  0.00    -0.018 C 
ATOM      6  C   LIG d   1       7.900  -1.763  -7.326  0.00  0.00    -0.064 C 
ATOM      7  C   LIG d   1       8.147  -3.048  -7.232  0.00  0.00    -0.050 C 
ATOM      8  C   LIG d   1       6.994  -4.051  -7.224  0.00  0.00     0.067 C 
ATOM      9  C   LIG d   1       7.203  -4.820  -5.925  0.00  0.00     0.312 C 
ATOM     10  O   LIG d   1       6.291  -4.990  -5.155  0.00  0.00    -0.251 OA
ATOM     11  O   LIG d   1       8.431  -5.301  -5.668  0.00  0.00    -0.455 OA
ATOM     12  C   LIG d   1       9.558  -4.418  -5.764  0.00  0.00     0.140 C 
ATOM     13  H   LIG d   1       9.536  -3.704  -4.939  0.00  0.00     0.080 H 
ATOM     14  C   LIG d   1       9.509  -3.682  -7.101  0.00  0.00     0.031 C 
ATOM     15  C   LIG d   1      10.628  -2.679  -7.288  0.00  0.00    -0.040 C 
ATOM     16  C   LIG d   1      10.251  -1.354  -6.623  0.00  0.00    -0.045 C 
ATOM     17  C   LIG d   1       9.039  -0.784  -7.343  0.00  0.00    -0.005 C 
ATOM     18  H   LIG d   1       9.334  -0.683  -8.419  0.00  0.00     0.036 H 
ATOM     19  C   LIG d   1       8.684   0.611  -6.862  0.00  0.00     0.063 C 
ATOM     20  C   LIG d   1       7.341   0.975  -7.489  0.00  0.00     0.149 C 
ATOM     21  O   LIG d   1       7.221   1.875  -8.278  0.00  0.00    -0.296 OA
ATOM     22  C   LIG d   1       8.552   0.769  -5.358  0.00  0.00     0.097 C 
ATOM     23  C   LIG d   1       7.338   0.107  -4.732  0.00  0.00     0.033 C 
ATOM     24  H   LIG d   1       5.829  -1.984  -6.831  0.00  0.00     0.032 H 
ATOM     25  H   LIG d   1       6.146  -1.464  -8.492  0.00  0.00     0.032 H 
ATOM     26  H   LIG d   1       6.024  -3.573  -7.228  0.00  0.00     0.042 H 
ATOM     27  H   LIG d   1       7.062  -4.727  -8.077  0.00  0.00     0.042 H 
ATOM     28  H   LIG d   1      11.564  -3.034  -6.886  0.00  0.00     0.028 H 
ATOM     29  H   LIG d   1      10.753  -2.497  -8.362  0.00  0.00     0.028 H 
ATOM     30  H   LIG d   1      10.021  -1.566  -5.584  0.00  0.00     0.027 H 
ATOM     31  H   LIG d   1      11.094  -0.673  -6.695  0.00  0.00     0.027 H 
ENDROOT
BRANCH   1  32
ATOM     32  O   LIG d   1       5.097  -0.722  -5.030  0.00  0.00    -0.457 OA
BRANCH  32  33
ATOM     33  C   LIG d   1       3.927  -0.243  -4.563  0.00  0.00     0.335 C 
ATOM     34  O   LIG d   1       2.993  -0.073  -5.322  0.00  0.00    -0.245 OA
BRANCH  33  35
ATOM     35  C   LIG d   1       3.780   0.073  -3.135  0.00  0.00     0.029 C 
ATOM     36  C   LIG d   1       3.813  -0.904  -2.232  0.00  0.00    -0.077 C 
ATOM     37  H   LIG d   1       3.706  -0.672  -1.182  0.00  0.00     0.057 H 
BRANCH  36  38
ATOM     38  C   LIG d   1       4.002  -2.332  -2.672  0.00  0.00    -0.046 C 
ATOM     39  H   LIG d   1       3.853  -2.403  -3.749  0.00  0.00     0.027 H 
ATOM     40  H   LIG d   1       5.011  -2.659  -2.422  0.00  0.00     0.027 H 
ATOM     41  H   LIG d   1       3.278  -2.968  -2.162  0.00  0.00     0.027 H 
ENDBRANCH  36  38
BRANCH  35  42
ATOM     42  C   LIG d   1       3.591   1.502  -2.695  0.00  0.00    -0.033 C 
ATOM     43  H   LIG d   1       3.947   1.616  -1.672  0.00  0.00     0.028 H 
ATOM     44  H   LIG d   1       4.156   2.163  -3.353  0.00  0.00     0.028 H 
ATOM     45  H   LIG d   1       2.532   1.759  -2.742  0.00  0.00     0.028 H 
ENDBRANCH  35  42
ENDBRANCH  33  35
ENDBRANCH  32  33
ENDBRANCH   1  32
BRANCH  23  46
ATOM     46  C   LIG d   1       7.109   0.822  -3.373  0.00  0.00    -0.054 C 
ATOM     47  H   LIG d   1       7.488   0.195  -2.565  0.00  0.00     0.024 H 
ATOM     48  H   LIG d   1       7.636   1.776  -3.369  0.00  0.00     0.024 H 
ATOM     49  H   LIG d   1       6.043   0.995  -3.228  0.00  0.00     0.024 H 
ENDBRANCH  23  46
BRANCH  23  50
ATOM     50  C   LIG d   1       7.617  -1.356  -4.390  0.00  0.00    -0.054 C 
ATOM     51  H   LIG d   1       8.246  -1.408  -3.502  0.00  0.00     0.024 H 
ATOM     52  H   LIG d   1       6.675  -1.871  -4.200  0.00  0.00     0.024 H 
ATOM     53  H   LIG d   1       8.128  -1.833  -5.227  0.00  0.00     0.024 H 
ENDBRANCH  23  50
BRANCH  22  54
ATOM     54  C   LIG d   1       8.462   2.286  -5.053  0.00  0.00     0.075 C 
ATOM     55  H   LIG d   1       8.500   2.847  -5.988  0.00  0.00     0.041 H 
ATOM     56  H   LIG d   1       7.525   2.498  -4.540  0.00  0.00     0.041 H 
BRANCH  54  57
ATOM     57  C   LIG d   1       9.618   2.692  -4.177  0.00  0.00     0.310 C 
ATOM     58  O   LIG d   1       9.469   2.774  -2.979  0.00  0.00    -0.251 OA
BRANCH  57  59
ATOM     59  O   LIG d   1      10.814   2.963  -4.724  0.00  0.00    -0.468 OA
BRANCH  59  60
ATOM     60  C   LIG d   1      11.051   4.312  -5.129  0.00  0.00     0.082 C 
ATOM     61  H   LIG d   1      12.117   4.457  -5.306  0.00  0.00     0.066 H 
ATOM     62  H   LIG d   1      10.499   4.519  -6.046  0.00  0.00     0.066 H 
ATOM     63  H   LIG d   1      10.718   4.992  -4.344  0.00  0.00     0.066 H 
ENDBRANCH  59  60
ENDBRANCH  57  59
ENDBRANCH  54  57
ENDBRANCH  22  54
BRANCH  22  64
ATOM     64  O   LIG d   1       9.739   0.304  -4.692  0.00  0.00    -0.386 OA
ATOM     65  H   LIG d   1      10.052   0.891  -3.991  0.00  0.00     0.210 HD
ENDBRANCH  22  64
BRANCH  19  66
ATOM     66  C   LIG d   1       9.732   1.624  -7.379  0.00  0.00    -0.050 C 
ATOM     67  H   LIG d   1      10.381   1.137  -8.106  0.00  0.00     0.024 H 
ATOM     68  H   LIG d   1       9.223   2.464  -7.853  0.00  0.00     0.024 H 
ATOM     69  H   LIG d   1      10.330   1.988  -6.544  0.00  0.00     0.024 H 
ENDBRANCH  19  66
BRANCH  14  70
ATOM     70  C   LIG d   1       9.658  -4.725  -8.210  0.00  0.00    -0.052 C 
ATOM     71  H   LIG d   1      10.204  -4.291  -9.047  0.00  0.00     0.024 H 
ATOM     72  H   LIG d   1      10.205  -5.587  -7.827  0.00  0.00     0.024 H 
ATOM     73  H   LIG d   1       8.671  -5.042  -8.545  0.00  0.00     0.024 H 
ENDBRANCH  14  70
BRANCH  12  74
ATOM     74  C   LIG d   1      10.818  -5.237  -5.671  0.00  0.00     0.031 A 
ATOM     75  C   LIG d   1      12.042  -4.791  -5.335  0.00  0.00     0.098 A 
ATOM     76  O   LIG d   1      12.896  -5.828  -5.366  0.00  0.00    -0.471 OA
ATOM     77  H   LIG d   1      12.295  -3.772  -5.080  0.00  0.00     0.103 H 
ATOM     78  C   LIG d   1      12.235  -6.940  -5.728  0.00  0.00     0.092 A 
ATOM     79  C   LIG d   1      10.944  -6.622  -5.928  0.00  0.00    -0.017 A 
ATOM     80  H   LIG d   1      12.669  -7.923  -5.839  0.00  0.00     0.103 H 
ATOM     81  H   LIG d   1      10.154  -7.295  -6.227  0.00  0.00     0.065 H 
ENDBRANCH  12  74
TORSDOF 15
ENDMDL
MODEL 8
REMARK VINA RESULT:      -5.3      9.566     13.788
REMARK  15 active torsions:
REMARK  status: ('A' for Active; 'I' for Inactive)
REMARK    1  A    between atoms: C_1  and  C_2 
REMARK    2  A    between atoms: C_3  and  C_4 
REMARK    3  A    between atoms: C_3  and  C_5 
REMARK    4  A    between atoms: C_5  and  O_7 
REMARK    5  A    between atoms: O_7  and  C_8 
REMARK    6  A    between atoms: C_19  and  C_41 
REMARK    7  A    between atoms: C_21  and  C_40 
REMARK    8  A    between atoms: C_26  and  C_39 
REMARK    9  A    between atoms: C_29  and  C_33 
REMARK   10  A    between atoms: C_29  and  O_38 
REMARK   11  A    between atoms: C_30  and  C_31 
REMARK   12  A    between atoms: C_30  and  C_32 
REMARK   13  A    between atoms: C_33  and  C_34 
REMARK   14  A    between atoms: C_34  and  O_36 
REMARK   15  A    between atoms: O_36  and  C_37 
ROOT
ATOM      1  C   LIG d   1      11.515   4.690  -2.767  0.00  0.00     0.121 C 
ATOM      2  H   LIG d   1      11.814   3.847  -2.118  0.00  0.00     0.075 H 
ATOM      3  C   LIG d   1      10.293   5.352  -2.156  0.00  0.00     0.059 C 
ATOM      4  H   LIG d   1       9.570   4.572  -1.850  0.00  0.00     0.042 H 
ATOM      5  C   LIG d   1       9.605   6.299  -3.128  0.00  0.00    -0.018 C 
ATOM      6  C   LIG d   1      10.232   7.665  -3.218  0.00  0.00    -0.064 C 
ATOM      7  C   LIG d   1      10.014   8.367  -4.304  0.00  0.00    -0.050 C 
ATOM      8  C   LIG d   1       9.168   7.784  -5.437  0.00  0.00     0.067 C 
ATOM      9  C   LIG d   1      10.094   7.859  -6.644  0.00  0.00     0.312 C 
ATOM     10  O   LIG d   1      10.258   6.900  -7.357  0.00  0.00    -0.251 OA
ATOM     11  O   LIG d   1      10.720   9.024  -6.888  0.00  0.00    -0.455 OA
ATOM     12  C   LIG d   1      11.441   9.661  -5.824  0.00  0.00     0.140 C 
ATOM     13  H   LIG d   1      12.342   9.089  -5.598  0.00  0.00     0.080 H 
ATOM     14  C   LIG d   1      10.547   9.749  -4.590  0.00  0.00     0.031 C 
ATOM     15  C   LIG d   1      11.228  10.360  -3.384  0.00  0.00    -0.040 C 
ATOM     16  C   LIG d   1      12.028   9.288  -2.643  0.00  0.00    -0.045 C 
ATOM     17  C   LIG d   1      11.055   8.249  -2.106  0.00  0.00    -0.005 C 
ATOM     18  H   LIG d   1      10.332   8.805  -1.456  0.00  0.00     0.036 H 
ATOM     19  C   LIG d   1      11.736   7.227  -1.215  0.00  0.00     0.063 C 
ATOM     20  C   LIG d   1      10.714   6.129  -0.928  0.00  0.00     0.149 C 
ATOM     21  O   LIG d   1      10.293   5.915   0.178  0.00  0.00    -0.296 OA
ATOM     22  C   LIG d   1      12.971   6.568  -1.803  0.00  0.00     0.097 C 
ATOM     23  C   LIG d   1      12.718   5.596  -2.941  0.00  0.00     0.033 C 
ATOM     24  H   LIG d   1       9.617   5.823  -4.119  0.00  0.00     0.032 H 
ATOM     25  H   LIG d   1       8.554   6.415  -2.834  0.00  0.00     0.032 H 
ATOM     26  H   LIG d   1       8.871   6.761  -5.251  0.00  0.00     0.042 H 
ATOM     27  H   LIG d   1       8.277   8.390  -5.607  0.00  0.00     0.042 H 
ATOM     28  H   LIG d   1      11.878  11.177  -3.654  0.00  0.00     0.028 H 
ATOM     29  H   LIG d   1      10.454  10.738  -2.704  0.00  0.00     0.028 H 
ATOM     30  H   LIG d   1      12.714   8.845  -3.356  0.00  0.00     0.027 H 
ATOM     31  H   LIG d   1      12.574   9.757  -1.829  0.00  0.00     0.027 H 
ENDROOT
BRANCH   1  32
ATOM     32  O   LIG d   1      11.174   4.109  -4.037  0.00  0.00    -0.457 OA
BRANCH  32  33
ATOM     33  C   LIG d   1      10.632   2.874  -4.020  0.00  0.00     0.335 C 
ATOM     34  O   LIG d   1      11.225   1.958  -3.484  0.00  0.00    -0.245 OA
BRANCH  33  35
ATOM     35  C   LIG d   1       9.325   2.637  -4.647  0.00  0.00     0.029 C 
ATOM     36  C   LIG d   1       9.168   2.840  -5.953  0.00  0.00    -0.077 C 
ATOM     37  H   LIG d   1       8.207   2.665  -6.415  0.00  0.00     0.057 H 
BRANCH  36  38
ATOM     38  C   LIG d   1      10.330   3.312  -6.788  0.00  0.00    -0.046 C 
ATOM     39  H   LIG d   1       9.983   4.054  -7.507  0.00  0.00     0.027 H 
ATOM     40  H   LIG d   1      11.085   3.758  -6.142  0.00  0.00     0.027 H 
ATOM     41  H   LIG d   1      10.762   2.464  -7.320  0.00  0.00     0.027 H 
ENDBRANCH  36  38
BRANCH  35  42
ATOM     42  C   LIG d   1       8.163   2.165  -3.812  0.00  0.00    -0.033 C 
ATOM     43  H   LIG d   1       7.275   2.083  -4.439  0.00  0.00     0.028 H 
ATOM     44  H   LIG d   1       8.396   1.191  -3.382  0.00  0.00     0.028 H 
ATOM     45  H   LIG d   1       7.977   2.881  -3.011  0.00  0.00     0.028 H 
ENDBRANCH  35  42
ENDBRANCH  33  35
ENDBRANCH  32  33
ENDBRANCH   1  32
BRANCH  23  46
ATOM     46  C   LIG d   1      13.967   4.675  -3.008  0.00  0.00    -0.054 C 
ATOM     47  H   LIG d   1      14.745   5.161  -3.597  0.00  0.00     0.024 H 
ATOM     48  H   LIG d   1      14.338   4.490  -2.000  0.00  0.00     0.024 H 
ATOM     49  H   LIG d   1      13.696   3.729  -3.475  0.00  0.00     0.024 H 
ENDBRANCH  23  46
BRANCH  23  50
ATOM     50  C   LIG d   1      12.662   6.319  -4.287  0.00  0.00    -0.054 C 
ATOM     51  H   LIG d   1      11.707   6.114  -4.769  0.00  0.00     0.024 H 
ATOM     52  H   LIG d   1      12.768   7.392  -4.128  0.00  0.00     0.024 H 
ATOM     53  H   LIG d   1      13.473   5.964  -4.923  0.00  0.00     0.024 H 
ENDBRANCH  23  50
BRANCH  22  54
ATOM     54  C   LIG d   1      13.666   5.778  -0.665  0.00  0.00     0.075 C 
ATOM     55  H   LIG d   1      13.081   5.872   0.251  0.00  0.00     0.041 H 
ATOM     56  H   LIG d   1      13.740   4.728  -0.944  0.00  0.00     0.041 H 
BRANCH  54  57
ATOM     57  C   LIG d   1      15.047   6.337  -0.437  0.00  0.00     0.310 C 
ATOM     58  O   LIG d   1      16.008   5.792  -0.930  0.00  0.00    -0.251 OA
BRANCH  57  59
ATOM     59  O   LIG d   1      15.212   7.438   0.313  0.00  0.00    -0.468 OA
BRANCH  59  60
ATOM     60  C   LIG d   1      16.510   8.035   0.314  0.00  0.00     0.082 C 
ATOM     61  H   LIG d   1      17.103   7.616   1.127  0.00  0.00     0.066 H 
ATOM     62  H   LIG d   1      17.003   7.833  -0.637  0.00  0.00     0.066 H 
ATOM     63  H   LIG d   1      16.415   9.112   0.452  0.00  0.00     0.066 H 
ENDBRANCH  59  60
ENDBRANCH  57  59
ENDBRANCH  54  57
ENDBRANCH  22  54
BRANCH  22  64
ATOM     64  O   LIG d   1      13.921   7.560  -2.230  0.00  0.00    -0.386 OA
ATOM     65  H   LIG d   1      13.545   8.445  -2.332  0.00  0.00     0.210 HD
ENDBRANCH  22  64
BRANCH  19  66
ATOM     66  C   LIG d   1      12.114   7.879   0.136  0.00  0.00    -0.050 C 
ATOM     67  H   LIG d   1      11.254   8.420   0.530  0.00  0.00     0.024 H 
ATOM     68  H   LIG d   1      12.412   7.104   0.843  0.00  0.00     0.024 H 
ATOM     69  H   LIG d   1      12.942   8.571  -0.014  0.00  0.00     0.024 H 
ENDBRANCH  19  66
BRANCH  14  70
ATOM     70  C   LIG d   1       9.364  10.655  -4.939  0.00  0.00    -0.052 C 
ATOM     71  H   LIG d   1       8.434  10.160  -4.661  0.00  0.00     0.024 H 
ATOM     72  H   LIG d   1       9.453  11.595  -4.394  0.00  0.00     0.024 H 
ATOM     73  H   LIG d   1       9.364  10.854  -6.010  0.00  0.00     0.024 H 
ENDBRANCH  14  70
BRANCH  12  74
ATOM     74  C   LIG d   1      11.837  11.043  -6.275  0.00  0.00     0.031 A 
ATOM     75  C   LIG d   1      11.323  11.725  -7.313  0.00  0.00     0.098 A 
ATOM     76  O   LIG d   1      11.937  12.918  -7.384  0.00  0.00    -0.471 OA
ATOM     77  H   LIG d   1      10.546  11.375  -7.977  0.00  0.00     0.103 H 
ATOM     78  C   LIG d   1      12.851  13.009  -6.404  0.00  0.00     0.092 A 
ATOM     79  C   LIG d   1      12.824  11.870  -5.690  0.00  0.00    -0.017 A 
ATOM     80  H   LIG d   1      13.497  13.855  -6.220  0.00  0.00     0.103 H 
ATOM     81  H   LIG d   1      13.439  11.631  -4.835  0.00  0.00     0.065 H 
ENDBRANCH  12  74
TORSDOF 15
ENDMDL
MODEL 9
REMARK VINA RESULT:      -5.3      2.758      6.934
REMARK  15 active torsions:
REMARK  status: ('A' for Active; 'I' for Inactive)
REMARK    1  A    between atoms: C_1  and  C_2 
REMARK    2  A    between atoms: C_3  and  C_4 
REMARK    3  A    between atoms: C_3  and  C_5 
REMARK    4  A    between atoms: C_5  and  O_7 
REMARK    5  A    between atoms: O_7  and  C_8 
REMARK    6  A    between atoms: C_19  and  C_41 
REMARK    7  A    between atoms: C_21  and  C_40 
REMARK    8  A    between atoms: C_26  and  C_39 
REMARK    9  A    between atoms: C_29  and  C_33 
REMARK   10  A    between atoms: C_29  and  O_38 
REMARK   11  A    between atoms: C_30  and  C_31 
REMARK   12  A    between atoms: C_30  and  C_32 
REMARK   13  A    between atoms: C_33  and  C_34 
REMARK   14  A    between atoms: C_34  and  O_36 
REMARK   15  A    between atoms: O_36  and  C_37 
ROOT
ATOM      1  C   LIG d   1       4.928  -1.447  -7.354  0.00  0.00     0.121 C 
ATOM      2  H   LIG d   1       5.312  -1.054  -6.395  0.00  0.00     0.075 H 
ATOM      3  C   LIG d   1       3.539  -0.876  -7.580  0.00  0.00     0.059 C 
ATOM      4  H   LIG d   1       2.953  -0.958  -6.644  0.00  0.00     0.042 H 
ATOM      5  C   LIG d   1       2.792  -1.605  -8.687  0.00  0.00    -0.018 C 
ATOM      6  C   LIG d   1       3.143  -1.155 -10.080  0.00  0.00    -0.064 C 
ATOM      7  C   LIG d   1       2.914  -1.987 -11.068  0.00  0.00    -0.050 C 
ATOM      8  C   LIG d   1       2.332  -3.372 -10.784  0.00  0.00     0.067 C 
ATOM      9  C   LIG d   1       3.355  -4.319 -11.400  0.00  0.00     0.312 C 
ATOM     10  O   LIG d   1       3.783  -5.257 -10.774  0.00  0.00    -0.251 OA
ATOM     11  O   LIG d   1       3.762  -4.075 -12.657  0.00  0.00    -0.455 OA
ATOM     12  C   LIG d   1       4.221  -2.758 -12.996  0.00  0.00     0.140 C 
ATOM     13  H   LIG d   1       5.186  -2.572 -12.522  0.00  0.00     0.080 H 
ATOM     14  C   LIG d   1       3.194  -1.730 -12.528  0.00  0.00     0.031 C 
ATOM     15  C   LIG d   1       3.603  -0.296 -12.788  0.00  0.00    -0.040 C 
ATOM     16  C   LIG d   1       4.510   0.197 -11.660  0.00  0.00    -0.045 C 
ATOM     17  C   LIG d   1       3.707   0.208 -10.368  0.00  0.00    -0.005 C 
ATOM     18  H   LIG d   1       2.820   0.866 -10.557  0.00  0.00     0.036 H 
ATOM     19  C   LIG d   1       4.471   0.836  -9.217  0.00  0.00     0.063 C 
ATOM     20  C   LIG d   1       3.659   0.585  -7.949  0.00  0.00     0.149 C 
ATOM     21  O   LIG d   1       3.167   1.480  -7.313  0.00  0.00    -0.296 OA
ATOM     22  C   LIG d   1       5.869   0.291  -8.988  0.00  0.00     0.097 C 
ATOM     23  C   LIG d   1       5.941  -1.120  -8.433  0.00  0.00     0.033 C 
ATOM     24  H   LIG d   1       3.008  -2.678  -8.582  0.00  0.00     0.032 H 
ATOM     25  H   LIG d   1       1.712  -1.474  -8.539  0.00  0.00     0.032 H 
ATOM     26  H   LIG d   1       2.223  -3.570  -9.726  0.00  0.00     0.042 H 
ATOM     27  H   LIG d   1       1.365  -3.493 -11.272  0.00  0.00     0.042 H 
ATOM     28  H   LIG d   1       4.106  -0.181 -13.735  0.00  0.00     0.028 H 
ATOM     29  H   LIG d   1       2.699   0.325 -12.794  0.00  0.00     0.028 H 
ATOM     30  H   LIG d   1       5.345  -0.491 -11.591  0.00  0.00     0.027 H 
ATOM     31  H   LIG d   1       4.858   1.197 -11.901  0.00  0.00     0.027 H 
ENDROOT
BRANCH   1  32
ATOM     32  O   LIG d   1       4.852  -2.873  -7.193  0.00  0.00    -0.457 OA
BRANCH  32  33
ATOM     33  C   LIG d   1       4.668  -3.340  -5.941  0.00  0.00     0.335 C 
ATOM     34  O   LIG d   1       3.919  -4.278  -5.747  0.00  0.00    -0.245 OA
BRANCH  33  35
ATOM     35  C   LIG d   1       5.372  -2.715  -4.813  0.00  0.00     0.029 C 
ATOM     36  C   LIG d   1       6.627  -3.062  -4.539  0.00  0.00    -0.077 C 
ATOM     37  H   LIG d   1       7.146  -2.602  -3.710  0.00  0.00     0.057 H 
BRANCH  36  38
ATOM     38  C   LIG d   1       7.327  -4.093  -5.385  0.00  0.00    -0.046 C 
ATOM     39  H   LIG d   1       7.722  -3.619  -6.284  0.00  0.00     0.027 H 
ATOM     40  H   LIG d   1       8.145  -4.534  -4.818  0.00  0.00     0.027 H 
ATOM     41  H   LIG d   1       6.619  -4.872  -5.667  0.00  0.00     0.027 H 
ENDBRANCH  36  38
BRANCH  35  42
ATOM     42  C   LIG d   1       4.672  -1.683  -3.966  0.00  0.00    -0.033 C 
ATOM     43  H   LIG d   1       3.920  -1.171  -4.566  0.00  0.00     0.028 H 
ATOM     44  H   LIG d   1       4.190  -2.173  -3.120  0.00  0.00     0.028 H 
ATOM     45  H   LIG d   1       5.400  -0.959  -3.601  0.00  0.00     0.028 H 
ENDBRANCH  35  42
ENDBRANCH  33  35
ENDBRANCH  32  33
ENDBRANCH   1  32
BRANCH  23  46
ATOM     46  C   LIG d   1       7.346  -1.258  -7.785  0.00  0.00    -0.054 C 
ATOM     47  H   LIG d   1       8.061  -1.593  -8.538  0.00  0.00     0.024 H 
ATOM     48  H   LIG d   1       7.662  -0.293  -7.390  0.00  0.00     0.024 H 
ATOM     49  H   LIG d   1       7.303  -1.986  -6.976  0.00  0.00     0.024 H 
ENDBRANCH  23  46
BRANCH  23  50
ATOM     50  C   LIG d   1       5.895  -2.161  -9.552  0.00  0.00    -0.054 C 
ATOM     51  H   LIG d   1       6.598  -1.881 -10.337  0.00  0.00     0.024 H 
ATOM     52  H   LIG d   1       6.167  -3.138  -9.151  0.00  0.00     0.024 H 
ATOM     53  H   LIG d   1       4.888  -2.205  -9.965  0.00  0.00     0.024 H 
ENDBRANCH  23  50
BRANCH  22  54
ATOM     54  C   LIG d   1       6.574   1.225  -7.972  0.00  0.00     0.075 C 
ATOM     55  H   LIG d   1       5.881   2.004  -7.654  0.00  0.00     0.041 H 
ATOM     56  H   LIG d   1       6.893   0.646  -7.107  0.00  0.00     0.041 H 
BRANCH  54  57
ATOM     57  C   LIG d   1       7.777   1.859  -8.624  0.00  0.00     0.310 C 
ATOM     58  O   LIG d   1       8.838   1.280  -8.625  0.00  0.00    -0.251 OA
BRANCH  57  59
ATOM     59  O   LIG d   1       7.670   3.065  -9.202  0.00  0.00    -0.468 OA
BRANCH  59  60
ATOM     60  C   LIG d   1       8.782   3.952  -9.064  0.00  0.00     0.082 C 
ATOM     61  H   LIG d   1       8.854   4.586  -9.948  0.00  0.00     0.066 H 
ATOM     62  H   LIG d   1       8.644   4.574  -8.180  0.00  0.00     0.066 H 
ATOM     63  H   LIG d   1       9.699   3.370  -8.959  0.00  0.00     0.066 H 
ENDBRANCH  59  60
ENDBRANCH  57  59
ENDBRANCH  54  57
ENDBRANCH  22  54
BRANCH  22  64
ATOM     64  O   LIG d   1       6.647   0.364 -10.196  0.00  0.00    -0.386 OA
ATOM     65  H   LIG d   1       6.413   1.106 -10.769  0.00  0.00     0.210 HD
ENDBRANCH  22  64
BRANCH  19  66
ATOM     66  C   LIG d   1       4.560   2.366  -9.422  0.00  0.00    -0.050 C 
ATOM     67  H   LIG d   1       3.598   2.742  -9.769  0.00  0.00     0.024 H 
ATOM     68  H   LIG d   1       4.818   2.845  -8.478  0.00  0.00     0.024 H 
ATOM     69  H   LIG d   1       5.326   2.590 -10.164  0.00  0.00     0.024 H 
ENDBRANCH  19  66
BRANCH  14  70
ATOM     70  C   LIG d   1       1.903  -1.974 -13.311  0.00  0.00    -0.052 C 
ATOM     71  H   LIG d   1       1.531  -1.028 -13.702  0.00  0.00     0.024 H 
ATOM     72  H   LIG d   1       2.103  -2.656 -14.138  0.00  0.00     0.024 H 
ATOM     73  H   LIG d   1       1.156  -2.413 -12.651  0.00  0.00     0.024 H 
ENDBRANCH  14  70
BRANCH  12  74
ATOM     74  C   LIG d   1       4.385  -2.679 -14.492  0.00  0.00     0.031 A 
ATOM     75  C   LIG d   1       3.887  -3.537 -15.399  0.00  0.00     0.098 A 
ATOM     76  O   LIG d   1       4.251  -3.120 -16.623  0.00  0.00    -0.471 OA
ATOM     77  H   LIG d   1       3.293  -4.413 -15.182  0.00  0.00     0.103 H 
ATOM     78  C   LIG d   1       4.988  -2.002 -16.514  0.00  0.00     0.092 A 
ATOM     79  C   LIG d   1       5.098  -1.691 -15.210  0.00  0.00    -0.017 A 
ATOM     80  H   LIG d   1       5.420  -1.448 -17.334  0.00  0.00     0.103 H 
ATOM     81  H   LIG d   1       5.628  -0.848 -14.791  0.00  0.00     0.065 H 
ENDBRANCH  12  74
TORSDOF 15
ENDMDL
