MODEL 1
REMARK VINA RESULT:      -6.5      0.000      0.000
REMARK  7 active torsions:
REMARK  status: ('A' for Active; 'I' for Inactive)
REMARK    1  A    between atoms: C_1  and  C_2 
REMARK    2  A    between atoms: C_2  and  O_3 
REMARK    3  A    between atoms: O_3  and  C_4 
REMARK    4  A    between atoms: C_4  and  C_6 
REMARK    5  A    between atoms: C_7  and  C_24 
REMARK    6  A    between atoms: C_11  and  N_15 
REMARK       I    between atoms: N_15  and  C_16 
REMARK    7  A    between atoms: C_16  and  C_18 
ROOT
ATOM      1  C   LIG d   1       5.004  -8.305  -6.247  0.00  0.00     0.215 A 
ATOM      2  C   LIG d   1       6.281  -7.908  -6.012  0.00  0.00     0.010 A 
ATOM      3  C   LIG d   1       6.231  -6.528  -5.692  0.00  0.00     0.024 A 
ATOM      4  C   LIG d   1       7.204  -5.576  -5.360  0.00  0.00    -0.049 A 
ATOM      5  C   LIG d   1       6.834  -4.290  -5.098  0.00  0.00    -0.040 A 
ATOM      6  C   LIG d   1       5.492  -3.915  -5.159  0.00  0.00     0.037 A 
ATOM      7  C   LIG d   1       4.515  -4.844  -5.480  0.00  0.00     0.003 A 
ATOM      8  C   LIG d   1       4.875  -6.155  -5.754  0.00  0.00     0.138 A 
ATOM      9  O   LIG d   1       4.169  -7.254  -6.092  0.00  0.00    -0.448 OA
ATOM     10  H   LIG d   1       8.245  -5.861  -5.312  0.00  0.00     0.062 H 
ATOM     11  H   LIG d   1       7.585  -3.557  -4.842  0.00  0.00     0.064 H 
ATOM     12  H   LIG d   1       3.478  -4.547  -5.521  0.00  0.00     0.067 H 
ENDROOT
BRANCH   6  13
ATOM     13  N   LIG d   1       5.129  -2.594  -4.888  0.00  0.00    -0.281 N 
ATOM     14  C   LIG d   1       4.452  -2.298  -3.761  0.00  0.00     0.250 C 
ATOM     15  O   LIG d   1       4.073  -3.191  -3.027  0.00  0.00    -0.270 OA
ATOM     16  H   LIG d   1       5.366  -1.890  -5.511  0.00  0.00     0.155 HD
BRANCH  14  17
ATOM     17  C   LIG d   1       4.172  -0.889  -3.415  0.00  0.00     0.055 A 
ATOM     18  C   LIG d   1       3.555  -0.042  -4.336  0.00  0.00     0.040 A 
ATOM     19  N   LIG d   1       3.304   1.214  -4.028  0.00  0.00    -0.263 NA
ATOM     20  H   LIG d   1       3.275  -0.421  -5.309  0.00  0.00     0.084 H 
ATOM     21  C   LIG d   1       3.621   1.719  -2.851  0.00  0.00     0.028 A 
ATOM     22  C   LIG d   1       4.235   0.944  -1.883  0.00  0.00    -0.043 A 
ATOM     23  H   LIG d   1       3.398   2.755  -2.640  0.00  0.00     0.083 H 
ATOM     24  C   LIG d   1       4.520  -0.381  -2.158  0.00  0.00    -0.047 A 
ATOM     25  H   LIG d   1       4.489   1.370  -0.923  0.00  0.00     0.063 H 
ATOM     26  H   LIG d   1       4.998  -1.009  -1.420  0.00  0.00     0.063 H 
ENDBRANCH  14  17
ENDBRANCH   6  13
BRANCH   2  27
ATOM     27  C   LIG d   1       7.515  -8.770  -6.078  0.00  0.00    -0.035 C 
ATOM     28  H   LIG d   1       7.244  -9.808  -5.890  0.00  0.00     0.028 H 
ATOM     29  H   LIG d   1       7.965  -8.685  -7.068  0.00  0.00     0.028 H 
ATOM     30  H   LIG d   1       8.231  -8.438  -5.326  0.00  0.00     0.028 H 
ENDBRANCH   2  27
BRANCH   1  31
ATOM     31  C   LIG d   1       4.592  -9.664  -6.614  0.00  0.00     0.375 C 
ATOM     32  O   LIG d   1       4.893 -10.116  -7.703  0.00  0.00    -0.241 OA
BRANCH  31  33
ATOM     33  O   LIG d   1       3.882 -10.413  -5.746  0.00  0.00    -0.459 OA
BRANCH  33  34
ATOM     34  C   LIG d   1       4.532 -10.769  -4.498  0.00  0.00     0.090 C 
ATOM     35  H   LIG d   1       4.575 -11.855  -4.407  0.00  0.00     0.070 H 
ATOM     36  H   LIG d   1       5.544 -10.364  -4.485  0.00  0.00     0.070 H 
BRANCH  34  37
ATOM     37  C   LIG d   1       3.737 -10.190  -3.326  0.00  0.00    -0.031 C 
ATOM     38  H   LIG d   1       4.383  -9.541  -2.735  0.00  0.00     0.026 H 
ATOM     39  H   LIG d   1       2.894  -9.613  -3.708  0.00  0.00     0.026 H 
ATOM     40  H   LIG d   1       3.368 -11.003  -2.701  0.00  0.00     0.026 H 
ENDBRANCH  34  37
ENDBRANCH  33  34
ENDBRANCH  31  33
ENDBRANCH   1  31
TORSDOF 7
ENDMDL
MODEL 2
REMARK VINA RESULT:      -5.9      6.237      9.323
REMARK  7 active torsions:
REMARK  status: ('A' for Active; 'I' for Inactive)
REMARK    1  A    between atoms: C_1  and  C_2 
REMARK    2  A    between atoms: C_2  and  O_3 
REMARK    3  A    between atoms: O_3  and  C_4 
REMARK    4  A    between atoms: C_4  and  C_6 
REMARK    5  A    between atoms: C_7  and  C_24 
REMARK    6  A    between atoms: C_11  and  N_15 
REMARK       I    between atoms: N_15  and  C_16 
REMARK    7  A    between atoms: C_16  and  C_18 
ROOT
ATOM      1  C   LIG d   1       4.099  -1.136  -5.402  0.00  0.00     0.215 A 
ATOM      2  C   LIG d   1       3.286  -0.101  -5.735  0.00  0.00     0.010 A 
ATOM      3  C   LIG d   1       3.319   0.012  -7.147  0.00  0.00     0.024 A 
ATOM      4  C   LIG d   1       2.700   0.872  -8.064  0.00  0.00    -0.049 A 
ATOM      5  C   LIG d   1       2.937   0.726  -9.399  0.00  0.00    -0.040 A 
ATOM      6  C   LIG d   1       3.793  -0.276  -9.859  0.00  0.00     0.037 A 
ATOM      7  C   LIG d   1       4.409  -1.139  -8.967  0.00  0.00     0.003 A 
ATOM      8  C   LIG d   1       4.183  -1.001  -7.606  0.00  0.00     0.138 A 
ATOM      9  O   LIG d   1       4.632  -1.669  -6.524  0.00  0.00    -0.448 OA
ATOM     10  H   LIG d   1       2.037   1.649  -7.714  0.00  0.00     0.062 H 
ATOM     11  H   LIG d   1       2.459   1.390 -10.104  0.00  0.00     0.064 H 
ATOM     12  H   LIG d   1       5.067  -1.914  -9.331  0.00  0.00     0.067 H 
ENDROOT
BRANCH   6  13
ATOM     13  N   LIG d   1       4.026  -0.412 -11.229  0.00  0.00    -0.281 N 
ATOM     14  C   LIG d   1       3.206  -1.174 -11.979  0.00  0.00     0.250 C 
ATOM     15  O   LIG d   1       2.322  -1.820 -11.449  0.00  0.00    -0.270 OA
ATOM     16  H   LIG d   1       4.776   0.043 -11.640  0.00  0.00     0.155 HD
BRANCH  14  17
ATOM     17  C   LIG d   1       3.380  -1.225 -13.446  0.00  0.00     0.055 A 
ATOM     18  C   LIG d   1       2.525  -1.992 -14.236  0.00  0.00     0.040 A 
ATOM     19  N   LIG d   1       2.679  -2.037 -15.543  0.00  0.00    -0.263 NA
ATOM     20  H   LIG d   1       1.725  -2.552 -13.772  0.00  0.00     0.084 H 
ATOM     21  C   LIG d   1       3.638  -1.366 -16.154  0.00  0.00     0.028 A 
ATOM     22  C   LIG d   1       4.526  -0.580 -15.442  0.00  0.00    -0.043 A 
ATOM     23  H   LIG d   1       3.729  -1.430 -17.229  0.00  0.00     0.083 H 
ATOM     24  C   LIG d   1       4.406  -0.501 -14.066  0.00  0.00    -0.047 A 
ATOM     25  H   LIG d   1       5.306  -0.036 -15.955  0.00  0.00     0.063 H 
ATOM     26  H   LIG d   1       5.086   0.105 -13.485  0.00  0.00     0.063 H 
ENDBRANCH  14  17
ENDBRANCH   6  13
BRANCH   2  27
ATOM     27  C   LIG d   1       2.498   0.763  -4.784  0.00  0.00    -0.035 C 
ATOM     28  H   LIG d   1       1.483   0.884  -5.159  0.00  0.00     0.028 H 
ATOM     29  H   LIG d   1       2.469   0.290  -3.802  0.00  0.00     0.028 H 
ATOM     30  H   LIG d   1       2.975   1.740  -4.701  0.00  0.00     0.028 H 
ENDBRANCH   2  27
BRANCH   1  31
ATOM     31  C   LIG d   1       4.360  -1.604  -4.037  0.00  0.00     0.375 C 
ATOM     32  O   LIG d   1       3.925  -2.679  -3.670  0.00  0.00    -0.241 OA
BRANCH  31  33
ATOM     33  O   LIG d   1       5.083  -0.844  -3.189  0.00  0.00    -0.459 OA
BRANCH  33  34
ATOM     34  C   LIG d   1       4.484  -0.537  -1.904  0.00  0.00     0.090 C 
ATOM     35  H   LIG d   1       3.451  -0.884  -1.891  0.00  0.00     0.070 H 
ATOM     36  H   LIG d   1       5.044  -1.036  -1.112  0.00  0.00     0.070 H 
BRANCH  34  37
ATOM     37  C   LIG d   1       4.515   0.975  -1.674  0.00  0.00    -0.031 C 
ATOM     38  H   LIG d   1       5.195   1.437  -2.390  0.00  0.00     0.026 H 
ATOM     39  H   LIG d   1       3.514   1.385  -1.808  0.00  0.00     0.026 H 
ATOM     40  H   LIG d   1       4.860   1.182  -0.661  0.00  0.00     0.026 H 
ENDBRANCH  34  37
ENDBRANCH  33  34
ENDBRANCH  31  33
ENDBRANCH   1  31
TORSDOF 7
ENDMDL
MODEL 3
REMARK VINA RESULT:      -5.7      6.104      7.377
REMARK  7 active torsions:
REMARK  status: ('A' for Active; 'I' for Inactive)
REMARK    1  A    between atoms: C_1  and  C_2 
REMARK    2  A    between atoms: C_2  and  O_3 
REMARK    3  A    between atoms: O_3  and  C_4 
REMARK    4  A    between atoms: C_4  and  C_6 
REMARK    5  A    between atoms: C_7  and  C_24 
REMARK    6  A    between atoms: C_11  and  N_15 
REMARK       I    between atoms: N_15  and  C_16 
REMARK    7  A    between atoms: C_16  and  C_18 
ROOT
ATOM      1  C   LIG d   1       1.535  -1.524 -11.702  0.00  0.00     0.215 A 
ATOM      2  C   LIG d   1       2.756  -0.948 -11.853  0.00  0.00     0.010 A 
ATOM      3  C   LIG d   1       3.148  -0.473 -10.576  0.00  0.00     0.024 A 
ATOM      4  C   LIG d   1       4.282   0.197 -10.099  0.00  0.00    -0.049 A 
ATOM      5  C   LIG d   1       4.370   0.531  -8.780  0.00  0.00    -0.040 A 
ATOM      6  C   LIG d   1       3.336   0.208  -7.900  0.00  0.00     0.037 A 
ATOM      7  C   LIG d   1       2.209  -0.460  -8.352  0.00  0.00     0.003 A 
ATOM      8  C   LIG d   1       2.102  -0.802  -9.692  0.00  0.00     0.138 A 
ATOM      9  O   LIG d   1       1.150  -1.433 -10.410  0.00  0.00    -0.448 OA
ATOM     10  H   LIG d   1       5.085   0.451 -10.776  0.00  0.00     0.062 H 
ATOM     11  H   LIG d   1       5.244   1.047  -8.414  0.00  0.00     0.064 H 
ATOM     12  H   LIG d   1       1.415  -0.710  -7.664  0.00  0.00     0.067 H 
ENDROOT
BRANCH   6  13
ATOM     13  N   LIG d   1       3.441   0.556  -6.552  0.00  0.00    -0.281 N 
ATOM     14  C   LIG d   1       3.975  -0.313  -5.671  0.00  0.00     0.250 C 
ATOM     15  O   LIG d   1       4.277  -1.435  -6.030  0.00  0.00    -0.270 OA
ATOM     16  H   LIG d   1       3.130   1.423  -6.250  0.00  0.00     0.155 HD
BRANCH  14  17
ATOM     17  C   LIG d   1       4.195   0.098  -4.268  0.00  0.00     0.055 A 
ATOM     18  C   LIG d   1       5.305  -0.361  -3.560  0.00  0.00     0.040 A 
ATOM     19  N   LIG d   1       5.502   0.006  -2.311  0.00  0.00    -0.263 NA
ATOM     20  H   LIG d   1       6.013  -1.020  -4.042  0.00  0.00     0.084 H 
ATOM     21  C   LIG d   1       4.668   0.812  -1.682  0.00  0.00     0.028 A 
ATOM     22  C   LIG d   1       3.544   1.312  -2.315  0.00  0.00    -0.043 A 
ATOM     23  H   LIG d   1       4.867   1.088  -0.657  0.00  0.00     0.083 H 
ATOM     24  C   LIG d   1       3.293   0.956  -3.628  0.00  0.00    -0.047 A 
ATOM     25  H   LIG d   1       2.870   1.973  -1.790  0.00  0.00     0.063 H 
ATOM     26  H   LIG d   1       2.422   1.332  -4.146  0.00  0.00     0.063 H 
ENDBRANCH  14  17
ENDBRANCH   6  13
BRANCH   2  27
ATOM     27  C   LIG d   1       3.543  -0.835 -13.132  0.00  0.00    -0.035 C 
ATOM     28  H   LIG d   1       3.913  -1.819 -13.419  0.00  0.00     0.028 H 
ATOM     29  H   LIG d   1       2.900  -0.445 -13.922  0.00  0.00     0.028 H 
ATOM     30  H   LIG d   1       4.385  -0.159 -12.983  0.00  0.00     0.028 H 
ENDBRANCH   2  27
BRANCH   1  31
ATOM     31  C   LIG d   1       0.754  -2.147 -12.775  0.00  0.00     0.375 C 
ATOM     32  O   LIG d   1      -0.232  -1.585 -13.213  0.00  0.00    -0.241 OA
BRANCH  31  33
ATOM     33  O   LIG d   1       1.128  -3.342 -13.277  0.00  0.00    -0.459 OA
BRANCH  33  34
ATOM     34  C   LIG d   1       1.186  -4.458 -12.351  0.00  0.00     0.090 C 
ATOM     35  H   LIG d   1       1.526  -5.350 -12.876  0.00  0.00     0.070 H 
ATOM     36  H   LIG d   1       1.882  -4.225 -11.544  0.00  0.00     0.070 H 
BRANCH  34  37
ATOM     37  C   LIG d   1      -0.205  -4.709 -11.766  0.00  0.00    -0.031 C 
ATOM     38  H   LIG d   1      -0.113  -4.977 -10.713  0.00  0.00     0.026 H 
ATOM     39  H   LIG d   1      -0.807  -3.804 -11.859  0.00  0.00     0.026 H 
ATOM     40  H   LIG d   1      -0.686  -5.522 -12.308  0.00  0.00     0.026 H 
ENDBRANCH  34  37
ENDBRANCH  33  34
ENDBRANCH  31  33
ENDBRANCH   1  31
TORSDOF 7
ENDMDL
MODEL 4
REMARK VINA RESULT:      -5.6      8.062     11.152
REMARK  7 active torsions:
REMARK  status: ('A' for Active; 'I' for Inactive)
REMARK    1  A    between atoms: C_1  and  C_2 
REMARK    2  A    between atoms: C_2  and  O_3 
REMARK    3  A    between atoms: O_3  and  C_4 
REMARK    4  A    between atoms: C_4  and  C_6 
REMARK    5  A    between atoms: C_7  and  C_24 
REMARK    6  A    between atoms: C_11  and  N_15 
REMARK       I    between atoms: N_15  and  C_16 
REMARK    7  A    between atoms: C_16  and  C_18 
ROOT
ATOM      1  C   LIG d   1       8.605   1.594  -4.599  0.00  0.00     0.215 A 
ATOM      2  C   LIG d   1       8.819   2.558  -5.531  0.00  0.00     0.010 A 
ATOM      3  C   LIG d   1       9.378   3.670  -4.853  0.00  0.00     0.024 A 
ATOM      4  C   LIG d   1       9.806   4.939  -5.264  0.00  0.00    -0.049 A 
ATOM      5  C   LIG d   1      10.312   5.815  -4.350  0.00  0.00    -0.040 A 
ATOM      6  C   LIG d   1      10.408   5.455  -3.005  0.00  0.00     0.037 A 
ATOM      7  C   LIG d   1       9.995   4.202  -2.581  0.00  0.00     0.003 A 
ATOM      8  C   LIG d   1       9.473   3.301  -3.497  0.00  0.00     0.138 A 
ATOM      9  O   LIG d   1       8.996   2.044  -3.386  0.00  0.00    -0.448 OA
ATOM     10  H   LIG d   1       9.734   5.224  -6.304  0.00  0.00     0.062 H 
ATOM     11  H   LIG d   1      10.641   6.793  -4.668  0.00  0.00     0.064 H 
ATOM     12  H   LIG d   1      10.076   3.929  -1.539  0.00  0.00     0.067 H 
ENDROOT
BRANCH   6  13
ATOM     13  N   LIG d   1      10.928   6.363  -2.081  0.00  0.00    -0.281 N 
ATOM     14  C   LIG d   1      10.096   7.109  -1.327  0.00  0.00     0.250 C 
ATOM     15  O   LIG d   1       8.896   7.063  -1.518  0.00  0.00    -0.270 OA
ATOM     16  H   LIG d   1      11.888   6.455  -1.980  0.00  0.00     0.155 HD
BRANCH  14  17
ATOM     17  C   LIG d   1      10.643   7.983  -0.268  0.00  0.00     0.055 A 
ATOM     18  C   LIG d   1      11.322   7.438   0.821  0.00  0.00     0.040 A 
ATOM     19  N   LIG d   1      11.810   8.216   1.764  0.00  0.00    -0.263 NA
ATOM     20  H   LIG d   1      11.454   6.368   0.889  0.00  0.00     0.084 H 
ATOM     21  C   LIG d   1      11.679   9.529   1.722  0.00  0.00     0.028 A 
ATOM     22  C   LIG d   1      11.018  10.147   0.674  0.00  0.00    -0.043 A 
ATOM     23  H   LIG d   1      12.094  10.131   2.517  0.00  0.00     0.083 H 
ATOM     24  C   LIG d   1      10.488   9.373  -0.342  0.00  0.00    -0.047 A 
ATOM     25  H   LIG d   1      10.919  11.222   0.651  0.00  0.00     0.063 H 
ATOM     26  H   LIG d   1       9.968   9.829  -1.171  0.00  0.00     0.063 H 
ENDBRANCH  14  17
ENDBRANCH   6  13
BRANCH   2  27
ATOM     27  C   LIG d   1       8.522   2.463  -7.005  0.00  0.00    -0.035 C 
ATOM     28  H   LIG d   1       8.442   1.416  -7.294  0.00  0.00     0.028 H 
ATOM     29  H   LIG d   1       7.581   2.972  -7.220  0.00  0.00     0.028 H 
ATOM     30  H   LIG d   1       9.325   2.936  -7.570  0.00  0.00     0.028 H 
ENDBRANCH   2  27
BRANCH   1  31
ATOM     31  C   LIG d   1       8.034   0.270  -4.865  0.00  0.00     0.375 C 
ATOM     32  O   LIG d   1       8.745  -0.625  -5.284  0.00  0.00    -0.241 OA
BRANCH  31  33
ATOM     33  O   LIG d   1       6.723   0.042  -4.645  0.00  0.00    -0.459 OA
BRANCH  33  34
ATOM     34  C   LIG d   1       6.322  -0.237  -3.279  0.00  0.00     0.090 C 
ATOM     35  H   LIG d   1       5.726  -1.149  -3.253  0.00  0.00     0.070 H 
ATOM     36  H   LIG d   1       7.209  -0.366  -2.658  0.00  0.00     0.070 H 
BRANCH  34  37
ATOM     37  C   LIG d   1       5.491   0.930  -2.742  0.00  0.00    -0.031 C 
ATOM     38  H   LIG d   1       4.432   0.687  -2.818  0.00  0.00     0.026 H 
ATOM     39  H   LIG d   1       5.748   1.110  -1.698  0.00  0.00     0.026 H 
ATOM     40  H   LIG d   1       5.702   1.825  -3.327  0.00  0.00     0.026 H 
ENDBRANCH  34  37
ENDBRANCH  33  34
ENDBRANCH  31  33
ENDBRANCH   1  31
TORSDOF 7
ENDMDL
MODEL 5
REMARK VINA RESULT:      -5.6      6.695      8.492
REMARK  7 active torsions:
REMARK  status: ('A' for Active; 'I' for Inactive)
REMARK    1  A    between atoms: C_1  and  C_2 
REMARK    2  A    between atoms: C_2  and  O_3 
REMARK    3  A    between atoms: O_3  and  C_4 
REMARK    4  A    between atoms: C_4  and  C_6 
REMARK    5  A    between atoms: C_7  and  C_24 
REMARK    6  A    between atoms: C_11  and  N_15 
REMARK       I    between atoms: N_15  and  C_16 
REMARK    7  A    between atoms: C_16  and  C_18 
ROOT
ATOM      1  C   LIG d   1       4.326  -0.628 -12.437  0.00  0.00     0.215 A 
ATOM      2  C   LIG d   1       3.065  -0.989 -12.086  0.00  0.00     0.010 A 
ATOM      3  C   LIG d   1       2.921  -0.697 -10.707  0.00  0.00     0.024 A 
ATOM      4  C   LIG d   1       1.871  -0.843  -9.791  0.00  0.00    -0.049 A 
ATOM      5  C   LIG d   1       2.043  -0.460  -8.493  0.00  0.00    -0.040 A 
ATOM      6  C   LIG d   1       3.260   0.077  -8.071  0.00  0.00     0.037 A 
ATOM      7  C   LIG d   1       4.308   0.234  -8.964  0.00  0.00     0.003 A 
ATOM      8  C   LIG d   1       4.151  -0.155 -10.286  0.00  0.00     0.138 A 
ATOM      9  O   LIG d   1       4.970  -0.131 -11.357  0.00  0.00    -0.448 OA
ATOM     10  H   LIG d   1       0.927  -1.258 -10.112  0.00  0.00     0.062 H 
ATOM     11  H   LIG d   1       1.232  -0.573  -7.789  0.00  0.00     0.064 H 
ATOM     12  H   LIG d   1       5.245   0.654  -8.630  0.00  0.00     0.067 H 
ENDROOT
BRANCH   6  13
ATOM     13  N   LIG d   1       3.420   0.464  -6.739  0.00  0.00    -0.281 N 
ATOM     14  C   LIG d   1       3.962  -0.392  -5.849  0.00  0.00     0.250 C 
ATOM     15  O   LIG d   1       4.222  -1.532  -6.182  0.00  0.00    -0.270 OA
ATOM     16  H   LIG d   1       3.143   1.348  -6.455  0.00  0.00     0.155 HD
BRANCH  14  17
ATOM     17  C   LIG d   1       4.240   0.056  -4.468  0.00  0.00     0.055 A 
ATOM     18  C   LIG d   1       5.512  -0.094  -3.917  0.00  0.00     0.040 A 
ATOM     19  N   LIG d   1       5.761   0.306  -2.687  0.00  0.00    -0.263 NA
ATOM     20  H   LIG d   1       6.302  -0.538  -4.505  0.00  0.00     0.084 H 
ATOM     21  C   LIG d   1       4.830   0.858  -1.932  0.00  0.00     0.028 A 
ATOM     22  C   LIG d   1       3.543   1.044  -2.407  0.00  0.00    -0.043 A 
ATOM     23  H   LIG d   1       5.076   1.172  -0.929  0.00  0.00     0.083 H 
ATOM     24  C   LIG d   1       3.231   0.640  -3.693  0.00  0.00    -0.047 A 
ATOM     25  H   LIG d   1       2.790   1.499  -1.779  0.00  0.00     0.063 H 
ATOM     26  H   LIG d   1       2.235   0.773  -4.088  0.00  0.00     0.063 H 
ENDBRANCH  14  17
ENDBRANCH   6  13
BRANCH   2  27
ATOM     27  C   LIG d   1       2.018  -1.585 -12.991  0.00  0.00    -0.035 C 
ATOM     28  H   LIG d   1       1.133  -1.836 -12.407  0.00  0.00     0.028 H 
ATOM     29  H   LIG d   1       1.751  -0.863 -13.763  0.00  0.00     0.028 H 
ATOM     30  H   LIG d   1       2.412  -2.487 -13.459  0.00  0.00     0.028 H 
ENDBRANCH   2  27
BRANCH   1  31
ATOM     31  C   LIG d   1       4.903  -0.758 -13.779  0.00  0.00     0.375 C 
ATOM     32  O   LIG d   1       5.870  -1.474 -13.957  0.00  0.00    -0.241 OA
BRANCH  31  33
ATOM     33  O   LIG d   1       4.362  -0.085 -14.815  0.00  0.00    -0.459 OA
BRANCH  33  34
ATOM     34  C   LIG d   1       4.223  -0.804 -16.068  0.00  0.00     0.090 C 
ATOM     35  H   LIG d   1       5.178  -0.810 -16.593  0.00  0.00     0.070 H 
ATOM     36  H   LIG d   1       3.914  -1.830 -15.867  0.00  0.00     0.070 H 
BRANCH  34  37
ATOM     37  C   LIG d   1       3.168  -0.116 -16.937  0.00  0.00    -0.031 C 
ATOM     38  H   LIG d   1       2.369  -0.822 -17.164  0.00  0.00     0.026 H 
ATOM     39  H   LIG d   1       2.757   0.739 -16.401  0.00  0.00     0.026 H 
ATOM     40  H   LIG d   1       3.627   0.223 -17.865  0.00  0.00     0.026 H 
ENDBRANCH  34  37
ENDBRANCH  33  34
ENDBRANCH  31  33
ENDBRANCH   1  31
TORSDOF 7
ENDMDL
MODEL 6
REMARK VINA RESULT:      -5.6      7.116     11.867
REMARK  7 active torsions:
REMARK  status: ('A' for Active; 'I' for Inactive)
REMARK    1  A    between atoms: C_1  and  C_2 
REMARK    2  A    between atoms: C_2  and  O_3 
REMARK    3  A    between atoms: O_3  and  C_4 
REMARK    4  A    between atoms: C_4  and  C_6 
REMARK    5  A    between atoms: C_7  and  C_24 
REMARK    6  A    between atoms: C_11  and  N_15 
REMARK       I    between atoms: N_15  and  C_16 
REMARK    7  A    between atoms: C_16  and  C_18 
ROOT
ATOM      1  C   LIG d   1      11.164   5.525  -3.156  0.00  0.00     0.215 A 
ATOM      2  C   LIG d   1      10.760   5.448  -4.450  0.00  0.00     0.010 A 
ATOM      3  C   LIG d   1       9.976   4.273  -4.568  0.00  0.00     0.024 A 
ATOM      4  C   LIG d   1       9.295   3.667  -5.631  0.00  0.00    -0.049 A 
ATOM      5  C   LIG d   1       8.610   2.506  -5.426  0.00  0.00    -0.040 A 
ATOM      6  C   LIG d   1       8.582   1.917  -4.161  0.00  0.00     0.037 A 
ATOM      7  C   LIG d   1       9.244   2.506  -3.095  0.00  0.00     0.003 A 
ATOM      8  C   LIG d   1       9.950   3.684  -3.289  0.00  0.00     0.138 A 
ATOM      9  O   LIG d   1      10.678   4.468  -2.468  0.00  0.00    -0.448 OA
ATOM     10  H   LIG d   1       9.314   4.118  -6.613  0.00  0.00     0.062 H 
ATOM     11  H   LIG d   1       8.086   2.039  -6.247  0.00  0.00     0.064 H 
ATOM     12  H   LIG d   1       9.215   2.046  -2.119  0.00  0.00     0.067 H 
ENDROOT
BRANCH   6  13
ATOM     13  N   LIG d   1       7.876   0.728  -3.967  0.00  0.00    -0.281 N 
ATOM     14  C   LIG d   1       6.617   0.763  -3.487  0.00  0.00     0.250 C 
ATOM     15  O   LIG d   1       6.130   1.819  -3.133  0.00  0.00    -0.270 OA
ATOM     16  H   LIG d   1       8.292  -0.122  -4.178  0.00  0.00     0.155 HD
BRANCH  14  17
ATOM     17  C   LIG d   1       5.828  -0.484  -3.392  0.00  0.00     0.055 A 
ATOM     18  C   LIG d   1       6.079  -1.550  -4.255  0.00  0.00     0.040 A 
ATOM     19  N   LIG d   1       5.377  -2.661  -4.170  0.00  0.00    -0.263 NA
ATOM     20  H   LIG d   1       6.860  -1.465  -4.997  0.00  0.00     0.084 H 
ATOM     21  C   LIG d   1       4.417  -2.812  -3.278  0.00  0.00     0.028 A 
ATOM     22  C   LIG d   1       4.107  -1.801  -2.384  0.00  0.00    -0.043 A 
ATOM     23  H   LIG d   1       3.866  -3.739  -3.242  0.00  0.00     0.083 H 
ATOM     24  C   LIG d   1       4.817  -0.614  -2.433  0.00  0.00    -0.047 A 
ATOM     25  H   LIG d   1       3.320  -1.938  -1.657  0.00  0.00     0.063 H 
ATOM     26  H   LIG d   1       4.595   0.191  -1.747  0.00  0.00     0.063 H 
ENDBRANCH  14  17
ENDBRANCH   6  13
BRANCH   2  27
ATOM     27  C   LIG d   1      11.082   6.426  -5.550  0.00  0.00    -0.035 C 
ATOM     28  H   LIG d   1      10.613   6.097  -6.477  0.00  0.00     0.028 H 
ATOM     29  H   LIG d   1      10.704   7.413  -5.282  0.00  0.00     0.028 H 
ATOM     30  H   LIG d   1      12.162   6.477  -5.687  0.00  0.00     0.028 H 
ENDBRANCH   2  27
BRANCH   1  31
ATOM     31  C   LIG d   1      12.002   6.589  -2.591  0.00  0.00     0.375 C 
ATOM     32  O   LIG d   1      13.208   6.445  -2.534  0.00  0.00    -0.241 OA
BRANCH  31  33
ATOM     33  O   LIG d   1      11.435   7.725  -2.136  0.00  0.00    -0.459 OA
BRANCH  33  34
ATOM     34  C   LIG d   1      10.673   7.635  -0.904  0.00  0.00     0.090 C 
ATOM     35  H   LIG d   1      10.816   6.650  -0.459  0.00  0.00     0.070 H 
ATOM     36  H   LIG d   1      11.016   8.401  -0.208  0.00  0.00     0.070 H 
BRANCH  34  37
ATOM     37  C   LIG d   1       9.189   7.848  -1.205  0.00  0.00    -0.031 C 
ATOM     38  H   LIG d   1       8.869   7.143  -1.973  0.00  0.00     0.026 H 
ATOM     39  H   LIG d   1       8.606   7.684  -0.298  0.00  0.00     0.026 H 
ATOM     40  H   LIG d   1       9.032   8.866  -1.559  0.00  0.00     0.026 H 
ENDBRANCH  34  37
ENDBRANCH  33  34
ENDBRANCH  31  33
ENDBRANCH   1  31
TORSDOF 7
ENDMDL
MODEL 7
REMARK VINA RESULT:      -5.5      2.590      3.260
REMARK  7 active torsions:
REMARK  status: ('A' for Active; 'I' for Inactive)
REMARK    1  A    between atoms: C_1  and  C_2 
REMARK    2  A    between atoms: C_2  and  O_3 
REMARK    3  A    between atoms: O_3  and  C_4 
REMARK    4  A    between atoms: C_4  and  C_6 
REMARK    5  A    between atoms: C_7  and  C_24 
REMARK    6  A    between atoms: C_11  and  N_15 
REMARK       I    between atoms: N_15  and  C_16 
REMARK    7  A    between atoms: C_16  and  C_18 
ROOT
ATOM      1  C   LIG d   1       4.876  -8.471  -5.786  0.00  0.00     0.215 A 
ATOM      2  C   LIG d   1       6.036  -7.868  -5.418  0.00  0.00     0.010 A 
ATOM      3  C   LIG d   1       5.856  -6.476  -5.611  0.00  0.00     0.024 A 
ATOM      4  C   LIG d   1       6.676  -5.357  -5.414  0.00  0.00    -0.049 A 
ATOM      5  C   LIG d   1       6.205  -4.110  -5.701  0.00  0.00    -0.040 A 
ATOM      6  C   LIG d   1       4.909  -3.940  -6.190  0.00  0.00     0.037 A 
ATOM      7  C   LIG d   1       4.081  -5.034  -6.386  0.00  0.00     0.003 A 
ATOM      8  C   LIG d   1       4.547  -6.310  -6.104  0.00  0.00     0.138 A 
ATOM      9  O   LIG d   1       3.991  -7.535  -6.196  0.00  0.00    -0.448 OA
ATOM     10  H   LIG d   1       7.680  -5.483  -5.036  0.00  0.00     0.062 H 
ATOM     11  H   LIG d   1       6.839  -3.249  -5.549  0.00  0.00     0.064 H 
ATOM     12  H   LIG d   1       3.079  -4.894  -6.761  0.00  0.00     0.067 H 
ENDROOT
BRANCH   6  13
ATOM     13  N   LIG d   1       4.442  -2.656  -6.480  0.00  0.00    -0.281 N 
ATOM     14  C   LIG d   1       4.402  -2.225  -7.756  0.00  0.00     0.250 C 
ATOM     15  O   LIG d   1       4.861  -2.916  -8.646  0.00  0.00    -0.270 OA
ATOM     16  H   LIG d   1       4.145  -2.076  -5.762  0.00  0.00     0.155 HD
BRANCH  14  17
ATOM     17  C   LIG d   1       3.799  -0.914  -8.075  0.00  0.00     0.055 A 
ATOM     18  C   LIG d   1       3.624   0.047  -7.080  0.00  0.00     0.040 A 
ATOM     19  N   LIG d   1       3.088   1.216  -7.364  0.00  0.00    -0.263 NA
ATOM     20  H   LIG d   1       3.936  -0.167  -6.068  0.00  0.00     0.084 H 
ATOM     21  C   LIG d   1       2.697   1.524  -8.586  0.00  0.00     0.028 A 
ATOM     22  C   LIG d   1       2.837   0.626  -9.629  0.00  0.00    -0.043 A 
ATOM     23  H   LIG d   1       2.262   2.494  -8.775  0.00  0.00     0.083 H 
ATOM     24  C   LIG d   1       3.395  -0.616  -9.382  0.00  0.00    -0.047 A 
ATOM     25  H   LIG d   1       2.514   0.892 -10.625  0.00  0.00     0.063 H 
ATOM     26  H   LIG d   1       3.516  -1.336 -10.178  0.00  0.00     0.063 H 
ENDBRANCH  14  17
ENDBRANCH   6  13
BRANCH   2  27
ATOM     27  C   LIG d   1       7.277  -8.549  -4.902  0.00  0.00    -0.035 C 
ATOM     28  H   LIG d   1       8.091  -8.407  -5.612  0.00  0.00     0.028 H 
ATOM     29  H   LIG d   1       7.554  -8.118  -3.940  0.00  0.00     0.028 H 
ATOM     30  H   LIG d   1       7.082  -9.614  -4.778  0.00  0.00     0.028 H 
ENDBRANCH   2  27
BRANCH   1  31
ATOM     31  C   LIG d   1       4.622  -9.915  -5.748  0.00  0.00     0.375 C 
ATOM     32  O   LIG d   1       5.201 -10.654  -6.521  0.00  0.00    -0.241 OA
BRANCH  31  33
ATOM     33  O   LIG d   1       3.748 -10.424  -4.856  0.00  0.00    -0.459 OA
BRANCH  33  34
ATOM     34  C   LIG d   1       3.829  -9.927  -3.495  0.00  0.00     0.090 C 
ATOM     35  H   LIG d   1       4.021  -8.854  -3.510  0.00  0.00     0.070 H 
ATOM     36  H   LIG d   1       2.887 -10.119  -2.980  0.00  0.00     0.070 H 
BRANCH  34  37
ATOM     37  C   LIG d   1       4.966 -10.637  -2.759  0.00  0.00    -0.031 C 
ATOM     38  H   LIG d   1       5.358  -9.984  -1.979  0.00  0.00     0.026 H 
ATOM     39  H   LIG d   1       4.589 -11.556  -2.307  0.00  0.00     0.026 H 
ATOM     40  H   LIG d   1       5.760 -10.879  -3.464  0.00  0.00     0.026 H 
ENDBRANCH  34  37
ENDBRANCH  33  34
ENDBRANCH  31  33
ENDBRANCH   1  31
TORSDOF 7
ENDMDL
MODEL 8
REMARK VINA RESULT:      -5.5      7.286     11.233
REMARK  7 active torsions:
REMARK  status: ('A' for Active; 'I' for Inactive)
REMARK    1  A    between atoms: C_1  and  C_2 
REMARK    2  A    between atoms: C_2  and  O_3 
REMARK    3  A    between atoms: O_3  and  C_4 
REMARK    4  A    between atoms: C_4  and  C_6 
REMARK    5  A    between atoms: C_7  and  C_24 
REMARK    6  A    between atoms: C_11  and  N_15 
REMARK       I    between atoms: N_15  and  C_16 
REMARK    7  A    between atoms: C_16  and  C_18 
ROOT
ATOM      1  C   LIG d   1      10.450   4.969  -6.992  0.00  0.00     0.215 A 
ATOM      2  C   LIG d   1      10.831   5.001  -5.689  0.00  0.00     0.010 A 
ATOM      3  C   LIG d   1      10.169   3.929  -5.039  0.00  0.00     0.024 A 
ATOM      4  C   LIG d   1      10.159   3.455  -3.721  0.00  0.00    -0.049 A 
ATOM      5  C   LIG d   1       9.397   2.372  -3.395  0.00  0.00    -0.040 A 
ATOM      6  C   LIG d   1       8.628   1.731  -4.367  0.00  0.00     0.037 A 
ATOM      7  C   LIG d   1       8.630   2.182  -5.677  0.00  0.00     0.003 A 
ATOM      8  C   LIG d   1       9.395   3.286  -6.025  0.00  0.00     0.138 A 
ATOM      9  O   LIG d   1       9.591   3.943  -7.186  0.00  0.00    -0.448 OA
ATOM     10  H   LIG d   1      10.752   3.947  -2.965  0.00  0.00     0.062 H 
ATOM     11  H   LIG d   1       9.390   2.008  -2.378  0.00  0.00     0.064 H 
ATOM     12  H   LIG d   1       8.035   1.678  -6.424  0.00  0.00     0.067 H 
ENDROOT
BRANCH   6  13
ATOM     13  N   LIG d   1       7.853   0.623  -4.017  0.00  0.00    -0.281 N 
ATOM     14  C   LIG d   1       6.613   0.798  -3.518  0.00  0.00     0.250 C 
ATOM     15  O   LIG d   1       6.205   1.919  -3.283  0.00  0.00    -0.270 OA
ATOM     16  H   LIG d   1       8.207  -0.272  -4.134  0.00  0.00     0.155 HD
BRANCH  14  17
ATOM     17  C   LIG d   1       5.750  -0.373  -3.258  0.00  0.00     0.055 A 
ATOM     18  C   LIG d   1       5.829  -1.506  -4.066  0.00  0.00     0.040 A 
ATOM     19  N   LIG d   1       5.060  -2.550  -3.834  0.00  0.00    -0.263 NA
ATOM     20  H   LIG d   1       6.530  -1.530  -4.888  0.00  0.00     0.084 H 
ATOM     21  C   LIG d   1       4.192  -2.569  -2.840  0.00  0.00     0.028 A 
ATOM     22  C   LIG d   1       4.054  -1.484  -1.992  0.00  0.00    -0.043 A 
ATOM     23  H   LIG d   1       3.581  -3.446  -2.685  0.00  0.00     0.083 H 
ATOM     24  C   LIG d   1       4.839  -0.364  -2.194  0.00  0.00    -0.047 A 
ATOM     25  H   LIG d   1       3.341  -1.513  -1.181  0.00  0.00     0.063 H 
ATOM     26  H   LIG d   1       4.752   0.497  -1.547  0.00  0.00     0.063 H 
ENDBRANCH  14  17
ENDBRANCH   6  13
BRANCH   2  27
ATOM     27  C   LIG d   1      11.779   5.986  -5.055  0.00  0.00    -0.035 C 
ATOM     28  H   LIG d   1      12.535   5.448  -4.484  0.00  0.00     0.028 H 
ATOM     29  H   LIG d   1      12.264   6.576  -5.833  0.00  0.00     0.028 H 
ATOM     30  H   LIG d   1      11.224   6.649  -4.391  0.00  0.00     0.028 H 
ENDBRANCH   2  27
BRANCH   1  31
ATOM     31  C   LIG d   1      10.897   5.904  -8.030  0.00  0.00     0.375 C 
ATOM     32  O   LIG d   1      11.931   5.690  -8.635  0.00  0.00    -0.241 OA
BRANCH  31  33
ATOM     33  O   LIG d   1      10.164   7.000  -8.313  0.00  0.00    -0.459 OA
BRANCH  33  34
ATOM     34  C   LIG d   1       9.636   7.109  -9.661  0.00  0.00     0.090 C 
ATOM     35  H   LIG d   1       9.197   8.097  -9.801  0.00  0.00     0.070 H 
ATOM     36  H   LIG d   1      10.442   6.965 -10.381  0.00  0.00     0.070 H 
BRANCH  34  37
ATOM     37  C   LIG d   1       8.563   6.039  -9.877  0.00  0.00    -0.031 C 
ATOM     38  H   LIG d   1       9.000   5.189 -10.401  0.00  0.00     0.026 H 
ATOM     39  H   LIG d   1       8.178   5.711  -8.911  0.00  0.00     0.026 H 
ATOM     40  H   LIG d   1       7.750   6.454 -10.471  0.00  0.00     0.026 H 
ENDBRANCH  34  37
ENDBRANCH  33  34
ENDBRANCH  31  33
ENDBRANCH   1  31
TORSDOF 7
ENDMDL
MODEL 9
REMARK VINA RESULT:      -5.5      7.663     12.950
REMARK  7 active torsions:
REMARK  status: ('A' for Active; 'I' for Inactive)
REMARK    1  A    between atoms: C_1  and  C_2 
REMARK    2  A    between atoms: C_2  and  O_3 
REMARK    3  A    between atoms: O_3  and  C_4 
REMARK    4  A    between atoms: C_4  and  C_6 
REMARK    5  A    between atoms: C_7  and  C_24 
REMARK    6  A    between atoms: C_11  and  N_15 
REMARK       I    between atoms: N_15  and  C_16 
REMARK    7  A    between atoms: C_16  and  C_18 
ROOT
ATOM      1  C   LIG d   1      10.832   6.588  -1.909  0.00  0.00     0.215 A 
ATOM      2  C   LIG d   1      10.314   6.755  -3.153  0.00  0.00     0.010 A 
ATOM      3  C   LIG d   1       9.902   5.476  -3.603  0.00  0.00     0.024 A 
ATOM      4  C   LIG d   1       9.306   5.011  -4.782  0.00  0.00    -0.049 A 
ATOM      5  C   LIG d   1       9.022   3.684  -4.922  0.00  0.00    -0.040 A 
ATOM      6  C   LIG d   1       9.321   2.786  -3.897  0.00  0.00     0.037 A 
ATOM      7  C   LIG d   1       9.905   3.229  -2.721  0.00  0.00     0.003 A 
ATOM      8  C   LIG d   1      10.205   4.574  -2.565  0.00  0.00     0.138 A 
ATOM      9  O   LIG d   1      10.764   5.284  -1.563  0.00  0.00    -0.448 OA
ATOM     10  H   LIG d   1       9.072   5.701  -5.579  0.00  0.00     0.062 H 
ATOM     11  H   LIG d   1       8.562   3.327  -5.832  0.00  0.00     0.064 H 
ATOM     12  H   LIG d   1      10.130   2.528  -1.931  0.00  0.00     0.067 H 
ENDROOT
BRANCH   6  13
ATOM     13  N   LIG d   1       9.024   1.431  -4.056  0.00  0.00    -0.281 N 
ATOM     14  C   LIG d   1       7.767   0.988  -3.857  0.00  0.00     0.250 C 
ATOM     15  O   LIG d   1       6.912   1.750  -3.447  0.00  0.00    -0.270 OA
ATOM     16  H   LIG d   1       9.723   0.809  -4.311  0.00  0.00     0.155 HD
BRANCH  14  17
ATOM     17  C   LIG d   1       7.426  -0.422  -4.139  0.00  0.00     0.055 A 
ATOM     18  C   LIG d   1       8.184  -1.168  -5.041  0.00  0.00     0.040 A 
ATOM     19  N   LIG d   1       7.881  -2.425  -5.292  0.00  0.00    -0.263 NA
ATOM     20  H   LIG d   1       9.029  -0.712  -5.536  0.00  0.00     0.084 H 
ATOM     21  C   LIG d   1       6.861  -3.026  -4.709  0.00  0.00     0.028 A 
ATOM     22  C   LIG d   1       6.061  -2.354  -3.800  0.00  0.00    -0.043 A 
ATOM     23  H   LIG d   1       6.648  -4.058  -4.943  0.00  0.00     0.083 H 
ATOM     24  C   LIG d   1       6.338  -1.032  -3.503  0.00  0.00    -0.047 A 
ATOM     25  H   LIG d   1       5.230  -2.858  -3.329  0.00  0.00     0.063 H 
ATOM     26  H   LIG d   1       5.730  -0.485  -2.798  0.00  0.00     0.063 H 
ENDBRANCH  14  17
ENDBRANCH   6  13
BRANCH   2  27
ATOM     27  C   LIG d   1      10.199   8.053  -3.911  0.00  0.00    -0.035 C 
ATOM     28  H   LIG d   1       9.537   7.917  -4.766  0.00  0.00     0.028 H 
ATOM     29  H   LIG d   1       9.791   8.822  -3.255  0.00  0.00     0.028 H 
ATOM     30  H   LIG d   1      11.186   8.359  -4.259  0.00  0.00     0.028 H 
ENDBRANCH   2  27
BRANCH   1  31
ATOM     31  C   LIG d   1      11.381   7.658  -1.069  0.00  0.00     0.375 C 
ATOM     32  O   LIG d   1      12.513   8.060  -1.262  0.00  0.00    -0.241 OA
BRANCH  31  33
ATOM     33  O   LIG d   1      10.633   8.196  -0.085  0.00  0.00    -0.459 OA
BRANCH  33  34
ATOM     34  C   LIG d   1      10.171   9.558  -0.277  0.00  0.00     0.090 C 
ATOM     35  H   LIG d   1      10.242  10.103   0.664  0.00  0.00     0.070 H 
ATOM     36  H   LIG d   1      10.790  10.050  -1.028  0.00  0.00     0.070 H 
BRANCH  34  37
ATOM     37  C   LIG d   1       8.716   9.542  -0.749  0.00  0.00    -0.031 C 
ATOM     38  H   LIG d   1       8.673   9.201  -1.783  0.00  0.00     0.026 H 
ATOM     39  H   LIG d   1       8.137   8.864  -0.120  0.00  0.00     0.026 H 
ATOM     40  H   LIG d   1       8.300  10.546  -0.679  0.00  0.00     0.026 H 
ENDBRANCH  34  37
ENDBRANCH  33  34
ENDBRANCH  31  33
ENDBRANCH   1  31
TORSDOF 7
ENDMDL
