MODEL 1
REMARK VINA RESULT:      -6.9      0.000      0.000
REMARK  9 active torsions:
REMARK  status: ('A' for Active; 'I' for Inactive)
REMARK    1  A    between atoms: C_1  and  C_2 
REMARK    2  A    between atoms: C_2  and  C_32 
REMARK    3  A    between atoms: C_3  and  C_28 
REMARK    4  A    between atoms: C_5  and  C_7 
REMARK    5  A    between atoms: C_7  and  O_9 
REMARK    6  A    between atoms: O_9  and  C_10 
REMARK    7  A    between atoms: C_10  and  C_14 
REMARK    8  A    between atoms: C_18  and  O_20 
REMARK    9  A    between atoms: O_20  and  C_21 
ROOT
ATOM      1  C   LIG d   1       7.816   0.901  -7.491  0.00  0.00     0.213 C 
ATOM      2  H   LIG d   1       8.185   0.607  -8.473  0.00  0.00     0.095 H 
ATOM      3  C   LIG d   1       8.706   1.923  -6.916  0.00  0.00     0.112 C 
ATOM      4  N   LIG d   1       9.394   2.712  -6.475  0.00  0.00    -0.192 NA
ENDROOT
BRANCH   1   5
ATOM      5  O   LIG d   1       6.476   1.445  -7.620  0.00  0.00    -0.441 OA
BRANCH   5   6
ATOM      6  C   LIG d   1       6.023   1.660  -8.865  0.00  0.00     0.313 C 
ATOM      7  O   LIG d   1       5.997   2.781  -9.313  0.00  0.00    -0.250 OA
BRANCH   6   8
ATOM      8  C   LIG d   1       5.545   0.502  -9.704  0.00  0.00     0.069 A 
ATOM      9  C   LIG d   1       4.299   0.720 -10.564  0.00  0.00    -0.014 A 
ATOM     10  C   LIG d   1       4.220  -0.154  -9.311  0.00  0.00    -0.001 A 
ATOM     11  H   LIG d   1       4.131  -1.231  -9.454  0.00  0.00     0.036 H 
ATOM     12  H   LIG d   1       6.328  -0.142 -10.105  0.00  0.00     0.043 H 
BRANCH   9  13
ATOM     13  C   LIG d   1       3.634   2.097 -10.507  0.00  0.00    -0.059 C 
ATOM     14  H   LIG d   1       3.606   2.528 -11.507  0.00  0.00     0.024 H 
ATOM     15  H   LIG d   1       2.616   1.993 -10.127  0.00  0.00     0.024 H 
ATOM     16  H   LIG d   1       4.204   2.749  -9.845  0.00  0.00     0.024 H 
ENDBRANCH   9  13
BRANCH   9  17
ATOM     17  C   LIG d   1       4.246   0.017 -11.922  0.00  0.00    -0.059 C 
ATOM     18  H   LIG d   1       3.717  -0.932 -11.819  0.00  0.00     0.024 H 
ATOM     19  H   LIG d   1       3.723   0.649 -12.639  0.00  0.00     0.024 H 
ATOM     20  H   LIG d   1       5.260  -0.170 -12.275  0.00  0.00     0.024 H 
ENDBRANCH   9  17
BRANCH  10  21
ATOM     21  C   LIG d   1       3.492   0.405  -8.117  0.00  0.00    -0.050 C 
ATOM     22  C   LIG d   1       3.532  -0.229  -6.967  0.00  0.00     0.103 C 
ATOM     23 CL   LIG d   1       4.422  -1.713  -6.825  0.00  0.00    -0.071 Cl
ATOM     24 CL   LIG d   1       2.693   0.416  -5.591  0.00  0.00    -0.071 Cl
ATOM     25  H   LIG d   1       2.939   1.328  -8.205  0.00  0.00     0.060 H 
ENDBRANCH  10  21
ENDBRANCH   6   8
ENDBRANCH   5   6
ENDBRANCH   1   5
BRANCH   1  26
ATOM     26  C   LIG d   1       7.784  -0.303  -6.584  0.00  0.00     0.011 A 
ATOM     27  C   LIG d   1       7.398  -0.162  -5.266  0.00  0.00    -0.009 A 
ATOM     28  C   LIG d   1       7.373  -1.269  -4.429  0.00  0.00     0.164 A 
ATOM     29  H   LIG d   1       7.120   0.808  -4.884  0.00  0.00     0.066 H 
ATOM     30  C   LIG d   1       7.727  -2.519  -4.925  0.00  0.00     0.165 A 
ATOM     31  C   LIG d   1       8.107  -2.653  -6.248  0.00  0.00    -0.022 A 
ATOM     32  F   LIG d   1       7.700  -3.600  -4.114  0.00  0.00    -0.202 F 
ATOM     33  C   LIG d   1       8.135  -1.546  -7.076  0.00  0.00    -0.051 A 
ATOM     34  H   LIG d   1       8.382  -3.623  -6.633  0.00  0.00     0.065 H 
ATOM     35  H   LIG d   1       8.433  -1.654  -8.108  0.00  0.00     0.062 H 
BRANCH  28  36
ATOM     36  O   LIG d   1       6.999  -1.133  -3.131  0.00  0.00    -0.453 OA
BRANCH  36  37
ATOM     37  C   LIG d   1       5.695  -0.854  -2.868  0.00  0.00     0.129 A 
ATOM     38  C   LIG d   1       5.322   0.426  -2.482  0.00  0.00    -0.019 A 
ATOM     39  C   LIG d   1       3.996   0.707  -2.214  0.00  0.00    -0.058 A 
ATOM     40  H   LIG d   1       6.068   1.201  -2.389  0.00  0.00     0.065 H 
ATOM     41  C   LIG d   1       3.041  -0.286  -2.331  0.00  0.00    -0.061 A 
ATOM     42  H   LIG d   1       3.705   1.703  -1.914  0.00  0.00     0.062 H 
ATOM     43  C   LIG d   1       3.409  -1.562  -2.716  0.00  0.00    -0.058 A 
ATOM     44  H   LIG d   1       2.005  -0.065  -2.121  0.00  0.00     0.062 H 
ATOM     45  C   LIG d   1       4.733  -1.846  -2.990  0.00  0.00    -0.019 A 
ATOM     46  H   LIG d   1       2.661  -2.335  -2.806  0.00  0.00     0.062 H 
ATOM     47  H   LIG d   1       5.020  -2.842  -3.295  0.00  0.00     0.065 H 
ENDBRANCH  36  37
ENDBRANCH  28  36
ENDBRANCH   1  26
TORSDOF 9
ENDMDL
MODEL 2
REMARK VINA RESULT:      -6.6      2.387      3.361
REMARK  9 active torsions:
REMARK  status: ('A' for Active; 'I' for Inactive)
REMARK    1  A    between atoms: C_1  and  C_2 
REMARK    2  A    between atoms: C_2  and  C_32 
REMARK    3  A    between atoms: C_3  and  C_28 
REMARK    4  A    between atoms: C_5  and  C_7 
REMARK    5  A    between atoms: C_7  and  O_9 
REMARK    6  A    between atoms: O_9  and  C_10 
REMARK    7  A    between atoms: C_10  and  C_14 
REMARK    8  A    between atoms: C_18  and  O_20 
REMARK    9  A    between atoms: O_20  and  C_21 
ROOT
ATOM      1  C   LIG d   1       7.062   1.004  -8.189  0.00  0.00     0.213 C 
ATOM      2  H   LIG d   1       6.951  -0.070  -8.332  0.00  0.00     0.095 H 
ATOM      3  C   LIG d   1       7.962   1.548  -9.220  0.00  0.00     0.112 C 
ATOM      4  N   LIG d   1       8.656   1.965 -10.016  0.00  0.00    -0.192 NA
ENDROOT
BRANCH   1   5
ATOM      5  O   LIG d   1       5.763   1.643  -8.296  0.00  0.00    -0.441 OA
BRANCH   5   6
ATOM      6  C   LIG d   1       4.737   0.874  -8.691  0.00  0.00     0.313 C 
ATOM      7  O   LIG d   1       4.872   0.119  -9.625  0.00  0.00    -0.250 OA
BRANCH   6   8
ATOM      8  C   LIG d   1       3.414   0.953  -7.973  0.00  0.00     0.069 A 
ATOM      9  C   LIG d   1       3.210   0.035  -6.766  0.00  0.00    -0.014 A 
ATOM     10  C   LIG d   1       2.479  -0.253  -8.079  0.00  0.00    -0.001 A 
ATOM     11  H   LIG d   1       1.407  -0.057  -8.113  0.00  0.00     0.036 H 
ATOM     12  H   LIG d   1       2.958   1.943  -7.935  0.00  0.00     0.043 H 
BRANCH   9  13
ATOM     13  C   LIG d   1       4.363  -0.893  -6.382  0.00  0.00    -0.059 C 
ATOM     14  H   LIG d   1       4.249  -1.204  -5.345  0.00  0.00     0.024 H 
ATOM     15  H   LIG d   1       4.353  -1.772  -7.029  0.00  0.00     0.024 H 
ATOM     16  H   LIG d   1       5.310  -0.366  -6.502  0.00  0.00     0.024 H 
ENDBRANCH   9  13
BRANCH   9  17
ATOM     17  C   LIG d   1       2.380   0.575  -5.600  0.00  0.00    -0.059 C 
ATOM     18  H   LIG d   1       2.499  -0.081  -4.736  0.00  0.00     0.024 H 
ATOM     19  H   LIG d   1       2.721   1.578  -5.344  0.00  0.00     0.024 H 
ATOM     20  H   LIG d   1       1.330   0.611  -5.887  0.00  0.00     0.024 H 
ENDBRANCH   9  17
BRANCH  10  21
ATOM     21  C   LIG d   1       2.951  -1.429  -8.895  0.00  0.00    -0.050 C 
ATOM     22  C   LIG d   1       2.343  -1.735 -10.018  0.00  0.00     0.103 C 
ATOM     23 CL   LIG d   1       0.997  -0.784 -10.564  0.00  0.00    -0.071 Cl
ATOM     24 CL   LIG d   1       2.886  -3.090 -10.958  0.00  0.00    -0.071 Cl
ATOM     25  H   LIG d   1       3.788  -2.020  -8.556  0.00  0.00     0.060 H 
ENDBRANCH  10  21
ENDBRANCH   6   8
ENDBRANCH   5   6
ENDBRANCH   1   5
BRANCH   1  26
ATOM     26  C   LIG d   1       7.643   1.273  -6.823  0.00  0.00     0.011 A 
ATOM     27  C   LIG d   1       7.335   0.437  -5.768  0.00  0.00    -0.009 A 
ATOM     28  C   LIG d   1       7.865   0.687  -4.510  0.00  0.00     0.164 A 
ATOM     29  H   LIG d   1       6.680  -0.407  -5.919  0.00  0.00     0.066 H 
ATOM     30  C   LIG d   1       8.713   1.772  -4.319  0.00  0.00     0.165 A 
ATOM     31  C   LIG d   1       9.021   2.601  -5.382  0.00  0.00    -0.022 A 
ATOM     32  F   LIG d   1       9.234   2.016  -3.096  0.00  0.00    -0.202 F 
ATOM     33  C   LIG d   1       8.486   2.351  -6.633  0.00  0.00    -0.051 A 
ATOM     34  H   LIG d   1       9.679   3.444  -5.235  0.00  0.00     0.065 H 
ATOM     35  H   LIG d   1       8.728   3.000  -7.461  0.00  0.00     0.062 H 
BRANCH  28  36
ATOM     36  O   LIG d   1       7.561  -0.130  -3.468  0.00  0.00    -0.453 OA
BRANCH  36  37
ATOM     37  C   LIG d   1       6.262  -0.207  -3.075  0.00  0.00     0.129 A 
ATOM     38  C   LIG d   1       5.569   0.947  -2.736  0.00  0.00    -0.019 A 
ATOM     39  C   LIG d   1       4.249   0.866  -2.335  0.00  0.00    -0.058 A 
ATOM     40  H   LIG d   1       6.062   1.907  -2.783  0.00  0.00     0.065 H 
ATOM     41  C   LIG d   1       3.619  -0.362  -2.273  0.00  0.00    -0.061 A 
ATOM     42  H   LIG d   1       3.710   1.764  -2.071  0.00  0.00     0.062 H 
ATOM     43  C   LIG d   1       4.306  -1.514  -2.611  0.00  0.00    -0.058 A 
ATOM     44  H   LIG d   1       2.587  -0.423  -1.959  0.00  0.00     0.062 H 
ATOM     45  C   LIG d   1       5.625  -1.437  -3.017  0.00  0.00    -0.019 A 
ATOM     46  H   LIG d   1       3.811  -2.472  -2.562  0.00  0.00     0.062 H 
ATOM     47  H   LIG d   1       6.160  -2.336  -3.286  0.00  0.00     0.065 H 
ENDBRANCH  36  37
ENDBRANCH  28  36
ENDBRANCH   1  26
TORSDOF 9
ENDMDL
MODEL 3
REMARK VINA RESULT:      -6.6      3.079      3.909
REMARK  9 active torsions:
REMARK  status: ('A' for Active; 'I' for Inactive)
REMARK    1  A    between atoms: C_1  and  C_2 
REMARK    2  A    between atoms: C_2  and  C_32 
REMARK    3  A    between atoms: C_3  and  C_28 
REMARK    4  A    between atoms: C_5  and  C_7 
REMARK    5  A    between atoms: C_7  and  O_9 
REMARK    6  A    between atoms: O_9  and  C_10 
REMARK    7  A    between atoms: C_10  and  C_14 
REMARK    8  A    between atoms: C_18  and  O_20 
REMARK    9  A    between atoms: O_20  and  C_21 
ROOT
ATOM      1  C   LIG d   1       4.432  -3.481  -8.439  0.00  0.00     0.213 C 
ATOM      2  H   LIG d   1       3.350  -3.476  -8.313  0.00  0.00     0.095 H 
ATOM      3  C   LIG d   1       4.846  -4.737  -9.086  0.00  0.00     0.112 C 
ATOM      4  N   LIG d   1       5.164  -5.706  -9.585  0.00  0.00    -0.192 NA
ENDROOT
BRANCH   1   5
ATOM      5  O   LIG d   1       4.827  -2.357  -9.270  0.00  0.00    -0.441 OA
BRANCH   5   6
ATOM      6  C   LIG d   1       3.876  -1.461  -9.575  0.00  0.00     0.313 C 
ATOM      7  O   LIG d   1       3.342  -1.493 -10.659  0.00  0.00    -0.250 OA
BRANCH   6   8
ATOM      8  C   LIG d   1       3.474  -0.414  -8.568  0.00  0.00     0.069 A 
ATOM      9  C   LIG d   1       3.728   1.050  -8.931  0.00  0.00    -0.014 A 
ATOM     10  C   LIG d   1       4.593   0.363  -7.873  0.00  0.00    -0.001 A 
ATOM     11  H   LIG d   1       4.437   0.647  -6.832  0.00  0.00     0.036 H 
ATOM     12  H   LIG d   1       2.581  -0.641  -7.986  0.00  0.00     0.043 H 
BRANCH   9  13
ATOM     13  C   LIG d   1       4.371   1.339 -10.289  0.00  0.00    -0.059 C 
ATOM     14  H   LIG d   1       3.942   2.249 -10.707  0.00  0.00     0.024 H 
ATOM     15  H   LIG d   1       5.447   1.470 -10.161  0.00  0.00     0.024 H 
ATOM     16  H   LIG d   1       4.185   0.504 -10.965  0.00  0.00     0.024 H 
ENDBRANCH   9  13
BRANCH   9  17
ATOM     17  C   LIG d   1       2.710   2.085  -8.449  0.00  0.00    -0.059 C 
ATOM     18  H   LIG d   1       2.895   2.314  -7.398  0.00  0.00     0.024 H 
ATOM     19  H   LIG d   1       2.806   2.993  -9.042  0.00  0.00     0.024 H 
ATOM     20  H   LIG d   1       1.703   1.683  -8.560  0.00  0.00     0.024 H 
ENDBRANCH   9  17
BRANCH  10  21
ATOM     21  C   LIG d   1       6.013   0.023  -8.247  0.00  0.00    -0.050 C 
ATOM     22  C   LIG d   1       6.935  -0.064  -7.315  0.00  0.00     0.103 C 
ATOM     23 CL   LIG d   1       6.518   0.212  -5.653  0.00  0.00    -0.071 Cl
ATOM     24 CL   LIG d   1       8.570  -0.455  -7.746  0.00  0.00    -0.071 Cl
ATOM     25  H   LIG d   1       6.273  -0.148  -9.280  0.00  0.00     0.060 H 
ENDBRANCH  10  21
ENDBRANCH   6   8
ENDBRANCH   5   6
ENDBRANCH   1   5
BRANCH   1  26
ATOM     26  C   LIG d   1       5.097  -3.367  -7.091  0.00  0.00     0.011 A 
ATOM     27  C   LIG d   1       4.337  -3.102  -5.969  0.00  0.00    -0.009 A 
ATOM     28  C   LIG d   1       4.948  -2.992  -4.728  0.00  0.00     0.164 A 
ATOM     29  H   LIG d   1       3.268  -2.976  -6.056  0.00  0.00     0.066 H 
ATOM     30  C   LIG d   1       6.324  -3.160  -4.617  0.00  0.00     0.165 A 
ATOM     31  C   LIG d   1       7.078  -3.430  -5.745  0.00  0.00    -0.022 A 
ATOM     32  F   LIG d   1       6.922  -3.058  -3.410  0.00  0.00    -0.202 F 
ATOM     33  C   LIG d   1       6.464  -3.534  -6.980  0.00  0.00    -0.051 A 
ATOM     34  H   LIG d   1       8.146  -3.561  -5.660  0.00  0.00     0.065 H 
ATOM     35  H   LIG d   1       7.055  -3.745  -7.858  0.00  0.00     0.062 H 
BRANCH  28  36
ATOM     36  O   LIG d   1       4.204  -2.727  -3.623  0.00  0.00    -0.453 OA
BRANCH  36  37
ATOM     37  C   LIG d   1       4.049  -1.429  -3.254  0.00  0.00     0.129 A 
ATOM     38  C   LIG d   1       4.636  -0.963  -2.085  0.00  0.00    -0.019 A 
ATOM     39  C   LIG d   1       4.477   0.357  -1.711  0.00  0.00    -0.058 A 
ATOM     40  H   LIG d   1       5.216  -1.634  -1.468  0.00  0.00     0.065 H 
ATOM     41  C   LIG d   1       3.733   1.215  -2.500  0.00  0.00    -0.061 A 
ATOM     42  H   LIG d   1       4.933   0.720  -0.802  0.00  0.00     0.062 H 
ATOM     43  C   LIG d   1       3.147   0.755  -3.665  0.00  0.00    -0.058 A 
ATOM     44  H   LIG d   1       3.609   2.247  -2.206  0.00  0.00     0.062 H 
ATOM     45  C   LIG d   1       3.309  -0.564  -4.046  0.00  0.00    -0.019 A 
ATOM     46  H   LIG d   1       2.567   1.427  -4.279  0.00  0.00     0.062 H 
ATOM     47  H   LIG d   1       2.855  -0.922  -4.958  0.00  0.00     0.065 H 
ENDBRANCH  36  37
ENDBRANCH  28  36
ENDBRANCH   1  26
TORSDOF 9
ENDMDL
MODEL 4
REMARK VINA RESULT:      -6.5      2.165      5.520
REMARK  9 active torsions:
REMARK  status: ('A' for Active; 'I' for Inactive)
REMARK    1  A    between atoms: C_1  and  C_2 
REMARK    2  A    between atoms: C_2  and  C_32 
REMARK    3  A    between atoms: C_3  and  C_28 
REMARK    4  A    between atoms: C_5  and  C_7 
REMARK    5  A    between atoms: C_7  and  O_9 
REMARK    6  A    between atoms: O_9  and  C_10 
REMARK    7  A    between atoms: C_10  and  C_14 
REMARK    8  A    between atoms: C_18  and  O_20 
REMARK    9  A    between atoms: O_20  and  C_21 
ROOT
ATOM      1  C   LIG d   1       7.857   1.449  -4.372  0.00  0.00     0.213 C 
ATOM      2  H   LIG d   1       7.211   2.303  -4.573  0.00  0.00     0.095 H 
ATOM      3  C   LIG d   1       9.145   1.922  -3.837  0.00  0.00     0.112 C 
ATOM      4  N   LIG d   1      10.137   2.288  -3.424  0.00  0.00    -0.192 NA
ENDROOT
BRANCH   1   5
ATOM      5  O   LIG d   1       7.220   0.578  -3.399  0.00  0.00    -0.441 OA
BRANCH   5   6
ATOM      6  C   LIG d   1       5.933   0.824  -3.113  0.00  0.00     0.313 C 
ATOM      7  O   LIG d   1       5.646   1.526  -2.172  0.00  0.00    -0.250 OA
BRANCH   6   8
ATOM      8  C   LIG d   1       4.843   0.224  -3.964  0.00  0.00     0.069 A 
ATOM      9  C   LIG d   1       3.926  -0.811  -3.311  0.00  0.00    -0.014 A 
ATOM     10  C   LIG d   1       4.971  -1.253  -4.337  0.00  0.00    -0.001 A 
ATOM     11  H   LIG d   1       4.614  -1.557  -5.321  0.00  0.00     0.036 H 
ATOM     12  H   LIG d   1       4.401   0.894  -4.702  0.00  0.00     0.043 H 
BRANCH   9  13
ATOM     13  C   LIG d   1       4.186  -1.159  -1.844  0.00  0.00    -0.059 C 
ATOM     14  H   LIG d   1       5.019  -1.858  -1.779  0.00  0.00     0.024 H 
ATOM     15  H   LIG d   1       4.430  -0.250  -1.293  0.00  0.00     0.024 H 
ATOM     16  H   LIG d   1       3.293  -1.615  -1.415  0.00  0.00     0.024 H 
ENDBRANCH   9  13
BRANCH   9  17
ATOM     17  C   LIG d   1       2.459  -0.829  -3.744  0.00  0.00    -0.059 C 
ATOM     18  H   LIG d   1       1.901  -1.518  -3.108  0.00  0.00     0.024 H 
ATOM     19  H   LIG d   1       2.040   0.172  -3.651  0.00  0.00     0.024 H 
ATOM     20  H   LIG d   1       2.390  -1.157  -4.781  0.00  0.00     0.024 H 
ENDBRANCH   9  17
BRANCH  10  21
ATOM     21  C   LIG d   1       6.177  -1.998  -3.826  0.00  0.00    -0.050 C 
ATOM     22  C   LIG d   1       6.838  -2.804  -4.624  0.00  0.00     0.103 C 
ATOM     23 CL   LIG d   1       6.323  -3.012  -6.269  0.00  0.00    -0.071 Cl
ATOM     24 CL   LIG d   1       8.228  -3.663  -4.035  0.00  0.00    -0.071 Cl
ATOM     25  H   LIG d   1       6.498  -1.870  -2.803  0.00  0.00     0.060 H 
ENDBRANCH  10  21
ENDBRANCH   6   8
ENDBRANCH   5   6
ENDBRANCH   1   5
BRANCH   1  26
ATOM     26  C   LIG d   1       8.095   0.685  -5.650  0.00  0.00     0.011 A 
ATOM     27  C   LIG d   1       7.294   0.920  -6.751  0.00  0.00    -0.009 A 
ATOM     28  C   LIG d   1       7.509   0.213  -7.926  0.00  0.00     0.164 A 
ATOM     29  H   LIG d   1       6.500   1.648  -6.697  0.00  0.00     0.066 H 
ATOM     30  C   LIG d   1       8.536  -0.720  -7.994  0.00  0.00     0.165 A 
ATOM     31  C   LIG d   1       9.337  -0.946  -6.889  0.00  0.00    -0.022 A 
ATOM     32  F   LIG d   1       8.751  -1.407  -9.138  0.00  0.00    -0.202 F 
ATOM     33  C   LIG d   1       9.116  -0.244  -5.719  0.00  0.00    -0.051 A 
ATOM     34  H   LIG d   1      10.135  -1.672  -6.942  0.00  0.00     0.065 H 
ATOM     35  H   LIG d   1       9.742  -0.422  -4.858  0.00  0.00     0.062 H 
BRANCH  28  36
ATOM     36  O   LIG d   1       6.720   0.438  -9.009  0.00  0.00    -0.453 OA
BRANCH  36  37
ATOM     37  C   LIG d   1       5.450   0.870  -8.795  0.00  0.00     0.129 A 
ATOM     38  C   LIG d   1       4.558   0.081  -8.082  0.00  0.00    -0.019 A 
ATOM     39  C   LIG d   1       3.266   0.521  -7.867  0.00  0.00    -0.058 A 
ATOM     40  H   LIG d   1       4.874  -0.878  -7.697  0.00  0.00     0.065 H 
ATOM     41  C   LIG d   1       2.862   1.747  -8.361  0.00  0.00    -0.061 A 
ATOM     42  H   LIG d   1       2.572  -0.093  -7.312  0.00  0.00     0.062 H 
ATOM     43  C   LIG d   1       3.748   2.536  -9.072  0.00  0.00    -0.058 A 
ATOM     44  H   LIG d   1       1.851   2.090  -8.192  0.00  0.00     0.062 H 
ATOM     45  C   LIG d   1       5.042   2.102  -9.285  0.00  0.00    -0.019 A 
ATOM     46  H   LIG d   1       3.429   3.493  -9.457  0.00  0.00     0.062 H 
ATOM     47  H   LIG d   1       5.736   2.720  -9.836  0.00  0.00     0.065 H 
ENDBRANCH  36  37
ENDBRANCH  28  36
ENDBRANCH   1  26
TORSDOF 9
ENDMDL
MODEL 5
REMARK VINA RESULT:      -6.4      3.504      6.275
REMARK  9 active torsions:
REMARK  status: ('A' for Active; 'I' for Inactive)
REMARK    1  A    between atoms: C_1  and  C_2 
REMARK    2  A    between atoms: C_2  and  C_32 
REMARK    3  A    between atoms: C_3  and  C_28 
REMARK    4  A    between atoms: C_5  and  C_7 
REMARK    5  A    between atoms: C_7  and  O_9 
REMARK    6  A    between atoms: O_9  and  C_10 
REMARK    7  A    between atoms: C_10  and  C_14 
REMARK    8  A    between atoms: C_18  and  O_20 
REMARK    9  A    between atoms: O_20  and  C_21 
ROOT
ATOM      1  C   LIG d   1       2.967   0.636  -7.639  0.00  0.00     0.213 C 
ATOM      2  H   LIG d   1       2.005   0.917  -7.211  0.00  0.00     0.095 H 
ATOM      3  C   LIG d   1       3.470   1.733  -8.482  0.00  0.00     0.112 C 
ATOM      4  N   LIG d   1       3.858   2.581  -9.131  0.00  0.00    -0.192 NA
ENDROOT
BRANCH   1   5
ATOM      5  O   LIG d   1       3.914   0.373  -6.571  0.00  0.00    -0.441 OA
BRANCH   5   6
ATOM      6  C   LIG d   1       3.411   0.200  -5.339  0.00  0.00     0.313 C 
ATOM      7  O   LIG d   1       2.843   1.112  -4.786  0.00  0.00    -0.250 OA
BRANCH   6   8
ATOM      8  C   LIG d   1       3.556  -1.129  -4.644  0.00  0.00     0.069 A 
ATOM      9  C   LIG d   1       4.245  -1.143  -3.279  0.00  0.00    -0.014 A 
ATOM     10  C   LIG d   1       4.967  -1.704  -4.506  0.00  0.00    -0.001 A 
ATOM     11  H   LIG d   1       5.078  -2.786  -4.573  0.00  0.00     0.036 H 
ATOM     12  H   LIG d   1       2.738  -1.834  -4.803  0.00  0.00     0.043 H 
BRANCH   9  13
ATOM     13  C   LIG d   1       4.736   0.196  -2.723  0.00  0.00    -0.059 C 
ATOM     14  H   LIG d   1       5.324   0.710  -3.482  0.00  0.00     0.024 H 
ATOM     15  H   LIG d   1       3.878   0.812  -2.449  0.00  0.00     0.024 H 
ATOM     16  H   LIG d   1       5.352   0.019  -1.842  0.00  0.00     0.024 H 
ENDBRANCH   9  13
BRANCH   9  17
ATOM     17  C   LIG d   1       3.736  -2.143  -2.239  0.00  0.00    -0.059 C 
ATOM     18  H   LIG d   1       2.682  -2.355  -2.425  0.00  0.00     0.024 H 
ATOM     19  H   LIG d   1       4.310  -3.065  -2.310  0.00  0.00     0.024 H 
ATOM     20  H   LIG d   1       3.850  -1.719  -1.242  0.00  0.00     0.024 H 
ENDBRANCH   9  17
BRANCH  10  21
ATOM     21  C   LIG d   1       6.106  -0.898  -5.074  0.00  0.00    -0.050 C 
ATOM     22  C   LIG d   1       7.343  -1.186  -4.743  0.00  0.00     0.103 C 
ATOM     23 CL   LIG d   1       7.668  -2.496  -3.650  0.00  0.00    -0.071 Cl
ATOM     24 CL   LIG d   1       8.656  -0.256  -5.397  0.00  0.00    -0.071 Cl
ATOM     25  H   LIG d   1       5.905  -0.083  -5.753  0.00  0.00     0.060 H 
ENDBRANCH  10  21
ENDBRANCH   6   8
ENDBRANCH   5   6
ENDBRANCH   1   5
BRANCH   1  26
ATOM     26  C   LIG d   1       2.800  -0.606  -8.479  0.00  0.00     0.011 A 
ATOM     27  C   LIG d   1       3.748  -1.608  -8.423  0.00  0.00    -0.009 A 
ATOM     28  C   LIG d   1       3.598  -2.748  -9.200  0.00  0.00     0.164 A 
ATOM     29  H   LIG d   1       4.609  -1.503  -7.780  0.00  0.00     0.066 H 
ATOM     30  C   LIG d   1       2.487  -2.882 -10.023  0.00  0.00     0.165 A 
ATOM     31  C   LIG d   1       1.538  -1.877 -10.070  0.00  0.00    -0.022 A 
ATOM     32  F   LIG d   1       2.334  -3.993 -10.778  0.00  0.00    -0.202 F 
ATOM     33  C   LIG d   1       1.695  -0.740  -9.298  0.00  0.00    -0.051 A 
ATOM     34  H   LIG d   1       0.674  -1.980 -10.710  0.00  0.00     0.065 H 
ATOM     35  H   LIG d   1       0.953   0.043  -9.336  0.00  0.00     0.062 H 
BRANCH  28  36
ATOM     36  O   LIG d   1       4.532  -3.733  -9.151  0.00  0.00    -0.453 OA
BRANCH  36  37
ATOM     37  C   LIG d   1       4.883  -4.220  -7.932  0.00  0.00     0.129 A 
ATOM     38  C   LIG d   1       3.930  -4.826  -7.124  0.00  0.00    -0.019 A 
ATOM     39  C   LIG d   1       4.289  -5.319  -5.885  0.00  0.00    -0.058 A 
ATOM     40  H   LIG d   1       2.909  -4.910  -7.465  0.00  0.00     0.065 H 
ATOM     41  C   LIG d   1       5.596  -5.210  -5.449  0.00  0.00    -0.061 A 
ATOM     42  H   LIG d   1       3.548  -5.791  -5.256  0.00  0.00     0.062 H 
ATOM     43  C   LIG d   1       6.548  -4.608  -6.250  0.00  0.00    -0.058 A 
ATOM     44  H   LIG d   1       5.875  -5.596  -4.479  0.00  0.00     0.062 H 
ATOM     45  C   LIG d   1       6.195  -4.117  -7.493  0.00  0.00    -0.019 A 
ATOM     46  H   LIG d   1       7.568  -4.524  -5.907  0.00  0.00     0.062 H 
ATOM     47  H   LIG d   1       6.939  -3.651  -8.122  0.00  0.00     0.065 H 
ENDBRANCH  36  37
ENDBRANCH  28  36
ENDBRANCH   1  26
TORSDOF 9
ENDMDL
MODEL 6
REMARK VINA RESULT:      -6.3      3.954      6.227
REMARK  9 active torsions:
REMARK  status: ('A' for Active; 'I' for Inactive)
REMARK    1  A    between atoms: C_1  and  C_2 
REMARK    2  A    between atoms: C_2  and  C_32 
REMARK    3  A    between atoms: C_3  and  C_28 
REMARK    4  A    between atoms: C_5  and  C_7 
REMARK    5  A    between atoms: C_7  and  O_9 
REMARK    6  A    between atoms: O_9  and  C_10 
REMARK    7  A    between atoms: C_10  and  C_14 
REMARK    8  A    between atoms: C_18  and  O_20 
REMARK    9  A    between atoms: O_20  and  C_21 
ROOT
ATOM      1  C   LIG d   1       4.678  -2.918  -7.337  0.00  0.00     0.213 C 
ATOM      2  H   LIG d   1       5.727  -2.883  -7.632  0.00  0.00     0.095 H 
ATOM      3  C   LIG d   1       3.938  -3.798  -8.257  0.00  0.00     0.112 C 
ATOM      4  N   LIG d   1       3.369  -4.478  -8.966  0.00  0.00    -0.192 NA
ENDROOT
BRANCH   1   5
ATOM      5  O   LIG d   1       4.574  -3.434  -5.984  0.00  0.00    -0.441 OA
BRANCH   5   6
ATOM      6  C   LIG d   1       5.722  -3.684  -5.337  0.00  0.00     0.313 C 
ATOM      7  O   LIG d   1       6.365  -4.670  -5.608  0.00  0.00    -0.250 OA
BRANCH   6   8
ATOM      8  C   LIG d   1       6.209  -2.736  -4.271  0.00  0.00     0.069 A 
ATOM      9  C   LIG d   1       7.232  -1.676  -4.681  0.00  0.00    -0.014 A 
ATOM     10  C   LIG d   1       7.666  -2.866  -3.823  0.00  0.00    -0.001 A 
ATOM     11  H   LIG d   1       7.888  -2.674  -2.773  0.00  0.00     0.036 H 
ATOM     12  H   LIG d   1       5.472  -2.460  -3.516  0.00  0.00     0.043 H 
BRANCH   9  13
ATOM     13  C   LIG d   1       7.683  -1.660  -6.143  0.00  0.00    -0.059 C 
ATOM     14  H   LIG d   1       7.474  -2.627  -6.599  0.00  0.00     0.024 H 
ATOM     15  H   LIG d   1       7.143  -0.880  -6.681  0.00  0.00     0.024 H 
ATOM     16  H   LIG d   1       8.754  -1.459  -6.191  0.00  0.00     0.024 H 
ENDBRANCH   9  13
BRANCH   9  17
ATOM     17  C   LIG d   1       7.145  -0.308  -4.002  0.00  0.00    -0.059 C 
ATOM     18  H   LIG d   1       6.486   0.342  -4.579  0.00  0.00     0.024 H 
ATOM     19  H   LIG d   1       6.746  -0.427  -2.995  0.00  0.00     0.024 H 
ATOM     20  H   LIG d   1       8.138   0.135  -3.950  0.00  0.00     0.024 H 
ENDBRANCH   9  17
BRANCH  10  21
ATOM     21  C   LIG d   1       8.504  -3.931  -4.481  0.00  0.00    -0.050 C 
ATOM     22  C   LIG d   1       9.411  -4.576  -3.784  0.00  0.00     0.103 C 
ATOM     23 CL   LIG d   1       9.645  -4.202  -2.105  0.00  0.00    -0.071 Cl
ATOM     24 CL   LIG d   1      10.378  -5.803  -4.542  0.00  0.00    -0.071 Cl
ATOM     25  H   LIG d   1       8.360  -4.164  -5.525  0.00  0.00     0.060 H 
ENDBRANCH  10  21
ENDBRANCH   6   8
ENDBRANCH   5   6
ENDBRANCH   1   5
BRANCH   1  26
ATOM     26  C   LIG d   1       4.093  -1.529  -7.392  0.00  0.00     0.011 A 
ATOM     27  C   LIG d   1       3.678  -0.911  -6.229  0.00  0.00    -0.009 A 
ATOM     28  C   LIG d   1       3.134   0.365  -6.279  0.00  0.00     0.164 A 
ATOM     29  H   LIG d   1       3.771  -1.420  -5.282  0.00  0.00     0.066 H 
ATOM     30  C   LIG d   1       3.020   1.021  -7.500  0.00  0.00     0.165 A 
ATOM     31  C   LIG d   1       3.443   0.397  -8.660  0.00  0.00    -0.022 A 
ATOM     32  F   LIG d   1       2.495   2.265  -7.552  0.00  0.00    -0.202 F 
ATOM     33  C   LIG d   1       3.979  -0.876  -8.605  0.00  0.00    -0.051 A 
ATOM     34  H   LIG d   1       3.354   0.906  -9.608  0.00  0.00     0.065 H 
ATOM     35  H   LIG d   1       4.309  -1.361  -9.512  0.00  0.00     0.062 H 
BRANCH  28  36
ATOM     36  O   LIG d   1       2.720   0.974  -5.138  0.00  0.00    -0.453 OA
BRANCH  36  37
ATOM     37  C   LIG d   1       3.245   0.547  -3.960  0.00  0.00     0.129 A 
ATOM     38  C   LIG d   1       3.947   1.430  -3.151  0.00  0.00    -0.019 A 
ATOM     39  C   LIG d   1       4.481   0.992  -1.953  0.00  0.00    -0.058 A 
ATOM     40  H   LIG d   1       4.077   2.457  -3.458  0.00  0.00     0.065 H 
ATOM     41  C   LIG d   1       4.315  -0.323  -1.562  0.00  0.00    -0.061 A 
ATOM     42  H   LIG d   1       5.027   1.679  -1.323  0.00  0.00     0.062 H 
ATOM     43  C   LIG d   1       3.616  -1.205  -2.365  0.00  0.00    -0.058 A 
ATOM     44  H   LIG d   1       4.734  -0.663  -0.625  0.00  0.00     0.062 H 
ATOM     45  C   LIG d   1       3.076  -0.770  -3.561  0.00  0.00    -0.019 A 
ATOM     46  H   LIG d   1       3.488  -2.231  -2.056  0.00  0.00     0.062 H 
ATOM     47  H   LIG d   1       2.526  -1.458  -4.186  0.00  0.00     0.065 H 
ENDBRANCH  36  37
ENDBRANCH  28  36
ENDBRANCH   1  26
TORSDOF 9
ENDMDL
MODEL 7
REMARK VINA RESULT:      -6.3      2.319      2.965
REMARK  9 active torsions:
REMARK  status: ('A' for Active; 'I' for Inactive)
REMARK    1  A    between atoms: C_1  and  C_2 
REMARK    2  A    between atoms: C_2  and  C_32 
REMARK    3  A    between atoms: C_3  and  C_28 
REMARK    4  A    between atoms: C_5  and  C_7 
REMARK    5  A    between atoms: C_7  and  O_9 
REMARK    6  A    between atoms: O_9  and  C_10 
REMARK    7  A    between atoms: C_10  and  C_14 
REMARK    8  A    between atoms: C_18  and  O_20 
REMARK    9  A    between atoms: O_20  and  C_21 
ROOT
ATOM      1  C   LIG d   1       6.704  -0.875  -7.975  0.00  0.00     0.213 C 
ATOM      2  H   LIG d   1       7.319  -1.277  -8.780  0.00  0.00     0.095 H 
ATOM      3  C   LIG d   1       6.874   0.586  -7.909  0.00  0.00     0.112 C 
ATOM      4  N   LIG d   1       7.005   1.713  -7.860  0.00  0.00    -0.192 NA
ENDROOT
BRANCH   1   5
ATOM      5  O   LIG d   1       5.309  -1.189  -8.230  0.00  0.00    -0.441 OA
BRANCH   5   6
ATOM      6  C   LIG d   1       4.849  -0.958  -9.469  0.00  0.00     0.313 C 
ATOM      7  O   LIG d   1       5.150  -1.699 -10.374  0.00  0.00    -0.250 OA
BRANCH   6   8
ATOM      8  C   LIG d   1       3.957   0.228  -9.733  0.00  0.00     0.069 A 
ATOM      9  C   LIG d   1       3.041   0.690  -8.599  0.00  0.00    -0.014 A 
ATOM     10  C   LIG d   1       2.451  -0.026  -9.815  0.00  0.00    -0.001 A 
ATOM     11  H   LIG d   1       1.877   0.574 -10.523  0.00  0.00     0.036 H 
ATOM     12  H   LIG d   1       4.375   0.995 -10.387  0.00  0.00     0.043 H 
BRANCH   9  13
ATOM     13  C   LIG d   1       3.100  -0.088  -7.283  0.00  0.00    -0.059 C 
ATOM     14  H   LIG d   1       2.492   0.419  -6.534  0.00  0.00     0.024 H 
ATOM     15  H   LIG d   1       2.717  -1.097  -7.439  0.00  0.00     0.024 H 
ATOM     16  H   LIG d   1       4.133  -0.141  -6.938  0.00  0.00     0.024 H 
ENDBRANCH   9  13
BRANCH   9  17
ATOM     17  C   LIG d   1       2.780   2.192  -8.467  0.00  0.00    -0.059 C 
ATOM     18  H   LIG d   1       2.221   2.541  -9.336  0.00  0.00     0.024 H 
ATOM     19  H   LIG d   1       2.204   2.383  -7.563  0.00  0.00     0.024 H 
ATOM     20  H   LIG d   1       3.731   2.722  -8.411  0.00  0.00     0.024 H 
ENDBRANCH   9  17
BRANCH  10  21
ATOM     21  C   LIG d   1       1.972  -1.442  -9.626  0.00  0.00    -0.050 C 
ATOM     22  C   LIG d   1       1.307  -2.044 -10.585  0.00  0.00     0.103 C 
ATOM     23 CL   LIG d   1       0.978  -1.209 -12.071  0.00  0.00    -0.071 Cl
ATOM     24 CL   LIG d   1       0.755  -3.676 -10.366  0.00  0.00    -0.071 Cl
ATOM     25  H   LIG d   1       2.176  -1.962  -8.702  0.00  0.00     0.060 H 
ENDBRANCH  10  21
ENDBRANCH   6   8
ENDBRANCH   5   6
ENDBRANCH   1   5
BRANCH   1  26
ATOM     26  C   LIG d   1       7.126  -1.489  -6.665  0.00  0.00     0.011 A 
ATOM     27  C   LIG d   1       6.201  -1.651  -5.651  0.00  0.00    -0.009 A 
ATOM     28  C   LIG d   1       6.590  -2.211  -4.442  0.00  0.00     0.164 A 
ATOM     29  H   LIG d   1       5.178  -1.339  -5.796  0.00  0.00     0.066 H 
ATOM     30  C   LIG d   1       7.906  -2.618  -4.260  0.00  0.00     0.165 A 
ATOM     31  C   LIG d   1       8.825  -2.457  -5.281  0.00  0.00    -0.022 A 
ATOM     32  F   LIG d   1       8.288  -3.168  -3.086  0.00  0.00    -0.202 F 
ATOM     33  C   LIG d   1       8.435  -1.894  -6.482  0.00  0.00    -0.051 A 
ATOM     34  H   LIG d   1       9.848  -2.773  -5.140  0.00  0.00     0.065 H 
ATOM     35  H   LIG d   1       9.154  -1.769  -7.278  0.00  0.00     0.062 H 
BRANCH  28  36
ATOM     36  O   LIG d   1       5.684  -2.368  -3.442  0.00  0.00    -0.453 OA
BRANCH  36  37
ATOM     37  C   LIG d   1       4.944  -1.288  -3.076  0.00  0.00     0.129 A 
ATOM     38  C   LIG d   1       3.564  -1.309  -3.224  0.00  0.00    -0.019 A 
ATOM     39  C   LIG d   1       2.814  -0.209  -2.853  0.00  0.00    -0.058 A 
ATOM     40  H   LIG d   1       3.078  -2.183  -3.631  0.00  0.00     0.065 H 
ATOM     41  C   LIG d   1       3.437   0.910  -2.333  0.00  0.00    -0.061 A 
ATOM     42  H   LIG d   1       1.740  -0.225  -2.968  0.00  0.00     0.062 H 
ATOM     43  C   LIG d   1       4.812   0.933  -2.183  0.00  0.00    -0.058 A 
ATOM     44  H   LIG d   1       2.849   1.769  -2.043  0.00  0.00     0.062 H 
ATOM     45  C   LIG d   1       5.566  -0.166  -2.549  0.00  0.00    -0.019 A 
ATOM     46  H   LIG d   1       5.296   1.809  -1.778  0.00  0.00     0.062 H 
ATOM     47  H   LIG d   1       6.639  -0.149  -2.428  0.00  0.00     0.065 H 
ENDBRANCH  36  37
ENDBRANCH  28  36
ENDBRANCH   1  26
TORSDOF 9
ENDMDL
MODEL 8
REMARK VINA RESULT:      -6.2      1.666      2.023
REMARK  9 active torsions:
REMARK  status: ('A' for Active; 'I' for Inactive)
REMARK    1  A    between atoms: C_1  and  C_2 
REMARK    2  A    between atoms: C_2  and  C_32 
REMARK    3  A    between atoms: C_3  and  C_28 
REMARK    4  A    between atoms: C_5  and  C_7 
REMARK    5  A    between atoms: C_7  and  O_9 
REMARK    6  A    between atoms: O_9  and  C_10 
REMARK    7  A    between atoms: C_10  and  C_14 
REMARK    8  A    between atoms: C_18  and  O_20 
REMARK    9  A    between atoms: O_20  and  C_21 
ROOT
ATOM      1  C   LIG d   1       6.443   0.941  -8.563  0.00  0.00     0.213 C 
ATOM      2  H   LIG d   1       6.290   0.332  -9.454  0.00  0.00     0.095 H 
ATOM      3  C   LIG d   1       7.252   2.122  -8.908  0.00  0.00     0.112 C 
ATOM      4  N   LIG d   1       7.875   3.033  -9.175  0.00  0.00    -0.192 NA
ENDROOT
BRANCH   1   5
ATOM      5  O   LIG d   1       5.156   1.371  -8.045  0.00  0.00    -0.441 OA
BRANCH   5   6
ATOM      6  C   LIG d   1       4.084   1.156  -8.821  0.00  0.00     0.313 C 
ATOM      7  O   LIG d   1       3.046   1.731  -8.591  0.00  0.00    -0.250 OA
BRANCH   6   8
ATOM      8  C   LIG d   1       4.172   0.197  -9.980  0.00  0.00     0.069 A 
ATOM      9  C   LIG d   1       2.924  -0.619 -10.319  0.00  0.00    -0.014 A 
ATOM     10  C   LIG d   1       4.127  -1.299  -9.664  0.00  0.00    -0.001 A 
ATOM     11  H   LIG d   1       4.730  -1.963 -10.284  0.00  0.00     0.036 H 
ATOM     12  H   LIG d   1       4.804   0.518 -10.809  0.00  0.00     0.043 H 
BRANCH   9  13
ATOM     13  C   LIG d   1       1.680  -0.399  -9.455  0.00  0.00    -0.059 C 
ATOM     14  H   LIG d   1       1.853   0.436  -8.777  0.00  0.00     0.024 H 
ATOM     15  H   LIG d   1       0.827  -0.176 -10.096  0.00  0.00     0.024 H 
ATOM     16  H   LIG d   1       1.475  -1.301  -8.877  0.00  0.00     0.024 H 
ENDBRANCH   9  13
BRANCH   9  17
ATOM     17  C   LIG d   1       2.656  -0.923 -11.795  0.00  0.00    -0.059 C 
ATOM     18  H   LIG d   1       3.270  -0.271 -12.417  0.00  0.00     0.024 H 
ATOM     19  H   LIG d   1       2.905  -1.963 -12.002  0.00  0.00     0.024 H 
ATOM     20  H   LIG d   1       1.603  -0.750 -12.016  0.00  0.00     0.024 H 
ENDBRANCH   9  17
BRANCH  10  21
ATOM     21  C   LIG d   1       3.998  -1.701  -8.218  0.00  0.00    -0.050 C 
ATOM     22  C   LIG d   1       4.684  -2.721  -7.756  0.00  0.00     0.103 C 
ATOM     23 CL   LIG d   1       5.740  -3.607  -8.811  0.00  0.00    -0.071 Cl
ATOM     24 CL   LIG d   1       4.535  -3.185  -6.089  0.00  0.00    -0.071 Cl
ATOM     25  H   LIG d   1       3.341  -1.151  -7.561  0.00  0.00     0.060 H 
ENDBRANCH  10  21
ENDBRANCH   6   8
ENDBRANCH   5   6
ENDBRANCH   1   5
BRANCH   1  26
ATOM     26  C   LIG d   1       7.161   0.129  -7.515  0.00  0.00     0.011 A 
ATOM     27  C   LIG d   1       7.048   0.471  -6.182  0.00  0.00    -0.009 A 
ATOM     28  C   LIG d   1       7.713  -0.272  -5.217  0.00  0.00     0.164 A 
ATOM     29  H   LIG d   1       6.447   1.319  -5.890  0.00  0.00     0.066 H 
ATOM     30  C   LIG d   1       8.482  -1.366  -5.596  0.00  0.00     0.165 A 
ATOM     31  C   LIG d   1       8.587  -1.706  -6.932  0.00  0.00    -0.022 A 
ATOM     32  F   LIG d   1       9.128  -2.095  -4.659  0.00  0.00    -0.202 F 
ATOM     33  C   LIG d   1       7.926  -0.959  -7.891  0.00  0.00    -0.051 A 
ATOM     34  H   LIG d   1       9.184  -2.556  -7.227  0.00  0.00     0.065 H 
ATOM     35  H   LIG d   1       8.009  -1.226  -8.933  0.00  0.00     0.062 H 
BRANCH  28  36
ATOM     36  O   LIG d   1       7.607   0.065  -3.906  0.00  0.00    -0.453 OA
BRANCH  36  37
ATOM     37  C   LIG d   1       6.420  -0.157  -3.283  0.00  0.00     0.129 A 
ATOM     38  C   LIG d   1       5.684   0.912  -2.790  0.00  0.00    -0.019 A 
ATOM     39  C   LIG d   1       4.477   0.685  -2.156  0.00  0.00    -0.058 A 
ATOM     40  H   LIG d   1       6.055   1.920  -2.901  0.00  0.00     0.065 H 
ATOM     41  C   LIG d   1       4.003  -0.606  -2.013  0.00  0.00    -0.061 A 
ATOM     42  H   LIG d   1       3.904   1.516  -1.772  0.00  0.00     0.062 H 
ATOM     43  C   LIG d   1       4.734  -1.673  -2.503  0.00  0.00    -0.058 A 
ATOM     44  H   LIG d   1       3.060  -0.782  -1.517  0.00  0.00     0.062 H 
ATOM     45  C   LIG d   1       5.939  -1.449  -3.143  0.00  0.00    -0.019 A 
ATOM     46  H   LIG d   1       4.361  -2.679  -2.390  0.00  0.00     0.062 H 
ATOM     47  H   LIG d   1       6.507  -2.282  -3.530  0.00  0.00     0.065 H 
ENDBRANCH  36  37
ENDBRANCH  28  36
ENDBRANCH   1  26
TORSDOF 9
ENDMDL
MODEL 9
REMARK VINA RESULT:      -6.1      3.742      5.286
REMARK  9 active torsions:
REMARK  status: ('A' for Active; 'I' for Inactive)
REMARK    1  A    between atoms: C_1  and  C_2 
REMARK    2  A    between atoms: C_2  and  C_32 
REMARK    3  A    between atoms: C_3  and  C_28 
REMARK    4  A    between atoms: C_5  and  C_7 
REMARK    5  A    between atoms: C_7  and  O_9 
REMARK    6  A    between atoms: O_9  and  C_10 
REMARK    7  A    between atoms: C_10  and  C_14 
REMARK    8  A    between atoms: C_18  and  O_20 
REMARK    9  A    between atoms: O_20  and  C_21 
ROOT
ATOM      1  C   LIG d   1       3.528  -3.322  -9.534  0.00  0.00     0.213 C 
ATOM      2  H   LIG d   1       2.752  -3.479 -10.283  0.00  0.00     0.095 H 
ATOM      3  C   LIG d   1       3.499  -4.424  -8.557  0.00  0.00     0.112 C 
ATOM      4  N   LIG d   1       3.476  -5.275  -7.806  0.00  0.00    -0.192 NA
ENDROOT
BRANCH   1   5
ATOM      5  O   LIG d   1       4.827  -3.285 -10.182  0.00  0.00    -0.441 OA
BRANCH   5   6
ATOM      6  C   LIG d   1       4.843  -3.399 -11.519  0.00  0.00     0.313 C 
ATOM      7  O   LIG d   1       5.489  -4.276 -12.043  0.00  0.00    -0.250 OA
BRANCH   6   8
ATOM      8  C   LIG d   1       4.058  -2.433 -12.368  0.00  0.00     0.069 A 
ATOM      9  C   LIG d   1       4.810  -1.691 -13.474  0.00  0.00    -0.014 A 
ATOM     10  C   LIG d   1       4.369  -0.943 -12.214  0.00  0.00    -0.001 A 
ATOM     11  H   LIG d   1       3.539  -0.243 -12.309  0.00  0.00     0.036 H 
ATOM     12  H   LIG d   1       3.022  -2.714 -12.564  0.00  0.00     0.043 H 
BRANCH   9  13
ATOM     13  C   LIG d   1       6.302  -1.986 -13.634  0.00  0.00    -0.059 C 
ATOM     14  H   LIG d   1       6.822  -1.079 -13.939  0.00  0.00     0.024 H 
ATOM     15  H   LIG d   1       6.708  -2.334 -12.682  0.00  0.00     0.024 H 
ATOM     16  H   LIG d   1       6.442  -2.758 -14.391  0.00  0.00     0.024 H 
ENDBRANCH   9  13
BRANCH   9  17
ATOM     17  C   LIG d   1       4.052  -1.399 -14.771  0.00  0.00    -0.059 C 
ATOM     18  H   LIG d   1       4.485  -0.522 -15.255  0.00  0.00     0.024 H 
ATOM     19  H   LIG d   1       4.129  -2.257 -15.438  0.00  0.00     0.024 H 
ATOM     20  H   LIG d   1       3.004  -1.207 -14.544  0.00  0.00     0.024 H 
ENDBRANCH   9  17
BRANCH  10  21
ATOM     21  C   LIG d   1       5.438  -0.553 -11.226  0.00  0.00    -0.050 C 
ATOM     22  C   LIG d   1       5.330   0.567 -10.550  0.00  0.00     0.103 C 
ATOM     23 CL   LIG d   1       3.957   1.601 -10.796  0.00  0.00    -0.071 Cl
ATOM     24 CL   LIG d   1       6.562   1.016  -9.412  0.00  0.00    -0.071 Cl
ATOM     25  H   LIG d   1       6.292  -1.196 -11.073  0.00  0.00     0.060 H 
ENDBRANCH  10  21
ENDBRANCH   6   8
ENDBRANCH   5   6
ENDBRANCH   1   5
BRANCH   1  26
ATOM     26  C   LIG d   1       3.284  -2.015  -8.822  0.00  0.00     0.011 A 
ATOM     27  C   LIG d   1       4.072  -1.660  -7.745  0.00  0.00    -0.009 A 
ATOM     28  C   LIG d   1       3.846  -0.460  -7.086  0.00  0.00     0.164 A 
ATOM     29  H   LIG d   1       4.861  -2.318  -7.411  0.00  0.00     0.066 H 
ATOM     30  C   LIG d   1       2.832   0.387  -7.521  0.00  0.00     0.165 A 
ATOM     31  C   LIG d   1       2.051   0.027  -8.604  0.00  0.00    -0.022 A 
ATOM     32  F   LIG d   1       2.611   1.558  -6.885  0.00  0.00    -0.202 F 
ATOM     33  C   LIG d   1       2.277  -1.172  -9.254  0.00  0.00    -0.051 A 
ATOM     34  H   LIG d   1       1.264   0.684  -8.942  0.00  0.00     0.065 H 
ATOM     35  H   LIG d   1       1.666  -1.451 -10.099  0.00  0.00     0.062 H 
BRANCH  28  36
ATOM     36  O   LIG d   1       4.615  -0.111  -6.023  0.00  0.00    -0.453 OA
BRANCH  36  37
ATOM     37  C   LIG d   1       4.341  -0.682  -4.821  0.00  0.00     0.129 A 
ATOM     38  C   LIG d   1       5.250  -1.558  -4.244  0.00  0.00    -0.019 A 
ATOM     39  C   LIG d   1       4.969  -2.139  -3.022  0.00  0.00    -0.058 A 
ATOM     40  H   LIG d   1       6.176  -1.788  -4.751  0.00  0.00     0.065 H 
ATOM     41  C   LIG d   1       3.783  -1.846  -2.374  0.00  0.00    -0.061 A 
ATOM     42  H   LIG d   1       5.676  -2.821  -2.573  0.00  0.00     0.062 H 
ATOM     43  C   LIG d   1       2.876  -0.973  -2.945  0.00  0.00    -0.058 A 
ATOM     44  H   LIG d   1       3.565  -2.301  -1.419  0.00  0.00     0.062 H 
ATOM     45  C   LIG d   1       3.156  -0.386  -4.165  0.00  0.00    -0.019 A 
ATOM     46  H   LIG d   1       1.951  -0.747  -2.437  0.00  0.00     0.062 H 
ATOM     47  H   LIG d   1       2.449   0.299  -4.609  0.00  0.00     0.065 H 
ENDBRANCH  36  37
ENDBRANCH  28  36
ENDBRANCH   1  26
TORSDOF 9
ENDMDL
MODEL 10
REMARK VINA RESULT:      -6.1      4.666      6.633
REMARK  9 active torsions:
REMARK  status: ('A' for Active; 'I' for Inactive)
REMARK    1  A    between atoms: C_1  and  C_2 
REMARK    2  A    between atoms: C_2  and  C_32 
REMARK    3  A    between atoms: C_3  and  C_28 
REMARK    4  A    between atoms: C_5  and  C_7 
REMARK    5  A    between atoms: C_7  and  O_9 
REMARK    6  A    between atoms: O_9  and  C_10 
REMARK    7  A    between atoms: C_10  and  C_14 
REMARK    8  A    between atoms: C_18  and  O_20 
REMARK    9  A    between atoms: O_20  and  C_21 
ROOT
ATOM      1  C   LIG d   1       4.218  -3.551  -8.818  0.00  0.00     0.213 C 
ATOM      2  H   LIG d   1       5.280  -3.678  -8.608  0.00  0.00     0.095 H 
ATOM      3  C   LIG d   1       3.982  -3.704 -10.263  0.00  0.00     0.112 C 
ATOM      4  N   LIG d   1       3.801  -3.823 -11.378  0.00  0.00    -0.192 NA
ENDROOT
BRANCH   1   5
ATOM      5  O   LIG d   1       3.459  -4.555  -8.095  0.00  0.00    -0.441 OA
BRANCH   5   6
ATOM      6  C   LIG d   1       4.010  -5.047  -6.975  0.00  0.00     0.313 C 
ATOM      7  O   LIG d   1       3.308  -5.368  -6.046  0.00  0.00    -0.250 OA
BRANCH   6   8
ATOM      8  C   LIG d   1       5.507  -5.199  -6.876  0.00  0.00     0.069 A 
ATOM      9  C   LIG d   1       6.157  -6.330  -7.674  0.00  0.00    -0.014 A 
ATOM     10  C   LIG d   1       6.044  -6.435  -6.152  0.00  0.00    -0.001 A 
ATOM     11  H   LIG d   1       6.959  -6.320  -5.571  0.00  0.00     0.036 H 
ATOM     12  H   LIG d   1       6.067  -4.270  -6.770  0.00  0.00     0.043 H 
BRANCH   9  13
ATOM     13  C   LIG d   1       5.238  -7.220  -8.513  0.00  0.00    -0.059 C 
ATOM     14  H   LIG d   1       5.767  -8.133  -8.786  0.00  0.00     0.024 H 
ATOM     15  H   LIG d   1       4.350  -7.475  -7.933  0.00  0.00     0.024 H 
ATOM     16  H   LIG d   1       4.941  -6.688  -9.417  0.00  0.00     0.024 H 
ENDBRANCH   9  13
BRANCH   9  17
ATOM     17  C   LIG d   1       7.544  -6.071  -8.265  0.00  0.00    -0.059 C 
ATOM     18  H   LIG d   1       7.748  -5.000  -8.257  0.00  0.00     0.024 H 
ATOM     19  H   LIG d   1       8.295  -6.589  -7.668  0.00  0.00     0.024 H 
ATOM     20  H   LIG d   1       7.577  -6.440  -9.290  0.00  0.00     0.024 H 
ENDBRANCH   9  17
BRANCH  10  21
ATOM     21  C   LIG d   1       5.038  -7.408  -5.594  0.00  0.00    -0.050 C 
ATOM     22  C   LIG d   1       5.444  -8.451  -4.907  0.00  0.00     0.103 C 
ATOM     23 CL   LIG d   1       7.140  -8.710  -4.642  0.00  0.00    -0.071 Cl
ATOM     24 CL   LIG d   1       4.285  -9.572  -4.264  0.00  0.00    -0.071 Cl
ATOM     25  H   LIG d   1       3.983  -7.248  -5.758  0.00  0.00     0.060 H 
ENDBRANCH  10  21
ENDBRANCH   6   8
ENDBRANCH   5   6
ENDBRANCH   1   5
BRANCH   1  26
ATOM     26  C   LIG d   1       3.779  -2.177  -8.381  0.00  0.00     0.011 A 
ATOM     27  C   LIG d   1       4.356  -1.590  -7.272  0.00  0.00    -0.009 A 
ATOM     28  C   LIG d   1       3.949  -0.327  -6.865  0.00  0.00     0.164 A 
ATOM     29  H   LIG d   1       5.121  -2.114  -6.719  0.00  0.00     0.066 H 
ATOM     30  C   LIG d   1       2.968   0.347  -7.582  0.00  0.00     0.165 A 
ATOM     31  C   LIG d   1       2.397  -0.245  -8.695  0.00  0.00    -0.022 A 
ATOM     32  F   LIG d   1       2.571   1.579  -7.192  0.00  0.00    -0.202 F 
ATOM     33  C   LIG d   1       2.803  -1.505  -9.093  0.00  0.00    -0.051 A 
ATOM     34  H   LIG d   1       1.635   0.279  -9.252  0.00  0.00     0.065 H 
ATOM     35  H   LIG d   1       2.357  -1.965  -9.962  0.00  0.00     0.062 H 
BRANCH  28  36
ATOM     36  O   LIG d   1       4.512   0.251  -5.772  0.00  0.00    -0.453 OA
BRANCH  36  37
ATOM     37  C   LIG d   1       4.379  -0.380  -4.576  0.00  0.00     0.129 A 
ATOM     38  C   LIG d   1       3.128  -0.494  -3.986  0.00  0.00    -0.019 A 
ATOM     39  C   LIG d   1       2.995  -1.136  -2.769  0.00  0.00    -0.058 A 
ATOM     40  H   LIG d   1       2.259  -0.080  -4.476  0.00  0.00     0.065 H 
ATOM     41  C   LIG d   1       4.107  -1.664  -2.140  0.00  0.00    -0.061 A 
ATOM     42  H   LIG d   1       2.022  -1.225  -2.309  0.00  0.00     0.062 H 
ATOM     43  C   LIG d   1       5.355  -1.553  -2.726  0.00  0.00    -0.058 A 
ATOM     44  H   LIG d   1       4.002  -2.165  -1.189  0.00  0.00     0.062 H 
ATOM     45  C   LIG d   1       5.491  -0.917  -3.946  0.00  0.00    -0.019 A 
ATOM     46  H   LIG d   1       6.222  -1.966  -2.233  0.00  0.00     0.062 H 
ATOM     47  H   LIG d   1       6.465  -0.834  -4.406  0.00  0.00     0.065 H 
ENDBRANCH  36  37
ENDBRANCH  28  36
ENDBRANCH   1  26
TORSDOF 9
ENDMDL
