MODEL 1
REMARK VINA RESULT:      -7.2      0.000      0.000
REMARK  10 active torsions:
REMARK  status: ('A' for Active; 'I' for Inactive)
REMARK    1  A    between atoms: C_1  and  C_2 
REMARK    2  A    between atoms: C_3  and  O_16 
REMARK    3  A    between atoms: O_16  and  C_17 
REMARK    4  A    between atoms: C_17  and  C_18 
REMARK       I    between atoms: C_18  and  N_20 
REMARK    5  A    between atoms: N_20  and  C_21 
REMARK    6  A    between atoms: C_21  and  C_22 
REMARK    7  A    between atoms: C_22  and  C_23 
REMARK    8  A    between atoms: C_23  and  C_24 
REMARK    9  A    between atoms: C_24  and  C_25 
REMARK   10  A    between atoms: C_25  and  C_26 
ROOT
ATOM      1  C   LIG d   1       3.964   0.592  -9.800  0.00  0.00     0.034 A 
ATOM      2  C   LIG d   1       3.016   0.524  -8.791  0.00  0.00     0.128 A 
ATOM      3  C   LIG d   1       1.822  -0.165  -8.986  0.00  0.00    -0.019 A 
ATOM      4  C   LIG d   1       1.568  -0.785 -10.176  0.00  0.00    -0.047 A 
ATOM      5  C   LIG d   1       2.514  -0.726 -11.205  0.00  0.00     0.021 A 
ATOM      6  C   LIG d   1       3.722  -0.031 -11.014  0.00  0.00     0.146 A 
ATOM      7  O   LIG d   1       4.626   0.028 -12.014  0.00  0.00    -0.422 OA
ATOM      8  C   LIG d   1       4.408  -0.572 -13.193  0.00  0.00     0.341 A 
ATOM      9  O   LIG d   1       5.256  -0.494 -14.064  0.00  0.00    -0.245 OA
ATOM     10  C   LIG d   1       3.219  -1.290 -13.456  0.00  0.00     0.041 A 
ATOM     11  C   LIG d   1       2.268  -1.382 -12.493  0.00  0.00    -0.027 A 
ATOM     12  C   LIG d   1       1.093  -2.191 -12.990  0.00  0.00    -0.026 C 
ATOM     13  C   LIG d   1       1.622  -2.947 -14.227  0.00  0.00    -0.045 C 
ATOM     14  C   LIG d   1       2.772  -2.029 -14.698  0.00  0.00    -0.020 C 
ATOM     15  H   LIG d   1       1.092  -0.210  -8.191  0.00  0.00     0.065 H 
ATOM     16  H   LIG d   1       0.640  -1.317 -10.322  0.00  0.00     0.063 H 
ATOM     17  H   LIG d   1       0.768  -2.896 -12.225  0.00  0.00     0.031 H 
ATOM     18  H   LIG d   1       0.271  -1.531 -13.272  0.00  0.00     0.031 H 
ATOM     19  H   LIG d   1       1.999  -3.932 -13.951  0.00  0.00     0.027 H 
ATOM     20  H   LIG d   1       0.851  -3.029 -14.994  0.00  0.00     0.027 H 
ATOM     21  H   LIG d   1       3.591  -2.624 -15.100  0.00  0.00     0.032 H 
ATOM     22  H   LIG d   1       2.410  -1.326 -15.449  0.00  0.00     0.032 H 
ENDROOT
BRANCH   2  23
ATOM     23  O   LIG d   1       3.254   1.134  -7.601  0.00  0.00    -0.482 OA
BRANCH  23  24
ATOM     24  C   LIG d   1       2.971   0.383  -6.419  0.00  0.00     0.165 C 
ATOM     25  H   LIG d   1       2.722   1.066  -5.605  0.00  0.00     0.080 H 
ATOM     26  H   LIG d   1       2.128  -0.283  -6.604  0.00  0.00     0.080 H 
BRANCH  24  27
ATOM     27  C   LIG d   1       4.181  -0.431  -6.039  0.00  0.00     0.251 C 
ATOM     28  O   LIG d   1       5.292   0.039  -6.166  0.00  0.00    -0.272 OA
ATOM     29  N   LIG d   1       4.028  -1.680  -5.557  0.00  0.00    -0.312 N 
ATOM     30  H   LIG d   1       3.140  -2.056  -5.455  0.00  0.00     0.149 HD
BRANCH  29  31
ATOM     31  C   LIG d   1       5.205  -2.472  -5.187  0.00  0.00     0.012 C 
ATOM     32  H   LIG d   1       4.995  -3.530  -5.346  0.00  0.00     0.046 H 
ATOM     33  H   LIG d   1       6.053  -2.172  -5.802  0.00  0.00     0.046 H 
BRANCH  31  34
ATOM     34  C   LIG d   1       5.536  -2.235  -3.712  0.00  0.00    -0.037 C 
ATOM     35  H   LIG d   1       6.197  -3.025  -3.357  0.00  0.00     0.028 H 
ATOM     36  H   LIG d   1       6.033  -1.270  -3.602  0.00  0.00     0.028 H 
BRANCH  34  37
ATOM     37  C   LIG d   1       4.245  -2.239  -2.892  0.00  0.00    -0.051 C 
ATOM     38  H   LIG d   1       3.390  -2.134  -3.558  0.00  0.00     0.027 H 
ATOM     39  H   LIG d   1       4.166  -3.180  -2.345  0.00  0.00     0.027 H 
BRANCH  37  40
ATOM     40  C   LIG d   1       4.266  -1.074  -1.900  0.00  0.00    -0.048 C 
ATOM     41  H   LIG d   1       3.877  -1.410  -0.938  0.00  0.00     0.027 H 
ATOM     42  H   LIG d   1       5.289  -0.721  -1.776  0.00  0.00     0.027 H 
BRANCH  40  43
ATOM     43  C   LIG d   1       3.395   0.065  -2.434  0.00  0.00    -0.013 C 
ATOM     44  H   LIG d   1       2.913  -0.249  -3.360  0.00  0.00     0.033 H 
ATOM     45  H   LIG d   1       2.633   0.316  -1.695  0.00  0.00     0.033 H 
BRANCH  43  46
ATOM     46  C   LIG d   1       4.255   1.273  -2.699  0.00  0.00     0.042 C 
ATOM     47  O   LIG d   1       5.378   1.325  -2.255  0.00  0.00    -0.550 OA
ATOM     48  O   LIG d   1       3.775   2.292  -3.428  0.00  0.00    -0.550 OA
ENDBRANCH  43  46
ENDBRANCH  40  43
ENDBRANCH  37  40
ENDBRANCH  34  37
ENDBRANCH  31  34
ENDBRANCH  29  31
ENDBRANCH  24  27
ENDBRANCH  23  24
ENDBRANCH   2  23
BRANCH   1  49
ATOM     49  C   LIG d   1       5.253   1.340  -9.577  0.00  0.00    -0.033 C 
ATOM     50  H   LIG d   1       6.033   0.915 -10.208  0.00  0.00     0.028 H 
ATOM     51  H   LIG d   1       5.112   2.391  -9.832  0.00  0.00     0.028 H 
ATOM     52  H   LIG d   1       5.546   1.256  -8.531  0.00  0.00     0.028 H 
ENDBRANCH   1  49
TORSDOF 10
ENDMDL
MODEL 2
REMARK VINA RESULT:      -6.7      6.714      9.684
REMARK  10 active torsions:
REMARK  status: ('A' for Active; 'I' for Inactive)
REMARK    1  A    between atoms: C_1  and  C_2 
REMARK    2  A    between atoms: C_3  and  O_16 
REMARK    3  A    between atoms: O_16  and  C_17 
REMARK    4  A    between atoms: C_17  and  C_18 
REMARK       I    between atoms: C_18  and  N_20 
REMARK    5  A    between atoms: N_20  and  C_21 
REMARK    6  A    between atoms: C_21  and  C_22 
REMARK    7  A    between atoms: C_22  and  C_23 
REMARK    8  A    between atoms: C_23  and  C_24 
REMARK    9  A    between atoms: C_24  and  C_25 
REMARK   10  A    between atoms: C_25  and  C_26 
ROOT
ATOM      1  C   LIG d   1       9.706   5.145  -5.992  0.00  0.00     0.034 A 
ATOM      2  C   LIG d   1       9.753   4.559  -4.738  0.00  0.00     0.128 A 
ATOM      3  C   LIG d   1       9.802   5.345  -3.589  0.00  0.00    -0.019 A 
ATOM      4  C   LIG d   1       9.803   6.707  -3.684  0.00  0.00    -0.047 A 
ATOM      5  C   LIG d   1       9.754   7.316  -4.943  0.00  0.00     0.021 A 
ATOM      6  C   LIG d   1       9.706   6.527  -6.107  0.00  0.00     0.146 A 
ATOM      7  O   LIG d   1       9.667   7.121  -7.317  0.00  0.00    -0.422 OA
ATOM      8  C   LIG d   1       9.663   8.456  -7.444  0.00  0.00     0.341 A 
ATOM      9  O   LIG d   1       9.624   8.945  -8.559  0.00  0.00    -0.245 OA
ATOM     10  C   LIG d   1       9.708   9.312  -6.320  0.00  0.00     0.041 A 
ATOM     11  C   LIG d   1       9.753   8.776  -5.074  0.00  0.00    -0.027 A 
ATOM     12  C   LIG d   1       9.793   9.870  -4.032  0.00  0.00    -0.026 C 
ATOM     13  C   LIG d   1       9.335  11.145  -4.772  0.00  0.00    -0.045 C 
ATOM     14  C   LIG d   1       9.716  10.822  -6.235  0.00  0.00    -0.020 C 
ATOM     15  H   LIG d   1       9.839   4.875  -2.618  0.00  0.00     0.065 H 
ATOM     16  H   LIG d   1       9.840   7.312  -2.790  0.00  0.00     0.063 H 
ATOM     17  H   LIG d   1       9.110   9.640  -3.215  0.00  0.00     0.031 H 
ATOM     18  H   LIG d   1      10.809   9.995  -3.655  0.00  0.00     0.031 H 
ATOM     19  H   LIG d   1       8.259  11.288  -4.673  0.00  0.00     0.027 H 
ATOM     20  H   LIG d   1       9.877  12.020  -4.413  0.00  0.00     0.027 H 
ATOM     21  H   LIG d   1       8.981  11.245  -6.919  0.00  0.00     0.032 H 
ATOM     22  H   LIG d   1      10.710  11.210  -6.460  0.00  0.00     0.032 H 
ENDROOT
BRANCH   2  23
ATOM     23  O   LIG d   1       9.752   3.205  -4.627  0.00  0.00    -0.482 OA
BRANCH  23  24
ATOM     24  C   LIG d   1       8.864   2.634  -3.665  0.00  0.00     0.165 C 
ATOM     25  H   LIG d   1       9.443   2.199  -2.849  0.00  0.00     0.080 H 
ATOM     26  H   LIG d   1       8.208   3.409  -3.271  0.00  0.00     0.080 H 
BRANCH  24  27
ATOM     27  C   LIG d   1       8.036   1.560  -4.322  0.00  0.00     0.251 C 
ATOM     28  O   LIG d   1       7.550   1.753  -5.417  0.00  0.00    -0.272 OA
ATOM     29  N   LIG d   1       7.837   0.384  -3.694  0.00  0.00    -0.312 N 
ATOM     30  H   LIG d   1       8.225   0.229  -2.818  0.00  0.00     0.149 HD
BRANCH  29  31
ATOM     31  C   LIG d   1       7.032  -0.660  -4.333  0.00  0.00     0.012 C 
ATOM     32  H   LIG d   1       6.139  -0.214  -4.772  0.00  0.00     0.046 H 
ATOM     33  H   LIG d   1       7.618  -1.145  -5.112  0.00  0.00     0.046 H 
BRANCH  31  34
ATOM     34  C   LIG d   1       6.619  -1.698  -3.286  0.00  0.00    -0.037 C 
ATOM     35  H   LIG d   1       7.078  -2.657  -3.525  0.00  0.00     0.028 H 
ATOM     36  H   LIG d   1       6.951  -1.371  -2.300  0.00  0.00     0.028 H 
BRANCH  34  37
ATOM     37  C   LIG d   1       5.096  -1.846  -3.287  0.00  0.00    -0.051 C 
ATOM     38  H   LIG d   1       4.685  -1.371  -4.178  0.00  0.00     0.027 H 
ATOM     39  H   LIG d   1       4.834  -2.904  -3.287  0.00  0.00     0.027 H 
BRANCH  37  40
ATOM     40  C   LIG d   1       4.517  -1.176  -2.039  0.00  0.00    -0.048 C 
ATOM     41  H   LIG d   1       3.996  -1.921  -1.437  0.00  0.00     0.027 H 
ATOM     42  H   LIG d   1       5.325  -0.737  -1.455  0.00  0.00     0.027 H 
BRANCH  40  43
ATOM     43  C   LIG d   1       3.536  -0.080  -2.457  0.00  0.00    -0.013 C 
ATOM     44  H   LIG d   1       3.075  -0.348  -3.408  0.00  0.00     0.033 H 
ATOM     45  H   LIG d   1       2.762   0.025  -1.696  0.00  0.00     0.033 H 
BRANCH  43  46
ATOM     46  C   LIG d   1       4.274   1.225  -2.606  0.00  0.00     0.042 C 
ATOM     47  O   LIG d   1       5.333   1.387  -2.048  0.00  0.00    -0.550 OA
ATOM     48  O   LIG d   1       3.756   2.207  -3.359  0.00  0.00    -0.550 OA
ENDBRANCH  43  46
ENDBRANCH  40  43
ENDBRANCH  37  40
ENDBRANCH  34  37
ENDBRANCH  31  34
ENDBRANCH  29  31
ENDBRANCH  24  27
ENDBRANCH  23  24
ENDBRANCH   2  23
BRANCH   1  49
ATOM     49  C   LIG d   1       9.653   4.285  -7.228  0.00  0.00    -0.033 C 
ATOM     50  H   LIG d   1      10.553   3.672  -7.284  0.00  0.00     0.028 H 
ATOM     51  H   LIG d   1       8.776   3.639  -7.184  0.00  0.00     0.028 H 
ATOM     52  H   LIG d   1       9.591   4.920  -8.111  0.00  0.00     0.028 H 
ENDBRANCH   1  49
TORSDOF 10
ENDMDL
MODEL 3
REMARK VINA RESULT:      -6.7      6.756     10.702
REMARK  10 active torsions:
REMARK  status: ('A' for Active; 'I' for Inactive)
REMARK    1  A    between atoms: C_1  and  C_2 
REMARK    2  A    between atoms: C_3  and  O_16 
REMARK    3  A    between atoms: O_16  and  C_17 
REMARK    4  A    between atoms: C_17  and  C_18 
REMARK       I    between atoms: C_18  and  N_20 
REMARK    5  A    between atoms: N_20  and  C_21 
REMARK    6  A    between atoms: C_21  and  C_22 
REMARK    7  A    between atoms: C_22  and  C_23 
REMARK    8  A    between atoms: C_23  and  C_24 
REMARK    9  A    between atoms: C_24  and  C_25 
REMARK   10  A    between atoms: C_25  and  C_26 
ROOT
ATOM      1  C   LIG d   1       9.825   5.533  -4.879  0.00  0.00     0.034 A 
ATOM      2  C   LIG d   1       9.823   4.441  -4.025  0.00  0.00     0.128 A 
ATOM      3  C   LIG d   1       9.908   4.620  -2.646  0.00  0.00    -0.019 A 
ATOM      4  C   LIG d   1       9.993   5.875  -2.116  0.00  0.00    -0.047 A 
ATOM      5  C   LIG d   1       9.995   6.988  -2.963  0.00  0.00     0.021 A 
ATOM      6  C   LIG d   1       9.911   6.814  -4.357  0.00  0.00     0.146 A 
ATOM      7  O   LIG d   1       9.921   7.892  -5.168  0.00  0.00    -0.422 OA
ATOM      8  C   LIG d   1      10.000   9.138  -4.679  0.00  0.00     0.341 A 
ATOM      9  O   LIG d   1      10.003  10.080  -5.451  0.00  0.00    -0.245 OA
ATOM     10  C   LIG d   1      10.085   9.390  -3.290  0.00  0.00     0.041 A 
ATOM     11  C   LIG d   1      10.085   8.347  -2.421  0.00  0.00    -0.027 A 
ATOM     12  C   LIG d   1      10.181   8.848  -0.999  0.00  0.00    -0.026 C 
ATOM     13  C   LIG d   1       9.810  10.345  -1.075  0.00  0.00    -0.045 C 
ATOM     14  C   LIG d   1      10.186  10.695  -2.532  0.00  0.00    -0.020 C 
ATOM     15  H   LIG d   1       9.906   3.760  -1.993  0.00  0.00     0.065 H 
ATOM     16  H   LIG d   1      10.058   6.007  -1.046  0.00  0.00     0.063 H 
ATOM     17  H   LIG d   1       9.476   8.315  -0.361  0.00  0.00     0.031 H 
ATOM     18  H   LIG d   1      11.198   8.728  -0.624  0.00  0.00     0.031 H 
ATOM     19  H   LIG d   1       8.743  10.491  -0.903  0.00  0.00     0.027 H 
ATOM     20  H   LIG d   1      10.401  10.930  -0.370  0.00  0.00     0.027 H 
ATOM     21  H   LIG d   1       9.485  11.424  -2.939  0.00  0.00     0.032 H 
ATOM     22  H   LIG d   1      11.204  11.083  -2.576  0.00  0.00     0.032 H 
ENDROOT
BRANCH   2  23
ATOM     23  O   LIG d   1       9.738   3.186  -4.537  0.00  0.00    -0.482 OA
BRANCH  23  24
ATOM     24  C   LIG d   1       9.491   2.124  -3.614  0.00  0.00     0.165 C 
ATOM     25  H   LIG d   1      10.311   1.406  -3.659  0.00  0.00     0.080 H 
ATOM     26  H   LIG d   1       9.419   2.529  -2.605  0.00  0.00     0.080 H 
BRANCH  24  27
ATOM     27  C   LIG d   1       8.200   1.436  -3.974  0.00  0.00     0.251 C 
ATOM     28  O   LIG d   1       7.247   2.090  -4.343  0.00  0.00    -0.272 OA
ATOM     29  N   LIG d   1       8.104   0.095  -3.885  0.00  0.00    -0.312 N 
ATOM     30  H   LIG d   1       8.866  -0.428  -3.589  0.00  0.00     0.149 HD
BRANCH  29  31
ATOM     31  C   LIG d   1       6.848  -0.574  -4.235  0.00  0.00     0.012 C 
ATOM     32  H   LIG d   1       6.041   0.159  -4.264  0.00  0.00     0.046 H 
ATOM     33  H   LIG d   1       6.947  -1.046  -5.212  0.00  0.00     0.046 H 
BRANCH  31  34
ATOM     34  C   LIG d   1       6.528  -1.641  -3.185  0.00  0.00    -0.037 C 
ATOM     35  H   LIG d   1       7.086  -2.550  -3.410  0.00  0.00     0.028 H 
ATOM     36  H   LIG d   1       6.813  -1.275  -2.198  0.00  0.00     0.028 H 
BRANCH  34  37
ATOM     37  C   LIG d   1       5.029  -1.943  -3.204  0.00  0.00    -0.051 C 
ATOM     38  H   LIG d   1       4.597  -1.585  -4.139  0.00  0.00     0.027 H 
ATOM     39  H   LIG d   1       4.874  -3.019  -3.121  0.00  0.00     0.027 H 
BRANCH  37  40
ATOM     40  C   LIG d   1       4.351  -1.238  -2.027  0.00  0.00    -0.048 C 
ATOM     41  H   LIG d   1       3.767  -1.963  -1.458  0.00  0.00     0.027 H 
ATOM     42  H   LIG d   1       5.110  -0.796  -1.383  0.00  0.00     0.027 H 
BRANCH  40  43
ATOM     43  C   LIG d   1       3.427  -0.139  -2.554  0.00  0.00    -0.013 C 
ATOM     44  H   LIG d   1       3.144  -0.364  -3.583  0.00  0.00     0.033 H 
ATOM     45  H   LIG d   1       2.531  -0.089  -1.934  0.00  0.00     0.033 H 
BRANCH  43  46
ATOM     46  C   LIG d   1       4.144   1.185  -2.509  0.00  0.00     0.042 C 
ATOM     47  O   LIG d   1       5.065   1.348  -1.744  0.00  0.00    -0.550 OA
ATOM     48  O   LIG d   1       3.760   2.185  -3.318  0.00  0.00    -0.550 OA
ENDBRANCH  43  46
ENDBRANCH  40  43
ENDBRANCH  37  40
ENDBRANCH  34  37
ENDBRANCH  31  34
ENDBRANCH  29  31
ENDBRANCH  24  27
ENDBRANCH  23  24
ENDBRANCH   2  23
BRANCH   1  49
ATOM     49  C   LIG d   1       9.732   5.328  -6.369  0.00  0.00    -0.033 C 
ATOM     50  H   LIG d   1       8.684   5.297  -6.667  0.00  0.00     0.028 H 
ATOM     51  H   LIG d   1      10.231   6.151  -6.880  0.00  0.00     0.028 H 
ATOM     52  H   LIG d   1      10.213   4.388  -6.637  0.00  0.00     0.028 H 
ENDBRANCH   1  49
TORSDOF 10
ENDMDL
MODEL 4
REMARK VINA RESULT:      -6.6      6.749     10.116
REMARK  10 active torsions:
REMARK  status: ('A' for Active; 'I' for Inactive)
REMARK    1  A    between atoms: C_1  and  C_2 
REMARK    2  A    between atoms: C_3  and  O_16 
REMARK    3  A    between atoms: O_16  and  C_17 
REMARK    4  A    between atoms: C_17  and  C_18 
REMARK       I    between atoms: C_18  and  N_20 
REMARK    5  A    between atoms: N_20  and  C_21 
REMARK    6  A    between atoms: C_21  and  C_22 
REMARK    7  A    between atoms: C_22  and  C_23 
REMARK    8  A    between atoms: C_23  and  C_24 
REMARK    9  A    between atoms: C_24  and  C_25 
REMARK   10  A    between atoms: C_25  and  C_26 
ROOT
ATOM      1  C   LIG d   1       9.932   5.615  -2.966  0.00  0.00     0.034 A 
ATOM      2  C   LIG d   1       9.714   4.441  -3.668  0.00  0.00     0.128 A 
ATOM      3  C   LIG d   1       9.464   4.470  -5.038  0.00  0.00    -0.019 A 
ATOM      4  C   LIG d   1       9.432   5.659  -5.710  0.00  0.00    -0.047 A 
ATOM      5  C   LIG d   1       9.651   6.854  -5.016  0.00  0.00     0.021 A 
ATOM      6  C   LIG d   1       9.903   6.831  -3.632  0.00  0.00     0.146 A 
ATOM      7  O   LIG d   1      10.107   7.988  -2.969  0.00  0.00    -0.422 OA
ATOM      8  C   LIG d   1      10.085   9.171  -3.599  0.00  0.00     0.341 A 
ATOM      9  O   LIG d   1      10.277  10.189  -2.958  0.00  0.00    -0.245 OA
ATOM     10  C   LIG d   1       9.840   9.272  -4.988  0.00  0.00     0.041 A 
ATOM     11  C   LIG d   1       9.623   8.144  -5.711  0.00  0.00    -0.027 A 
ATOM     12  C   LIG d   1       9.388   8.488  -7.164  0.00  0.00    -0.026 C 
ATOM     13  C   LIG d   1       9.910   9.932  -7.323  0.00  0.00    -0.045 C 
ATOM     14  C   LIG d   1       9.768  10.486  -5.888  0.00  0.00    -0.020 C 
ATOM     15  H   LIG d   1       9.295   3.548  -5.573  0.00  0.00     0.065 H 
ATOM     16  H   LIG d   1       9.238   5.675  -6.772  0.00  0.00     0.063 H 
ATOM     17  H   LIG d   1       9.946   7.810  -7.809  0.00  0.00     0.031 H 
ATOM     18  H   LIG d   1       8.323   8.443  -7.395  0.00  0.00     0.031 H 
ATOM     19  H   LIG d   1      10.953   9.936  -7.640  0.00  0.00     0.027 H 
ATOM     20  H   LIG d   1       9.291  10.496  -8.021  0.00  0.00     0.027 H 
ATOM     21  H   LIG d   1      10.585  11.172  -5.665  0.00  0.00     0.032 H 
ATOM     22  H   LIG d   1       8.808  10.989  -5.771  0.00  0.00     0.032 H 
ENDROOT
BRANCH   2  23
ATOM     23  O   LIG d   1       9.743   3.251  -3.015  0.00  0.00    -0.482 OA
BRANCH  23  24
ATOM     24  C   LIG d   1       9.743   2.069  -3.819  0.00  0.00     0.165 C 
ATOM     25  H   LIG d   1      10.044   2.322  -4.836  0.00  0.00     0.080 H 
ATOM     26  H   LIG d   1      10.444   1.346  -3.402  0.00  0.00     0.080 H 
BRANCH  24  27
ATOM     27  C   LIG d   1       8.359   1.475  -3.837  0.00  0.00     0.251 C 
ATOM     28  O   LIG d   1       7.413   2.127  -3.445  0.00  0.00    -0.272 OA
ATOM     29  N   LIG d   1       8.170   0.220  -4.290  0.00  0.00    -0.312 N 
ATOM     30  H   LIG d   1       8.926  -0.302  -4.603  0.00  0.00     0.149 HD
BRANCH  29  31
ATOM     31  C   LIG d   1       6.824  -0.358  -4.308  0.00  0.00     0.012 C 
ATOM     32  H   LIG d   1       6.088   0.429  -4.138  0.00  0.00     0.046 H 
ATOM     33  H   LIG d   1       6.641  -0.824  -5.276  0.00  0.00     0.046 H 
BRANCH  31  34
ATOM     34  C   LIG d   1       6.706  -1.412  -3.205  0.00  0.00    -0.037 C 
ATOM     35  H   LIG d   1       7.419  -2.215  -3.392  0.00  0.00     0.028 H 
ATOM     36  H   LIG d   1       6.921  -0.953  -2.239  0.00  0.00     0.028 H 
BRANCH  34  37
ATOM     37  C   LIG d   1       5.287  -1.982  -3.193  0.00  0.00    -0.051 C 
ATOM     38  H   LIG d   1       4.788  -1.737  -4.131  0.00  0.00     0.027 H 
ATOM     39  H   LIG d   1       5.332  -3.066  -3.078  0.00  0.00     0.027 H 
BRANCH  37  40
ATOM     40  C   LIG d   1       4.503  -1.378  -2.026  0.00  0.00    -0.048 C 
ATOM     41  H   LIG d   1       3.945  -2.165  -1.518  0.00  0.00     0.027 H 
ATOM     42  H   LIG d   1       5.196  -0.913  -1.326  0.00  0.00     0.027 H 
BRANCH  40  43
ATOM     43  C   LIG d   1       3.530  -0.324  -2.557  0.00  0.00    -0.013 C 
ATOM     44  H   LIG d   1       3.380  -0.473  -3.626  0.00  0.00     0.033 H 
ATOM     45  H   LIG d   1       2.575  -0.417  -2.039  0.00  0.00     0.033 H 
BRANCH  43  46
ATOM     46  C   LIG d   1       4.099   1.051  -2.316  0.00  0.00     0.042 C 
ATOM     47  O   LIG d   1       4.770   1.264  -1.334  0.00  0.00    -0.550 OA
ATOM     48  O   LIG d   1       3.860   2.039  -3.192  0.00  0.00    -0.550 OA
ENDBRANCH  43  46
ENDBRANCH  40  43
ENDBRANCH  37  40
ENDBRANCH  34  37
ENDBRANCH  31  34
ENDBRANCH  29  31
ENDBRANCH  24  27
ENDBRANCH  23  24
ENDBRANCH   2  23
BRANCH   1  49
ATOM     49  C   LIG d   1      10.202   5.572  -1.484  0.00  0.00    -0.033 C 
ATOM     50  H   LIG d   1       9.322   5.193  -0.966  0.00  0.00     0.028 H 
ATOM     51  H   LIG d   1      11.050   4.915  -1.289  0.00  0.00     0.028 H 
ATOM     52  H   LIG d   1      10.430   6.575  -1.127  0.00  0.00     0.028 H 
ENDBRANCH   1  49
TORSDOF 10
ENDMDL
MODEL 5
REMARK VINA RESULT:      -6.5      5.479      9.204
REMARK  10 active torsions:
REMARK  status: ('A' for Active; 'I' for Inactive)
REMARK    1  A    between atoms: C_1  and  C_2 
REMARK    2  A    between atoms: C_3  and  O_16 
REMARK    3  A    between atoms: O_16  and  C_17 
REMARK    4  A    between atoms: C_17  and  C_18 
REMARK       I    between atoms: C_18  and  N_20 
REMARK    5  A    between atoms: N_20  and  C_21 
REMARK    6  A    between atoms: C_21  and  C_22 
REMARK    7  A    between atoms: C_22  and  C_23 
REMARK    8  A    between atoms: C_23  and  C_24 
REMARK    9  A    between atoms: C_24  and  C_25 
REMARK   10  A    between atoms: C_25  and  C_26 
ROOT
ATOM      1  C   LIG d   1       9.317   3.226  -5.928  0.00  0.00     0.034 A 
ATOM      2  C   LIG d   1       9.334   2.000  -5.281  0.00  0.00     0.128 A 
ATOM      3  C   LIG d   1       9.526   1.929  -3.903  0.00  0.00    -0.019 A 
ATOM      4  C   LIG d   1       9.700   3.067  -3.170  0.00  0.00    -0.047 A 
ATOM      5  C   LIG d   1       9.684   4.313  -3.806  0.00  0.00     0.021 A 
ATOM      6  C   LIG d   1       9.491   4.391  -5.198  0.00  0.00     0.146 A 
ATOM      7  O   LIG d   1       9.485   5.596  -5.806  0.00  0.00    -0.422 OA
ATOM      8  C   LIG d   1       9.649   6.732  -5.114  0.00  0.00     0.341 A 
ATOM      9  O   LIG d   1       9.633   7.796  -5.708  0.00  0.00    -0.245 OA
ATOM     10  C   LIG d   1       9.846   6.731  -3.714  0.00  0.00     0.041 A 
ATOM     11  C   LIG d   1       9.867   5.551  -3.044  0.00  0.00    -0.027 A 
ATOM     12  C   LIG d   1      10.087   5.789  -1.568  0.00  0.00    -0.026 C 
ATOM     13  C   LIG d   1       9.771   7.284  -1.351  0.00  0.00    -0.045 C 
ATOM     14  C   LIG d   1      10.053   7.878  -2.750  0.00  0.00    -0.020 C 
ATOM     15  H   LIG d   1       9.538   0.967  -3.412  0.00  0.00     0.065 H 
ATOM     16  H   LIG d   1       9.848   3.005  -2.102  0.00  0.00     0.063 H 
ATOM     17  H   LIG d   1       9.410   5.169  -0.980  0.00  0.00     0.031 H 
ATOM     18  H   LIG d   1      11.123   5.578  -1.302  0.00  0.00     0.031 H 
ATOM     19  H   LIG d   1       8.727   7.425  -1.072  0.00  0.00     0.027 H 
ATOM     20  H   LIG d   1      10.435   7.719  -0.603  0.00  0.00     0.027 H 
ATOM     21  H   LIG d   1       9.354   8.685  -2.965  0.00  0.00     0.032 H 
ATOM     22  H   LIG d   1      11.079   8.241  -2.805  0.00  0.00     0.032 H 
ENDROOT
BRANCH   2  23
ATOM     23  O   LIG d   1       9.162   0.859  -5.996  0.00  0.00    -0.482 OA
BRANCH  23  24
ATOM     24  C   LIG d   1       8.628  -0.269  -5.301  0.00  0.00     0.165 C 
ATOM     25  H   LIG d   1       9.095  -1.181  -5.675  0.00  0.00     0.080 H 
ATOM     26  H   LIG d   1       8.832  -0.168  -4.235  0.00  0.00     0.080 H 
BRANCH  24  27
ATOM     27  C   LIG d   1       7.140  -0.338  -5.524  0.00  0.00     0.251 C 
ATOM     28  O   LIG d   1       6.620   0.358  -6.371  0.00  0.00    -0.272 OA
ATOM     29  N   LIG d   1       6.385  -1.174  -4.783  0.00  0.00    -0.312 N 
ATOM     30  H   LIG d   1       6.800  -1.730  -4.105  0.00  0.00     0.149 HD
BRANCH  29  31
ATOM     31  C   LIG d   1       4.938  -1.241  -5.000  0.00  0.00     0.012 C 
ATOM     32  H   LIG d   1       4.505  -0.249  -4.872  0.00  0.00     0.046 H 
ATOM     33  H   LIG d   1       4.738  -1.599  -6.009  0.00  0.00     0.046 H 
BRANCH  31  34
ATOM     34  C   LIG d   1       4.314  -2.203  -3.986  0.00  0.00    -0.037 C 
ATOM     35  H   LIG d   1       3.598  -2.850  -4.492  0.00  0.00     0.028 H 
ATOM     36  H   LIG d   1       5.098  -2.812  -3.533  0.00  0.00     0.028 H 
BRANCH  34  37
ATOM     37  C   LIG d   1       3.598  -1.402  -2.896  0.00  0.00    -0.051 C 
ATOM     38  H   LIG d   1       3.057  -0.573  -3.351  0.00  0.00     0.027 H 
ATOM     39  H   LIG d   1       2.895  -2.051  -2.372  0.00  0.00     0.027 H 
BRANCH  37  40
ATOM     40  C   LIG d   1       4.627  -0.857  -1.904  0.00  0.00    -0.048 C 
ATOM     41  H   LIG d   1       4.589  -1.443  -0.985  0.00  0.00     0.027 H 
ATOM     42  H   LIG d   1       5.623  -0.926  -2.338  0.00  0.00     0.027 H 
BRANCH  40  43
ATOM     43  C   LIG d   1       4.307   0.605  -1.590  0.00  0.00    -0.013 C 
ATOM     44  H   LIG d   1       3.233   0.719  -1.441  0.00  0.00     0.033 H 
ATOM     45  H   LIG d   1       4.833   0.906  -0.682  0.00  0.00     0.033 H 
BRANCH  43  46
ATOM     46  C   LIG d   1       4.751   1.474  -2.738  0.00  0.00     0.042 C 
ATOM     47  O   LIG d   1       3.937   2.112  -3.363  0.00  0.00    -0.550 OA
ATOM     48  O   LIG d   1       6.050   1.541  -3.067  0.00  0.00    -0.550 OA
ENDBRANCH  43  46
ENDBRANCH  40  43
ENDBRANCH  37  40
ENDBRANCH  34  37
ENDBRANCH  31  34
ENDBRANCH  29  31
ENDBRANCH  24  27
ENDBRANCH  23  24
ENDBRANCH   2  23
BRANCH   1  49
ATOM     49  C   LIG d   1       9.107   3.291  -7.419  0.00  0.00    -0.033 C 
ATOM     50  H   LIG d   1       9.416   2.349  -7.870  0.00  0.00     0.028 H 
ATOM     51  H   LIG d   1       8.053   3.467  -7.630  0.00  0.00     0.028 H 
ATOM     52  H   LIG d   1       9.702   4.104  -7.834  0.00  0.00     0.028 H 
ENDBRANCH   1  49
TORSDOF 10
ENDMDL
MODEL 6
REMARK VINA RESULT:      -6.5      6.537     11.224
REMARK  10 active torsions:
REMARK  status: ('A' for Active; 'I' for Inactive)
REMARK    1  A    between atoms: C_1  and  C_2 
REMARK    2  A    between atoms: C_3  and  O_16 
REMARK    3  A    between atoms: O_16  and  C_17 
REMARK    4  A    between atoms: C_17  and  C_18 
REMARK       I    between atoms: C_18  and  N_20 
REMARK    5  A    between atoms: N_20  and  C_21 
REMARK    6  A    between atoms: C_21  and  C_22 
REMARK    7  A    between atoms: C_22  and  C_23 
REMARK    8  A    between atoms: C_23  and  C_24 
REMARK    9  A    between atoms: C_24  and  C_25 
REMARK   10  A    between atoms: C_25  and  C_26 
ROOT
ATOM      1  C   LIG d   1       9.533   5.964  -4.226  0.00  0.00     0.034 A 
ATOM      2  C   LIG d   1       9.600   4.596  -4.436  0.00  0.00     0.128 A 
ATOM      3  C   LIG d   1      10.057   3.747  -3.431  0.00  0.00    -0.019 A 
ATOM      4  C   LIG d   1      10.444   4.251  -2.223  0.00  0.00    -0.047 A 
ATOM      5  C   LIG d   1      10.382   5.630  -1.994  0.00  0.00     0.021 A 
ATOM      6  C   LIG d   1       9.922   6.493  -3.006  0.00  0.00     0.146 A 
ATOM      7  O   LIG d   1       9.872   7.823  -2.780  0.00  0.00    -0.422 OA
ATOM      8  C   LIG d   1      10.242   8.349  -1.604  0.00  0.00     0.341 A 
ATOM      9  O   LIG d   1      10.176   9.555  -1.447  0.00  0.00    -0.245 OA
ATOM     10  C   LIG d   1      10.712   7.544  -0.541  0.00  0.00     0.041 A 
ATOM     11  C   LIG d   1      10.791   6.199  -0.707  0.00  0.00    -0.027 A 
ATOM     12  C   LIG d   1      11.314   5.544   0.551  0.00  0.00    -0.026 C 
ATOM     13  C   LIG d   1      11.143   6.607   1.657  0.00  0.00    -0.045 C 
ATOM     14  C   LIG d   1      11.179   7.923   0.847  0.00  0.00    -0.020 C 
ATOM     15  H   LIG d   1      10.104   2.683  -3.608  0.00  0.00     0.065 H 
ATOM     16  H   LIG d   1      10.797   3.588  -1.448  0.00  0.00     0.063 H 
ATOM     17  H   LIG d   1      10.729   4.655   0.786  0.00  0.00     0.031 H 
ATOM     18  H   LIG d   1      12.367   5.286   0.433  0.00  0.00     0.031 H 
ATOM     19  H   LIG d   1      10.185   6.490   2.166  0.00  0.00     0.027 H 
ATOM     20  H   LIG d   1      11.967   6.566   2.369  0.00  0.00     0.027 H 
ATOM     21  H   LIG d   1      10.504   8.656   1.287  0.00  0.00     0.032 H 
ATOM     22  H   LIG d   1      12.195   8.317   0.813  0.00  0.00     0.032 H 
ENDROOT
BRANCH   2  23
ATOM     23  O   LIG d   1       9.217   4.079  -5.632  0.00  0.00    -0.482 OA
BRANCH  23  24
ATOM     24  C   LIG d   1       9.608   2.733  -5.912  0.00  0.00     0.165 C 
ATOM     25  H   LIG d   1      10.091   2.691  -6.889  0.00  0.00     0.080 H 
ATOM     26  H   LIG d   1      10.305   2.391  -5.147  0.00  0.00     0.080 H 
BRANCH  24  27
ATOM     27  C   LIG d   1       8.389   1.847  -5.915  0.00  0.00     0.251 C 
ATOM     28  O   LIG d   1       7.623   1.873  -6.855  0.00  0.00    -0.272 OA
ATOM     29  N   LIG d   1       8.151   1.026  -4.874  0.00  0.00    -0.312 N 
ATOM     30  H   LIG d   1       8.763   1.005  -4.121  0.00  0.00     0.149 HD
BRANCH  29  31
ATOM     31  C   LIG d   1       6.966   0.163  -4.877  0.00  0.00     0.012 C 
ATOM     32  H   LIG d   1       6.152   0.666  -5.401  0.00  0.00     0.046 H 
ATOM     33  H   LIG d   1       7.199  -0.774  -5.381  0.00  0.00     0.046 H 
BRANCH  31  34
ATOM     34  C   LIG d   1       6.541  -0.125  -3.436  0.00  0.00    -0.037 C 
ATOM     35  H   LIG d   1       5.825  -0.947  -3.426  0.00  0.00     0.028 H 
ATOM     36  H   LIG d   1       7.417  -0.400  -2.847  0.00  0.00     0.028 H 
BRANCH  34  37
ATOM     37  C   LIG d   1       5.894   1.123  -2.834  0.00  0.00    -0.051 C 
ATOM     38  H   LIG d   1       6.634   1.673  -2.253  0.00  0.00     0.027 H 
ATOM     39  H   LIG d   1       5.517   1.759  -3.636  0.00  0.00     0.027 H 
BRANCH  37  40
ATOM     40  C   LIG d   1       4.736   0.710  -1.924  0.00  0.00    -0.048 C 
ATOM     41  H   LIG d   1       4.700  -0.377  -1.853  0.00  0.00     0.027 H 
ATOM     42  H   LIG d   1       4.885   1.135  -0.932  0.00  0.00     0.027 H 
BRANCH  40  43
ATOM     43  C   LIG d   1       3.419   1.227  -2.507  0.00  0.00    -0.013 C 
ATOM     44  H   LIG d   1       2.654   1.231  -1.730  0.00  0.00     0.033 H 
ATOM     45  H   LIG d   1       3.561   2.242  -2.881  0.00  0.00     0.033 H 
BRANCH  43  46
ATOM     46  C   LIG d   1       2.984   0.331  -3.637  0.00  0.00     0.042 C 
ATOM     47  O   LIG d   1       2.563  -0.777  -3.402  0.00  0.00    -0.550 OA
ATOM     48  O   LIG d   1       3.062   0.763  -4.905  0.00  0.00    -0.550 OA
ENDBRANCH  43  46
ENDBRANCH  40  43
ENDBRANCH  37  40
ENDBRANCH  34  37
ENDBRANCH  31  34
ENDBRANCH  29  31
ENDBRANCH  24  27
ENDBRANCH  23  24
ENDBRANCH   2  23
BRANCH   1  49
ATOM     49  C   LIG d   1       9.037   6.874  -5.321  0.00  0.00    -0.033 C 
ATOM     50  H   LIG d   1       9.525   6.613  -6.259  0.00  0.00     0.028 H 
ATOM     51  H   LIG d   1       7.958   6.758  -5.428  0.00  0.00     0.028 H 
ATOM     52  H   LIG d   1       9.268   7.908  -5.066  0.00  0.00     0.028 H 
ENDBRANCH   1  49
TORSDOF 10
ENDMDL
MODEL 7
REMARK VINA RESULT:      -6.4      6.403     11.274
REMARK  10 active torsions:
REMARK  status: ('A' for Active; 'I' for Inactive)
REMARK    1  A    between atoms: C_1  and  C_2 
REMARK    2  A    between atoms: C_3  and  O_16 
REMARK    3  A    between atoms: O_16  and  C_17 
REMARK    4  A    between atoms: C_17  and  C_18 
REMARK       I    between atoms: C_18  and  N_20 
REMARK    5  A    between atoms: N_20  and  C_21 
REMARK    6  A    between atoms: C_21  and  C_22 
REMARK    7  A    between atoms: C_22  and  C_23 
REMARK    8  A    between atoms: C_23  and  C_24 
REMARK    9  A    between atoms: C_24  and  C_25 
REMARK   10  A    between atoms: C_25  and  C_26 
ROOT
ATOM      1  C   LIG d   1      10.373   4.120  -2.963  0.00  0.00     0.034 A 
ATOM      2  C   LIG d   1       9.814   4.313  -4.216  0.00  0.00     0.128 A 
ATOM      3  C   LIG d   1       9.337   5.567  -4.593  0.00  0.00    -0.019 A 
ATOM      4  C   LIG d   1       9.414   6.623  -3.733  0.00  0.00    -0.047 A 
ATOM      5  C   LIG d   1       9.976   6.446  -2.464  0.00  0.00     0.021 A 
ATOM      6  C   LIG d   1      10.459   5.182  -2.077  0.00  0.00     0.146 A 
ATOM      7  O   LIG d   1      10.993   5.017  -0.849  0.00  0.00    -0.422 OA
ATOM      8  C   LIG d   1      11.087   6.035   0.019  0.00  0.00     0.341 A 
ATOM      9  O   LIG d   1      11.580   5.837   1.115  0.00  0.00    -0.245 OA
ATOM     10  C   LIG d   1      10.625   7.332  -0.301  0.00  0.00     0.041 A 
ATOM     11  C   LIG d   1      10.072   7.563  -1.519  0.00  0.00    -0.027 A 
ATOM     12  C   LIG d   1       9.654   9.010  -1.642  0.00  0.00    -0.026 C 
ATOM     13  C   LIG d   1      10.406   9.741  -0.509  0.00  0.00    -0.045 C 
ATOM     14  C   LIG d   1      10.627   8.606   0.515  0.00  0.00    -0.020 C 
ATOM     15  H   LIG d   1       8.903   5.703  -5.573  0.00  0.00     0.065 H 
ATOM     16  H   LIG d   1       9.042   7.592  -4.031  0.00  0.00     0.063 H 
ATOM     17  H   LIG d   1       9.950   9.408  -2.612  0.00  0.00     0.031 H 
ATOM     18  H   LIG d   1       8.576   9.104  -1.504  0.00  0.00     0.031 H 
ATOM     19  H   LIG d   1      11.358  10.136  -0.865  0.00  0.00     0.027 H 
ATOM     20  H   LIG d   1       9.792  10.535  -0.083  0.00  0.00     0.027 H 
ATOM     21  H   LIG d   1      11.586   8.732   1.017  0.00  0.00     0.032 H 
ATOM     22  H   LIG d   1       9.817   8.592   1.244  0.00  0.00     0.032 H 
ENDROOT
BRANCH   2  23
ATOM     23  O   LIG d   1       9.731   3.272  -5.084  0.00  0.00    -0.482 OA
BRANCH  23  24
ATOM     24  C   LIG d   1       8.423   2.877  -5.499  0.00  0.00     0.165 C 
ATOM     25  H   LIG d   1       7.686   3.571  -5.092  0.00  0.00     0.080 H 
ATOM     26  H   LIG d   1       8.368   2.888  -6.588  0.00  0.00     0.080 H 
BRANCH  24  27
ATOM     27  C   LIG d   1       8.135   1.486  -4.995  0.00  0.00     0.251 C 
ATOM     28  O   LIG d   1       8.949   0.602  -5.157  0.00  0.00    -0.272 OA
ATOM     29  N   LIG d   1       6.973   1.225  -4.364  0.00  0.00    -0.312 N 
ATOM     30  H   LIG d   1       6.321   1.932  -4.235  0.00  0.00     0.149 HD
BRANCH  29  31
ATOM     31  C   LIG d   1       6.693  -0.127  -3.874  0.00  0.00     0.012 C 
ATOM     32  H   LIG d   1       6.200  -0.703  -4.658  0.00  0.00     0.046 H 
ATOM     33  H   LIG d   1       7.627  -0.614  -3.597  0.00  0.00     0.046 H 
BRANCH  31  34
ATOM     34  C   LIG d   1       5.779  -0.047  -2.650  0.00  0.00    -0.037 C 
ATOM     35  H   LIG d   1       5.095  -0.896  -2.651  0.00  0.00     0.028 H 
ATOM     36  H   LIG d   1       6.383  -0.069  -1.743  0.00  0.00     0.028 H 
BRANCH  34  37
ATOM     37  C   LIG d   1       4.977   1.255  -2.696  0.00  0.00    -0.051 C 
ATOM     38  H   LIG d   1       5.380   1.957  -1.966  0.00  0.00     0.027 H 
ATOM     39  H   LIG d   1       5.047   1.690  -3.694  0.00  0.00     0.027 H 
BRANCH  37  40
ATOM     40  C   LIG d   1       3.511   0.964  -2.369  0.00  0.00    -0.048 C 
ATOM     41  H   LIG d   1       3.442   0.518  -1.376  0.00  0.00     0.027 H 
ATOM     42  H   LIG d   1       2.942   1.893  -2.391  0.00  0.00     0.027 H 
BRANCH  40  43
ATOM     43  C   LIG d   1       2.940  -0.007  -3.404  0.00  0.00    -0.013 C 
ATOM     44  H   LIG d   1       3.524  -0.927  -3.401  0.00  0.00     0.033 H 
ATOM     45  H   LIG d   1       1.903  -0.235  -3.157  0.00  0.00     0.033 H 
BRANCH  43  46
ATOM     46  C   LIG d   1       3.003   0.623  -4.772  0.00  0.00     0.042 C 
ATOM     47  O   LIG d   1       3.598   0.068  -5.665  0.00  0.00    -0.550 OA
ATOM     48  O   LIG d   1       2.399   1.799  -4.998  0.00  0.00    -0.550 OA
ENDBRANCH  43  46
ENDBRANCH  40  43
ENDBRANCH  37  40
ENDBRANCH  34  37
ENDBRANCH  31  34
ENDBRANCH  29  31
ENDBRANCH  24  27
ENDBRANCH  23  24
ENDBRANCH   2  23
BRANCH   1  49
ATOM     49  C   LIG d   1      10.887   2.760  -2.566  0.00  0.00    -0.033 C 
ATOM     50  H   LIG d   1      11.865   2.595  -3.018  0.00  0.00     0.028 H 
ATOM     51  H   LIG d   1      10.975   2.708  -1.481  0.00  0.00     0.028 H 
ATOM     52  H   LIG d   1      10.193   1.994  -2.911  0.00  0.00     0.028 H 
ENDBRANCH   1  49
TORSDOF 10
ENDMDL
MODEL 8
REMARK VINA RESULT:      -6.3      4.026      7.094
REMARK  10 active torsions:
REMARK  status: ('A' for Active; 'I' for Inactive)
REMARK    1  A    between atoms: C_1  and  C_2 
REMARK    2  A    between atoms: C_3  and  O_16 
REMARK    3  A    between atoms: O_16  and  C_17 
REMARK    4  A    between atoms: C_17  and  C_18 
REMARK       I    between atoms: C_18  and  N_20 
REMARK    5  A    between atoms: N_20  and  C_21 
REMARK    6  A    between atoms: C_21  and  C_22 
REMARK    7  A    between atoms: C_22  and  C_23 
REMARK    8  A    between atoms: C_23  and  C_24 
REMARK    9  A    between atoms: C_24  and  C_25 
REMARK   10  A    between atoms: C_25  and  C_26 
ROOT
ATOM      1  C   LIG d   1       6.888  -3.607  -5.938  0.00  0.00     0.034 A 
ATOM      2  C   LIG d   1       5.699  -3.085  -6.421  0.00  0.00     0.128 A 
ATOM      3  C   LIG d   1       4.578  -3.898  -6.570  0.00  0.00    -0.019 A 
ATOM      4  C   LIG d   1       4.635  -5.221  -6.241  0.00  0.00    -0.047 A 
ATOM      5  C   LIG d   1       5.828  -5.765  -5.751  0.00  0.00     0.021 A 
ATOM      6  C   LIG d   1       6.964  -4.949  -5.599  0.00  0.00     0.146 A 
ATOM      7  O   LIG d   1       8.113  -5.481  -5.133  0.00  0.00    -0.422 OA
ATOM      8  C   LIG d   1       8.201  -6.776  -4.798  0.00  0.00     0.341 A 
ATOM      9  O   LIG d   1       9.259  -7.210  -4.379  0.00  0.00    -0.245 OA
ATOM     10  C   LIG d   1       7.100  -7.655  -4.922  0.00  0.00     0.041 A 
ATOM     11  C   LIG d   1       5.918  -7.182  -5.390  0.00  0.00    -0.027 A 
ATOM     12  C   LIG d   1       4.890  -8.289  -5.436  0.00  0.00    -0.026 C 
ATOM     13  C   LIG d   1       5.463  -9.405  -4.536  0.00  0.00    -0.045 C 
ATOM     14  C   LIG d   1       6.981  -9.131  -4.611  0.00  0.00    -0.020 C 
ATOM     15  H   LIG d   1       3.658  -3.478  -6.948  0.00  0.00     0.065 H 
ATOM     16  H   LIG d   1       3.762  -5.847  -6.359  0.00  0.00     0.063 H 
ATOM     17  H   LIG d   1       3.936  -7.937  -5.042  0.00  0.00     0.031 H 
ATOM     18  H   LIG d   1       4.769  -8.650  -6.457  0.00  0.00     0.031 H 
ATOM     19  H   LIG d   1       5.099  -9.306  -3.513  0.00  0.00     0.027 H 
ATOM     20  H   LIG d   1       5.225 -10.391  -4.938  0.00  0.00     0.027 H 
ATOM     21  H   LIG d   1       7.454  -9.356  -3.655  0.00  0.00     0.032 H 
ATOM     22  H   LIG d   1       7.433  -9.725  -5.406  0.00  0.00     0.032 H 
ENDROOT
BRANCH   2  23
ATOM     23  O   LIG d   1       5.626  -1.770  -6.751  0.00  0.00    -0.482 OA
BRANCH  23  24
ATOM     24  C   LIG d   1       4.442  -1.335  -7.422  0.00  0.00     0.165 C 
ATOM     25  H   LIG d   1       4.714  -0.829  -8.349  0.00  0.00     0.080 H 
ATOM     26  H   LIG d   1       3.815  -2.197  -7.649  0.00  0.00     0.080 H 
BRANCH  24  27
ATOM     27  C   LIG d   1       3.684  -0.381  -6.535  0.00  0.00     0.251 C 
ATOM     28  O   LIG d   1       3.440   0.742  -6.921  0.00  0.00    -0.272 OA
ATOM     29  N   LIG d   1       3.277  -0.777  -5.313  0.00  0.00    -0.312 N 
ATOM     30  H   LIG d   1       3.472  -1.676  -5.003  0.00  0.00     0.149 HD
BRANCH  29  31
ATOM     31  C   LIG d   1       2.540   0.150  -4.450  0.00  0.00     0.012 C 
ATOM     32  H   LIG d   1       3.054   1.112  -4.427  0.00  0.00     0.046 H 
ATOM     33  H   LIG d   1       1.532   0.286  -4.839  0.00  0.00     0.046 H 
BRANCH  31  34
ATOM     34  C   LIG d   1       2.466  -0.421  -3.032  0.00  0.00    -0.037 C 
ATOM     35  H   LIG d   1       2.750   0.349  -2.315  0.00  0.00     0.028 H 
ATOM     36  H   LIG d   1       1.447  -0.751  -2.826  0.00  0.00     0.028 H 
BRANCH  34  37
ATOM     37  C   LIG d   1       3.420  -1.610  -2.911  0.00  0.00    -0.051 C 
ATOM     38  H   LIG d   1       2.891  -2.459  -2.477  0.00  0.00     0.027 H 
ATOM     39  H   LIG d   1       3.792  -1.881  -3.900  0.00  0.00     0.027 H 
BRANCH  37  40
ATOM     40  C   LIG d   1       4.598  -1.230  -2.010  0.00  0.00    -0.048 C 
ATOM     41  H   LIG d   1       4.373  -0.296  -1.495  0.00  0.00     0.027 H 
ATOM     42  H   LIG d   1       4.764  -2.019  -1.278  0.00  0.00     0.027 H 
BRANCH  40  43
ATOM     43  C   LIG d   1       5.855  -1.052  -2.863  0.00  0.00    -0.013 C 
ATOM     44  H   LIG d   1       6.734  -1.321  -2.276  0.00  0.00     0.033 H 
ATOM     45  H   LIG d   1       5.794  -1.698  -3.741  0.00  0.00     0.033 H 
BRANCH  43  46
ATOM     46  C   LIG d   1       5.965   0.384  -3.304  0.00  0.00     0.042 C 
ATOM     47  O   LIG d   1       5.831   1.275  -2.498  0.00  0.00    -0.550 OA
ATOM     48  O   LIG d   1       6.212   0.676  -4.590  0.00  0.00    -0.550 OA
ENDBRANCH  43  46
ENDBRANCH  40  43
ENDBRANCH  37  40
ENDBRANCH  34  37
ENDBRANCH  31  34
ENDBRANCH  29  31
ENDBRANCH  24  27
ENDBRANCH  23  24
ENDBRANCH   2  23
BRANCH   1  49
ATOM     49  C   LIG d   1       8.095  -2.718  -5.780  0.00  0.00    -0.033 C 
ATOM     50  H   LIG d   1       8.441  -2.397  -6.762  0.00  0.00     0.028 H 
ATOM     51  H   LIG d   1       7.828  -1.845  -5.185  0.00  0.00     0.028 H 
ATOM     52  H   LIG d   1       8.890  -3.270  -5.278  0.00  0.00     0.028 H 
ENDBRANCH   1  49
TORSDOF 10
ENDMDL
MODEL 9
REMARK VINA RESULT:      -6.2      2.732      8.158
REMARK  10 active torsions:
REMARK  status: ('A' for Active; 'I' for Inactive)
REMARK    1  A    between atoms: C_1  and  C_2 
REMARK    2  A    between atoms: C_3  and  O_16 
REMARK    3  A    between atoms: O_16  and  C_17 
REMARK    4  A    between atoms: C_17  and  C_18 
REMARK       I    between atoms: C_18  and  N_20 
REMARK    5  A    between atoms: N_20  and  C_21 
REMARK    6  A    between atoms: C_21  and  C_22 
REMARK    7  A    between atoms: C_22  and  C_23 
REMARK    8  A    between atoms: C_23  and  C_24 
REMARK    9  A    between atoms: C_24  and  C_25 
REMARK   10  A    between atoms: C_25  and  C_26 
ROOT
ATOM      1  C   LIG d   1       7.777   0.741  -5.885  0.00  0.00     0.034 A 
ATOM      2  C   LIG d   1       8.125  -0.140  -6.896  0.00  0.00     0.128 A 
ATOM      3  C   LIG d   1       7.624  -1.440  -6.907  0.00  0.00    -0.019 A 
ATOM      4  C   LIG d   1       6.781  -1.864  -5.921  0.00  0.00    -0.047 A 
ATOM      5  C   LIG d   1       6.418  -0.988  -4.893  0.00  0.00     0.021 A 
ATOM      6  C   LIG d   1       6.922   0.326  -4.876  0.00  0.00     0.146 A 
ATOM      7  O   LIG d   1       6.573   1.164  -3.876  0.00  0.00    -0.422 OA
ATOM      8  C   LIG d   1       5.745   0.779  -2.895  0.00  0.00     0.341 A 
ATOM      9  O   LIG d   1       5.457   1.572  -2.017  0.00  0.00    -0.245 OA
ATOM     10  C   LIG d   1       5.198  -0.524  -2.849  0.00  0.00     0.041 A 
ATOM     11  C   LIG d   1       5.514  -1.416  -3.822  0.00  0.00    -0.027 A 
ATOM     12  C   LIG d   1       4.820  -2.734  -3.572  0.00  0.00    -0.026 C 
ATOM     13  C   LIG d   1       3.700  -2.412  -2.560  0.00  0.00    -0.045 C 
ATOM     14  C   LIG d   1       4.261  -1.162  -1.847  0.00  0.00    -0.020 C 
ATOM     15  H   LIG d   1       7.905  -2.116  -7.701  0.00  0.00     0.065 H 
ATOM     16  H   LIG d   1       6.396  -2.873  -5.936  0.00  0.00     0.063 H 
ATOM     17  H   LIG d   1       4.394  -3.119  -4.498  0.00  0.00     0.031 H 
ATOM     18  H   LIG d   1       5.519  -3.455  -3.147  0.00  0.00     0.031 H 
ATOM     19  H   LIG d   1       2.765  -2.181  -3.072  0.00  0.00     0.027 H 
ATOM     20  H   LIG d   1       3.563  -3.233  -1.855  0.00  0.00     0.027 H 
ATOM     21  H   LIG d   1       3.453  -0.476  -1.594  0.00  0.00     0.032 H 
ATOM     22  H   LIG d   1       4.805  -1.452  -0.948  0.00  0.00     0.032 H 
ENDROOT
BRANCH   2  23
ATOM     23  O   LIG d   1       8.962   0.267  -7.885  0.00  0.00    -0.482 OA
BRANCH  23  24
ATOM     24  C   LIG d   1       8.433   0.299  -9.211  0.00  0.00     0.165 C 
ATOM     25  H   LIG d   1       9.239   0.494  -9.920  0.00  0.00     0.080 H 
ATOM     26  H   LIG d   1       7.971  -0.660  -9.442  0.00  0.00     0.080 H 
BRANCH  24  27
ATOM     27  C   LIG d   1       7.400   1.392  -9.313  0.00  0.00     0.251 C 
ATOM     28  O   LIG d   1       7.750   2.549  -9.419  0.00  0.00    -0.272 OA
ATOM     29  N   LIG d   1       6.089   1.084  -9.287  0.00  0.00    -0.312 N 
ATOM     30  H   LIG d   1       5.809   0.159  -9.202  0.00  0.00     0.149 HD
BRANCH  29  31
ATOM     31  C   LIG d   1       5.085   2.146  -9.387  0.00  0.00     0.012 C 
ATOM     32  H   LIG d   1       4.838   2.508  -8.388  0.00  0.00     0.046 H 
ATOM     33  H   LIG d   1       5.481   2.967  -9.983  0.00  0.00     0.046 H 
BRANCH  31  34
ATOM     34  C   LIG d   1       3.823   1.595 -10.054  0.00  0.00    -0.037 C 
ATOM     35  H   LIG d   1       3.518   2.262 -10.861  0.00  0.00     0.028 H 
ATOM     36  H   LIG d   1       4.030   0.605 -10.462  0.00  0.00     0.028 H 
BRANCH  34  37
ATOM     37  C   LIG d   1       2.700   1.496  -9.021  0.00  0.00    -0.051 C 
ATOM     38  H   LIG d   1       3.005   1.997  -8.102  0.00  0.00     0.027 H 
ATOM     39  H   LIG d   1       1.802   1.974  -9.414  0.00  0.00     0.027 H 
BRANCH  37  40
ATOM     40  C   LIG d   1       2.406   0.024  -8.726  0.00  0.00    -0.048 C 
ATOM     41  H   LIG d   1       3.337  -0.543  -8.746  0.00  0.00     0.027 H 
ATOM     42  H   LIG d   1       1.947  -0.065  -7.742  0.00  0.00     0.027 H 
BRANCH  40  43
ATOM     43  C   LIG d   1       1.450  -0.528  -9.785  0.00  0.00    -0.013 C 
ATOM     44  H   LIG d   1       0.465  -0.678  -9.343  0.00  0.00     0.033 H 
ATOM     45  H   LIG d   1       1.374   0.181 -10.610  0.00  0.00     0.033 H 
BRANCH  43  46
ATOM     46  C   LIG d   1       1.976  -1.843 -10.300  0.00  0.00     0.042 C 
ATOM     47  O   LIG d   1       3.052  -1.891 -10.848  0.00  0.00    -0.550 OA
ATOM     48  O   LIG d   1       1.249  -2.961 -10.150  0.00  0.00    -0.550 OA
ENDBRANCH  43  46
ENDBRANCH  40  43
ENDBRANCH  37  40
ENDBRANCH  34  37
ENDBRANCH  31  34
ENDBRANCH  29  31
ENDBRANCH  24  27
ENDBRANCH  23  24
ENDBRANCH   2  23
BRANCH   1  49
ATOM     49  C   LIG d   1       8.325   2.145  -5.882  0.00  0.00    -0.033 C 
ATOM     50  H   LIG d   1       9.396   2.117  -6.077  0.00  0.00     0.028 H 
ATOM     51  H   LIG d   1       7.829   2.729  -6.658  0.00  0.00     0.028 H 
ATOM     52  H   LIG d   1       8.144   2.604  -4.911  0.00  0.00     0.028 H 
ENDBRANCH   1  49
TORSDOF 10
ENDMDL
