MODEL 1
REMARK VINA RESULT:      -6.8      0.000      0.000
REMARK  24 active torsions:
REMARK  status: ('A' for Active; 'I' for Inactive)
REMARK    1  A    between atoms: C_1  and  C_2 
REMARK    2  A    between atoms: C_2  and  O_4 
REMARK    3  A    between atoms: O_4  and  C_5 
REMARK    4  A    between atoms: C_5  and  C_6 
REMARK    5  A    between atoms: C_5  and  C_7 
REMARK    6  A    between atoms: C_5  and  C_8 
REMARK    7  A    between atoms: C_9  and  C_10 
REMARK    8  A    between atoms: C_10  and  C_12 
REMARK    9  A    between atoms: C_12  and  C_13 
REMARK   10  A    between atoms: C_12  and  C_14 
REMARK   11  A    between atoms: C_12  and  O_60 
REMARK   12  A    between atoms: C_16  and  O_59 
REMARK   13  A    between atoms: C_19  and  C_58 
REMARK   14  A    between atoms: C_20  and  C_57 
REMARK   15  A    between atoms: C_24  and  C_56 
REMARK   16  A    between atoms: C_33  and  O_39 
REMARK   17  A    between atoms: C_36  and  C_37 
REMARK   18  A    between atoms: C_36  and  C_38 
REMARK   19  A    between atoms: O_39  and  C_40 
REMARK   20  A    between atoms: C_42  and  O_55 
REMARK   21  A    between atoms: C_44  and  O_54 
REMARK   22  A    between atoms: C_46  and  O_53 
REMARK   23  A    between atoms: C_48  and  C_51 
REMARK   24  A    between atoms: C_51  and  O_52 
ROOT
ATOM      1  C   LIG d   1       7.072  -1.792  -5.846  0.00  0.00     0.027 C 
ATOM      2  H   LIG d   1       6.130  -1.266  -5.908  0.00  0.00     0.036 H 
ATOM      3  C   LIG d   1       7.932  -1.574  -7.117  0.00  0.00     0.062 C 
ATOM      4  H   LIG d   1       8.962  -1.355  -6.843  0.00  0.00     0.060 H 
ATOM      5  C   LIG d   1       7.869  -2.903  -7.924  0.00  0.00    -0.020 C 
ATOM      6  C   LIG d   1       6.637  -3.614  -7.311  0.00  0.00    -0.019 C 
ATOM      7  C   LIG d   1       6.857  -3.322  -5.814  0.00  0.00    -0.011 C 
ATOM      8  C   LIG d   1       5.685  -3.784  -4.989  0.00  0.00     0.013 C 
ATOM      9  C   LIG d   1       5.092  -5.048  -5.584  0.00  0.00     0.141 C 
ATOM     10  O   LIG d   1       3.959  -5.383  -5.253  0.00  0.00    -0.297 OA
ATOM     11  C   LIG d   1       5.857  -5.893  -6.562  0.00  0.00     0.040 C 
ATOM     12  C   LIG d   1       6.548  -5.083  -7.637  0.00  0.00    -0.019 C 
ATOM     13  H   LIG d   1       7.581  -5.467  -7.744  0.00  0.00     0.032 H 
ATOM     14  C   LIG d   1       5.858  -5.272  -8.994  0.00  0.00    -0.030 C 
ATOM     15  C   LIG d   1       5.844  -6.745  -9.338  0.00  0.00    -0.083 C 
ATOM     16  C   LIG d   1       5.440  -7.576  -8.411  0.00  0.00    -0.052 C 
ATOM     17  C   LIG d   1       4.994  -7.027  -7.095  0.00  0.00     0.015 C 
ATOM     18  H   LIG d   1       4.016  -6.577  -7.266  0.00  0.00     0.040 H 
ATOM     19  C   LIG d   1       4.793  -8.068  -6.042  0.00  0.00    -0.031 C 
ATOM     20  C   LIG d   1       5.138  -9.343  -6.192  0.00  0.00     0.164 C 
ATOM     21  C   LIG d   1       5.728  -9.816  -7.447  0.00  0.00     0.207 C 
ATOM     22  O   LIG d   1       6.441 -10.797  -7.493  0.00  0.00    -0.288 OA
ATOM     23  C   LIG d   1       5.390  -9.054  -8.714  0.00  0.00     0.052 C 
ATOM     24  H   LIG d   1       7.671  -2.687  -8.977  0.00  0.00     0.030 H 
ATOM     25  H   LIG d   1       8.761  -3.498  -7.812  0.00  0.00     0.030 H 
ATOM     26  H   LIG d   1       6.006  -3.974  -3.952  0.00  0.00     0.035 H 
ATOM     27  H   LIG d   1       4.919  -2.989  -4.933  0.00  0.00     0.035 H 
ATOM     28  H   LIG d   1       4.810  -4.968  -8.940  0.00  0.00     0.031 H 
ATOM     29  H   LIG d   1       6.377  -4.725  -9.776  0.00  0.00     0.031 H 
ATOM     30  H   LIG d   1       6.129  -7.043 -10.318  0.00  0.00     0.057 H 
ATOM     31  H   LIG d   1       4.342  -7.781  -5.101  0.00  0.00     0.062 H 
ENDROOT
BRANCH   1  32
ATOM     32  C   LIG d   1       7.845  -1.365  -4.594  0.00  0.00     0.130 C 
BRANCH  32  33
ATOM     33  C   LIG d   1       7.273  -0.075  -4.065  0.00  0.00     0.187 C 
ATOM     34  O   LIG d   1       7.854   0.973  -4.262  0.00  0.00    -0.290 OA
BRANCH  33  35
ATOM     35  C   LIG d   1       6.017  -0.085  -3.315  0.00  0.00    -0.017 C 
ATOM     36  C   LIG d   1       4.858  -0.247  -3.957  0.00  0.00    -0.038 C 
ATOM     37  H   LIG d   1       4.847  -0.372  -5.029  0.00  0.00     0.061 H 
ATOM     38  H   LIG d   1       6.027   0.040  -2.243  0.00  0.00     0.065 H 
BRANCH  36  39
ATOM     39  C   LIG d   1       3.564  -0.258  -3.185  0.00  0.00     0.126 C 
BRANCH  39  40
ATOM     40  O   LIG d   1       2.467  -0.126  -4.093  0.00  0.00    -0.455 OA
BRANCH  40  41
ATOM     41  C   LIG d   1       2.651   0.671  -5.158  0.00  0.00     0.305 C 
ATOM     42  O   LIG d   1       2.546   1.870  -5.040  0.00  0.00    -0.251 OA
BRANCH  41  43
ATOM     43  C   LIG d   1       2.987   0.072  -6.498  0.00  0.00     0.033 C 
ATOM     44  H   LIG d   1       2.793  -1.000  -6.476  0.00  0.00     0.034 H 
ATOM     45  H   LIG d   1       2.372   0.537  -7.269  0.00  0.00     0.034 H 
ATOM     46  H   LIG d   1       4.040   0.247  -6.720  0.00  0.00     0.034 H 
ENDBRANCH  41  43
ENDBRANCH  40  41
ENDBRANCH  39  40
BRANCH  39  47
ATOM     47  C   LIG d   1       3.550   0.909  -2.196  0.00  0.00    -0.021 C 
ATOM     48  H   LIG d   1       4.275   1.660  -2.509  0.00  0.00     0.027 H 
ATOM     49  H   LIG d   1       2.554   1.353  -2.171  0.00  0.00     0.027 H 
ATOM     50  H   LIG d   1       3.810   0.545  -1.201  0.00  0.00     0.027 H 
ENDBRANCH  39  47
BRANCH  39  51
ATOM     51  C   LIG d   1       3.437  -1.576  -2.420  0.00  0.00    -0.021 C 
ATOM     52  H   LIG d   1       3.427  -2.407  -3.126  0.00  0.00     0.027 H 
ATOM     53  H   LIG d   1       4.284  -1.686  -1.743  0.00  0.00     0.027 H 
ATOM     54  H   LIG d   1       2.510  -1.576  -1.846  0.00  0.00     0.027 H 
ENDBRANCH  39  51
ENDBRANCH  36  39
ENDBRANCH  33  35
ENDBRANCH  32  33
BRANCH  32  55
ATOM     55  C   LIG d   1       7.725  -2.452  -3.524  0.00  0.00    -0.028 C 
ATOM     56  H   LIG d   1       7.980  -3.418  -3.958  0.00  0.00     0.026 H 
ATOM     57  H   LIG d   1       8.406  -2.231  -2.703  0.00  0.00     0.026 H 
ATOM     58  H   LIG d   1       6.701  -2.481  -3.149  0.00  0.00     0.026 H 
ENDBRANCH  32  55
BRANCH  32  59
ATOM     59  O   LIG d   1       9.222  -1.174  -4.926  0.00  0.00    -0.381 OA
ATOM     60  H   LIG d   1       9.474  -0.247  -5.040  0.00  0.00     0.211 HD
ENDBRANCH  32  59
ENDBRANCH   1  32
BRANCH   7  61
ATOM     61  C   LIG d   1       8.171  -3.907  -5.286  0.00  0.00    -0.058 C 
ATOM     62  H   LIG d   1       8.225  -4.965  -5.538  0.00  0.00     0.024 H 
ATOM     63  H   LIG d   1       9.012  -3.381  -5.740  0.00  0.00     0.024 H 
ATOM     64  H   LIG d   1       8.211  -3.789  -4.202  0.00  0.00     0.024 H 
ENDBRANCH   7  61
BRANCH   3  65
ATOM     65  O   LIG d   1       7.390  -0.505  -7.897  0.00  0.00    -0.391 OA
ATOM     66  H   LIG d   1       6.649  -0.047  -7.475  0.00  0.00     0.210 HD
ENDBRANCH   3  65
BRANCH   6  67
ATOM     67  C   LIG d   1       5.380  -2.878  -7.799  0.00  0.00    -0.059 C 
ATOM     68  H   LIG d   1       5.662  -2.124  -8.534  0.00  0.00     0.024 H 
ATOM     69  H   LIG d   1       4.695  -3.592  -8.256  0.00  0.00     0.024 H 
ATOM     70  H   LIG d   1       4.889  -2.395  -6.954  0.00  0.00     0.024 H 
ENDBRANCH   6  67
BRANCH  11  71
ATOM     71  C   LIG d   1       6.944  -6.638  -5.767  0.00  0.00    -0.052 C 
ATOM     72  H   LIG d   1       7.595  -7.175  -6.458  0.00  0.00     0.024 H 
ATOM     73  H   LIG d   1       7.533  -5.920  -5.197  0.00  0.00     0.024 H 
ATOM     74  H   LIG d   1       6.474  -7.347  -5.085  0.00  0.00     0.024 H 
ENDBRANCH  11  71
BRANCH  23  75
ATOM     75  C   LIG d   1       3.978  -9.441  -9.181  0.00  0.00    -0.049 C 
ATOM     76  H   LIG d   1       3.793 -10.490  -8.950  0.00  0.00     0.024 H 
ATOM     77  H   LIG d   1       3.242  -8.820  -8.669  0.00  0.00     0.024 H 
ATOM     78  H   LIG d   1       3.896  -9.287 -10.257  0.00  0.00     0.024 H 
ENDBRANCH  23  75
BRANCH  23  79
ATOM     79  C   LIG d   1       6.399  -9.443  -9.805  0.00  0.00    -0.049 C 
ATOM     80  H   LIG d   1       5.938  -9.324 -10.785  0.00  0.00     0.024 H 
ATOM     81  H   LIG d   1       7.275  -8.797  -9.735  0.00  0.00     0.024 H 
ATOM     82  H   LIG d   1       6.701 -10.481  -9.668  0.00  0.00     0.024 H 
ENDBRANCH  23  79
BRANCH  20  83
ATOM     83  O   LIG d   1       4.939 -10.225  -5.177  0.00  0.00    -0.458 OA
BRANCH  83  84
ATOM     84  C   LIG d   1       5.460  -9.867  -3.895  0.00  0.00     0.231 C 
ATOM     85  H   LIG d   1       4.964  -8.964  -3.539  0.00  0.00     0.108 H 
ATOM     86  O   LIG d   1       6.866  -9.630  -4.001  0.00  0.00    -0.331 OA
ATOM     87  C   LIG d   1       7.486  -9.239  -2.775  0.00  0.00     0.114 C 
ATOM     88  C   LIG d   1       7.318 -10.355  -1.741  0.00  0.00     0.112 C 
ATOM     89  H   LIG d   1       7.016  -8.327  -2.404  0.00  0.00     0.065 H 
ATOM     90  C   LIG d   1       5.825 -10.645  -1.551  0.00  0.00     0.115 C 
ATOM     91  H   LIG d   1       7.821 -11.255  -2.092  0.00  0.00     0.065 H 
ATOM     92  C   LIG d   1       5.211 -11.009  -2.906  0.00  0.00     0.145 C 
ATOM     93  H   LIG d   1       5.330  -9.760  -1.153  0.00  0.00     0.065 H 
ATOM     94  H   LIG d   1       5.672 -11.923  -3.281  0.00  0.00     0.068 H 
BRANCH  87  95
ATOM     95  C   LIG d   1       8.975  -8.985  -3.014  0.00  0.00     0.073 C 
ATOM     96  H   LIG d   1       9.529  -9.913  -2.878  0.00  0.00     0.058 H 
ATOM     97  H   LIG d   1       9.122  -8.619  -4.030  0.00  0.00     0.058 H 
BRANCH  95  98
ATOM     98  O   LIG d   1       9.447  -8.009  -2.083  0.00  0.00    -0.392 OA
ATOM     99  H   LIG d   1       9.126  -7.113  -2.256  0.00  0.00     0.209 HD
ENDBRANCH  95  98
ENDBRANCH  87  95
BRANCH  88 100
ATOM    100  O   LIG d   1       7.886  -9.945  -0.496  0.00  0.00    -0.387 OA
ATOM    101  H   LIG d   1       8.420 -10.625  -0.064  0.00  0.00     0.210 HD
ENDBRANCH  88 100
BRANCH  90 102
ATOM    102  O   LIG d   1       5.660 -11.735  -0.643  0.00  0.00    -0.386 OA
ATOM    103  H   LIG d   1       5.891 -12.597  -1.015  0.00  0.00     0.210 HD
ENDBRANCH  90 102
BRANCH  92 104
ATOM    104  O   LIG d   1       3.804 -11.212  -2.756  0.00  0.00    -0.383 OA
ATOM    105  H   LIG d   1       3.263 -10.635  -3.311  0.00  0.00     0.210 HD
ENDBRANCH  92 104
ENDBRANCH  83  84
ENDBRANCH  20  83
TORSDOF 24
ENDMDL
MODEL 2
REMARK VINA RESULT:      -6.6      6.514      9.268
REMARK  24 active torsions:
REMARK  status: ('A' for Active; 'I' for Inactive)
REMARK    1  A    between atoms: C_1  and  C_2 
REMARK    2  A    between atoms: C_2  and  O_4 
REMARK    3  A    between atoms: O_4  and  C_5 
REMARK    4  A    between atoms: C_5  and  C_6 
REMARK    5  A    between atoms: C_5  and  C_7 
REMARK    6  A    between atoms: C_5  and  C_8 
REMARK    7  A    between atoms: C_9  and  C_10 
REMARK    8  A    between atoms: C_10  and  C_12 
REMARK    9  A    between atoms: C_12  and  C_13 
REMARK   10  A    between atoms: C_12  and  C_14 
REMARK   11  A    between atoms: C_12  and  O_60 
REMARK   12  A    between atoms: C_16  and  O_59 
REMARK   13  A    between atoms: C_19  and  C_58 
REMARK   14  A    between atoms: C_20  and  C_57 
REMARK   15  A    between atoms: C_24  and  C_56 
REMARK   16  A    between atoms: C_33  and  O_39 
REMARK   17  A    between atoms: C_36  and  C_37 
REMARK   18  A    between atoms: C_36  and  C_38 
REMARK   19  A    between atoms: O_39  and  C_40 
REMARK   20  A    between atoms: C_42  and  O_55 
REMARK   21  A    between atoms: C_44  and  O_54 
REMARK   22  A    between atoms: C_46  and  O_53 
REMARK   23  A    between atoms: C_48  and  C_51 
REMARK   24  A    between atoms: C_51  and  O_52 
ROOT
ATOM      1  C   LIG d   1       4.185  -0.537  -9.326  0.00  0.00     0.027 C 
ATOM      2  H   LIG d   1       4.127   0.502  -9.619  0.00  0.00     0.036 H 
ATOM      3  C   LIG d   1       5.520  -1.184  -9.774  0.00  0.00     0.062 C 
ATOM      4  H   LIG d   1       5.946  -1.772  -8.963  0.00  0.00     0.060 H 
ATOM      5  C   LIG d   1       5.179  -2.108 -10.978  0.00  0.00    -0.020 C 
ATOM      6  C   LIG d   1       3.790  -1.589 -11.422  0.00  0.00    -0.019 C 
ATOM      7  C   LIG d   1       3.114  -1.382 -10.053  0.00  0.00    -0.011 C 
ATOM      8  C   LIG d   1       1.771  -0.718 -10.201  0.00  0.00     0.013 C 
ATOM      9  C   LIG d   1       1.096  -1.181 -11.480  0.00  0.00     0.141 C 
ATOM     10  O   LIG d   1       0.165  -0.521 -11.931  0.00  0.00    -0.297 OA
ATOM     11  C   LIG d   1       1.539  -2.422 -12.200  0.00  0.00     0.040 C 
ATOM     12  C   LIG d   1       3.042  -2.530 -12.333  0.00  0.00    -0.019 C 
ATOM     13  H   LIG d   1       3.337  -3.563 -12.064  0.00  0.00     0.032 H 
ATOM     14  C   LIG d   1       3.482  -2.303 -13.786  0.00  0.00    -0.030 C 
ATOM     15  C   LIG d   1       2.778  -3.304 -14.674  0.00  0.00    -0.083 C 
ATOM     16  C   LIG d   1       1.485  -3.442 -14.520  0.00  0.00    -0.052 C 
ATOM     17  C   LIG d   1       0.785  -2.592 -13.510  0.00  0.00     0.015 C 
ATOM     18  H   LIG d   1       0.734  -1.590 -13.935  0.00  0.00     0.040 H 
ATOM     19  C   LIG d   1      -0.628  -3.003 -13.248  0.00  0.00    -0.031 C 
ATOM     20  C   LIG d   1      -1.171  -4.118 -13.728  0.00  0.00     0.164 C 
ATOM     21  C   LIG d   1      -0.398  -5.017 -14.589  0.00  0.00     0.207 C 
ATOM     22  O   LIG d   1      -0.658  -6.198 -14.683  0.00  0.00    -0.288 OA
ATOM     23  C   LIG d   1       0.735  -4.414 -15.398  0.00  0.00     0.052 C 
ATOM     24  H   LIG d   1       5.898  -1.944 -11.785  0.00  0.00     0.030 H 
ATOM     25  H   LIG d   1       5.139  -3.150 -10.702  0.00  0.00     0.030 H 
ATOM     26  H   LIG d   1       1.134  -0.958  -9.335  0.00  0.00     0.035 H 
ATOM     27  H   LIG d   1       1.885   0.382 -10.204  0.00  0.00     0.035 H 
ATOM     28  H   LIG d   1       3.164  -1.318 -14.135  0.00  0.00     0.031 H 
ATOM     29  H   LIG d   1       4.556  -2.421 -13.892  0.00  0.00     0.031 H 
ATOM     30  H   LIG d   1       3.346  -3.829 -15.403  0.00  0.00     0.057 H 
ATOM     31  H   LIG d   1      -1.254  -2.367 -12.636  0.00  0.00     0.062 H 
ENDROOT
BRANCH   1  32
ATOM     32  C   LIG d   1       3.998  -0.681  -7.812  0.00  0.00     0.130 C 
BRANCH  32  33
ATOM     33  C   LIG d   1       5.211  -0.135  -7.103  0.00  0.00     0.187 C 
ATOM     34  O   LIG d   1       5.764   0.859  -7.524  0.00  0.00    -0.290 OA
BRANCH  33  35
ATOM     35  C   LIG d   1       5.721  -0.804  -5.906  0.00  0.00    -0.017 C 
ATOM     36  C   LIG d   1       5.056  -0.707  -4.752  0.00  0.00    -0.038 C 
ATOM     37  H   LIG d   1       4.141  -0.135  -4.703  0.00  0.00     0.061 H 
ATOM     38  H   LIG d   1       6.635  -1.376  -5.955  0.00  0.00     0.065 H 
BRANCH  36  39
ATOM     39  C   LIG d   1       5.580  -1.396  -3.519  0.00  0.00     0.126 C 
BRANCH  39  40
ATOM     40  O   LIG d   1       6.180  -0.429  -2.653  0.00  0.00    -0.455 OA
BRANCH  40  41
ATOM     41  C   LIG d   1       5.621   0.791  -2.623  0.00  0.00     0.305 C 
ATOM     42  O   LIG d   1       6.108   1.695  -3.260  0.00  0.00    -0.251 OA
BRANCH  41  43
ATOM     43  C   LIG d   1       4.386   1.033  -1.795  0.00  0.00     0.033 C 
ATOM     44  H   LIG d   1       4.468   0.491  -0.853  0.00  0.00     0.034 H 
ATOM     45  H   LIG d   1       4.287   2.100  -1.593  0.00  0.00     0.034 H 
ATOM     46  H   LIG d   1       3.509   0.684  -2.340  0.00  0.00     0.034 H 
ENDBRANCH  41  43
ENDBRANCH  40  41
ENDBRANCH  39  40
BRANCH  39  47
ATOM     47  C   LIG d   1       6.626  -2.438  -3.922  0.00  0.00    -0.021 C 
ATOM     48  H   LIG d   1       7.519  -2.312  -3.311  0.00  0.00     0.027 H 
ATOM     49  H   LIG d   1       6.220  -3.438  -3.771  0.00  0.00     0.027 H 
ATOM     50  H   LIG d   1       6.884  -2.305  -4.973  0.00  0.00     0.027 H 
ENDBRANCH  39  47
BRANCH  39  51
ATOM     51  C   LIG d   1       4.426  -2.088  -2.792  0.00  0.00    -0.021 C 
ATOM     52  H   LIG d   1       4.819  -2.895  -2.172  0.00  0.00     0.027 H 
ATOM     53  H   LIG d   1       3.909  -1.365  -2.161  0.00  0.00     0.027 H 
ATOM     54  H   LIG d   1       3.729  -2.497  -3.522  0.00  0.00     0.027 H 
ENDBRANCH  39  51
ENDBRANCH  36  39
ENDBRANCH  33  35
ENDBRANCH  32  33
BRANCH  32  55
ATOM     55  C   LIG d   1       2.757   0.099  -7.374  0.00  0.00    -0.028 C 
ATOM     56  H   LIG d   1       2.719   1.050  -7.905  0.00  0.00     0.026 H 
ATOM     57  H   LIG d   1       1.864  -0.482  -7.604  0.00  0.00     0.026 H 
ATOM     58  H   LIG d   1       2.804   0.284  -6.300  0.00  0.00     0.026 H 
ENDBRANCH  32  55
BRANCH  32  59
ATOM     59  O   LIG d   1       3.835  -2.062  -7.482  0.00  0.00    -0.381 OA
ATOM     60  H   LIG d   1       4.608  -2.608  -7.679  0.00  0.00     0.211 HD
ENDBRANCH  32  59
ENDBRANCH   1  32
BRANCH   7  61
ATOM     61  C   LIG d   1       3.003  -2.681  -9.247  0.00  0.00    -0.058 C 
ATOM     62  H   LIG d   1       3.605  -2.600  -8.343  0.00  0.00     0.024 H 
ATOM     63  H   LIG d   1       1.960  -2.851  -8.976  0.00  0.00     0.024 H 
ATOM     64  H   LIG d   1       3.363  -3.515  -9.851  0.00  0.00     0.024 H 
ENDBRANCH   7  61
BRANCH   3  65
ATOM     65  O   LIG d   1       6.441  -0.169 -10.184  0.00  0.00    -0.391 OA
ATOM     66  H   LIG d   1       6.198   0.722  -9.897  0.00  0.00     0.210 HD
ENDBRANCH   3  65
BRANCH   6  67
ATOM     67  C   LIG d   1       3.994  -0.229 -12.106  0.00  0.00    -0.059 C 
ATOM     68  H   LIG d   1       3.132   0.410 -11.911  0.00  0.00     0.024 H 
ATOM     69  H   LIG d   1       4.894   0.245 -11.715  0.00  0.00     0.024 H 
ATOM     70  H   LIG d   1       4.100  -0.375 -13.181  0.00  0.00     0.024 H 
ENDBRANCH   6  67
BRANCH  11  71
ATOM     71  C   LIG d   1       1.057  -3.626 -11.371  0.00  0.00    -0.052 C 
ATOM     72  H   LIG d   1       0.925  -3.322 -10.332  0.00  0.00     0.024 H 
ATOM     73  H   LIG d   1       0.108  -3.983 -11.768  0.00  0.00     0.024 H 
ATOM     74  H   LIG d   1       1.798  -4.424 -11.425  0.00  0.00     0.024 H 
ENDBRANCH  11  71
BRANCH  23  75
ATOM     75  C   LIG d   1       0.156  -3.676 -16.615  0.00  0.00    -0.049 C 
ATOM     76  H   LIG d   1      -0.932  -3.735 -16.593  0.00  0.00     0.024 H 
ATOM     77  H   LIG d   1       0.465  -2.631 -16.587  0.00  0.00     0.024 H 
ATOM     78  H   LIG d   1       0.526  -4.139 -17.530  0.00  0.00     0.024 H 
ENDBRANCH  23  75
BRANCH  23  79
ATOM     79  C   LIG d   1       1.645  -5.550 -15.890  0.00  0.00    -0.049 C 
ATOM     80  H   LIG d   1       2.498  -5.648 -15.220  0.00  0.00     0.024 H 
ATOM     81  H   LIG d   1       1.084  -6.484 -15.904  0.00  0.00     0.024 H 
ATOM     82  H   LIG d   1       1.997  -5.323 -16.897  0.00  0.00     0.024 H 
ENDBRANCH  23  79
BRANCH  20  83
ATOM     83  O   LIG d   1      -2.459  -4.430 -13.427  0.00  0.00    -0.458 OA
BRANCH  83  84
ATOM     84  C   LIG d   1      -2.916  -4.103 -12.113  0.00  0.00     0.231 C 
ATOM     85  H   LIG d   1      -2.319  -3.283 -11.714  0.00  0.00     0.108 H 
ATOM     86  O   LIG d   1      -2.787  -5.245 -11.264  0.00  0.00    -0.331 OA
ATOM     87  C   LIG d   1      -3.195  -5.019  -9.914  0.00  0.00     0.114 C 
ATOM     88  C   LIG d   1      -4.676  -4.632  -9.888  0.00  0.00     0.112 C 
ATOM     89  H   LIG d   1      -2.600  -4.211  -9.486  0.00  0.00     0.065 H 
ATOM     90  C   LIG d   1      -4.886  -3.388 -10.757  0.00  0.00     0.115 C 
ATOM     91  H   LIG d   1      -5.274  -5.454 -10.279  0.00  0.00     0.065 H 
ATOM     92  C   LIG d   1      -4.386  -3.679 -12.175  0.00  0.00     0.145 C 
ATOM     93  H   LIG d   1      -4.328  -2.551 -10.338  0.00  0.00     0.065 H 
ATOM     94  H   LIG d   1      -4.979  -4.483 -12.613  0.00  0.00     0.068 H 
BRANCH  87  95
ATOM     95  C   LIG d   1      -2.986  -6.294  -9.097  0.00  0.00     0.073 C 
ATOM     96  H   LIG d   1      -3.837  -6.444  -8.432  0.00  0.00     0.058 H 
ATOM     97  H   LIG d   1      -2.898  -7.147  -9.771  0.00  0.00     0.058 H 
BRANCH  95  98
ATOM     98  O   LIG d   1      -1.792  -6.174  -8.321  0.00  0.00    -0.392 OA
ATOM     99  H   LIG d   1      -1.757  -6.768  -7.559  0.00  0.00     0.209 HD
ENDBRANCH  95  98
ENDBRANCH  87  95
BRANCH  88 100
ATOM    100  O   LIG d   1      -5.073  -4.348  -8.545  0.00  0.00    -0.387 OA
ATOM    101  H   LIG d   1      -4.502  -3.713  -8.092  0.00  0.00     0.210 HD
ENDBRANCH  88 100
BRANCH  90 102
ATOM    102  O   LIG d   1      -6.276  -3.061 -10.798  0.00  0.00    -0.386 OA
ATOM    103  H   LIG d   1      -6.479  -2.161 -10.505  0.00  0.00     0.210 HD
ENDBRANCH  90 102
BRANCH  92 104
ATOM    104  O   LIG d   1      -4.511  -2.503 -12.978  0.00  0.00    -0.383 OA
ATOM    105  H   LIG d   1      -3.859  -1.818 -12.776  0.00  0.00     0.210 HD
ENDBRANCH  92 104
ENDBRANCH  83  84
ENDBRANCH  20  83
TORSDOF 24
ENDMDL
MODEL 3
REMARK VINA RESULT:      -6.5      6.369     12.757
REMARK  24 active torsions:
REMARK  status: ('A' for Active; 'I' for Inactive)
REMARK    1  A    between atoms: C_1  and  C_2 
REMARK    2  A    between atoms: C_2  and  O_4 
REMARK    3  A    between atoms: O_4  and  C_5 
REMARK    4  A    between atoms: C_5  and  C_6 
REMARK    5  A    between atoms: C_5  and  C_7 
REMARK    6  A    between atoms: C_5  and  C_8 
REMARK    7  A    between atoms: C_9  and  C_10 
REMARK    8  A    between atoms: C_10  and  C_12 
REMARK    9  A    between atoms: C_12  and  C_13 
REMARK   10  A    between atoms: C_12  and  C_14 
REMARK   11  A    between atoms: C_12  and  O_60 
REMARK   12  A    between atoms: C_16  and  O_59 
REMARK   13  A    between atoms: C_19  and  C_58 
REMARK   14  A    between atoms: C_20  and  C_57 
REMARK   15  A    between atoms: C_24  and  C_56 
REMARK   16  A    between atoms: C_33  and  O_39 
REMARK   17  A    between atoms: C_36  and  C_37 
REMARK   18  A    between atoms: C_36  and  C_38 
REMARK   19  A    between atoms: O_39  and  C_40 
REMARK   20  A    between atoms: C_42  and  O_55 
REMARK   21  A    between atoms: C_44  and  O_54 
REMARK   22  A    between atoms: C_46  and  O_53 
REMARK   23  A    between atoms: C_48  and  C_51 
REMARK   24  A    between atoms: C_51  and  O_52 
ROOT
ATOM      1  C   LIG d   1      10.155   0.648  -6.453  0.00  0.00     0.027 C 
ATOM      2  H   LIG d   1      11.033   0.314  -6.987  0.00  0.00     0.036 H 
ATOM      3  C   LIG d   1       8.885   0.576  -7.340  0.00  0.00     0.062 C 
ATOM      4  H   LIG d   1       8.061   0.133  -6.785  0.00  0.00     0.060 H 
ATOM      5  C   LIG d   1       8.537   2.041  -7.730  0.00  0.00    -0.020 C 
ATOM      6  C   LIG d   1       9.857   2.794  -7.433  0.00  0.00    -0.019 C 
ATOM      7  C   LIG d   1      10.257   2.148  -6.093  0.00  0.00    -0.011 C 
ATOM      8  C   LIG d   1      11.622   2.605  -5.651  0.00  0.00     0.013 C 
ATOM      9  C   LIG d   1      11.847   4.050  -6.059  0.00  0.00     0.141 C 
ATOM     10  O   LIG d   1      12.993   4.488  -6.079  0.00  0.00    -0.297 OA
ATOM     11  C   LIG d   1      10.705   4.950  -6.434  0.00  0.00     0.040 C 
ATOM     12  C   LIG d   1       9.709   4.294  -7.364  0.00  0.00    -0.019 C 
ATOM     13  H   LIG d   1       8.691   4.514  -6.987  0.00  0.00     0.032 H 
ATOM     14  C   LIG d   1       9.802   4.889  -8.776  0.00  0.00    -0.030 C 
ATOM     15  C   LIG d   1       9.578   6.382  -8.695  0.00  0.00    -0.083 C 
ATOM     16  C   LIG d   1      10.251   7.045  -7.788  0.00  0.00    -0.052 C 
ATOM     17  C   LIG d   1      11.211   6.301  -6.917  0.00  0.00     0.015 C 
ATOM     18  H   LIG d   1      12.074   6.070  -7.541  0.00  0.00     0.040 H 
ATOM     19  C   LIG d   1      11.732   7.103  -5.769  0.00  0.00    -0.031 C 
ATOM     20  C   LIG d   1      11.267   8.304  -5.439  0.00  0.00     0.164 C 
ATOM     21  C   LIG d   1      10.204   8.937  -6.224  0.00  0.00     0.207 C 
ATOM     22  O   LIG d   1       9.462   9.771  -5.748  0.00  0.00    -0.288 OA
ATOM     23  C   LIG d   1      10.076   8.540  -7.683  0.00  0.00     0.052 C 
ATOM     24  H   LIG d   1       8.324   2.098  -8.800  0.00  0.00     0.030 H 
ATOM     25  H   LIG d   1       7.719   2.440  -7.152  0.00  0.00     0.030 H 
ATOM     26  H   LIG d   1      11.717   2.506  -4.558  0.00  0.00     0.035 H 
ATOM     27  H   LIG d   1      12.403   1.957  -6.088  0.00  0.00     0.035 H 
ATOM     28  H   LIG d   1      10.807   4.759  -9.184  0.00  0.00     0.031 H 
ATOM     29  H   LIG d   1       9.059   4.449  -9.435  0.00  0.00     0.031 H 
ATOM     30  H   LIG d   1       8.914   6.837  -9.390  0.00  0.00     0.057 H 
ATOM     31  H   LIG d   1      12.533   6.696  -5.166  0.00  0.00     0.062 H 
ENDROOT
BRANCH   1  32
ATOM     32  C   LIG d   1       9.961  -0.166  -5.170  0.00  0.00     0.130 C 
BRANCH  32  33
ATOM     33  C   LIG d   1       9.008  -1.303  -5.435  0.00  0.00     0.187 C 
ATOM     34  O   LIG d   1       9.283  -2.144  -6.265  0.00  0.00    -0.290 OA
BRANCH  33  35
ATOM     35  C   LIG d   1       7.751  -1.392  -4.692  0.00  0.00    -0.017 C 
ATOM     36  C   LIG d   1       6.646  -0.822  -5.178  0.00  0.00    -0.038 C 
ATOM     37  H   LIG d   1       6.680  -0.297  -6.121  0.00  0.00     0.061 H 
ATOM     38  H   LIG d   1       7.718  -1.917  -3.749  0.00  0.00     0.065 H 
BRANCH  36  39
ATOM     39  C   LIG d   1       5.351  -0.914  -4.413  0.00  0.00     0.126 C 
BRANCH  39  40
ATOM     40  O   LIG d   1       4.897   0.402  -4.088  0.00  0.00    -0.455 OA
BRANCH  40  41
ATOM     41  C   LIG d   1       5.386   0.955  -2.966  0.00  0.00     0.305 C 
ATOM     42  O   LIG d   1       6.489   1.450  -2.967  0.00  0.00    -0.251 OA
BRANCH  41  43
ATOM     43  C   LIG d   1       4.559   0.960  -1.707  0.00  0.00     0.033 C 
ATOM     44  H   LIG d   1       5.084   0.409  -0.926  0.00  0.00     0.034 H 
ATOM     45  H   LIG d   1       4.399   1.989  -1.381  0.00  0.00     0.034 H 
ATOM     46  H   LIG d   1       3.597   0.486  -1.902  0.00  0.00     0.034 H 
ENDBRANCH  41  43
ENDBRANCH  40  41
ENDBRANCH  39  40
BRANCH  39  47
ATOM     47  C   LIG d   1       5.575  -1.709  -3.125  0.00  0.00    -0.021 C 
ATOM     48  H   LIG d   1       5.772  -1.022  -2.302  0.00  0.00     0.027 H 
ATOM     49  H   LIG d   1       4.685  -2.297  -2.902  0.00  0.00     0.027 H 
ATOM     50  H   LIG d   1       6.428  -2.376  -3.253  0.00  0.00     0.027 H 
ENDBRANCH  39  47
BRANCH  39  51
ATOM     51  C   LIG d   1       4.301  -1.619  -5.272  0.00  0.00    -0.021 C 
ATOM     52  H   LIG d   1       3.799  -2.384  -4.677  0.00  0.00     0.027 H 
ATOM     53  H   LIG d   1       3.568  -0.892  -5.621  0.00  0.00     0.027 H 
ATOM     54  H   LIG d   1       4.785  -2.087  -6.129  0.00  0.00     0.027 H 
ENDBRANCH  39  51
ENDBRANCH  36  39
ENDBRANCH  33  35
ENDBRANCH  32  33
BRANCH  32  55
ATOM     55  C   LIG d   1      11.310  -0.728  -4.714  0.00  0.00    -0.028 C 
ATOM     56  H   LIG d   1      11.657  -1.468  -5.434  0.00  0.00     0.026 H 
ATOM     57  H   LIG d   1      12.035   0.082  -4.645  0.00  0.00     0.026 H 
ATOM     58  H   LIG d   1      11.196  -1.197  -3.736  0.00  0.00     0.026 H 
ENDBRANCH  32  55
BRANCH  32  59
ATOM     59  O   LIG d   1       9.425   0.676  -4.147  0.00  0.00    -0.381 OA
ATOM     60  H   LIG d   1      10.097   1.107  -3.601  0.00  0.00     0.211 HD
ENDBRANCH  32  59
ENDBRANCH   1  32
BRANCH   7  61
ATOM     61  C   LIG d   1       9.215   2.375  -4.993  0.00  0.00    -0.058 C 
ATOM     62  H   LIG d   1       9.576   3.135  -4.301  0.00  0.00     0.024 H 
ATOM     63  H   LIG d   1       8.279   2.709  -5.443  0.00  0.00     0.024 H 
ATOM     64  H   LIG d   1       9.046   1.442  -4.454  0.00  0.00     0.024 H 
ENDBRANCH   7  61
BRANCH   3  65
ATOM     65  O   LIG d   1       9.155  -0.190  -8.517  0.00  0.00    -0.391 OA
ATOM     66  H   LIG d   1       9.689  -0.981  -8.358  0.00  0.00     0.210 HD
ENDBRANCH   3  65
BRANCH   6  67
ATOM     67  C   LIG d   1      10.874   2.405  -8.517  0.00  0.00    -0.059 C 
ATOM     68  H   LIG d   1      11.456   1.548  -8.178  0.00  0.00     0.024 H 
ATOM     69  H   LIG d   1      10.347   2.146  -9.435  0.00  0.00     0.024 H 
ATOM     70  H   LIG d   1      11.542   3.245  -8.707  0.00  0.00     0.024 H 
ENDBRANCH   6  67
BRANCH  11  71
ATOM     71  C   LIG d   1       9.963   5.310  -5.135  0.00  0.00    -0.052 C 
ATOM     72  H   LIG d   1       8.910   5.490  -5.356  0.00  0.00     0.024 H 
ATOM     73  H   LIG d   1      10.050   4.487  -4.427  0.00  0.00     0.024 H 
ATOM     74  H   LIG d   1      10.402   6.210  -4.703  0.00  0.00     0.024 H 
ENDBRANCH  11  71
BRANCH  23  75
ATOM     75  C   LIG d   1      11.164   9.250  -8.503  0.00  0.00    -0.049 C 
ATOM     76  H   LIG d   1      11.816   9.812  -7.834  0.00  0.00     0.024 H 
ATOM     77  H   LIG d   1      11.751   8.509  -9.046  0.00  0.00     0.024 H 
ATOM     78  H   LIG d   1      10.696   9.934  -9.212  0.00  0.00     0.024 H 
ENDBRANCH  23  75
BRANCH  23  79
ATOM     79  C   LIG d   1       8.697   8.986  -8.193  0.00  0.00    -0.049 C 
ATOM     80  H   LIG d   1       8.768   9.995  -8.598  0.00  0.00     0.024 H 
ATOM     81  H   LIG d   1       8.362   8.304  -8.976  0.00  0.00     0.024 H 
ATOM     82  H   LIG d   1       7.983   8.972  -7.370  0.00  0.00     0.024 H 
ENDBRANCH  23  79
BRANCH  20  83
ATOM     83  O   LIG d   1      11.783   8.962  -4.367  0.00  0.00    -0.458 OA
BRANCH  83  84
ATOM     84  C   LIG d   1      11.548   8.388  -3.080  0.00  0.00     0.231 C 
ATOM     85  H   LIG d   1      12.041   8.989  -2.317  0.00  0.00     0.108 H 
ATOM     86  O   LIG d   1      12.067   7.056  -3.049  0.00  0.00    -0.331 OA
ATOM     87  C   LIG d   1      11.906   6.396  -1.792  0.00  0.00     0.114 C 
ATOM     88  C   LIG d   1      10.415   6.280  -1.466  0.00  0.00     0.112 C 
ATOM     89  H   LIG d   1      12.405   6.972  -1.013  0.00  0.00     0.065 H 
ATOM     90  C   LIG d   1       9.793   7.680  -1.451  0.00  0.00     0.115 C 
ATOM     91  H   LIG d   1       9.922   5.671  -2.224  0.00  0.00     0.065 H 
ATOM     92  C   LIG d   1      10.041   8.352  -2.805  0.00  0.00     0.145 C 
ATOM     93  H   LIG d   1      10.251   8.274  -0.660  0.00  0.00     0.065 H 
ATOM     94  H   LIG d   1       9.542   7.784  -3.590  0.00  0.00     0.068 H 
BRANCH  87  95
ATOM     95  C   LIG d   1      12.522   4.998  -1.868  0.00  0.00     0.073 C 
ATOM     96  H   LIG d   1      13.264   4.970  -2.666  0.00  0.00     0.058 H 
ATOM     97  H   LIG d   1      13.000   4.760  -0.918  0.00  0.00     0.058 H 
BRANCH  95  98
ATOM     98  O   LIG d   1      11.497   4.040  -2.140  0.00  0.00    -0.392 OA
ATOM     99  H   LIG d   1      11.783   3.121  -2.045  0.00  0.00     0.209 HD
ENDBRANCH  95  98
ENDBRANCH  87  95
BRANCH  88 100
ATOM    100  O   LIG d   1      10.251   5.672  -0.183  0.00  0.00    -0.387 OA
ATOM    101  H   LIG d   1       9.913   6.271   0.495  0.00  0.00     0.210 HD
ENDBRANCH  88 100
BRANCH  90 102
ATOM    102  O   LIG d   1       8.387   7.578  -1.219  0.00  0.00    -0.386 OA
ATOM    103  H   LIG d   1       8.045   6.674  -1.265  0.00  0.00     0.210 HD
ENDBRANCH  90 102
BRANCH  92 104
ATOM    104  O   LIG d   1       9.529   9.685  -2.780  0.00  0.00    -0.383 OA
ATOM    105  H   LIG d   1      10.212  10.368  -2.746  0.00  0.00     0.210 HD
ENDBRANCH  92 104
ENDBRANCH  83  84
ENDBRANCH  20  83
TORSDOF 24
ENDMDL
MODEL 4
REMARK VINA RESULT:      -6.5      4.286     11.709
REMARK  24 active torsions:
REMARK  status: ('A' for Active; 'I' for Inactive)
REMARK    1  A    between atoms: C_1  and  C_2 
REMARK    2  A    between atoms: C_2  and  O_4 
REMARK    3  A    between atoms: O_4  and  C_5 
REMARK    4  A    between atoms: C_5  and  C_6 
REMARK    5  A    between atoms: C_5  and  C_7 
REMARK    6  A    between atoms: C_5  and  C_8 
REMARK    7  A    between atoms: C_9  and  C_10 
REMARK    8  A    between atoms: C_10  and  C_12 
REMARK    9  A    between atoms: C_12  and  C_13 
REMARK   10  A    between atoms: C_12  and  C_14 
REMARK   11  A    between atoms: C_12  and  O_60 
REMARK   12  A    between atoms: C_16  and  O_59 
REMARK   13  A    between atoms: C_19  and  C_58 
REMARK   14  A    between atoms: C_20  and  C_57 
REMARK   15  A    between atoms: C_24  and  C_56 
REMARK   16  A    between atoms: C_33  and  O_39 
REMARK   17  A    between atoms: C_36  and  C_37 
REMARK   18  A    between atoms: C_36  and  C_38 
REMARK   19  A    between atoms: O_39  and  C_40 
REMARK   20  A    between atoms: C_42  and  O_55 
REMARK   21  A    between atoms: C_44  and  O_54 
REMARK   22  A    between atoms: C_46  and  O_53 
REMARK   23  A    between atoms: C_48  and  C_51 
REMARK   24  A    between atoms: C_51  and  O_52 
ROOT
ATOM      1  C   LIG d   1       5.143  -2.919  -5.844  0.00  0.00     0.027 C 
ATOM      2  H   LIG d   1       4.172  -2.481  -6.027  0.00  0.00     0.036 H 
ATOM      3  C   LIG d   1       5.345  -3.253  -4.343  0.00  0.00     0.062 C 
ATOM      4  H   LIG d   1       5.775  -4.246  -4.232  0.00  0.00     0.060 H 
ATOM      5  C   LIG d   1       6.326  -2.184  -3.782  0.00  0.00    -0.020 C 
ATOM      6  C   LIG d   1       6.259  -1.067  -4.853  0.00  0.00    -0.019 C 
ATOM      7  C   LIG d   1       6.275  -1.910  -6.142  0.00  0.00    -0.011 C 
ATOM      8  C   LIG d   1       6.058  -1.051  -7.360  0.00  0.00     0.013 C 
ATOM      9  C   LIG d   1       6.702   0.309  -7.163  0.00  0.00     0.141 C 
ATOM     10  O   LIG d   1       6.361   1.238  -7.889  0.00  0.00    -0.297 OA
ATOM     11  C   LIG d   1       7.744   0.542  -6.107  0.00  0.00     0.040 C 
ATOM     12  C   LIG d   1       7.382  -0.064  -4.769  0.00  0.00    -0.019 C 
ATOM     13  H   LIG d   1       8.275  -0.591  -4.378  0.00  0.00     0.032 H 
ATOM     14  C   LIG d   1       7.027   1.028  -3.750  0.00  0.00    -0.030 C 
ATOM     15  C   LIG d   1       8.193   1.982  -3.625  0.00  0.00    -0.083 C 
ATOM     16  C   LIG d   1       8.724   2.434  -4.733  0.00  0.00    -0.052 C 
ATOM     17  C   LIG d   1       8.135   2.011  -6.039  0.00  0.00     0.015 C 
ATOM     18  H   LIG d   1       7.196   2.555  -6.142  0.00  0.00     0.040 H 
ATOM     19  C   LIG d   1       8.962   2.385  -7.226  0.00  0.00    -0.031 C 
ATOM     20  C   LIG d   1      10.189   2.891  -7.137  0.00  0.00     0.164 C 
ATOM     21  C   LIG d   1      10.803   3.142  -5.831  0.00  0.00     0.207 C 
ATOM     22  O   LIG d   1      12.006   3.170  -5.681  0.00  0.00    -0.288 OA
ATOM     23  C   LIG d   1       9.877   3.405  -4.658  0.00  0.00     0.052 C 
ATOM     24  H   LIG d   1       5.946  -1.794  -2.834  0.00  0.00     0.030 H 
ATOM     25  H   LIG d   1       7.330  -2.560  -3.670  0.00  0.00     0.030 H 
ATOM     26  H   LIG d   1       6.485  -1.542  -8.249  0.00  0.00     0.035 H 
ATOM     27  H   LIG d   1       4.977  -0.938  -7.561  0.00  0.00     0.035 H 
ATOM     28  H   LIG d   1       6.186   1.629  -4.107  0.00  0.00     0.031 H 
ATOM     29  H   LIG d   1       6.807   0.598  -2.777  0.00  0.00     0.031 H 
ATOM     30  H   LIG d   1       8.515   2.270  -2.653  0.00  0.00     0.057 H 
ATOM     31  H   LIG d   1       8.552   2.241  -8.217  0.00  0.00     0.062 H 
ENDROOT
BRANCH   1  32
ATOM     32  C   LIG d   1       5.342  -4.170  -6.705  0.00  0.00     0.130 C 
BRANCH  32  33
ATOM     33  C   LIG d   1       4.478  -5.286  -6.178  0.00  0.00     0.187 C 
ATOM     34  O   LIG d   1       3.274  -5.144  -6.117  0.00  0.00    -0.290 OA
BRANCH  33  35
ATOM     35  C   LIG d   1       5.089  -6.540  -5.738  0.00  0.00    -0.017 C 
ATOM     36  C   LIG d   1       4.697  -7.697  -6.276  0.00  0.00    -0.038 C 
ATOM     37  H   LIG d   1       3.930  -7.707  -7.036  0.00  0.00     0.061 H 
ATOM     38  H   LIG d   1       5.856  -6.530  -4.979  0.00  0.00     0.065 H 
BRANCH  36  39
ATOM     39  C   LIG d   1       5.327  -8.990  -5.824  0.00  0.00     0.126 C 
BRANCH  39  40
ATOM     40  O   LIG d   1       4.301  -9.914  -5.454  0.00  0.00    -0.455 OA
BRANCH  40  41
ATOM     41  C   LIG d   1       4.107 -10.113  -4.140  0.00  0.00     0.305 C 
ATOM     42  O   LIG d   1       3.326  -9.419  -3.533  0.00  0.00    -0.251 OA
BRANCH  41  43
ATOM     43  C   LIG d   1       4.862 -11.202  -3.424  0.00  0.00     0.033 C 
ATOM     44  H   LIG d   1       5.106 -11.999  -4.127  0.00  0.00     0.034 H 
ATOM     45  H   LIG d   1       5.781 -10.792  -3.005  0.00  0.00     0.034 H 
ATOM     46  H   LIG d   1       4.244 -11.604  -2.619  0.00  0.00     0.034 H 
ENDBRANCH  41  43
ENDBRANCH  40  41
ENDBRANCH  39  40
BRANCH  39  47
ATOM     47  C   LIG d   1       6.233  -8.723  -4.621  0.00  0.00    -0.021 C 
ATOM     48  H   LIG d   1       6.964  -7.957  -4.878  0.00  0.00     0.027 H 
ATOM     49  H   LIG d   1       5.629  -8.381  -3.780  0.00  0.00     0.027 H 
ATOM     50  H   LIG d   1       6.751  -9.642  -4.346  0.00  0.00     0.027 H 
ENDBRANCH  39  47
BRANCH  39  51
ATOM     51  C   LIG d   1       6.157  -9.579  -6.966  0.00  0.00    -0.021 C 
ATOM     52  H   LIG d   1       6.508 -10.572  -6.685  0.00  0.00     0.027 H 
ATOM     53  H   LIG d   1       5.542  -9.651  -7.863  0.00  0.00     0.027 H 
ATOM     54  H   LIG d   1       7.013  -8.934  -7.164  0.00  0.00     0.027 H 
ENDBRANCH  39  51
ENDBRANCH  36  39
ENDBRANCH  33  35
ENDBRANCH  32  33
BRANCH  32  55
ATOM     55  C   LIG d   1       4.951  -3.862  -8.152  0.00  0.00    -0.028 C 
ATOM     56  H   LIG d   1       5.814  -3.464  -8.684  0.00  0.00     0.026 H 
ATOM     57  H   LIG d   1       4.613  -4.776  -8.639  0.00  0.00     0.026 H 
ATOM     58  H   LIG d   1       4.147  -3.125  -8.161  0.00  0.00     0.026 H 
ENDBRANCH  32  55
BRANCH  32  59
ATOM     59  O   LIG d   1       6.714  -4.568  -6.657  0.00  0.00    -0.381 OA
ATOM     60  H   LIG d   1       7.323  -3.929  -7.052  0.00  0.00     0.211 HD
ENDBRANCH  32  59
ENDBRANCH   1  32
BRANCH   7  61
ATOM     61  C   LIG d   1       7.547  -2.753  -6.281  0.00  0.00    -0.058 C 
ATOM     62  H   LIG d   1       7.481  -3.366  -7.179  0.00  0.00     0.024 H 
ATOM     63  H   LIG d   1       8.414  -2.094  -6.353  0.00  0.00     0.024 H 
ATOM     64  H   LIG d   1       7.653  -3.398  -5.408  0.00  0.00     0.024 H 
ENDBRANCH   7  61
BRANCH   3  65
ATOM     65  O   LIG d   1       4.095  -3.177  -3.653  0.00  0.00    -0.391 OA
ATOM     66  H   LIG d   1       4.120  -3.529  -2.753  0.00  0.00     0.210 HD
ENDBRANCH   3  65
BRANCH   6  67
ATOM     67  C   LIG d   1       4.900  -0.364  -4.714  0.00  0.00    -0.059 C 
ATOM     68  H   LIG d   1       4.871   0.188  -3.775  0.00  0.00     0.024 H 
ATOM     69  H   LIG d   1       4.761   0.326  -5.546  0.00  0.00     0.024 H 
ATOM     70  H   LIG d   1       4.103  -1.107  -4.723  0.00  0.00     0.024 H 
ENDBRANCH   6  67
BRANCH  11  71
ATOM     71  C   LIG d   1       9.040  -0.132  -6.589  0.00  0.00    -0.052 C 
ATOM     72  H   LIG d   1       9.867   0.163  -5.941  0.00  0.00     0.024 H 
ATOM     73  H   LIG d   1       8.922  -1.215  -6.555  0.00  0.00     0.024 H 
ATOM     74  H   LIG d   1       9.252   0.178  -7.612  0.00  0.00     0.024 H 
ENDBRANCH  11  71
BRANCH  23  75
ATOM     75  C   LIG d   1       9.350   4.846  -4.736  0.00  0.00    -0.049 C 
ATOM     76  H   LIG d   1       9.965   5.421  -5.428  0.00  0.00     0.024 H 
ATOM     77  H   LIG d   1       8.318   4.837  -5.087  0.00  0.00     0.024 H 
ATOM     78  H   LIG d   1       9.393   5.302  -3.747  0.00  0.00     0.024 H 
ENDBRANCH  23  75
BRANCH  23  79
ATOM     79  C   LIG d   1      10.675   3.236  -3.356  0.00  0.00    -0.049 C 
ATOM     80  H   LIG d   1      10.001   3.314  -2.504  0.00  0.00     0.024 H 
ATOM     81  H   LIG d   1      11.156   2.258  -3.350  0.00  0.00     0.024 H 
ATOM     82  H   LIG d   1      11.435   4.015  -3.292  0.00  0.00     0.024 H 
ENDBRANCH  23  79
BRANCH  20  83
ATOM     83  O   LIG d   1      10.884   3.187  -8.267  0.00  0.00    -0.458 OA
BRANCH  83  84
ATOM     84  C   LIG d   1      10.753   4.515  -8.780  0.00  0.00     0.231 C 
ATOM     85  H   LIG d   1      11.616   4.752  -9.402  0.00  0.00     0.108 H 
ATOM     86  O   LIG d   1      10.679   5.441  -7.693  0.00  0.00    -0.331 OA
ATOM     87  C   LIG d   1      10.571   6.807  -8.097  0.00  0.00     0.114 C 
ATOM     88  C   LIG d   1       9.287   6.997  -8.909  0.00  0.00     0.112 C 
ATOM     89  H   LIG d   1      11.432   7.074  -8.710  0.00  0.00     0.065 H 
ATOM     90  C   LIG d   1       9.310   6.053 -10.115  0.00  0.00     0.115 C 
ATOM     91  H   LIG d   1       8.424   6.769  -8.285  0.00  0.00     0.065 H 
ATOM     92  C   LIG d   1       9.477   4.613  -9.620  0.00  0.00     0.145 C 
ATOM     93  H   LIG d   1      10.145   6.313 -10.766  0.00  0.00     0.065 H 
ATOM     94  H   LIG d   1       8.617   4.337  -9.009  0.00  0.00     0.068 H 
BRANCH  87  95
ATOM     95  C   LIG d   1      10.528   7.703  -6.859  0.00  0.00     0.073 C 
ATOM     96  H   LIG d   1      11.009   7.193  -6.024  0.00  0.00     0.058 H 
ATOM     97  H   LIG d   1      11.054   8.635  -7.066  0.00  0.00     0.058 H 
BRANCH  95  98
ATOM     98  O   LIG d   1       9.169   7.987  -6.522  0.00  0.00    -0.392 OA
ATOM     99  H   LIG d   1       9.064   8.501  -5.710  0.00  0.00     0.209 HD
ENDBRANCH  95  98
ENDBRANCH  87  95
BRANCH  88 100
ATOM    100  O   LIG d   1       9.204   8.350  -9.364  0.00  0.00    -0.387 OA
ATOM    101  H   LIG d   1       8.300   8.676  -9.463  0.00  0.00     0.210 HD
ENDBRANCH  88 100
BRANCH  90 102
ATOM    102  O   LIG d   1       8.085   6.170 -10.840  0.00  0.00    -0.386 OA
ATOM    103  H   LIG d   1       8.149   5.907 -11.769  0.00  0.00     0.210 HD
ENDBRANCH  90 102
BRANCH  92 104
ATOM    104  O   LIG d   1       9.572   3.729 -10.738  0.00  0.00    -0.383 OA
ATOM    105  H   LIG d   1       9.228   2.842 -10.568  0.00  0.00     0.210 HD
ENDBRANCH  92 104
ENDBRANCH  83  84
ENDBRANCH  20  83
TORSDOF 24
ENDMDL
MODEL 5
REMARK VINA RESULT:      -6.5      6.159     12.492
REMARK  24 active torsions:
REMARK  status: ('A' for Active; 'I' for Inactive)
REMARK    1  A    between atoms: C_1  and  C_2 
REMARK    2  A    between atoms: C_2  and  O_4 
REMARK    3  A    between atoms: O_4  and  C_5 
REMARK    4  A    between atoms: C_5  and  C_6 
REMARK    5  A    between atoms: C_5  and  C_7 
REMARK    6  A    between atoms: C_5  and  C_8 
REMARK    7  A    between atoms: C_9  and  C_10 
REMARK    8  A    between atoms: C_10  and  C_12 
REMARK    9  A    between atoms: C_12  and  C_13 
REMARK   10  A    between atoms: C_12  and  C_14 
REMARK   11  A    between atoms: C_12  and  O_60 
REMARK   12  A    between atoms: C_16  and  O_59 
REMARK   13  A    between atoms: C_19  and  C_58 
REMARK   14  A    between atoms: C_20  and  C_57 
REMARK   15  A    between atoms: C_24  and  C_56 
REMARK   16  A    between atoms: C_33  and  O_39 
REMARK   17  A    between atoms: C_36  and  C_37 
REMARK   18  A    between atoms: C_36  and  C_38 
REMARK   19  A    between atoms: O_39  and  C_40 
REMARK   20  A    between atoms: C_42  and  O_55 
REMARK   21  A    between atoms: C_44  and  O_54 
REMARK   22  A    between atoms: C_46  and  O_53 
REMARK   23  A    between atoms: C_48  and  C_51 
REMARK   24  A    between atoms: C_51  and  O_52 
ROOT
ATOM      1  C   LIG d   1       9.100  -0.202  -6.734  0.00  0.00     0.027 C 
ATOM      2  H   LIG d   1       9.917  -0.641  -7.288  0.00  0.00     0.036 H 
ATOM      3  C   LIG d   1       7.826  -0.067  -7.607  0.00  0.00     0.062 C 
ATOM      4  H   LIG d   1       6.951  -0.406  -7.055  0.00  0.00     0.060 H 
ATOM      5  C   LIG d   1       7.685   1.444  -7.949  0.00  0.00    -0.020 C 
ATOM      6  C   LIG d   1       9.101   1.994  -7.647  0.00  0.00    -0.019 C 
ATOM      7  C   LIG d   1       9.416   1.256  -6.332  0.00  0.00    -0.011 C 
ATOM      8  C   LIG d   1      10.836   1.502  -5.893  0.00  0.00     0.013 C 
ATOM      9  C   LIG d   1      11.260   2.912  -6.261  0.00  0.00     0.141 C 
ATOM     10  O   LIG d   1      12.457   3.184  -6.283  0.00  0.00    -0.297 OA
ATOM     11  C   LIG d   1      10.255   3.976  -6.595  0.00  0.00     0.040 C 
ATOM     12  C   LIG d   1       9.168   3.496  -7.532  0.00  0.00    -0.019 C 
ATOM     13  H   LIG d   1       8.195   3.846  -7.136  0.00  0.00     0.032 H 
ATOM     14  C   LIG d   1       9.333   4.115  -8.927  0.00  0.00    -0.030 C 
ATOM     15  C   LIG d   1       9.324   5.622  -8.800  0.00  0.00    -0.083 C 
ATOM     16  C   LIG d   1      10.091   6.154  -7.882  0.00  0.00    -0.052 C 
ATOM     17  C   LIG d   1      10.943   5.256  -7.045  0.00  0.00     0.015 C 
ATOM     18  H   LIG d   1      11.760   4.924  -7.686  0.00  0.00     0.040 H 
ATOM     19  C   LIG d   1      11.582   5.940  -5.880  0.00  0.00    -0.031 C 
ATOM     20  C   LIG d   1      11.295   7.184  -5.510  0.00  0.00     0.164 C 
ATOM     21  C   LIG d   1      10.326   7.985  -6.263  0.00  0.00     0.207 C 
ATOM     22  O   LIG d   1       9.714   8.901  -5.753  0.00  0.00    -0.288 OA
ATOM     23  C   LIG d   1      10.131   7.656  -7.730  0.00  0.00     0.052 C 
ATOM     24  H   LIG d   1       7.474   1.564  -9.015  0.00  0.00     0.030 H 
ATOM     25  H   LIG d   1       6.937   1.937  -7.350  0.00  0.00     0.030 H 
ATOM     26  H   LIG d   1      10.925   1.356  -4.805  0.00  0.00     0.035 H 
ATOM     27  H   LIG d   1      11.514   0.763  -6.359  0.00  0.00     0.035 H 
ATOM     28  H   LIG d   1      10.307   3.857  -9.351  0.00  0.00     0.031 H 
ATOM     29  H   LIG d   1       8.530   3.805  -9.590  0.00  0.00     0.031 H 
ATOM     30  H   LIG d   1       8.725   6.188  -9.472  0.00  0.00     0.057 H 
ATOM     31  H   LIG d   1      12.322   5.405  -5.299  0.00  0.00     0.062 H 
ENDROOT
BRANCH   1  32
ATOM     32  C   LIG d   1       8.803  -1.020  -5.473  0.00  0.00     0.130 C 
BRANCH  32  33
ATOM     33  C   LIG d   1       7.515  -1.780  -5.659  0.00  0.00     0.187 C 
ATOM     34  O   LIG d   1       7.495  -2.783  -6.343  0.00  0.00    -0.290 OA
BRANCH  33  35
ATOM     35  C   LIG d   1       6.289  -1.310  -5.015  0.00  0.00    -0.017 C 
ATOM     36  C   LIG d   1       5.918  -1.816  -3.836  0.00  0.00    -0.038 C 
ATOM     37  H   LIG d   1       6.524  -2.571  -3.359  0.00  0.00     0.061 H 
ATOM     38  H   LIG d   1       5.683  -0.555  -5.492  0.00  0.00     0.065 H 
BRANCH  36  39
ATOM     39  C   LIG d   1       4.655  -1.332  -3.172  0.00  0.00     0.126 C 
BRANCH  39  40
ATOM     40  O   LIG d   1       4.989  -0.421  -2.122  0.00  0.00    -0.455 OA
BRANCH  40  41
ATOM     41  C   LIG d   1       4.910   0.889  -2.404  0.00  0.00     0.305 C 
ATOM     42  O   LIG d   1       5.898   1.492  -2.753  0.00  0.00    -0.251 OA
BRANCH  41  43
ATOM     43  C   LIG d   1       3.592   1.607  -2.284  0.00  0.00     0.033 C 
ATOM     44  H   LIG d   1       2.782   0.924  -2.541  0.00  0.00     0.034 H 
ATOM     45  H   LIG d   1       3.460   1.959  -1.261  0.00  0.00     0.034 H 
ATOM     46  H   LIG d   1       3.579   2.458  -2.966  0.00  0.00     0.034 H 
ENDBRANCH  41  43
ENDBRANCH  40  41
ENDBRANCH  39  40
BRANCH  39  47
ATOM     47  C   LIG d   1       3.895  -2.525  -2.590  0.00  0.00    -0.021 C 
ATOM     48  H   LIG d   1       2.901  -2.205  -2.276  0.00  0.00     0.027 H 
ATOM     49  H   LIG d   1       3.803  -3.303  -3.348  0.00  0.00     0.027 H 
ATOM     50  H   LIG d   1       4.438  -2.918  -1.730  0.00  0.00     0.027 H 
ENDBRANCH  39  47
BRANCH  39  51
ATOM     51  C   LIG d   1       3.776  -0.622  -4.203  0.00  0.00    -0.021 C 
ATOM     52  H   LIG d   1       3.472  -1.332  -4.973  0.00  0.00     0.027 H 
ATOM     53  H   LIG d   1       2.892  -0.218  -3.711  0.00  0.00     0.027 H 
ATOM     54  H   LIG d   1       4.339   0.191  -4.662  0.00  0.00     0.027 H 
ENDBRANCH  39  51
ENDBRANCH  36  39
ENDBRANCH  33  35
ENDBRANCH  32  33
BRANCH  32  55
ATOM     55  C   LIG d   1       9.946  -2.007  -5.224  0.00  0.00    -0.028 C 
ATOM     56  H   LIG d   1       9.920  -2.791  -5.980  0.00  0.00     0.026 H 
ATOM     57  H   LIG d   1      10.898  -1.480  -5.280  0.00  0.00     0.026 H 
ATOM     58  H   LIG d   1       9.833  -2.451  -4.235  0.00  0.00     0.026 H 
ENDBRANCH  32  55
BRANCH  32  59
ATOM     59  O   LIG d   1       8.680  -0.141  -4.353  0.00  0.00    -0.381 OA
ATOM     60  H   LIG d   1       7.940   0.478  -4.419  0.00  0.00     0.211 HD
ENDBRANCH  32  59
ENDBRANCH   1  32
BRANCH   7  61
ATOM     61  C   LIG d   1       8.426   1.595  -5.213  0.00  0.00    -0.058 C 
ATOM     62  H   LIG d   1       8.961   2.044  -4.377  0.00  0.00     0.024 H 
ATOM     63  H   LIG d   1       7.680   2.297  -5.588  0.00  0.00     0.024 H 
ATOM     64  H   LIG d   1       7.929   0.683  -4.879  0.00  0.00     0.024 H 
ENDBRANCH   7  61
BRANCH   3  65
ATOM     65  O   LIG d   1       7.975  -0.827  -8.810  0.00  0.00    -0.391 OA
ATOM     66  H   LIG d   1       8.131  -1.770  -8.662  0.00  0.00     0.210 HD
ENDBRANCH   3  65
BRANCH   6  67
ATOM     67  C   LIG d   1      10.044   1.498  -8.754  0.00  0.00    -0.059 C 
ATOM     68  H   LIG d   1       9.672   0.554  -9.153  0.00  0.00     0.024 H 
ATOM     69  H   LIG d   1      10.088   2.237  -9.553  0.00  0.00     0.024 H 
ATOM     70  H   LIG d   1      11.042   1.348  -8.342  0.00  0.00     0.024 H 
ENDBRANCH   6  67
BRANCH  11  71
ATOM     71  C   LIG d   1       9.582   4.397  -5.277  0.00  0.00    -0.052 C 
ATOM     72  H   LIG d   1       8.839   5.170  -5.479  0.00  0.00     0.024 H 
ATOM     73  H   LIG d   1       9.094   3.534  -4.826  0.00  0.00     0.024 H 
ATOM     74  H   LIG d   1      10.335   4.788  -4.593  0.00  0.00     0.024 H 
ENDBRANCH  11  71
BRANCH  23  75
ATOM     75  C   LIG d   1      11.302   8.229  -8.543  0.00  0.00    -0.049 C 
ATOM     76  H   LIG d   1      10.951   9.066  -9.147  0.00  0.00     0.024 H 
ATOM     77  H   LIG d   1      12.082   8.573  -7.864  0.00  0.00     0.024 H 
ATOM     78  H   LIG d   1      11.705   7.454  -9.196  0.00  0.00     0.024 H 
ENDBRANCH  23  75
BRANCH  23  79
ATOM     79  C   LIG d   1       8.825   8.307  -8.211  0.00  0.00    -0.049 C 
ATOM     80  H   LIG d   1       8.412   7.728  -9.036  0.00  0.00     0.024 H 
ATOM     81  H   LIG d   1       8.109   8.332  -7.390  0.00  0.00     0.024 H 
ATOM     82  H   LIG d   1       9.028   9.324  -8.546  0.00  0.00     0.024 H 
ENDBRANCH  23  79
BRANCH  20  83
ATOM     83  O   LIG d   1      11.907   7.729  -4.425  0.00  0.00    -0.458 OA
BRANCH  83  84
ATOM     84  C   LIG d   1      11.511   7.238  -3.143  0.00  0.00     0.231 C 
ATOM     85  H   LIG d   1      11.080   6.243  -3.251  0.00  0.00     0.108 H 
ATOM     86  O   LIG d   1      10.542   8.120  -2.573  0.00  0.00    -0.331 OA
ATOM     87  C   LIG d   1      10.058   7.708  -1.293  0.00  0.00     0.114 C 
ATOM     88  C   LIG d   1      11.222   7.654  -0.301  0.00  0.00     0.112 C 
ATOM     89  H   LIG d   1       9.606   6.718  -1.378  0.00  0.00     0.065 H 
ATOM     90  C   LIG d   1      12.294   6.698  -0.835  0.00  0.00     0.115 C 
ATOM     91  H   LIG d   1      11.649   8.650  -0.186  0.00  0.00     0.065 H 
ATOM     92  C   LIG d   1      12.735   7.166  -2.224  0.00  0.00     0.145 C 
ATOM     93  H   LIG d   1      11.882   5.690  -0.903  0.00  0.00     0.065 H 
ATOM     94  H   LIG d   1      13.192   8.153  -2.148  0.00  0.00     0.068 H 
BRANCH  87  95
ATOM     95  C   LIG d   1       9.011   8.706  -0.798  0.00  0.00     0.073 C 
ATOM     96  H   LIG d   1       9.217   8.965   0.241  0.00  0.00     0.058 H 
ATOM     97  H   LIG d   1       9.048   9.606  -1.411  0.00  0.00     0.058 H 
BRANCH  95  98
ATOM     98  O   LIG d   1       7.711   8.119  -0.891  0.00  0.00    -0.392 OA
ATOM     99  H   LIG d   1       7.312   8.186  -1.770  0.00  0.00     0.209 HD
ENDBRANCH  95  98
ENDBRANCH  87  95
BRANCH  88 100
ATOM    100  O   LIG d   1      10.752   7.186   0.964  0.00  0.00    -0.387 OA
ATOM    101  H   LIG d   1       9.792   7.086   1.015  0.00  0.00     0.210 HD
ENDBRANCH  88 100
BRANCH  90 102
ATOM    102  O   LIG d   1      13.417   6.696   0.048  0.00  0.00    -0.386 OA
ATOM    103  H   LIG d   1      13.882   5.848   0.093  0.00  0.00     0.210 HD
ENDBRANCH  90 102
BRANCH  92 104
ATOM    104  O   LIG d   1      13.682   6.242  -2.764  0.00  0.00    -0.383 OA
ATOM    105  H   LIG d   1      13.647   5.363  -2.361  0.00  0.00     0.210 HD
ENDBRANCH  92 104
ENDBRANCH  83  84
ENDBRANCH  20  83
TORSDOF 24
ENDMDL
MODEL 6
REMARK VINA RESULT:      -6.2      4.650     11.340
REMARK  24 active torsions:
REMARK  status: ('A' for Active; 'I' for Inactive)
REMARK    1  A    between atoms: C_1  and  C_2 
REMARK    2  A    between atoms: C_2  and  O_4 
REMARK    3  A    between atoms: O_4  and  C_5 
REMARK    4  A    between atoms: C_5  and  C_6 
REMARK    5  A    between atoms: C_5  and  C_7 
REMARK    6  A    between atoms: C_5  and  C_8 
REMARK    7  A    between atoms: C_9  and  C_10 
REMARK    8  A    between atoms: C_10  and  C_12 
REMARK    9  A    between atoms: C_12  and  C_13 
REMARK   10  A    between atoms: C_12  and  C_14 
REMARK   11  A    between atoms: C_12  and  O_60 
REMARK   12  A    between atoms: C_16  and  O_59 
REMARK   13  A    between atoms: C_19  and  C_58 
REMARK   14  A    between atoms: C_20  and  C_57 
REMARK   15  A    between atoms: C_24  and  C_56 
REMARK   16  A    between atoms: C_33  and  O_39 
REMARK   17  A    between atoms: C_36  and  C_37 
REMARK   18  A    between atoms: C_36  and  C_38 
REMARK   19  A    between atoms: O_39  and  C_40 
REMARK   20  A    between atoms: C_42  and  O_55 
REMARK   21  A    between atoms: C_44  and  O_54 
REMARK   22  A    between atoms: C_46  and  O_53 
REMARK   23  A    between atoms: C_48  and  C_51 
REMARK   24  A    between atoms: C_51  and  O_52 
ROOT
ATOM      1  C   LIG d   1       5.061  -2.578  -6.444  0.00  0.00     0.027 C 
ATOM      2  H   LIG d   1       4.115  -2.072  -6.575  0.00  0.00     0.036 H 
ATOM      3  C   LIG d   1       5.233  -3.100  -4.995  0.00  0.00     0.062 C 
ATOM      4  H   LIG d   1       5.611  -4.121  -5.004  0.00  0.00     0.060 H 
ATOM      5  C   LIG d   1       6.262  -2.158  -4.306  0.00  0.00    -0.020 C 
ATOM      6  C   LIG d   1       6.261  -0.919  -5.234  0.00  0.00    -0.019 C 
ATOM      7  C   LIG d   1       6.245  -1.599  -6.616  0.00  0.00    -0.011 C 
ATOM      8  C   LIG d   1       6.081  -0.589  -7.721  0.00  0.00     0.013 C 
ATOM      9  C   LIG d   1       6.792   0.702  -7.360  0.00  0.00     0.141 C 
ATOM     10  O   LIG d   1       6.503   1.728  -7.968  0.00  0.00    -0.297 OA
ATOM     11  C   LIG d   1       7.835   0.752  -6.281  0.00  0.00     0.040 C 
ATOM     12  C   LIG d   1       7.432   0.008  -5.026  0.00  0.00    -0.019 C 
ATOM     13  H   LIG d   1       8.293  -0.607  -4.701  0.00  0.00     0.032 H 
ATOM     14  C   LIG d   1       7.123   0.986  -3.884  0.00  0.00    -0.030 C 
ATOM     15  C   LIG d   1       8.335   1.857  -3.641  0.00  0.00    -0.083 C 
ATOM     16  C   LIG d   1       8.897   2.412  -4.686  0.00  0.00    -0.052 C 
ATOM     17  C   LIG d   1       8.299   2.180  -6.035  0.00  0.00     0.015 C 
ATOM     18  H   LIG d   1       7.389   2.780  -6.073  0.00  0.00     0.040 H 
ATOM     19  C   LIG d   1       9.154   2.652  -7.165  0.00  0.00    -0.031 C 
ATOM     20  C   LIG d   1      10.404   3.080  -7.014  0.00  0.00     0.164 C 
ATOM     21  C   LIG d   1      11.019   3.140  -5.685  0.00  0.00     0.207 C 
ATOM     22  O   LIG d   1      12.221   3.089  -5.530  0.00  0.00    -0.288 OA
ATOM     23  C   LIG d   1      10.098   3.306  -4.491  0.00  0.00     0.052 C 
ATOM     24  H   LIG d   1       5.894  -1.867  -3.319  0.00  0.00     0.030 H 
ATOM     25  H   LIG d   1       7.245  -2.596  -4.239  0.00  0.00     0.030 H 
ATOM     26  H   LIG d   1       6.491  -0.991  -8.662  0.00  0.00     0.035 H 
ATOM     27  H   LIG d   1       5.009  -0.398  -7.909  0.00  0.00     0.035 H 
ATOM     28  H   LIG d   1       6.317   1.667  -4.167  0.00  0.00     0.031 H 
ATOM     29  H   LIG d   1       6.874   0.453  -2.971  0.00  0.00     0.031 H 
ATOM     30  H   LIG d   1       8.663   2.009  -2.642  0.00  0.00     0.057 H 
ATOM     31  H   LIG d   1       8.746   2.651  -8.168  0.00  0.00     0.062 H 
ENDROOT
BRANCH   1  32
ATOM     32  C   LIG d   1       5.204  -3.724  -7.450  0.00  0.00     0.130 C 
BRANCH  32  33
ATOM     33  C   LIG d   1       3.982  -3.775  -8.331  0.00  0.00     0.187 C 
ATOM     34  O   LIG d   1       3.200  -4.698  -8.231  0.00  0.00    -0.290 OA
BRANCH  33  35
ATOM     35  C   LIG d   1       3.739  -2.712  -9.306  0.00  0.00    -0.017 C 
ATOM     36  C   LIG d   1       2.814  -1.782  -9.063  0.00  0.00    -0.038 C 
ATOM     37  H   LIG d   1       2.246  -1.813  -8.146  0.00  0.00     0.061 H 
ATOM     38  H   LIG d   1       4.308  -2.681 -10.224  0.00  0.00     0.065 H 
BRANCH  36  39
ATOM     39  C   LIG d   1       2.563  -0.687 -10.067  0.00  0.00     0.126 C 
BRANCH  39  40
ATOM     40  O   LIG d   1       2.036   0.461  -9.397  0.00  0.00    -0.455 OA
BRANCH  40  41
ATOM     41  C   LIG d   1       2.924   1.318  -8.868  0.00  0.00     0.305 C 
ATOM     42  O   LIG d   1       3.236   1.223  -7.705  0.00  0.00    -0.251 OA
BRANCH  41  43
ATOM     43  C   LIG d   1       3.530   2.399  -9.724  0.00  0.00     0.033 C 
ATOM     44  H   LIG d   1       3.470   2.108 -10.773  0.00  0.00     0.034 H 
ATOM     45  H   LIG d   1       2.986   3.331  -9.573  0.00  0.00     0.034 H 
ATOM     46  H   LIG d   1       4.576   2.539  -9.446  0.00  0.00     0.034 H 
ENDBRANCH  41  43
ENDBRANCH  40  41
ENDBRANCH  39  40
BRANCH  39  47
ATOM     47  C   LIG d   1       1.558  -1.173 -11.113  0.00  0.00    -0.021 C 
ATOM     48  H   LIG d   1       1.479  -2.259 -11.064  0.00  0.00     0.027 H 
ATOM     49  H   LIG d   1       0.583  -0.729 -10.915  0.00  0.00     0.027 H 
ATOM     50  H   LIG d   1       1.897  -0.878 -12.107  0.00  0.00     0.027 H 
ENDBRANCH  39  47
BRANCH  39  51
ATOM     51  C   LIG d   1       3.878  -0.317 -10.757  0.00  0.00    -0.021 C 
ATOM     52  H   LIG d   1       3.820  -0.579 -11.814  0.00  0.00     0.027 H 
ATOM     53  H   LIG d   1       4.052   0.754 -10.657  0.00  0.00     0.027 H 
ATOM     54  H   LIG d   1       4.699  -0.863 -10.292  0.00  0.00     0.027 H 
ENDBRANCH  39  51
ENDBRANCH  36  39
ENDBRANCH  33  35
ENDBRANCH  32  33
BRANCH  32  55
ATOM     55  C   LIG d   1       6.446  -3.494  -8.313  0.00  0.00    -0.028 C 
ATOM     56  H   LIG d   1       6.142  -3.280  -9.337  0.00  0.00     0.026 H 
ATOM     57  H   LIG d   1       7.012  -2.651  -7.917  0.00  0.00     0.026 H 
ATOM     58  H   LIG d   1       7.069  -4.389  -8.299  0.00  0.00     0.026 H 
ENDBRANCH  32  55
BRANCH  32  59
ATOM     59  O   LIG d   1       5.335  -4.961  -6.746  0.00  0.00    -0.381 OA
ATOM     60  H   LIG d   1       6.219  -5.117  -6.387  0.00  0.00     0.211 HD
ENDBRANCH  32  59
ENDBRANCH   1  32
BRANCH   7  61
ATOM     61  C   LIG d   1       7.474  -2.483  -6.853  0.00  0.00    -0.058 C 
ATOM     62  H   LIG d   1       7.492  -3.285  -6.116  0.00  0.00     0.024 H 
ATOM     63  H   LIG d   1       7.426  -2.911  -7.855  0.00  0.00     0.024 H 
ATOM     64  H   LIG d   1       8.378  -1.881  -6.758  0.00  0.00     0.024 H 
ENDBRANCH   7  61
BRANCH   3  65
ATOM     65  O   LIG d   1       3.982  -3.044  -4.304  0.00  0.00    -0.391 OA
ATOM     66  H   LIG d   1       3.988  -3.485  -3.442  0.00  0.00     0.210 HD
ENDBRANCH   3  65
BRANCH   6  67
ATOM     67  C   LIG d   1       4.938  -0.169  -5.014  0.00  0.00    -0.059 C 
ATOM     68  H   LIG d   1       4.462  -0.530  -4.102  0.00  0.00     0.024 H 
ATOM     69  H   LIG d   1       5.135   0.899  -4.923  0.00  0.00     0.024 H 
ATOM     70  H   LIG d   1       4.275  -0.344  -5.862  0.00  0.00     0.024 H 
ENDBRANCH   6  67
BRANCH  11  71
ATOM     71  C   LIG d   1       9.100   0.076  -6.838  0.00  0.00    -0.052 C 
ATOM     72  H   LIG d   1       9.252  -0.880  -6.335  0.00  0.00     0.024 H 
ATOM     73  H   LIG d   1       8.981  -0.092  -7.908  0.00  0.00     0.024 H 
ATOM     74  H   LIG d   1       9.962   0.719  -6.664  0.00  0.00     0.024 H 
ENDBRANCH  11  71
BRANCH  23  75
ATOM     75  C   LIG d   1       9.644   4.771  -4.395  0.00  0.00    -0.049 C 
ATOM     76  H   LIG d   1      10.390   5.347  -3.847  0.00  0.00     0.024 H 
ATOM     77  H   LIG d   1       9.531   5.184  -5.398  0.00  0.00     0.024 H 
ATOM     78  H   LIG d   1       8.689   4.822  -3.872  0.00  0.00     0.024 H 
ENDBRANCH  23  75
BRANCH  23  79
ATOM     79  C   LIG d   1      10.875   2.941  -3.217  0.00  0.00    -0.049 C 
ATOM     80  H   LIG d   1      10.769   1.875  -3.020  0.00  0.00     0.024 H 
ATOM     81  H   LIG d   1      11.929   3.182  -3.354  0.00  0.00     0.024 H 
ATOM     82  H   LIG d   1      10.479   3.508  -2.375  0.00  0.00     0.024 H 
ENDBRANCH  23  79
BRANCH  20  83
ATOM     83  O   LIG d   1      11.123   3.475  -8.098  0.00  0.00    -0.458 OA
BRANCH  83  84
ATOM     84  C   LIG d   1      10.871   4.789  -8.599  0.00  0.00     0.231 C 
ATOM     85  H   LIG d   1      11.691   5.095  -9.249  0.00  0.00     0.108 H 
ATOM     86  O   LIG d   1      10.760   5.704  -7.507  0.00  0.00    -0.331 OA
ATOM     87  C   LIG d   1      10.532   7.058  -7.901  0.00  0.00     0.114 C 
ATOM     88  C   LIG d   1       9.210   7.149  -8.668  0.00  0.00     0.112 C 
ATOM     89  H   LIG d   1      11.348   7.393  -8.541  0.00  0.00     0.065 H 
ATOM     90  C   LIG d   1       9.267   6.212  -9.879  0.00  0.00     0.115 C 
ATOM     91  H   LIG d   1       8.389   6.852  -8.017  0.00  0.00     0.065 H 
ATOM     92  C   LIG d   1       9.563   4.788  -9.396  0.00  0.00     0.145 C 
ATOM     93  H   LIG d   1      10.057   6.538 -10.557  0.00  0.00     0.065 H 
ATOM     94  H   LIG d   1       8.749   4.444  -8.758  0.00  0.00     0.068 H 
BRANCH  87  95
ATOM     95  C   LIG d   1      10.461   7.946  -6.657  0.00  0.00     0.073 C 
ATOM     96  H   LIG d   1      11.091   7.526  -5.873  0.00  0.00     0.058 H 
ATOM     97  H   LIG d   1      10.810   8.948  -6.906  0.00  0.00     0.058 H 
BRANCH  95  98
ATOM     98  O   LIG d   1       9.110   8.013  -6.196  0.00  0.00    -0.392 OA
ATOM     99  H   LIG d   1       8.454   7.763  -6.862  0.00  0.00     0.209 HD
ENDBRANCH  95  98
ENDBRANCH  87  95
BRANCH  88 100
ATOM    100  O   LIG d   1       9.007   8.491  -9.114  0.00  0.00    -0.387 OA
ATOM    101  H   LIG d   1       8.223   8.915  -8.740  0.00  0.00     0.210 HD
ENDBRANCH  88 100
BRANCH  90 102
ATOM    102  O   LIG d   1       8.013   6.234 -10.562  0.00  0.00    -0.386 OA
ATOM    103  H   LIG d   1       7.477   7.018 -10.377  0.00  0.00     0.210 HD
ENDBRANCH  90 102
BRANCH  92 104
ATOM    104  O   LIG d   1       9.690   3.917 -10.521  0.00  0.00    -0.383 OA
ATOM    105  H   LIG d   1       9.912   3.005 -10.289  0.00  0.00     0.210 HD
ENDBRANCH  92 104
ENDBRANCH  83  84
ENDBRANCH  20  83
TORSDOF 24
ENDMDL
MODEL 7
REMARK VINA RESULT:      -6.2      2.189      3.571
REMARK  24 active torsions:
REMARK  status: ('A' for Active; 'I' for Inactive)
REMARK    1  A    between atoms: C_1  and  C_2 
REMARK    2  A    between atoms: C_2  and  O_4 
REMARK    3  A    between atoms: O_4  and  C_5 
REMARK    4  A    between atoms: C_5  and  C_6 
REMARK    5  A    between atoms: C_5  and  C_7 
REMARK    6  A    between atoms: C_5  and  C_8 
REMARK    7  A    between atoms: C_9  and  C_10 
REMARK    8  A    between atoms: C_10  and  C_12 
REMARK    9  A    between atoms: C_12  and  C_13 
REMARK   10  A    between atoms: C_12  and  C_14 
REMARK   11  A    between atoms: C_12  and  O_60 
REMARK   12  A    between atoms: C_16  and  O_59 
REMARK   13  A    between atoms: C_19  and  C_58 
REMARK   14  A    between atoms: C_20  and  C_57 
REMARK   15  A    between atoms: C_24  and  C_56 
REMARK   16  A    between atoms: C_33  and  O_39 
REMARK   17  A    between atoms: C_36  and  C_37 
REMARK   18  A    between atoms: C_36  and  C_38 
REMARK   19  A    between atoms: O_39  and  C_40 
REMARK   20  A    between atoms: C_42  and  O_55 
REMARK   21  A    between atoms: C_44  and  O_54 
REMARK   22  A    between atoms: C_46  and  O_53 
REMARK   23  A    between atoms: C_48  and  C_51 
REMARK   24  A    between atoms: C_51  and  O_52 
ROOT
ATOM      1  C   LIG d   1       5.550  -1.239  -4.952  0.00  0.00     0.027 C 
ATOM      2  H   LIG d   1       4.485  -1.070  -5.023  0.00  0.00     0.036 H 
ATOM      3  C   LIG d   1       6.327  -0.457  -6.042  0.00  0.00     0.062 C 
ATOM      4  H   LIG d   1       7.195   0.035  -5.607  0.00  0.00     0.060 H 
ATOM      5  C   LIG d   1       6.782  -1.505  -7.096  0.00  0.00    -0.020 C 
ATOM      6  C   LIG d   1       5.865  -2.715  -6.790  0.00  0.00    -0.019 C 
ATOM      7  C   LIG d   1       5.901  -2.714  -5.250  0.00  0.00    -0.011 C 
ATOM      8  C   LIG d   1       4.941  -3.725  -4.680  0.00  0.00     0.013 C 
ATOM      9  C   LIG d   1       4.870  -4.945  -5.581  0.00  0.00     0.141 C 
ATOM     10  O   LIG d   1       3.922  -5.715  -5.463  0.00  0.00    -0.297 OA
ATOM     11  C   LIG d   1       5.930  -5.231  -6.606  0.00  0.00     0.040 C 
ATOM     12  C   LIG d   1       6.327  -4.011  -7.408  0.00  0.00    -0.019 C 
ATOM     13  H   LIG d   1       7.433  -3.981  -7.463  0.00  0.00     0.032 H 
ATOM     14  C   LIG d   1       5.810  -4.110  -8.850  0.00  0.00    -0.030 C 
ATOM     15  C   LIG d   1       6.344  -5.378  -9.477  0.00  0.00    -0.083 C 
ATOM     16  C   LIG d   1       6.229  -6.486  -8.788  0.00  0.00    -0.052 C 
ATOM     17  C   LIG d   1       5.559  -6.438  -7.453  0.00  0.00     0.015 C 
ATOM     18  H   LIG d   1       4.493  -6.325  -7.650  0.00  0.00     0.040 H 
ATOM     19  C   LIG d   1       5.703  -7.695  -6.659  0.00  0.00    -0.031 C 
ATOM     20  C   LIG d   1       6.491  -8.705  -7.015  0.00  0.00     0.164 C 
ATOM     21  C   LIG d   1       7.265  -8.648  -8.258  0.00  0.00     0.207 C 
ATOM     22  O   LIG d   1       8.285  -9.287  -8.410  0.00  0.00    -0.288 OA
ATOM     23  C   LIG d   1       6.728  -7.781  -9.381  0.00  0.00     0.052 C 
ATOM     24  H   LIG d   1       6.565  -1.136  -8.102  0.00  0.00     0.030 H 
ATOM     25  H   LIG d   1       7.823  -1.767  -6.998  0.00  0.00     0.030 H 
ATOM     26  H   LIG d   1       5.264  -4.024  -3.670  0.00  0.00     0.035 H 
ATOM     27  H   LIG d   1       3.938  -3.276  -4.562  0.00  0.00     0.035 H 
ATOM     28  H   LIG d   1       4.722  -4.205  -8.864  0.00  0.00     0.031 H 
ATOM     29  H   LIG d   1       6.130  -3.255  -9.439  0.00  0.00     0.031 H 
ATOM     30  H   LIG d   1       6.759  -5.330 -10.454  0.00  0.00     0.057 H 
ATOM     31  H   LIG d   1       5.138  -7.803  -5.742  0.00  0.00     0.062 H 
ENDROOT
BRANCH   1  32
ATOM     32  C   LIG d   1       6.062  -0.870  -3.556  0.00  0.00     0.130 C 
BRANCH  32  33
ATOM     33  C   LIG d   1       6.280   0.619  -3.478  0.00  0.00     0.187 C 
ATOM     34  O   LIG d   1       5.329   1.371  -3.452  0.00  0.00    -0.290 OA
BRANCH  33  35
ATOM     35  C   LIG d   1       7.640   1.157  -3.434  0.00  0.00    -0.017 C 
ATOM     36  C   LIG d   1       7.939   2.269  -4.109  0.00  0.00    -0.038 C 
ATOM     37  H   LIG d   1       7.178   2.771  -4.687  0.00  0.00     0.061 H 
ATOM     38  H   LIG d   1       8.401   0.655  -2.856  0.00  0.00     0.065 H 
BRANCH  36  39
ATOM     39  C   LIG d   1       9.340   2.824  -4.063  0.00  0.00     0.126 C 
BRANCH  39  40
ATOM     40  O   LIG d   1       9.605   3.337  -2.755  0.00  0.00    -0.455 OA
BRANCH  40  41
ATOM     41  C   LIG d   1      10.423   4.399  -2.672  0.00  0.00     0.305 C 
ATOM     42  O   LIG d   1      11.618   4.250  -2.765  0.00  0.00    -0.251 OA
BRANCH  41  43
ATOM     43  C   LIG d   1       9.850   5.776  -2.463  0.00  0.00     0.033 C 
ATOM     44  H   LIG d   1       8.761   5.723  -2.479  0.00  0.00     0.034 H 
ATOM     45  H   LIG d   1      10.180   6.165  -1.499  0.00  0.00     0.034 H 
ATOM     46  H   LIG d   1      10.194   6.438  -3.259  0.00  0.00     0.034 H 
ENDBRANCH  41  43
ENDBRANCH  40  41
ENDBRANCH  39  40
BRANCH  39  47
ATOM     47  C   LIG d   1       9.476   3.950  -5.090  0.00  0.00    -0.021 C 
ATOM     48  H   LIG d   1       9.540   4.908  -4.573  0.00  0.00     0.027 H 
ATOM     49  H   LIG d   1      10.379   3.796  -5.681  0.00  0.00     0.027 H 
ATOM     50  H   LIG d   1       8.607   3.949  -5.747  0.00  0.00     0.027 H 
ENDBRANCH  39  47
BRANCH  39  51
ATOM     51  C   LIG d   1      10.340   1.714  -4.388  0.00  0.00    -0.021 C 
ATOM     52  H   LIG d   1      11.326   1.991  -4.014  0.00  0.00     0.027 H 
ATOM     53  H   LIG d   1      10.019   0.786  -3.916  0.00  0.00     0.027 H 
ATOM     54  H   LIG d   1      10.388   1.573  -5.469  0.00  0.00     0.027 H 
ENDBRANCH  39  51
ENDBRANCH  36  39
ENDBRANCH  33  35
ENDBRANCH  32  33
BRANCH  32  55
ATOM     55  C   LIG d   1       5.031  -1.290  -2.506  0.00  0.00    -0.028 C 
ATOM     56  H   LIG d   1       5.524  -1.415  -1.543  0.00  0.00     0.026 H 
ATOM     57  H   LIG d   1       4.262  -0.522  -2.425  0.00  0.00     0.026 H 
ATOM     58  H   LIG d   1       4.572  -2.233  -2.805  0.00  0.00     0.026 H 
ENDBRANCH  32  55
BRANCH  32  59
ATOM     59  O   LIG d   1       7.297  -1.546  -3.308  0.00  0.00    -0.381 OA
ATOM     60  H   LIG d   1       7.458  -1.740  -2.375  0.00  0.00     0.211 HD
ENDBRANCH  32  59
ENDBRANCH   1  32
BRANCH   7  61
ATOM     61  C   LIG d   1       7.314  -2.918  -4.692  0.00  0.00    -0.058 C 
ATOM     62  H   LIG d   1       7.254  -3.415  -3.725  0.00  0.00     0.024 H 
ATOM     63  H   LIG d   1       7.892  -3.533  -5.383  0.00  0.00     0.024 H 
ATOM     64  H   LIG d   1       7.800  -1.949  -4.574  0.00  0.00     0.024 H 
ENDBRANCH   7  61
BRANCH   3  65
ATOM     65  O   LIG d   1       5.469   0.510  -6.654  0.00  0.00    -0.391 OA
ATOM     66  H   LIG d   1       5.779   1.422  -6.568  0.00  0.00     0.210 HD
ENDBRANCH   3  65
BRANCH   6  67
ATOM     67  C   LIG d   1       4.449  -2.365  -7.272  0.00  0.00    -0.059 C 
ATOM     68  H   LIG d   1       3.768  -3.177  -7.018  0.00  0.00     0.024 H 
ATOM     69  H   LIG d   1       4.117  -1.446  -6.791  0.00  0.00     0.024 H 
ATOM     70  H   LIG d   1       4.457  -2.225  -8.354  0.00  0.00     0.024 H 
ENDBRANCH   6  67
BRANCH  11  71
ATOM     71  C   LIG d   1       7.178  -5.717  -5.849  0.00  0.00    -0.052 C 
ATOM     72  H   LIG d   1       8.073  -5.424  -6.398  0.00  0.00     0.024 H 
ATOM     73  H   LIG d   1       7.198  -5.270  -4.856  0.00  0.00     0.024 H 
ATOM     74  H   LIG d   1       7.147  -6.803  -5.758  0.00  0.00     0.024 H 
ENDBRANCH  11  71
BRANCH  23  75
ATOM     75  C   LIG d   1       5.573  -8.512 -10.083  0.00  0.00    -0.049 C 
ATOM     76  H   LIG d   1       5.976  -9.213 -10.813  0.00  0.00     0.024 H 
ATOM     77  H   LIG d   1       4.983  -9.054  -9.344  0.00  0.00     0.024 H 
ATOM     78  H   LIG d   1       4.939  -7.784 -10.591  0.00  0.00     0.024 H 
ENDBRANCH  23  75
BRANCH  23  79
ATOM     79  C   LIG d   1       7.856  -7.540 -10.397  0.00  0.00    -0.049 C 
ATOM     80  H   LIG d   1       7.580  -7.977 -11.356  0.00  0.00     0.024 H 
ATOM     81  H   LIG d   1       8.012  -6.468 -10.517  0.00  0.00     0.024 H 
ATOM     82  H   LIG d   1       8.774  -8.004 -10.037  0.00  0.00     0.024 H 
ENDBRANCH  23  79
BRANCH  20  83
ATOM     83  O   LIG d   1       6.581  -9.808  -6.226  0.00  0.00    -0.458 OA
BRANCH  83  84
ATOM     84  C   LIG d   1       6.248  -9.647  -4.846  0.00  0.00     0.231 C 
ATOM     85  H   LIG d   1       5.974  -8.609  -4.656  0.00  0.00     0.108 H 
ATOM     86  O   LIG d   1       7.374 -10.000  -4.039  0.00  0.00    -0.331 OA
ATOM     87  C   LIG d   1       7.156  -9.850  -2.635  0.00  0.00     0.114 C 
ATOM     88  C   LIG d   1       6.012 -10.768  -2.197  0.00  0.00     0.112 C 
ATOM     89  H   LIG d   1       6.895  -8.814  -2.416  0.00  0.00     0.065 H 
ATOM     90  C   LIG d   1       4.755 -10.425  -3.003  0.00  0.00     0.115 C 
ATOM     91  H   LIG d   1       6.289 -11.806  -2.378  0.00  0.00     0.065 H 
ATOM     92  C   LIG d   1       5.067 -10.558  -4.496  0.00  0.00     0.145 C 
ATOM     93  H   LIG d   1       4.449  -9.403  -2.783  0.00  0.00     0.065 H 
ATOM     94  H   LIG d   1       5.325 -11.592  -4.724  0.00  0.00     0.068 H 
BRANCH  87  95
ATOM     95  C   LIG d   1       8.430 -10.226  -1.878  0.00  0.00     0.073 C 
ATOM     96  H   LIG d   1       8.413 -11.289  -1.641  0.00  0.00     0.058 H 
ATOM     97  H   LIG d   1       9.299 -10.006  -2.498  0.00  0.00     0.058 H 
BRANCH  95  98
ATOM     98  O   LIG d   1       8.505  -9.470  -0.667  0.00  0.00    -0.392 OA
ATOM     99  H   LIG d   1       8.477 -10.010   0.136  0.00  0.00     0.209 HD
ENDBRANCH  95  98
ENDBRANCH  87  95
BRANCH  88 100
ATOM    100  O   LIG d   1       5.752 -10.579  -0.804  0.00  0.00    -0.387 OA
ATOM    101  H   LIG d   1       6.492 -10.818  -0.230  0.00  0.00     0.210 HD
ENDBRANCH  88 100
BRANCH  90 102
ATOM    102  O   LIG d   1       3.701 -11.324  -2.653  0.00  0.00    -0.386 OA
ATOM    103  H   LIG d   1       3.980 -12.056  -2.084  0.00  0.00     0.210 HD
ENDBRANCH  90 102
BRANCH  92 104
ATOM    104  O   LIG d   1       3.924 -10.171  -5.261  0.00  0.00    -0.383 OA
ATOM    105  H   LIG d   1       3.150 -10.734  -5.123  0.00  0.00     0.210 HD
ENDBRANCH  92 104
ENDBRANCH  83  84
ENDBRANCH  20  83
TORSDOF 24
ENDMDL
MODEL 8
REMARK VINA RESULT:      -6.1      4.873     11.579
REMARK  24 active torsions:
REMARK  status: ('A' for Active; 'I' for Inactive)
REMARK    1  A    between atoms: C_1  and  C_2 
REMARK    2  A    between atoms: C_2  and  O_4 
REMARK    3  A    between atoms: O_4  and  C_5 
REMARK    4  A    between atoms: C_5  and  C_6 
REMARK    5  A    between atoms: C_5  and  C_7 
REMARK    6  A    between atoms: C_5  and  C_8 
REMARK    7  A    between atoms: C_9  and  C_10 
REMARK    8  A    between atoms: C_10  and  C_12 
REMARK    9  A    between atoms: C_12  and  C_13 
REMARK   10  A    between atoms: C_12  and  C_14 
REMARK   11  A    between atoms: C_12  and  O_60 
REMARK   12  A    between atoms: C_16  and  O_59 
REMARK   13  A    between atoms: C_19  and  C_58 
REMARK   14  A    between atoms: C_20  and  C_57 
REMARK   15  A    between atoms: C_24  and  C_56 
REMARK   16  A    between atoms: C_33  and  O_39 
REMARK   17  A    between atoms: C_36  and  C_37 
REMARK   18  A    between atoms: C_36  and  C_38 
REMARK   19  A    between atoms: O_39  and  C_40 
REMARK   20  A    between atoms: C_42  and  O_55 
REMARK   21  A    between atoms: C_44  and  O_54 
REMARK   22  A    between atoms: C_46  and  O_53 
REMARK   23  A    between atoms: C_48  and  C_51 
REMARK   24  A    between atoms: C_51  and  O_52 
ROOT
ATOM      1  C   LIG d   1       6.772  -1.591  -5.730  0.00  0.00     0.027 C 
ATOM      2  H   LIG d   1       7.440  -2.345  -6.120  0.00  0.00     0.036 H 
ATOM      3  C   LIG d   1       5.609  -1.296  -6.713  0.00  0.00     0.062 C 
ATOM      4  H   LIG d   1       4.663  -1.256  -6.176  0.00  0.00     0.060 H 
ATOM      5  C   LIG d   1       5.915   0.087  -7.355  0.00  0.00    -0.020 C 
ATOM      6  C   LIG d   1       7.422   0.274  -7.054  0.00  0.00    -0.019 C 
ATOM      7  C   LIG d   1       7.485  -0.227  -5.599  0.00  0.00    -0.011 C 
ATOM      8  C   LIG d   1       8.906  -0.296  -5.105  0.00  0.00     0.013 C 
ATOM      9  C   LIG d   1       9.725   0.831  -5.707  0.00  0.00     0.141 C 
ATOM     10  O   LIG d   1      10.949   0.751  -5.686  0.00  0.00    -0.297 OA
ATOM     11  C   LIG d   1       9.074   2.036  -6.323  0.00  0.00     0.040 C 
ATOM     12  C   LIG d   1       7.915   1.688  -7.232  0.00  0.00    -0.019 C 
ATOM     13  H   LIG d   1       7.076   2.369  -6.992  0.00  0.00     0.032 H 
ATOM     14  C   LIG d   1       8.280   1.929  -8.703  0.00  0.00    -0.030 C 
ATOM     15  C   LIG d   1       8.701   3.371  -8.876  0.00  0.00    -0.083 C 
ATOM     16  C   LIG d   1       9.570   3.852  -8.022  0.00  0.00    -0.052 C 
ATOM     17  C   LIG d   1      10.111   2.951  -6.959  0.00  0.00     0.015 C 
ATOM     18  H   LIG d   1      10.811   2.278  -7.455  0.00  0.00     0.040 H 
ATOM     19  C   LIG d   1      10.894   3.662  -5.905  0.00  0.00    -0.031 C 
ATOM     20  C   LIG d   1      10.969   4.986  -5.810  0.00  0.00     0.164 C 
ATOM     21  C   LIG d   1      10.287   5.845  -6.781  0.00  0.00     0.207 C 
ATOM     22  O   LIG d   1       9.953   6.980  -6.512  0.00  0.00    -0.288 OA
ATOM     23  C   LIG d   1      10.036   5.280  -8.166  0.00  0.00     0.052 C 
ATOM     24  H   LIG d   1       5.770   0.032  -8.437  0.00  0.00     0.030 H 
ATOM     25  H   LIG d   1       5.328   0.883  -6.926  0.00  0.00     0.030 H 
ATOM     26  H   LIG d   1       8.927  -0.227  -4.005  0.00  0.00     0.035 H 
ATOM     27  H   LIG d   1       9.353  -1.275  -5.360  0.00  0.00     0.035 H 
ATOM     28  H   LIG d   1       9.147   1.328  -8.988  0.00  0.00     0.031 H 
ATOM     29  H   LIG d   1       7.437   1.720  -9.354  0.00  0.00     0.031 H 
ATOM     30  H   LIG d   1       8.305   3.925  -9.692  0.00  0.00     0.057 H 
ATOM     31  H   LIG d   1      11.437   3.078  -5.172  0.00  0.00     0.062 H 
ENDROOT
BRANCH   1  32
ATOM     32  C   LIG d   1       6.226  -2.010  -4.361  0.00  0.00     0.130 C 
BRANCH  32  33
ATOM     33  C   LIG d   1       5.188  -3.087  -4.542  0.00  0.00     0.187 C 
ATOM     34  O   LIG d   1       4.023  -2.856  -4.288  0.00  0.00    -0.290 OA
BRANCH  33  35
ATOM     35  C   LIG d   1       5.583  -4.410  -5.024  0.00  0.00    -0.017 C 
ATOM     36  C   LIG d   1       4.652  -5.283  -5.414  0.00  0.00    -0.038 C 
ATOM     37  H   LIG d   1       3.607  -5.012  -5.376  0.00  0.00     0.061 H 
ATOM     38  H   LIG d   1       6.627  -4.682  -5.062  0.00  0.00     0.065 H 
BRANCH  36  39
ATOM     39  C   LIG d   1       5.058  -6.647  -5.911  0.00  0.00     0.126 C 
BRANCH  39  40
ATOM     40  O   LIG d   1       4.501  -7.649  -5.056  0.00  0.00    -0.455 OA
BRANCH  40  41
ATOM     41  C   LIG d   1       4.879  -8.918  -5.280  0.00  0.00     0.305 C 
ATOM     42  O   LIG d   1       4.350  -9.561  -6.155  0.00  0.00    -0.251 OA
BRANCH  41  43
ATOM     43  C   LIG d   1       5.963  -9.540  -4.439  0.00  0.00     0.033 C 
ATOM     44  H   LIG d   1       5.515 -10.039  -3.579  0.00  0.00     0.034 H 
ATOM     45  H   LIG d   1       6.514 -10.268  -5.036  0.00  0.00     0.034 H 
ATOM     46  H   LIG d   1       6.646  -8.763  -4.093  0.00  0.00     0.034 H 
ENDBRANCH  41  43
ENDBRANCH  40  41
ENDBRANCH  39  40
BRANCH  39  47
ATOM     47  C   LIG d   1       6.583  -6.760  -5.903  0.00  0.00    -0.021 C 
ATOM     48  H   LIG d   1       6.895  -7.528  -6.610  0.00  0.00     0.027 H 
ATOM     49  H   LIG d   1       7.020  -5.803  -6.190  0.00  0.00     0.027 H 
ATOM     50  H   LIG d   1       6.922  -7.029  -4.902  0.00  0.00     0.027 H 
ENDBRANCH  39  47
BRANCH  39  51
ATOM     51  C   LIG d   1       4.539  -6.846  -7.336  0.00  0.00    -0.021 C 
ATOM     52  H   LIG d   1       4.192  -7.873  -7.457  0.00  0.00     0.027 H 
ATOM     53  H   LIG d   1       3.714  -6.159  -7.522  0.00  0.00     0.027 H 
ATOM     54  H   LIG d   1       5.343  -6.649  -8.046  0.00  0.00     0.027 H 
ENDBRANCH  39  51
ENDBRANCH  36  39
ENDBRANCH  33  35
ENDBRANCH  32  33
BRANCH  32  55
ATOM     55  C   LIG d   1       7.371  -2.545  -3.498  0.00  0.00    -0.028 C 
ATOM     56  H   LIG d   1       8.267  -2.651  -4.108  0.00  0.00     0.026 H 
ATOM     57  H   LIG d   1       7.566  -1.848  -2.683  0.00  0.00     0.026 H 
ATOM     58  H   LIG d   1       7.093  -3.516  -3.087  0.00  0.00     0.026 H 
ENDBRANCH  32  55
BRANCH  32  59
ATOM     59  O   LIG d   1       5.633  -0.879  -3.719  0.00  0.00    -0.381 OA
ATOM     60  H   LIG d   1       6.256  -0.346  -3.207  0.00  0.00     0.211 HD
ENDBRANCH  32  59
ENDBRANCH   1  32
BRANCH   7  61
ATOM     61  C   LIG d   1       6.610   0.601  -4.651  0.00  0.00    -0.058 C 
ATOM     62  H   LIG d   1       7.029   0.566  -3.646  0.00  0.00     0.024 H 
ATOM     63  H   LIG d   1       6.579   1.635  -4.996  0.00  0.00     0.024 H 
ATOM     64  H   LIG d   1       5.600   0.192  -4.639  0.00  0.00     0.024 H 
ENDBRANCH   7  61
BRANCH   3  65
ATOM     65  O   LIG d   1       5.558  -2.304  -7.726  0.00  0.00    -0.391 OA
ATOM     66  H   LIG d   1       6.116  -3.074  -7.544  0.00  0.00     0.210 HD
ENDBRANCH   3  65
BRANCH   6  67
ATOM     67  C   LIG d   1       8.206  -0.685  -7.963  0.00  0.00    -0.059 C 
ATOM     68  H   LIG d   1       8.389  -1.620  -7.433  0.00  0.00     0.024 H 
ATOM     69  H   LIG d   1       7.628  -0.886  -8.865  0.00  0.00     0.024 H 
ATOM     70  H   LIG d   1       9.159  -0.231  -8.236  0.00  0.00     0.024 H 
ENDBRANCH   6  67
BRANCH  11  71
ATOM     71  C   LIG d   1       8.523   2.895  -5.172  0.00  0.00    -0.052 C 
ATOM     72  H   LIG d   1       7.434   2.911  -5.220  0.00  0.00     0.024 H 
ATOM     73  H   LIG d   1       8.839   2.472  -4.219  0.00  0.00     0.024 H 
ATOM     74  H   LIG d   1       8.905   3.912  -5.263  0.00  0.00     0.024 H 
ENDBRANCH  11  71
BRANCH  23  75
ATOM     75  C   LIG d   1      11.339   5.322  -8.979  0.00  0.00    -0.049 C 
ATOM     76  H   LIG d   1      11.131   5.052 -10.014  0.00  0.00     0.024 H 
ATOM     77  H   LIG d   1      11.758   6.328  -8.943  0.00  0.00     0.024 H 
ATOM     78  H   LIG d   1      12.054   4.616  -8.556  0.00  0.00     0.024 H 
ENDBRANCH  23  75
BRANCH  23  79
ATOM     79  C   LIG d   1       8.983   6.151  -8.868  0.00  0.00    -0.049 C 
ATOM     80  H   LIG d   1       8.918   7.117  -8.369  0.00  0.00     0.024 H 
ATOM     81  H   LIG d   1       9.270   6.299  -9.909  0.00  0.00     0.024 H 
ATOM     82  H   LIG d   1       8.013   5.654  -8.826  0.00  0.00     0.024 H 
ENDBRANCH  23  79
BRANCH  20  83
ATOM     83  O   LIG d   1      11.689   5.556  -4.808  0.00  0.00    -0.458 OA
BRANCH  83  84
ATOM     84  C   LIG d   1      11.139   5.483  -3.491  0.00  0.00     0.231 C 
ATOM     85  H   LIG d   1      10.401   4.682  -3.448  0.00  0.00     0.108 H 
ATOM     86  O   LIG d   1      10.513   6.726  -3.165  0.00  0.00    -0.331 OA
ATOM     87  C   LIG d   1       9.906   6.753  -1.872  0.00  0.00     0.114 C 
ATOM     88  C   LIG d   1      10.976   6.520  -0.803  0.00  0.00     0.112 C 
ATOM     89  H   LIG d   1       9.151   5.968  -1.810  0.00  0.00     0.065 H 
ATOM     90  C   LIG d   1      11.672   5.182  -1.071  0.00  0.00     0.115 C 
ATOM     91  H   LIG d   1      11.709   7.325  -0.839  0.00  0.00     0.065 H 
ATOM     92  C   LIG d   1      12.259   5.198  -2.486  0.00  0.00     0.145 C 
ATOM     93  H   LIG d   1      10.949   4.370  -0.986  0.00  0.00     0.065 H 
ATOM     94  H   LIG d   1      13.018   5.978  -2.556  0.00  0.00     0.068 H 
BRANCH  87  95
ATOM     95  C   LIG d   1       9.247   8.114  -1.647  0.00  0.00     0.073 C 
ATOM     96  H   LIG d   1       9.909   8.745  -1.054  0.00  0.00     0.058 H 
ATOM     97  H   LIG d   1       9.057   8.590  -2.609  0.00  0.00     0.058 H 
BRANCH  95  98
ATOM     98  O   LIG d   1       8.011   7.936  -0.951  0.00  0.00    -0.392 OA
ATOM     99  H   LIG d   1       7.537   7.128  -1.193  0.00  0.00     0.209 HD
ENDBRANCH  95  98
ENDBRANCH  87  95
BRANCH  88 100
ATOM    100  O   LIG d   1      10.363   6.488   0.488  0.00  0.00    -0.387 OA
ATOM    101  H   LIG d   1      10.489   5.655   0.962  0.00  0.00     0.210 HD
ENDBRANCH  88 100
BRANCH  90 102
ATOM    102  O   LIG d   1      12.721   4.988  -0.121  0.00  0.00    -0.386 OA
ATOM    103  H   LIG d   1      12.437   5.062   0.801  0.00  0.00     0.210 HD
ENDBRANCH  90 102
BRANCH  92 104
ATOM    104  O   LIG d   1      12.849   3.930  -2.775  0.00  0.00    -0.383 OA
ATOM    105  H   LIG d   1      12.442   3.468  -3.520  0.00  0.00     0.210 HD
ENDBRANCH  92 104
ENDBRANCH  83  84
ENDBRANCH  20  83
TORSDOF 24
ENDMDL
MODEL 9
REMARK VINA RESULT:      -6.0      6.145     12.682
REMARK  24 active torsions:
REMARK  status: ('A' for Active; 'I' for Inactive)
REMARK    1  A    between atoms: C_1  and  C_2 
REMARK    2  A    between atoms: C_2  and  O_4 
REMARK    3  A    between atoms: O_4  and  C_5 
REMARK    4  A    between atoms: C_5  and  C_6 
REMARK    5  A    between atoms: C_5  and  C_7 
REMARK    6  A    between atoms: C_5  and  C_8 
REMARK    7  A    between atoms: C_9  and  C_10 
REMARK    8  A    between atoms: C_10  and  C_12 
REMARK    9  A    between atoms: C_12  and  C_13 
REMARK   10  A    between atoms: C_12  and  C_14 
REMARK   11  A    between atoms: C_12  and  O_60 
REMARK   12  A    between atoms: C_16  and  O_59 
REMARK   13  A    between atoms: C_19  and  C_58 
REMARK   14  A    between atoms: C_20  and  C_57 
REMARK   15  A    between atoms: C_24  and  C_56 
REMARK   16  A    between atoms: C_33  and  O_39 
REMARK   17  A    between atoms: C_36  and  C_37 
REMARK   18  A    between atoms: C_36  and  C_38 
REMARK   19  A    between atoms: O_39  and  C_40 
REMARK   20  A    between atoms: C_42  and  O_55 
REMARK   21  A    between atoms: C_44  and  O_54 
REMARK   22  A    between atoms: C_46  and  O_53 
REMARK   23  A    between atoms: C_48  and  C_51 
REMARK   24  A    between atoms: C_51  and  O_52 
ROOT
ATOM      1  C   LIG d   1       8.060  -0.177  -7.073  0.00  0.00     0.027 C 
ATOM      2  H   LIG d   1       7.918  -0.824  -6.219  0.00  0.00     0.036 H 
ATOM      3  C   LIG d   1       9.187  -0.697  -8.002  0.00  0.00     0.062 C 
ATOM      4  H   LIG d   1       8.869  -0.652  -9.042  0.00  0.00     0.060 H 
ATOM      5  C   LIG d   1      10.409   0.238  -7.778  0.00  0.00    -0.020 C 
ATOM      6  C   LIG d   1      10.067   0.928  -6.435  0.00  0.00    -0.019 C 
ATOM      7  C   LIG d   1       8.567   1.217  -6.639  0.00  0.00    -0.011 C 
ATOM      8  C   LIG d   1       7.940   1.761  -5.382  0.00  0.00     0.013 C 
ATOM      9  C   LIG d   1       8.933   2.632  -4.636  0.00  0.00     0.141 C 
ATOM     10  O   LIG d   1       8.724   2.891  -3.455  0.00  0.00    -0.297 OA
ATOM     11  C   LIG d   1      10.158   3.183  -5.307  0.00  0.00     0.040 C 
ATOM     12  C   LIG d   1      10.889   2.159  -6.147  0.00  0.00    -0.019 C 
ATOM     13  H   LIG d   1      11.141   2.629  -7.118  0.00  0.00     0.032 H 
ATOM     14  C   LIG d   1      12.215   1.754  -5.489  0.00  0.00    -0.030 C 
ATOM     15  C   LIG d   1      13.056   2.993  -5.276  0.00  0.00    -0.083 C 
ATOM     16  C   LIG d   1      12.476   4.028  -4.722  0.00  0.00    -0.052 C 
ATOM     17  C   LIG d   1      11.044   3.916  -4.311  0.00  0.00     0.015 C 
ATOM     18  H   LIG d   1      11.030   3.296  -3.415  0.00  0.00     0.040 H 
ATOM     19  C   LIG d   1      10.423   5.219  -3.923  0.00  0.00    -0.031 C 
ATOM     20  C   LIG d   1      11.019   6.396  -4.086  0.00  0.00     0.164 C 
ATOM     21  C   LIG d   1      12.369   6.480  -4.648  0.00  0.00     0.207 C 
ATOM     22  O   LIG d   1      12.770   7.476  -5.213  0.00  0.00    -0.288 OA
ATOM     23  C   LIG d   1      13.280   5.280  -4.470  0.00  0.00     0.052 C 
ATOM     24  H   LIG d   1      11.315  -0.361  -7.653  0.00  0.00     0.030 H 
ATOM     25  H   LIG d   1      10.529   0.960  -8.571  0.00  0.00     0.030 H 
ATOM     26  H   LIG d   1       7.042   2.348  -5.634  0.00  0.00     0.035 H 
ATOM     27  H   LIG d   1       7.595   0.932  -4.737  0.00  0.00     0.035 H 
ATOM     28  H   LIG d   1      12.040   1.337  -4.494  0.00  0.00     0.031 H 
ATOM     29  H   LIG d   1      12.761   1.051  -6.110  0.00  0.00     0.031 H 
ATOM     30  H   LIG d   1      14.083   2.967  -5.551  0.00  0.00     0.057 H 
ATOM     31  H   LIG d   1       9.434   5.218  -3.482  0.00  0.00     0.062 H 
ENDROOT
BRANCH   1  32
ATOM     32  C   LIG d   1       6.750  -0.017  -7.852  0.00  0.00     0.130 C 
BRANCH  32  33
ATOM     33  C   LIG d   1       5.584  -0.186  -6.913  0.00  0.00     0.187 C 
ATOM     34  O   LIG d   1       4.516   0.328  -7.174  0.00  0.00    -0.290 OA
BRANCH  33  35
ATOM     35  C   LIG d   1       5.738  -0.971  -5.688  0.00  0.00    -0.017 C 
ATOM     36  C   LIG d   1       5.149  -0.569  -4.560  0.00  0.00    -0.038 C 
ATOM     37  H   LIG d   1       4.559   0.335  -4.551  0.00  0.00     0.061 H 
ATOM     38  H   LIG d   1       6.329  -1.874  -5.697  0.00  0.00     0.065 H 
BRANCH  36  39
ATOM     39  C   LIG d   1       5.308  -1.377  -3.298  0.00  0.00     0.126 C 
BRANCH  39  40
ATOM     40  O   LIG d   1       5.025  -0.551  -2.165  0.00  0.00    -0.455 OA
BRANCH  40  41
ATOM     41  C   LIG d   1       4.900   0.767  -2.390  0.00  0.00     0.305 C 
ATOM     42  O   LIG d   1       5.885   1.453  -2.532  0.00  0.00    -0.251 OA
BRANCH  41  43
ATOM     43  C   LIG d   1       3.531   1.391  -2.464  0.00  0.00     0.033 C 
ATOM     44  H   LIG d   1       2.835   0.687  -2.921  0.00  0.00     0.034 H 
ATOM     45  H   LIG d   1       3.189   1.641  -1.459  0.00  0.00     0.034 H 
ATOM     46  H   LIG d   1       3.578   2.298  -3.068  0.00  0.00     0.034 H 
ENDBRANCH  41  43
ENDBRANCH  40  41
ENDBRANCH  39  40
BRANCH  39  47
ATOM     47  C   LIG d   1       6.742  -1.900  -3.203  0.00  0.00    -0.021 C 
ATOM     48  H   LIG d   1       6.760  -2.804  -2.594  0.00  0.00     0.027 H 
ATOM     49  H   LIG d   1       7.113  -2.127  -4.202  0.00  0.00     0.027 H 
ATOM     50  H   LIG d   1       7.376  -1.140  -2.744  0.00  0.00     0.027 H 
ENDBRANCH  39  47
BRANCH  39  51
ATOM     51  C   LIG d   1       4.336  -2.558  -3.323  0.00  0.00    -0.021 C 
ATOM     52  H   LIG d   1       3.506  -2.360  -2.644  0.00  0.00     0.027 H 
ATOM     53  H   LIG d   1       3.953  -2.692  -4.334  0.00  0.00     0.027 H 
ATOM     54  H   LIG d   1       4.855  -3.463  -3.008  0.00  0.00     0.027 H 
ENDBRANCH  39  51
ENDBRANCH  36  39
ENDBRANCH  33  35
ENDBRANCH  32  33
BRANCH  32  55
ATOM     55  C   LIG d   1       6.699   1.375  -8.484  0.00  0.00    -0.028 C 
ATOM     56  H   LIG d   1       6.738   2.131  -7.700  0.00  0.00     0.026 H 
ATOM     57  H   LIG d   1       7.550   1.501  -9.153  0.00  0.00     0.026 H 
ATOM     58  H   LIG d   1       5.773   1.484  -9.049  0.00  0.00     0.026 H 
ENDBRANCH  32  55
BRANCH  32  59
ATOM     59  O   LIG d   1       6.683  -1.009  -8.878  0.00  0.00    -0.381 OA
ATOM     60  H   LIG d   1       5.840  -1.029  -9.351  0.00  0.00     0.211 HD
ENDBRANCH  32  59
ENDBRANCH   1  32
BRANCH   7  61
ATOM     61  C   LIG d   1       8.300   2.138  -7.834  0.00  0.00    -0.058 C 
ATOM     62  H   LIG d   1       9.085   2.005  -8.578  0.00  0.00     0.024 H 
ATOM     63  H   LIG d   1       7.334   1.890  -8.275  0.00  0.00     0.024 H 
ATOM     64  H   LIG d   1       8.290   3.175  -7.497  0.00  0.00     0.024 H 
ENDBRANCH   7  61
BRANCH   3  65
ATOM     65  O   LIG d   1       9.529  -2.040  -7.649  0.00  0.00    -0.391 OA
ATOM     66  H   LIG d   1       9.322  -2.272  -6.733  0.00  0.00     0.210 HD
ENDBRANCH   3  65
BRANCH   6  67
ATOM     67  C   LIG d   1      10.244  -0.109  -5.316  0.00  0.00    -0.059 C 
ATOM     68  H   LIG d   1      10.601  -1.047  -5.742  0.00  0.00     0.024 H 
ATOM     69  H   LIG d   1      10.968   0.259  -4.590  0.00  0.00     0.024 H 
ATOM     70  H   LIG d   1       9.288  -0.278  -4.821  0.00  0.00     0.024 H 
ENDBRANCH   6  67
BRANCH  11  71
ATOM     71  C   LIG d   1       9.695   4.311  -6.245  0.00  0.00    -0.052 C 
ATOM     72  H   LIG d   1      10.239   4.246  -7.189  0.00  0.00     0.024 H 
ATOM     73  H   LIG d   1       8.627   4.212  -6.434  0.00  0.00     0.024 H 
ATOM     74  H   LIG d   1       9.894   5.276  -5.778  0.00  0.00     0.024 H 
ENDBRANCH  11  71
BRANCH  23  75
ATOM     75  C   LIG d   1      13.831   5.265  -3.036  0.00  0.00    -0.049 C 
ATOM     76  H   LIG d   1      13.084   4.844  -2.364  0.00  0.00     0.024 H 
ATOM     77  H   LIG d   1      14.736   4.657  -3.000  0.00  0.00     0.024 H 
ATOM     78  H   LIG d   1      14.066   6.283  -2.726  0.00  0.00     0.024 H 
ENDBRANCH  23  75
BRANCH  23  79
ATOM     79  C   LIG d   1      14.454   5.405  -5.453  0.00  0.00    -0.049 C 
ATOM     80  H   LIG d   1      15.249   5.994  -4.997  0.00  0.00     0.024 H 
ATOM     81  H   LIG d   1      14.832   4.412  -5.696  0.00  0.00     0.024 H 
ATOM     82  H   LIG d   1      14.114   5.897  -6.365  0.00  0.00     0.024 H 
ENDBRANCH  23  79
BRANCH  20  83
ATOM     83  O   LIG d   1      10.377   7.539  -3.724  0.00  0.00    -0.458 OA
BRANCH  83  84
ATOM     84  C   LIG d   1      10.878   8.227  -2.576  0.00  0.00     0.231 C 
ATOM     85  H   LIG d   1      11.916   8.513  -2.747  0.00  0.00     0.108 H 
ATOM     86  O   LIG d   1      10.799   7.372  -1.434  0.00  0.00    -0.331 OA
ATOM     87  C   LIG d   1      11.300   7.957  -0.231  0.00  0.00     0.114 C 
ATOM     88  C   LIG d   1      10.477   9.202   0.111  0.00  0.00     0.112 C 
ATOM     89  H   LIG d   1      12.344   8.238  -0.371  0.00  0.00     0.065 H 
ATOM     90  C   LIG d   1      10.542  10.184  -1.063  0.00  0.00     0.115 C 
ATOM     91  H   LIG d   1       9.441   8.917   0.290  0.00  0.00     0.065 H 
ATOM     92  C   LIG d   1      10.038   9.484  -2.329  0.00  0.00     0.145 C 
ATOM     93  H   LIG d   1      11.572  10.509  -1.211  0.00  0.00     0.065 H 
ATOM     94  H   LIG d   1       8.993   9.204  -2.199  0.00  0.00     0.068 H 
BRANCH  87  95
ATOM     95  C   LIG d   1      11.192   6.946   0.912  0.00  0.00     0.073 C 
ATOM     96  H   LIG d   1      12.190   6.616   1.202  0.00  0.00     0.058 H 
ATOM     97  H   LIG d   1      10.701   7.413   1.765  0.00  0.00     0.058 H 
BRANCH  95  98
ATOM     98  O   LIG d   1      10.427   5.819   0.480  0.00  0.00    -0.392 OA
ATOM     99  H   LIG d   1      10.465   5.063   1.082  0.00  0.00     0.209 HD
ENDBRANCH  95  98
ENDBRANCH  87  95
BRANCH  88 100
ATOM    100  O   LIG d   1      11.012   9.823   1.282  0.00  0.00    -0.387 OA
ATOM    101  H   LIG d   1      10.555   9.580   2.098  0.00  0.00     0.210 HD
ENDBRANCH  88 100
BRANCH  90 102
ATOM    102  O   LIG d   1       9.719  11.318  -0.785  0.00  0.00    -0.386 OA
ATOM    103  H   LIG d   1      10.013  11.843  -0.027  0.00  0.00     0.210 HD
ENDBRANCH  90 102
BRANCH  92 104
ATOM    104  O   LIG d   1      10.161  10.367  -3.446  0.00  0.00    -0.383 OA
ATOM    105  H   LIG d   1      10.419   9.928  -4.268  0.00  0.00     0.210 HD
ENDBRANCH  92 104
ENDBRANCH  83  84
ENDBRANCH  20  83
TORSDOF 24
ENDMDL
