MODEL 1
REMARK VINA RESULT:      -7.6      0.000      0.000
REMARK  5 active torsions:
REMARK  status: ('A' for Active; 'I' for Inactive)
REMARK    1  A    between atoms: C_4  and  C_8 
REMARK    2  A    between atoms: C_8  and  O_9 
REMARK    3  A    between atoms: O_9  and  C_10 
REMARK    4  A    between atoms: C_17  and  C_28 
REMARK    5  A    between atoms: C_18  and  C_21 
ROOT
ATOM      1  C   LIG d   1       6.393  -1.608  -5.429  0.00  0.00     0.124 A 
ATOM      2  C   LIG d   1       5.903  -2.898  -5.618  0.00  0.00    -0.019 A 
ATOM      3  C   LIG d   1       5.081  -3.177  -6.673  0.00  0.00    -0.044 A 
ATOM      4  C   LIG d   1       4.732  -2.161  -7.565  0.00  0.00     0.065 A 
ATOM      5  C   LIG d   1       5.222  -0.856  -7.384  0.00  0.00     0.143 A 
ATOM      6  C   LIG d   1       6.057  -0.591  -6.306  0.00  0.00     0.023 A 
ATOM      7  O   LIG d   1       4.889   0.122  -8.250  0.00  0.00    -0.450 OA
ATOM      8  C   LIG d   1       4.087  -0.072  -9.300  0.00  0.00     0.219 A 
ATOM      9  C   LIG d   1       3.544  -1.282  -9.593  0.00  0.00     0.076 A 
ATOM     10  C   LIG d   1       3.848  -2.424  -8.714  0.00  0.00     0.201 A 
ATOM     11  O   LIG d   1       3.389  -3.534  -8.928  0.00  0.00    -0.286 OA
ATOM     12  H   LIG d   1       6.173  -3.683  -4.926  0.00  0.00     0.065 H 
ATOM     13  H   LIG d   1       4.703  -4.177  -6.816  0.00  0.00     0.063 H 
ATOM     14  H   LIG d   1       6.442   0.406  -6.152  0.00  0.00     0.069 H 
ENDROOT
BRANCH   1  15
ATOM     15  O   LIG d   1       7.209  -1.345  -4.376  0.00  0.00    -0.487 OA
BRANCH  15  16
ATOM     16  C   LIG d   1       6.656  -1.518  -3.070  0.00  0.00     0.119 C 
ATOM     17  H   LIG d   1       6.275  -2.534  -2.968  0.00  0.00     0.075 H 
ATOM     18  H   LIG d   1       7.429  -1.343  -2.322  0.00  0.00     0.075 H 
BRANCH  16  19
ATOM     19  C   LIG d   1       5.530  -0.537  -2.867  0.00  0.00     0.043 A 
ATOM     20  C   LIG d   1       5.787   0.823  -2.875  0.00  0.00     0.131 A 
ATOM     21  C   LIG d   1       4.751   1.724  -2.695  0.00  0.00    -0.026 A 
ATOM     22  F   LIG d   1       7.047   1.272  -3.064  0.00  0.00    -0.205 F 
ATOM     23  C   LIG d   1       3.462   1.264  -2.496  0.00  0.00    -0.058 A 
ATOM     24  H   LIG d   1       4.950   2.785  -2.706  0.00  0.00     0.065 H 
ATOM     25  C   LIG d   1       3.207  -0.094  -2.482  0.00  0.00    -0.043 A 
ATOM     26  H   LIG d   1       2.655   1.967  -2.351  0.00  0.00     0.062 H 
ATOM     27  C   LIG d   1       4.240  -0.995  -2.668  0.00  0.00     0.050 A 
ATOM     28  H   LIG d   1       2.200  -0.452  -2.326  0.00  0.00     0.063 H 
ATOM     29 CL   LIG d   1       3.918  -2.701  -2.651  0.00  0.00    -0.083 Cl
ENDBRANCH  16  19
ENDBRANCH  15  16
ENDBRANCH   1  15
BRANCH   8  30
ATOM     30  C   LIG d   1       3.777   1.098 -10.199  0.00  0.00     0.451 C 
ATOM     31  F   LIG d   1       3.936   0.715 -11.534  0.00  0.00    -0.163 F 
ATOM     32  F   LIG d   1       2.458   1.512  -9.986  0.00  0.00    -0.163 F 
ATOM     33  F   LIG d   1       4.649   2.152  -9.909  0.00  0.00    -0.163 F 
ENDBRANCH   8  30
BRANCH   9  34
ATOM     34  C   LIG d   1       2.664  -1.449 -10.775  0.00  0.00    -0.011 A 
ATOM     35  C   LIG d   1       3.185  -1.947 -11.969  0.00  0.00    -0.052 A 
ATOM     36  C   LIG d   1       2.362  -2.102 -13.065  0.00  0.00    -0.043 A 
ATOM     37  H   LIG d   1       4.230  -2.211 -12.035  0.00  0.00     0.062 H 
ATOM     38  C   LIG d   1       1.022  -1.764 -12.982  0.00  0.00     0.041 A 
ATOM     39  H   LIG d   1       2.763  -2.488 -13.991  0.00  0.00     0.063 H 
ATOM     40  C   LIG d   1       0.500  -1.270 -11.799  0.00  0.00    -0.043 A 
ATOM     41 CL   LIG d   1      -0.009  -1.961 -14.365  0.00  0.00    -0.084 Cl
ATOM     42  C   LIG d   1       1.314  -1.116 -10.694  0.00  0.00    -0.052 A 
ATOM     43  H   LIG d   1      -0.546  -1.007 -11.738  0.00  0.00     0.063 H 
ATOM     44  H   LIG d   1       0.906  -0.734  -9.770  0.00  0.00     0.062 H 
ENDBRANCH   9  34
TORSDOF 5
ENDMDL
MODEL 2
REMARK VINA RESULT:      -7.4      1.365      1.817
REMARK  5 active torsions:
REMARK  status: ('A' for Active; 'I' for Inactive)
REMARK    1  A    between atoms: C_4  and  C_8 
REMARK    2  A    between atoms: C_8  and  O_9 
REMARK    3  A    between atoms: O_9  and  C_10 
REMARK    4  A    between atoms: C_17  and  C_28 
REMARK    5  A    between atoms: C_18  and  C_21 
ROOT
ATOM      1  C   LIG d   1       6.316  -1.937  -5.626  0.00  0.00     0.124 A 
ATOM      2  C   LIG d   1       5.647  -3.157  -5.693  0.00  0.00    -0.019 A 
ATOM      3  C   LIG d   1       4.804  -3.425  -6.734  0.00  0.00    -0.044 A 
ATOM      4  C   LIG d   1       4.615  -2.471  -7.735  0.00  0.00     0.065 A 
ATOM      5  C   LIG d   1       5.286  -1.237  -7.678  0.00  0.00     0.143 A 
ATOM      6  C   LIG d   1       6.139  -0.981  -6.612  0.00  0.00     0.023 A 
ATOM      7  O   LIG d   1       5.106  -0.319  -8.648  0.00  0.00    -0.450 OA
ATOM      8  C   LIG d   1       4.296  -0.506  -9.693  0.00  0.00     0.219 A 
ATOM      9  C   LIG d   1       3.587  -1.651  -9.872  0.00  0.00     0.076 A 
ATOM     10  C   LIG d   1       3.714  -2.725  -8.873  0.00  0.00     0.201 A 
ATOM     11  O   LIG d   1       3.102  -3.775  -8.982  0.00  0.00    -0.286 OA
ATOM     12  H   LIG d   1       5.794  -3.894  -4.917  0.00  0.00     0.065 H 
ATOM     13  H   LIG d   1       4.287  -4.371  -6.783  0.00  0.00     0.063 H 
ATOM     14  H   LIG d   1       6.663  -0.038  -6.552  0.00  0.00     0.069 H 
ENDROOT
BRANCH   1  15
ATOM     15  O   LIG d   1       7.150  -1.683  -4.586  0.00  0.00    -0.487 OA
BRANCH  15  16
ATOM     16  C   LIG d   1       6.633  -1.905  -3.272  0.00  0.00     0.119 C 
ATOM     17  H   LIG d   1       6.209  -2.907  -3.213  0.00  0.00     0.075 H 
ATOM     18  H   LIG d   1       7.438  -1.807  -2.544  0.00  0.00     0.075 H 
BRANCH  16  19
ATOM     19  C   LIG d   1       5.561  -0.888  -2.976  0.00  0.00     0.043 A 
ATOM     20  C   LIG d   1       4.276  -1.306  -2.676  0.00  0.00     0.131 A 
ATOM     21  C   LIG d   1       3.292  -0.371  -2.397  0.00  0.00    -0.026 A 
ATOM     22  F   LIG d   1       3.982  -2.624  -2.647  0.00  0.00    -0.205 F 
ATOM     23  C   LIG d   1       3.592   0.978  -2.431  0.00  0.00    -0.058 A 
ATOM     24  H   LIG d   1       2.291  -0.696  -2.157  0.00  0.00     0.065 H 
ATOM     25  C   LIG d   1       4.874   1.395  -2.738  0.00  0.00    -0.043 A 
ATOM     26  H   LIG d   1       2.823   1.707  -2.219  0.00  0.00     0.062 H 
ATOM     27  C   LIG d   1       5.859   0.462  -3.010  0.00  0.00     0.050 A 
ATOM     28  H   LIG d   1       5.106   2.449  -2.765  0.00  0.00     0.063 H 
ATOM     29 CL   LIG d   1       7.468   0.986  -3.394  0.00  0.00    -0.083 Cl
ENDBRANCH  16  19
ENDBRANCH  15  16
ENDBRANCH   1  15
BRANCH   8  30
ATOM     30  C   LIG d   1       4.167   0.594 -10.715  0.00  0.00     0.451 C 
ATOM     31  F   LIG d   1       4.631   0.137 -11.953  0.00  0.00    -0.163 F 
ATOM     32  F   LIG d   1       2.825   0.969 -10.829  0.00  0.00    -0.163 F 
ATOM     33  F   LIG d   1       4.927   1.697 -10.310  0.00  0.00    -0.163 F 
ENDBRANCH   8  30
BRANCH   9  34
ATOM     34  C   LIG d   1       2.705  -1.815 -11.053  0.00  0.00    -0.011 A 
ATOM     35  C   LIG d   1       1.373  -1.406 -10.993  0.00  0.00    -0.052 A 
ATOM     36  C   LIG d   1       0.557  -1.560 -12.095  0.00  0.00    -0.043 A 
ATOM     37  H   LIG d   1       0.982  -0.969 -10.086  0.00  0.00     0.062 H 
ATOM     38  C   LIG d   1       1.057  -2.119 -13.258  0.00  0.00     0.041 A 
ATOM     39  H   LIG d   1      -0.474  -1.243 -12.050  0.00  0.00     0.063 H 
ATOM     40  C   LIG d   1       2.379  -2.528 -13.323  0.00  0.00    -0.043 A 
ATOM     41 CL   LIG d   1       0.025  -2.310 -14.641  0.00  0.00    -0.084 Cl
ATOM     42  C   LIG d   1       3.205  -2.373 -12.228  0.00  0.00    -0.052 A 
ATOM     43  H   LIG d   1       2.765  -2.964 -14.232  0.00  0.00     0.063 H 
ATOM     44  H   LIG d   1       4.237  -2.688 -12.280  0.00  0.00     0.062 H 
ENDBRANCH   9  34
TORSDOF 5
ENDMDL
MODEL 3
REMARK VINA RESULT:      -7.1      1.998      2.394
REMARK  5 active torsions:
REMARK  status: ('A' for Active; 'I' for Inactive)
REMARK    1  A    between atoms: C_4  and  C_8 
REMARK    2  A    between atoms: C_8  and  O_9 
REMARK    3  A    between atoms: O_9  and  C_10 
REMARK    4  A    between atoms: C_17  and  C_28 
REMARK    5  A    between atoms: C_18  and  C_21 
ROOT
ATOM      1  C   LIG d   1       5.267  -3.075  -5.534  0.00  0.00     0.124 A 
ATOM      2  C   LIG d   1       5.963  -3.970  -6.342  0.00  0.00    -0.019 A 
ATOM      3  C   LIG d   1       5.871  -3.888  -7.702  0.00  0.00    -0.044 A 
ATOM      4  C   LIG d   1       5.074  -2.900  -8.283  0.00  0.00     0.065 A 
ATOM      5  C   LIG d   1       4.367  -1.991  -7.477  0.00  0.00     0.143 A 
ATOM      6  C   LIG d   1       4.473  -2.090  -6.096  0.00  0.00     0.023 A 
ATOM      7  O   LIG d   1       3.602  -1.034  -8.040  0.00  0.00    -0.450 OA
ATOM      8  C   LIG d   1       3.458  -0.895  -9.360  0.00  0.00     0.219 A 
ATOM      9  C   LIG d   1       4.083  -1.704 -10.254  0.00  0.00     0.076 A 
ATOM     10  C   LIG d   1       4.949  -2.781  -9.747  0.00  0.00     0.201 A 
ATOM     11  O   LIG d   1       5.536  -3.538 -10.502  0.00  0.00    -0.286 OA
ATOM     12  H   LIG d   1       6.580  -4.735  -5.891  0.00  0.00     0.065 H 
ATOM     13  H   LIG d   1       6.412  -4.583  -8.326  0.00  0.00     0.063 H 
ATOM     14  H   LIG d   1       3.936  -1.399  -5.461  0.00  0.00     0.069 H 
ENDROOT
BRANCH   1  15
ATOM     15  O   LIG d   1       5.367  -3.168  -4.183  0.00  0.00    -0.487 OA
BRANCH  15  16
ATOM     16  C   LIG d   1       6.373  -2.373  -3.553  0.00  0.00     0.119 C 
ATOM     17  H   LIG d   1       6.788  -2.917  -2.704  0.00  0.00     0.075 H 
ATOM     18  H   LIG d   1       7.166  -2.155  -4.268  0.00  0.00     0.075 H 
BRANCH  16  19
ATOM     19  C   LIG d   1       5.763  -1.082  -3.070  0.00  0.00     0.043 A 
ATOM     20  C   LIG d   1       4.628  -1.107  -2.277  0.00  0.00     0.131 A 
ATOM     21  C   LIG d   1       4.072   0.079  -1.828  0.00  0.00    -0.026 A 
ATOM     22  F   LIG d   1       4.068  -2.287  -1.935  0.00  0.00    -0.205 F 
ATOM     23  C   LIG d   1       4.643   1.288  -2.183  0.00  0.00    -0.058 A 
ATOM     24  H   LIG d   1       3.191   0.061  -1.205  0.00  0.00     0.065 H 
ATOM     25  C   LIG d   1       5.772   1.312  -2.980  0.00  0.00    -0.043 A 
ATOM     26  H   LIG d   1       4.206   2.213  -1.836  0.00  0.00     0.062 H 
ATOM     27  C   LIG d   1       6.333   0.128  -3.423  0.00  0.00     0.050 A 
ATOM     28  H   LIG d   1       6.217   2.257  -3.256  0.00  0.00     0.063 H 
ATOM     29 CL   LIG d   1       7.751   0.159  -4.423  0.00  0.00    -0.083 Cl
ENDBRANCH  16  19
ENDBRANCH  15  16
ENDBRANCH   1  15
BRANCH   8  30
ATOM     30  C   LIG d   1       2.570   0.208  -9.877  0.00  0.00     0.451 C 
ATOM     31  F   LIG d   1       1.424  -0.348 -10.455  0.00  0.00    -0.163 F 
ATOM     32  F   LIG d   1       2.200   1.044  -8.819  0.00  0.00    -0.163 F 
ATOM     33  F   LIG d   1       3.263   0.952 -10.839  0.00  0.00    -0.163 F 
ENDBRANCH   8  30
BRANCH   9  34
ATOM     34  C   LIG d   1       3.897  -1.505 -11.712  0.00  0.00    -0.011 A 
ATOM     35  C   LIG d   1       4.802  -0.727 -12.432  0.00  0.00    -0.052 A 
ATOM     36  C   LIG d   1       4.626  -0.547 -13.789  0.00  0.00    -0.043 A 
ATOM     37  H   LIG d   1       5.642  -0.269 -11.930  0.00  0.00     0.062 H 
ATOM     38  C   LIG d   1       3.551  -1.135 -14.434  0.00  0.00     0.041 A 
ATOM     39  H   LIG d   1       5.327   0.054 -14.348  0.00  0.00     0.063 H 
ATOM     40  C   LIG d   1       2.648  -1.907 -13.723  0.00  0.00    -0.043 A 
ATOM     41 CL   LIG d   1       3.334  -0.903 -16.141  0.00  0.00    -0.084 Cl
ATOM     42  C   LIG d   1       2.820  -2.099 -12.367  0.00  0.00    -0.052 A 
ATOM     43  H   LIG d   1       1.811  -2.363 -14.230  0.00  0.00     0.063 H 
ATOM     44  H   LIG d   1       2.118  -2.705 -11.813  0.00  0.00     0.062 H 
ENDBRANCH   9  34
TORSDOF 5
ENDMDL
MODEL 4
REMARK VINA RESULT:      -7.1      6.847     10.612
REMARK  5 active torsions:
REMARK  status: ('A' for Active; 'I' for Inactive)
REMARK    1  A    between atoms: C_4  and  C_8 
REMARK    2  A    between atoms: C_8  and  O_9 
REMARK    3  A    between atoms: O_9  and  C_10 
REMARK    4  A    between atoms: C_17  and  C_28 
REMARK    5  A    between atoms: C_18  and  C_21 
ROOT
ATOM      1  C   LIG d   1       8.639   1.639  -4.576  0.00  0.00     0.124 A 
ATOM      2  C   LIG d   1       8.815   2.120  -5.871  0.00  0.00    -0.019 A 
ATOM      3  C   LIG d   1       9.299   3.380  -6.080  0.00  0.00    -0.044 A 
ATOM      4  C   LIG d   1       9.619   4.188  -4.987  0.00  0.00     0.065 A 
ATOM      5  C   LIG d   1       9.446   3.712  -3.676  0.00  0.00     0.143 A 
ATOM      6  C   LIG d   1       8.952   2.428  -3.483  0.00  0.00     0.023 A 
ATOM      7  O   LIG d   1       9.761   4.492  -2.622  0.00  0.00    -0.450 OA
ATOM      8  C   LIG d   1      10.233   5.735  -2.746  0.00  0.00     0.219 A 
ATOM      9  C   LIG d   1      10.448   6.318  -3.953  0.00  0.00     0.076 A 
ATOM     10  C   LIG d   1      10.144   5.553  -5.173  0.00  0.00     0.201 A 
ATOM     11  O   LIG d   1      10.317   6.025  -6.285  0.00  0.00    -0.286 OA
ATOM     12  H   LIG d   1       8.567   1.493  -6.716  0.00  0.00     0.065 H 
ATOM     13  H   LIG d   1       9.434   3.749  -7.085  0.00  0.00     0.063 H 
ATOM     14  H   LIG d   1       8.813   2.047  -2.482  0.00  0.00     0.069 H 
ENDROOT
BRANCH   1  15
ATOM     15  O   LIG d   1       8.156   0.385  -4.383  0.00  0.00    -0.487 OA
BRANCH  15  16
ATOM     16  C   LIG d   1       6.869   0.095  -4.931  0.00  0.00     0.119 C 
ATOM     17  H   LIG d   1       6.471   0.986  -5.416  0.00  0.00     0.075 H 
ATOM     18  H   LIG d   1       6.957  -0.708  -5.662  0.00  0.00     0.075 H 
BRANCH  16  19
ATOM     19  C   LIG d   1       5.938  -0.332  -3.825  0.00  0.00     0.043 A 
ATOM     20  C   LIG d   1       5.433   0.608  -2.943  0.00  0.00     0.131 A 
ATOM     21  C   LIG d   1       4.572   0.216  -1.931  0.00  0.00    -0.026 A 
ATOM     22  F   LIG d   1       5.774   1.909  -3.073  0.00  0.00    -0.205 F 
ATOM     23  C   LIG d   1       4.227  -1.116  -1.796  0.00  0.00    -0.058 A 
ATOM     24  H   LIG d   1       4.174   0.950  -1.247  0.00  0.00     0.065 H 
ATOM     25  C   LIG d   1       4.737  -2.056  -2.672  0.00  0.00    -0.043 A 
ATOM     26  H   LIG d   1       3.560  -1.422  -1.003  0.00  0.00     0.062 H 
ATOM     27  C   LIG d   1       5.592  -1.664  -3.687  0.00  0.00     0.050 A 
ATOM     28  H   LIG d   1       4.467  -3.096  -2.564  0.00  0.00     0.063 H 
ATOM     29 CL   LIG d   1       6.230  -2.845  -4.788  0.00  0.00    -0.083 Cl
ENDBRANCH  16  19
ENDBRANCH  15  16
ENDBRANCH   1  15
BRANCH   8  30
ATOM     30  C   LIG d   1      10.544   6.518  -1.496  0.00  0.00     0.451 C 
ATOM     31  F   LIG d   1       9.703   7.633  -1.423  0.00  0.00    -0.163 F 
ATOM     32  F   LIG d   1      10.341   5.706  -0.375  0.00  0.00    -0.163 F 
ATOM     33  F   LIG d   1      11.877   6.940  -1.532  0.00  0.00    -0.163 F 
ENDBRANCH   8  30
BRANCH   9  34
ATOM     34  C   LIG d   1      10.981   7.700  -4.040  0.00  0.00    -0.011 A 
ATOM     35  C   LIG d   1      12.356   7.914  -4.131  0.00  0.00    -0.052 A 
ATOM     36  C   LIG d   1      12.846   9.201  -4.213  0.00  0.00    -0.043 A 
ATOM     37  H   LIG d   1      13.035   7.075  -4.138  0.00  0.00     0.062 H 
ATOM     38  C   LIG d   1      11.977  10.279  -4.204  0.00  0.00     0.041 A 
ATOM     39  H   LIG d   1      13.911   9.369  -4.284  0.00  0.00     0.063 H 
ATOM     40  C   LIG d   1      10.611  10.071  -4.114  0.00  0.00    -0.043 A 
ATOM     41 CL   LIG d   1      12.600  11.896  -4.307  0.00  0.00    -0.084 Cl
ATOM     42  C   LIG d   1      10.110   8.787  -4.037  0.00  0.00    -0.052 A 
ATOM     43  H   LIG d   1       9.936  10.914  -4.107  0.00  0.00     0.063 H 
ATOM     44  H   LIG d   1       9.044   8.625  -3.971  0.00  0.00     0.062 H 
ENDBRANCH   9  34
TORSDOF 5
ENDMDL
MODEL 5
REMARK VINA RESULT:      -7.1      7.319     11.992
REMARK  5 active torsions:
REMARK  status: ('A' for Active; 'I' for Inactive)
REMARK    1  A    between atoms: C_4  and  C_8 
REMARK    2  A    between atoms: C_8  and  O_9 
REMARK    3  A    between atoms: O_9  and  C_10 
REMARK    4  A    between atoms: C_17  and  C_28 
REMARK    5  A    between atoms: C_18  and  C_21 
ROOT
ATOM      1  C   LIG d   1       9.741   2.502  -4.151  0.00  0.00     0.124 A 
ATOM      2  C   LIG d   1       9.310   3.443  -5.082  0.00  0.00    -0.019 A 
ATOM      3  C   LIG d   1       9.363   4.776  -4.791  0.00  0.00    -0.044 A 
ATOM      4  C   LIG d   1       9.853   5.195  -3.553  0.00  0.00     0.065 A 
ATOM      5  C   LIG d   1      10.292   4.253  -2.606  0.00  0.00     0.143 A 
ATOM      6  C   LIG d   1      10.230   2.902  -2.919  0.00  0.00     0.023 A 
ATOM      7  O   LIG d   1      10.770   4.660  -1.413  0.00  0.00    -0.450 OA
ATOM      8  C   LIG d   1      10.848   5.944  -1.054  0.00  0.00     0.219 A 
ATOM      9  C   LIG d   1      10.459   6.957  -1.872  0.00  0.00     0.076 A 
ATOM     10  C   LIG d   1       9.926   6.625  -3.203  0.00  0.00     0.201 A 
ATOM     11  O   LIG d   1       9.561   7.493  -3.980  0.00  0.00    -0.286 OA
ATOM     12  H   LIG d   1       8.930   3.117  -6.040  0.00  0.00     0.065 H 
ATOM     13  H   LIG d   1       9.028   5.503  -5.515  0.00  0.00     0.063 H 
ATOM     14  H   LIG d   1      10.563   2.165  -2.203  0.00  0.00     0.069 H 
ENDROOT
BRANCH   1  15
ATOM     15  O   LIG d   1       9.682   1.179  -4.453  0.00  0.00    -0.487 OA
BRANCH  15  16
ATOM     16  C   LIG d   1       8.606   0.754  -5.291  0.00  0.00     0.119 C 
ATOM     17  H   LIG d   1       8.070   1.626  -5.665  0.00  0.00     0.075 H 
ATOM     18  H   LIG d   1       9.002   0.183  -6.130  0.00  0.00     0.075 H 
BRANCH  16  19
ATOM     19  C   LIG d   1       7.662  -0.111  -4.496  0.00  0.00     0.043 A 
ATOM     20  C   LIG d   1       6.741   0.472  -3.643  0.00  0.00     0.131 A 
ATOM     21  C   LIG d   1       5.870  -0.324  -2.917  0.00  0.00    -0.026 A 
ATOM     22  F   LIG d   1       6.686   1.816  -3.523  0.00  0.00    -0.205 F 
ATOM     23  C   LIG d   1       5.929  -1.700  -3.036  0.00  0.00    -0.058 A 
ATOM     24  H   LIG d   1       5.147   0.130  -2.257  0.00  0.00     0.065 H 
ATOM     25  C   LIG d   1       6.854  -2.282  -3.882  0.00  0.00    -0.043 A 
ATOM     26  H   LIG d   1       5.253  -2.320  -2.466  0.00  0.00     0.062 H 
ATOM     27  C   LIG d   1       7.720  -1.488  -4.613  0.00  0.00     0.050 A 
ATOM     28  H   LIG d   1       6.899  -3.357  -3.974  0.00  0.00     0.063 H 
ATOM     29 CL   LIG d   1       8.881  -2.220  -5.677  0.00  0.00    -0.083 Cl
ENDBRANCH  16  19
ENDBRANCH  15  16
ENDBRANCH   1  15
BRANCH   8  30
ATOM     30  C   LIG d   1      11.394   6.282   0.309  0.00  0.00     0.451 C 
ATOM     31  F   LIG d   1      12.672   6.835   0.176  0.00  0.00    -0.163 F 
ATOM     32  F   LIG d   1      10.549   7.205   0.934  0.00  0.00    -0.163 F 
ATOM     33  F   LIG d   1      11.468   5.119   1.083  0.00  0.00    -0.163 F 
ENDBRANCH   8  30
BRANCH   9  34
ATOM     34  C   LIG d   1      10.571   8.369  -1.431  0.00  0.00    -0.011 A 
ATOM     35  C   LIG d   1      11.758   9.072  -1.634  0.00  0.00    -0.052 A 
ATOM     36  C   LIG d   1      11.856  10.386  -1.223  0.00  0.00    -0.043 A 
ATOM     37  H   LIG d   1      12.598   8.590  -2.112  0.00  0.00     0.062 H 
ATOM     38  C   LIG d   1      10.780  11.005  -0.611  0.00  0.00     0.041 A 
ATOM     39  H   LIG d   1      12.774  10.932  -1.380  0.00  0.00     0.063 H 
ATOM     40  C   LIG d   1       9.600  10.311  -0.406  0.00  0.00    -0.043 A 
ATOM     41 CL   LIG d   1      10.911  12.658  -0.096  0.00  0.00    -0.084 Cl
ATOM     42  C   LIG d   1       9.489   8.998  -0.819  0.00  0.00    -0.052 A 
ATOM     43  H   LIG d   1       8.763  10.797   0.072  0.00  0.00     0.063 H 
ATOM     44  H   LIG d   1       8.567   8.458  -0.663  0.00  0.00     0.062 H 
ENDBRANCH   9  34
TORSDOF 5
ENDMDL
MODEL 6
REMARK VINA RESULT:      -7.1      6.880      9.014
REMARK  5 active torsions:
REMARK  status: ('A' for Active; 'I' for Inactive)
REMARK    1  A    between atoms: C_4  and  C_8 
REMARK    2  A    between atoms: C_8  and  O_9 
REMARK    3  A    between atoms: O_9  and  C_10 
REMARK    4  A    between atoms: C_17  and  C_28 
REMARK    5  A    between atoms: C_18  and  C_21 
ROOT
ATOM      1  C   LIG d   1       8.748   1.676  -4.494  0.00  0.00     0.124 A 
ATOM      2  C   LIG d   1       9.152   2.525  -3.467  0.00  0.00    -0.019 A 
ATOM      3  C   LIG d   1       9.562   3.797  -3.745  0.00  0.00    -0.044 A 
ATOM      4  C   LIG d   1       9.576   4.247  -5.066  0.00  0.00     0.065 A 
ATOM      5  C   LIG d   1       9.170   3.398  -6.111  0.00  0.00     0.143 A 
ATOM      6  C   LIG d   1       8.756   2.107  -5.810  0.00  0.00     0.023 A 
ATOM      7  O   LIG d   1       9.178   3.836  -7.386  0.00  0.00    -0.450 OA
ATOM      8  C   LIG d   1       9.571   5.064  -7.736  0.00  0.00     0.219 A 
ATOM      9  C   LIG d   1       9.988   5.985  -6.829  0.00  0.00     0.076 A 
ATOM     10  C   LIG d   1      10.013   5.613  -5.405  0.00  0.00     0.201 A 
ATOM     11  O   LIG d   1      10.378   6.399  -4.546  0.00  0.00    -0.286 OA
ATOM     12  H   LIG d   1       9.142   2.175  -2.445  0.00  0.00     0.065 H 
ATOM     13  H   LIG d   1       9.875   4.453  -2.946  0.00  0.00     0.063 H 
ATOM     14  H   LIG d   1       8.440   1.442  -6.600  0.00  0.00     0.069 H 
ENDROOT
BRANCH   1  15
ATOM     15  O   LIG d   1       8.343   0.413  -4.204  0.00  0.00    -0.487 OA
BRANCH  15  16
ATOM     16  C   LIG d   1       7.122  -0.029  -4.802  0.00  0.00     0.119 C 
ATOM     17  H   LIG d   1       6.724   0.760  -5.440  0.00  0.00     0.075 H 
ATOM     18  H   LIG d   1       7.312  -0.920  -5.400  0.00  0.00     0.075 H 
BRANCH  16  19
ATOM     19  C   LIG d   1       6.123  -0.353  -3.721  0.00  0.00     0.043 A 
ATOM     20  C   LIG d   1       5.576   0.663  -2.957  0.00  0.00     0.131 A 
ATOM     21  C   LIG d   1       4.653   0.365  -1.969  0.00  0.00    -0.026 A 
ATOM     22  F   LIG d   1       5.937   1.946  -3.179  0.00  0.00    -0.205 F 
ATOM     23  C   LIG d   1       4.287  -0.948  -1.739  0.00  0.00    -0.058 A 
ATOM     24  H   LIG d   1       4.222   1.157  -1.376  0.00  0.00     0.065 H 
ATOM     25  C   LIG d   1       4.838  -1.964  -2.497  0.00  0.00    -0.043 A 
ATOM     26  H   LIG d   1       3.570  -1.181  -0.964  0.00  0.00     0.062 H 
ATOM     27  C   LIG d   1       5.755  -1.666  -3.490  0.00  0.00     0.050 A 
ATOM     28  H   LIG d   1       4.551  -2.989  -2.316  0.00  0.00     0.063 H 
ATOM     29 CL   LIG d   1       6.446  -2.942  -4.443  0.00  0.00    -0.083 Cl
ENDBRANCH  16  19
ENDBRANCH  15  16
ENDBRANCH   1  15
BRANCH   8  30
ATOM     30  C   LIG d   1       9.545   5.442  -9.195  0.00  0.00     0.451 C 
ATOM     31  F   LIG d   1       8.688   6.532  -9.378  0.00  0.00    -0.163 F 
ATOM     32  F   LIG d   1      10.835   5.789  -9.609  0.00  0.00    -0.163 F 
ATOM     33  F   LIG d   1       9.089   4.357  -9.950  0.00  0.00    -0.163 F 
ENDBRANCH   8  30
BRANCH   9  34
ATOM     34  C   LIG d   1      10.409   7.338  -7.267  0.00  0.00    -0.011 A 
ATOM     35  C   LIG d   1       9.480   8.376  -7.317  0.00  0.00    -0.052 A 
ATOM     36  C   LIG d   1       9.876   9.634  -7.722  0.00  0.00    -0.043 A 
ATOM     37  H   LIG d   1       8.452   8.197  -7.037  0.00  0.00     0.062 H 
ATOM     38  C   LIG d   1      11.193   9.866  -8.080  0.00  0.00     0.041 A 
ATOM     39  H   LIG d   1       9.158  10.440  -7.761  0.00  0.00     0.063 H 
ATOM     40  C   LIG d   1      12.120   8.838  -8.032  0.00  0.00    -0.043 A 
ATOM     41 CL   LIG d   1      11.686  11.451  -8.590  0.00  0.00    -0.084 Cl
ATOM     42  C   LIG d   1      11.734   7.578  -7.622  0.00  0.00    -0.052 A 
ATOM     43  H   LIG d   1      13.146   9.023  -8.312  0.00  0.00     0.063 H 
ATOM     44  H   LIG d   1      12.458   6.777  -7.580  0.00  0.00     0.062 H 
ENDBRANCH   9  34
TORSDOF 5
ENDMDL
MODEL 7
REMARK VINA RESULT:      -6.9      5.928      8.131
REMARK  5 active torsions:
REMARK  status: ('A' for Active; 'I' for Inactive)
REMARK    1  A    between atoms: C_4  and  C_8 
REMARK    2  A    between atoms: C_8  and  O_9 
REMARK    3  A    between atoms: O_9  and  C_10 
REMARK    4  A    between atoms: C_17  and  C_28 
REMARK    5  A    between atoms: C_18  and  C_21 
ROOT
ATOM      1  C   LIG d   1       6.233  -3.261  -5.418  0.00  0.00     0.124 A 
ATOM      2  C   LIG d   1       5.011  -3.429  -6.066  0.00  0.00    -0.019 A 
ATOM      3  C   LIG d   1       4.542  -4.682  -6.339  0.00  0.00    -0.044 A 
ATOM      4  C   LIG d   1       5.292  -5.798  -5.965  0.00  0.00     0.065 A 
ATOM      5  C   LIG d   1       6.526  -5.640  -5.309  0.00  0.00     0.143 A 
ATOM      6  C   LIG d   1       6.987  -4.358  -5.040  0.00  0.00     0.023 A 
ATOM      7  O   LIG d   1       7.245  -6.719  -4.943  0.00  0.00    -0.450 OA
ATOM      8  C   LIG d   1       6.855  -7.974  -5.180  0.00  0.00     0.219 A 
ATOM      9  C   LIG d   1       5.686  -8.272  -5.804  0.00  0.00     0.076 A 
ATOM     10  C   LIG d   1       4.818  -7.166  -6.242  0.00  0.00     0.201 A 
ATOM     11  O   LIG d   1       3.756  -7.373  -6.807  0.00  0.00    -0.286 OA
ATOM     12  H   LIG d   1       4.432  -2.564  -6.356  0.00  0.00     0.065 H 
ATOM     13  H   LIG d   1       3.595  -4.809  -6.841  0.00  0.00     0.063 H 
ATOM     14  H   LIG d   1       7.933  -4.218  -4.537  0.00  0.00     0.069 H 
ENDROOT
BRANCH   1  15
ATOM     15  O   LIG d   1       6.688  -2.009  -5.154  0.00  0.00    -0.487 OA
BRANCH  15  16
ATOM     16  C   LIG d   1       6.994  -1.706  -3.791  0.00  0.00     0.119 C 
ATOM     17  H   LIG d   1       7.041  -2.630  -3.215  0.00  0.00     0.075 H 
ATOM     18  H   LIG d   1       7.955  -1.195  -3.740  0.00  0.00     0.075 H 
BRANCH  16  19
ATOM     19  C   LIG d   1       5.920  -0.814  -3.222  0.00  0.00     0.043 A 
ATOM     20  C   LIG d   1       4.742  -1.366  -2.748  0.00  0.00     0.131 A 
ATOM     21  C   LIG d   1       3.758  -0.547  -2.219  0.00  0.00    -0.026 A 
ATOM     22  F   LIG d   1       4.554  -2.703  -2.794  0.00  0.00    -0.205 F 
ATOM     23  C   LIG d   1       3.949   0.822  -2.176  0.00  0.00    -0.058 A 
ATOM     24  H   LIG d   1       2.842  -0.976  -1.844  0.00  0.00     0.065 H 
ATOM     25  C   LIG d   1       5.122   1.373  -2.656  0.00  0.00    -0.043 A 
ATOM     26  H   LIG d   1       3.180   1.461  -1.768  0.00  0.00     0.062 H 
ATOM     27  C   LIG d   1       6.109   0.555  -3.178  0.00  0.00     0.050 A 
ATOM     28  H   LIG d   1       5.269   2.443  -2.622  0.00  0.00     0.063 H 
ATOM     29 CL   LIG d   1       7.582   1.248  -3.780  0.00  0.00    -0.083 Cl
ENDBRANCH  16  19
ENDBRANCH  15  16
ENDBRANCH   1  15
BRANCH   8  30
ATOM     30  C   LIG d   1       7.745  -9.105  -4.732  0.00  0.00     0.451 C 
ATOM     31  F   LIG d   1       7.073  -9.879  -3.781  0.00  0.00    -0.163 F 
ATOM     32  F   LIG d   1       8.077  -9.902  -5.832  0.00  0.00    -0.163 F 
ATOM     33  F   LIG d   1       8.913  -8.582  -4.166  0.00  0.00    -0.163 F 
ENDBRANCH   8  30
BRANCH   9  34
ATOM     34  C   LIG d   1       5.293  -9.683  -6.039  0.00  0.00    -0.011 A 
ATOM     35  C   LIG d   1       4.541 -10.366  -5.084  0.00  0.00    -0.052 A 
ATOM     36  C   LIG d   1       4.176 -11.678  -5.308  0.00  0.00    -0.043 A 
ATOM     37  H   LIG d   1       4.244  -9.870  -4.172  0.00  0.00     0.062 H 
ATOM     38  C   LIG d   1       4.555 -12.315  -6.477  0.00  0.00     0.041 A 
ATOM     39  H   LIG d   1       3.594 -12.209  -4.570  0.00  0.00     0.063 H 
ATOM     40  C   LIG d   1       5.302 -11.641  -7.428  0.00  0.00    -0.043 A 
ATOM     41 CL   LIG d   1       4.093 -13.966  -6.752  0.00  0.00    -0.084 Cl
ATOM     42  C   LIG d   1       5.667 -10.326  -7.216  0.00  0.00    -0.052 A 
ATOM     43  H   LIG d   1       5.596 -12.142  -8.338  0.00  0.00     0.063 H 
ATOM     44  H   LIG d   1       6.246  -9.799  -7.960  0.00  0.00     0.062 H 
ENDBRANCH   9  34
TORSDOF 5
ENDMDL
MODEL 8
REMARK VINA RESULT:      -6.9      6.057      9.193
REMARK  5 active torsions:
REMARK  status: ('A' for Active; 'I' for Inactive)
REMARK    1  A    between atoms: C_4  and  C_8 
REMARK    2  A    between atoms: C_8  and  O_9 
REMARK    3  A    between atoms: O_9  and  C_10 
REMARK    4  A    between atoms: C_17  and  C_28 
REMARK    5  A    between atoms: C_18  and  C_21 
ROOT
ATOM      1  C   LIG d   1       7.830   0.354  -4.696  0.00  0.00     0.124 A 
ATOM      2  C   LIG d   1       7.927   0.547  -6.072  0.00  0.00    -0.019 A 
ATOM      3  C   LIG d   1       8.423   1.717  -6.571  0.00  0.00    -0.044 A 
ATOM      4  C   LIG d   1       8.834   2.723  -5.696  0.00  0.00     0.065 A 
ATOM      5  C   LIG d   1       8.741   2.539  -4.305  0.00  0.00     0.143 A 
ATOM      6  C   LIG d   1       8.235   1.342  -3.815  0.00  0.00     0.023 A 
ATOM      7  O   LIG d   1       9.145   3.510  -3.462  0.00  0.00    -0.450 OA
ATOM      8  C   LIG d   1       9.634   4.682  -3.874  0.00  0.00     0.219 A 
ATOM      9  C   LIG d   1       9.779   4.992  -5.189  0.00  0.00     0.076 A 
ATOM     10  C   LIG d   1       9.375   4.000  -6.198  0.00  0.00     0.201 A 
ATOM     11  O   LIG d   1       9.482   4.223  -7.393  0.00  0.00    -0.286 OA
ATOM     12  H   LIG d   1       7.608  -0.234  -6.748  0.00  0.00     0.065 H 
ATOM     13  H   LIG d   1       8.497   1.863  -7.638  0.00  0.00     0.063 H 
ATOM     14  H   LIG d   1       8.156   1.184  -2.750  0.00  0.00     0.069 H 
ENDROOT
BRANCH   1  15
ATOM     15  O   LIG d   1       7.335  -0.815  -4.213  0.00  0.00    -0.487 OA
BRANCH  15  16
ATOM     16  C   LIG d   1       6.327  -1.462  -4.992  0.00  0.00     0.119 C 
ATOM     17  H   LIG d   1       6.409  -1.142  -6.031  0.00  0.00     0.075 H 
ATOM     18  H   LIG d   1       6.459  -2.542  -4.932  0.00  0.00     0.075 H 
BRANCH  16  19
ATOM     19  C   LIG d   1       4.966  -1.093  -4.459  0.00  0.00     0.043 A 
ATOM     20  C   LIG d   1       4.625  -1.407  -3.155  0.00  0.00     0.131 A 
ATOM     21  C   LIG d   1       3.377  -1.063  -2.663  0.00  0.00    -0.026 A 
ATOM     22  F   LIG d   1       5.511  -2.045  -2.359  0.00  0.00    -0.205 F 
ATOM     23  C   LIG d   1       2.469  -0.414  -3.480  0.00  0.00    -0.058 A 
ATOM     24  H   LIG d   1       3.112  -1.302  -1.645  0.00  0.00     0.065 H 
ATOM     25  C   LIG d   1       2.807  -0.106  -4.784  0.00  0.00    -0.043 A 
ATOM     26  H   LIG d   1       1.494  -0.150  -3.098  0.00  0.00     0.062 H 
ATOM     27  C   LIG d   1       4.056  -0.444  -5.274  0.00  0.00     0.050 A 
ATOM     28  H   LIG d   1       2.096   0.400  -5.420  0.00  0.00     0.063 H 
ATOM     29 CL   LIG d   1       4.481  -0.056  -6.912  0.00  0.00    -0.083 Cl
ENDBRANCH  16  19
ENDBRANCH  15  16
ENDBRANCH   1  15
BRANCH   8  30
ATOM     30  C   LIG d   1      10.047   5.697  -2.840  0.00  0.00     0.451 C 
ATOM     31  F   LIG d   1      11.354   6.123  -3.100  0.00  0.00    -0.163 F 
ATOM     32  F   LIG d   1       9.180   6.794  -2.891  0.00  0.00    -0.163 F 
ATOM     33  F   LIG d   1       9.991   5.116  -1.569  0.00  0.00    -0.163 F 
ENDBRANCH   8  30
BRANCH   9  34
ATOM     34  C   LIG d   1      10.334   6.306  -5.598  0.00  0.00    -0.011 A 
ATOM     35  C   LIG d   1      11.700   6.441  -5.844  0.00  0.00    -0.052 A 
ATOM     36  C   LIG d   1      12.211   7.664  -6.226  0.00  0.00    -0.043 A 
ATOM     37  H   LIG d   1      12.356   5.589  -5.738  0.00  0.00     0.062 H 
ATOM     38  C   LIG d   1      11.371   8.756  -6.364  0.00  0.00     0.041 A 
ATOM     39  H   LIG d   1      13.268   7.770  -6.418  0.00  0.00     0.063 H 
ATOM     40  C   LIG d   1      10.014   8.627  -6.120  0.00  0.00    -0.043 A 
ATOM     41 CL   LIG d   1      12.021  10.292  -6.845  0.00  0.00    -0.084 Cl
ATOM     42  C   LIG d   1       9.492   7.406  -5.743  0.00  0.00    -0.052 A 
ATOM     43  H   LIG d   1       9.363   9.481  -6.229  0.00  0.00     0.063 H 
ATOM     44  H   LIG d   1       8.433   7.305  -5.557  0.00  0.00     0.062 H 
ENDBRANCH   9  34
TORSDOF 5
ENDMDL
MODEL 9
REMARK VINA RESULT:      -6.9      2.974      4.185
REMARK  5 active torsions:
REMARK  status: ('A' for Active; 'I' for Inactive)
REMARK    1  A    between atoms: C_4  and  C_8 
REMARK    2  A    between atoms: C_8  and  O_9 
REMARK    3  A    between atoms: O_9  and  C_10 
REMARK    4  A    between atoms: C_17  and  C_28 
REMARK    5  A    between atoms: C_18  and  C_21 
ROOT
ATOM      1  C   LIG d   1       3.256   0.593  -7.763  0.00  0.00     0.124 A 
ATOM      2  C   LIG d   1       4.057   1.239  -8.702  0.00  0.00    -0.019 A 
ATOM      3  C   LIG d   1       4.063   0.827 -10.004  0.00  0.00    -0.044 A 
ATOM      4  C   LIG d   1       3.261  -0.248 -10.393  0.00  0.00     0.065 A 
ATOM      5  C   LIG d   1       2.449  -0.906  -9.454  0.00  0.00     0.143 A 
ATOM      6  C   LIG d   1       2.455  -0.473  -8.134  0.00  0.00     0.023 A 
ATOM      7  O   LIG d   1       1.671  -1.940  -9.833  0.00  0.00    -0.450 OA
ATOM      8  C   LIG d   1       1.628  -2.403 -11.084  0.00  0.00     0.219 A 
ATOM      9  C   LIG d   1       2.361  -1.861 -12.091  0.00  0.00     0.076 A 
ATOM     10  C   LIG d   1       3.241  -0.721 -11.789  0.00  0.00     0.201 A 
ATOM     11  O   LIG d   1       3.923  -0.193 -12.653  0.00  0.00    -0.286 OA
ATOM     12  H   LIG d   1       4.677   2.071  -8.399  0.00  0.00     0.065 H 
ATOM     13  H   LIG d   1       4.684   1.330 -10.729  0.00  0.00     0.063 H 
ATOM     14  H   LIG d   1       1.837  -0.968  -7.399  0.00  0.00     0.069 H 
ENDROOT
BRANCH   1  15
ATOM     15  O   LIG d   1       3.260   1.014  -6.472  0.00  0.00    -0.487 OA
BRANCH  15  16
ATOM     16  C   LIG d   1       2.610   0.174  -5.516  0.00  0.00     0.119 C 
ATOM     17  H   LIG d   1       1.578   0.502  -5.386  0.00  0.00     0.075 H 
ATOM     18  H   LIG d   1       2.622  -0.857  -5.870  0.00  0.00     0.075 H 
BRANCH  16  19
ATOM     19  C   LIG d   1       3.334   0.261  -4.197  0.00  0.00     0.043 A 
ATOM     20  C   LIG d   1       3.281   1.428  -3.454  0.00  0.00     0.131 A 
ATOM     21  C   LIG d   1       3.942   1.505  -2.239  0.00  0.00    -0.026 A 
ATOM     22  F   LIG d   1       2.582   2.489  -3.911  0.00  0.00    -0.205 F 
ATOM     23  C   LIG d   1       4.662   0.419  -1.775  0.00  0.00    -0.058 A 
ATOM     24  H   LIG d   1       3.897   2.412  -1.657  0.00  0.00     0.065 H 
ATOM     25  C   LIG d   1       4.720  -0.743  -2.520  0.00  0.00    -0.043 A 
ATOM     26  H   LIG d   1       5.181   0.482  -0.829  0.00  0.00     0.062 H 
ATOM     27  C   LIG d   1       4.055  -0.823  -3.731  0.00  0.00     0.050 A 
ATOM     28  H   LIG d   1       5.283  -1.590  -2.156  0.00  0.00     0.063 H 
ATOM     29 CL   LIG d   1       4.127  -2.285  -4.665  0.00  0.00    -0.083 Cl
ENDBRANCH  16  19
ENDBRANCH  15  16
ENDBRANCH   1  15
BRANCH   8  30
ATOM     30  C   LIG d   1       0.725  -3.571 -11.392  0.00  0.00     0.451 C 
ATOM     31  F   LIG d   1       1.483  -4.616 -11.931  0.00  0.00    -0.163 F 
ATOM     32  F   LIG d   1       0.104  -4.003 -10.216  0.00  0.00    -0.163 F 
ATOM     33  F   LIG d   1      -0.248  -3.176 -12.316  0.00  0.00    -0.163 F 
ENDBRANCH   8  30
BRANCH   9  34
ATOM     34  C   LIG d   1       2.273  -2.407 -13.468  0.00  0.00    -0.011 A 
ATOM     35  C   LIG d   1       1.263  -1.978 -14.327  0.00  0.00    -0.052 A 
ATOM     36  C   LIG d   1       1.187  -2.487 -15.607  0.00  0.00    -0.043 A 
ATOM     37  H   LIG d   1       0.541  -1.247 -13.991  0.00  0.00     0.062 H 
ATOM     38  C   LIG d   1       2.111  -3.423 -16.038  0.00  0.00     0.041 A 
ATOM     39  H   LIG d   1       0.405  -2.156 -16.273  0.00  0.00     0.063 H 
ATOM     40  C   LIG d   1       3.117  -3.853 -15.189  0.00  0.00    -0.043 A 
ATOM     41 CL   LIG d   1       2.010  -4.061 -17.650  0.00  0.00    -0.084 Cl
ATOM     42  C   LIG d   1       3.205  -3.345 -13.908  0.00  0.00    -0.052 A 
ATOM     43  H   LIG d   1       3.835  -4.583 -15.529  0.00  0.00     0.063 H 
ATOM     44  H   LIG d   1       3.992  -3.677 -13.247  0.00  0.00     0.062 H 
ENDBRANCH   9  34
TORSDOF 5
ENDMDL
