MODEL 1
REMARK VINA RESULT:      -6.1      0.000      0.000
REMARK  4 active torsions:
REMARK  status: ('A' for Active; 'I' for Inactive)
REMARK    1  A    between atoms: C_1  and  C_2 
REMARK    2  A    between atoms: C_5  and  C_12 
REMARK    3  A    between atoms: C_6  and  C_7 
REMARK    4  A    between atoms: C_6  and  C_8 
REMARK       I    between atoms: C_12  and  N_14 
ROOT
ATOM      1  C   LIG d   1       4.460   0.775  -2.976  0.00  0.00     0.032 C 
ATOM      2  C   LIG d   1       4.377   0.112  -1.567  0.00  0.00    -0.039 C 
ATOM      3  C   LIG d   1       4.771  -1.364  -1.807  0.00  0.00    -0.037 C 
ATOM      4  C   LIG d   1       5.061  -1.445  -3.337  0.00  0.00     0.060 C 
ATOM      5  C   LIG d   1       4.007  -0.420  -3.887  0.00  0.00    -0.009 C 
ATOM      6  C   LIG d   1       6.372  -0.621  -3.525  0.00  0.00     0.021 C 
ATOM      7  C   LIG d   1       5.958   0.838  -3.306  0.00  0.00     0.141 C 
ATOM      8  O   LIG d   1       6.655   1.822  -3.361  0.00  0.00    -0.297 OA
ATOM      9  H   LIG d   1       5.079   0.586  -0.882  0.00  0.00     0.028 H 
ATOM     10  H   LIG d   1       3.361   0.176  -1.176  0.00  0.00     0.028 H 
ATOM     11  H   LIG d   1       5.664  -1.617  -1.235  0.00  0.00     0.028 H 
ATOM     12  H   LIG d   1       3.947  -2.026  -1.540  0.00  0.00     0.028 H 
ATOM     13  H   LIG d   1       7.121  -0.927  -2.793  0.00  0.00     0.035 H 
ATOM     14  H   LIG d   1       6.758  -0.747  -4.537  0.00  0.00     0.035 H 
ENDROOT
BRANCH   4  15
ATOM     15  C   LIG d   1       5.034  -2.824  -3.944  0.00  0.00     0.223 C 
ATOM     16  O   LIG d   1       4.178  -3.617  -3.614  0.00  0.00    -0.275 OA
ATOM     17  N   LIG d   1       5.963  -3.178  -4.854  0.00  0.00    -0.301 N 
ATOM     18  C   LIG d   1       6.054  -4.487  -5.526  0.00  0.00     0.015 C 
ATOM     19  C   LIG d   1       7.057  -2.324  -5.339  0.00  0.00     0.015 C 
ATOM     20  C   LIG d   1       6.815  -4.202  -6.847  0.00  0.00    -0.036 C 
ATOM     21  H   LIG d   1       6.612  -5.192  -4.908  0.00  0.00     0.046 H 
ATOM     22  H   LIG d   1       5.058  -4.875  -5.738  0.00  0.00     0.046 H 
ATOM     23  C   LIG d   1       7.846  -3.138  -6.386  0.00  0.00    -0.036 C 
ATOM     24  H   LIG d   1       6.146  -3.796  -7.606  0.00  0.00     0.028 H 
ATOM     25  H   LIG d   1       7.316  -5.100  -7.209  0.00  0.00     0.028 H 
ATOM     26  H   LIG d   1       8.145  -2.504  -7.221  0.00  0.00     0.028 H 
ATOM     27  H   LIG d   1       8.714  -3.614  -5.930  0.00  0.00     0.028 H 
ATOM     28  H   LIG d   1       6.648  -1.424  -5.800  0.00  0.00     0.046 H 
ATOM     29  H   LIG d   1       7.711  -2.054  -4.510  0.00  0.00     0.046 H 
ENDBRANCH   4  15
BRANCH   5  30
ATOM     30  C   LIG d   1       4.215  -0.122  -5.373  0.00  0.00    -0.058 C 
ATOM     31  H   LIG d   1       5.282  -0.088  -5.590  0.00  0.00     0.024 H 
ATOM     32  H   LIG d   1       3.747  -0.904  -5.970  0.00  0.00     0.024 H 
ATOM     33  H   LIG d   1       3.763   0.840  -5.617  0.00  0.00     0.024 H 
ENDBRANCH   5  30
BRANCH   5  34
ATOM     34  C   LIG d   1       2.571  -0.857  -3.590  0.00  0.00    -0.058 C 
ATOM     35  H   LIG d   1       2.558  -1.919  -3.343  0.00  0.00     0.024 H 
ATOM     36  H   LIG d   1       2.185  -0.285  -2.747  0.00  0.00     0.024 H 
ATOM     37  H   LIG d   1       1.948  -0.681  -4.466  0.00  0.00     0.024 H 
ENDBRANCH   5  34
BRANCH   1  38
ATOM     38  C   LIG d   1       3.684   2.083  -3.144  0.00  0.00    -0.052 C 
ATOM     39  H   LIG d   1       3.235   2.113  -4.137  0.00  0.00     0.024 H 
ATOM     40  H   LIG d   1       2.902   2.142  -2.388  0.00  0.00     0.024 H 
ATOM     41  H   LIG d   1       4.366   2.926  -3.028  0.00  0.00     0.024 H 
ENDBRANCH   1  38
TORSDOF 4
ENDMDL
MODEL 2
REMARK VINA RESULT:      -5.6      2.593      3.785
REMARK  4 active torsions:
REMARK  status: ('A' for Active; 'I' for Inactive)
REMARK    1  A    between atoms: C_1  and  C_2 
REMARK    2  A    between atoms: C_5  and  C_12 
REMARK    3  A    between atoms: C_6  and  C_7 
REMARK    4  A    between atoms: C_6  and  C_8 
REMARK       I    between atoms: C_12  and  N_14 
ROOT
ATOM      1  C   LIG d   1       4.783  -1.180  -2.980  0.00  0.00     0.032 C 
ATOM      2  C   LIG d   1       4.522  -2.536  -3.704  0.00  0.00    -0.039 C 
ATOM      3  C   LIG d   1       4.075  -2.137  -5.130  0.00  0.00    -0.037 C 
ATOM      4  C   LIG d   1       4.118  -0.578  -5.129  0.00  0.00     0.060 C 
ATOM      5  C   LIG d   1       3.687  -0.277  -3.649  0.00  0.00    -0.009 C 
ATOM      6  C   LIG d   1       5.637  -0.235  -5.049  0.00  0.00     0.021 C 
ATOM      7  C   LIG d   1       6.056  -0.615  -3.625  0.00  0.00     0.141 C 
ATOM      8  O   LIG d   1       7.149  -0.513  -3.122  0.00  0.00    -0.297 OA
ATOM      9  H   LIG d   1       5.436  -3.128  -3.744  0.00  0.00     0.028 H 
ATOM     10  H   LIG d   1       3.731  -3.091  -3.199  0.00  0.00     0.028 H 
ATOM     11  H   LIG d   1       4.767  -2.537  -5.871  0.00  0.00     0.028 H 
ATOM     12  H   LIG d   1       3.062  -2.489  -5.323  0.00  0.00     0.028 H 
ATOM     13  H   LIG d   1       6.196  -0.812  -5.786  0.00  0.00     0.035 H 
ATOM     14  H   LIG d   1       5.794   0.833  -5.207  0.00  0.00     0.035 H 
ENDROOT
BRANCH   4  15
ATOM     15  C   LIG d   1       3.323   0.107  -6.210  0.00  0.00     0.223 C 
ATOM     16  O   LIG d   1       2.740   1.143  -5.971  0.00  0.00    -0.275 OA
ATOM     17  N   LIG d   1       3.260  -0.432  -7.444  0.00  0.00    -0.301 N 
ATOM     18  C   LIG d   1       2.524   0.130  -8.591  0.00  0.00     0.015 C 
ATOM     19  C   LIG d   1       3.910  -1.680  -7.868  0.00  0.00     0.015 C 
ATOM     20  C   LIG d   1       3.237  -0.448  -9.840  0.00  0.00    -0.036 C 
ATOM     21  H   LIG d   1       1.481  -0.189  -8.565  0.00  0.00     0.046 H 
ATOM     22  H   LIG d   1       2.588   1.218  -8.587  0.00  0.00     0.046 H 
ATOM     23  C   LIG d   1       3.582  -1.883  -9.363  0.00  0.00    -0.036 C 
ATOM     24  H   LIG d   1       4.141   0.114 -10.073  0.00  0.00     0.028 H 
ATOM     25  H   LIG d   1       2.563  -0.474 -10.696  0.00  0.00     0.028 H 
ATOM     26  H   LIG d   1       4.450  -2.270  -9.898  0.00  0.00     0.028 H 
ATOM     27  H   LIG d   1       2.726  -2.547  -9.482  0.00  0.00     0.028 H 
ATOM     28  H   LIG d   1       4.989  -1.601  -7.732  0.00  0.00     0.046 H 
ATOM     29  H   LIG d   1       3.522  -2.516  -7.286  0.00  0.00     0.046 H 
ENDBRANCH   4  15
BRANCH   5  30
ATOM     30  C   LIG d   1       3.860   1.200  -3.288  0.00  0.00    -0.058 C 
ATOM     31  H   LIG d   1       3.022   1.771  -3.687  0.00  0.00     0.024 H 
ATOM     32  H   LIG d   1       3.892   1.309  -2.205  0.00  0.00     0.024 H 
ATOM     33  H   LIG d   1       4.790   1.571  -3.718  0.00  0.00     0.024 H 
ENDBRANCH   5  30
BRANCH   5  34
ATOM     34  C   LIG d   1       2.271  -0.775  -3.350  0.00  0.00    -0.058 C 
ATOM     35  H   LIG d   1       1.766  -1.015  -4.286  0.00  0.00     0.024 H 
ATOM     36  H   LIG d   1       2.324  -1.667  -2.726  0.00  0.00     0.024 H 
ATOM     37  H   LIG d   1       1.715   0.003  -2.827  0.00  0.00     0.024 H 
ENDBRANCH   5  34
BRANCH   1  38
ATOM     38  C   LIG d   1       4.775  -1.229  -1.451  0.00  0.00    -0.052 C 
ATOM     39  H   LIG d   1       5.708  -0.811  -1.070  0.00  0.00     0.024 H 
ATOM     40  H   LIG d   1       3.935  -0.647  -1.072  0.00  0.00     0.024 H 
ATOM     41  H   LIG d   1       4.679  -2.263  -1.121  0.00  0.00     0.024 H 
ENDBRANCH   1  38
TORSDOF 4
ENDMDL
MODEL 3
REMARK VINA RESULT:      -5.5      2.072      2.828
REMARK  4 active torsions:
REMARK  status: ('A' for Active; 'I' for Inactive)
REMARK    1  A    between atoms: C_1  and  C_2 
REMARK    2  A    between atoms: C_5  and  C_12 
REMARK    3  A    between atoms: C_6  and  C_7 
REMARK    4  A    between atoms: C_6  and  C_8 
REMARK       I    between atoms: C_12  and  N_14 
ROOT
ATOM      1  C   LIG d   1       4.706   0.416  -3.030  0.00  0.00     0.032 C 
ATOM      2  C   LIG d   1       6.064   0.590  -3.774  0.00  0.00    -0.039 C 
ATOM      3  C   LIG d   1       6.041  -0.485  -4.886  0.00  0.00    -0.037 C 
ATOM      4  C   LIG d   1       4.665  -1.197  -4.709  0.00  0.00     0.060 C 
ATOM      5  C   LIG d   1       4.506  -1.137  -3.147  0.00  0.00    -0.009 C 
ATOM      6  C   LIG d   1       3.617  -0.124  -5.135  0.00  0.00     0.021 C 
ATOM      7  C   LIG d   1       3.639   0.919  -4.012  0.00  0.00     0.141 C 
ATOM      8  O   LIG d   1       2.978   1.926  -3.924  0.00  0.00    -0.297 OA
ATOM      9  H   LIG d   1       6.134   1.586  -4.210  0.00  0.00     0.028 H 
ATOM     10  H   LIG d   1       6.897   0.414  -3.093  0.00  0.00     0.028 H 
ATOM     11  H   LIG d   1       6.104  -0.017  -5.869  0.00  0.00     0.028 H 
ATOM     12  H   LIG d   1       6.857  -1.194  -4.748  0.00  0.00     0.028 H 
ATOM     13  H   LIG d   1       3.899   0.325  -6.088  0.00  0.00     0.035 H 
ATOM     14  H   LIG d   1       2.624  -0.569  -5.206  0.00  0.00     0.035 H 
ENDROOT
BRANCH   4  15
ATOM     15  C   LIG d   1       4.537  -2.559  -5.342  0.00  0.00     0.223 C 
ATOM     16  O   LIG d   1       4.519  -3.553  -4.648  0.00  0.00    -0.275 OA
ATOM     17  N   LIG d   1       4.444  -2.673  -6.682  0.00  0.00    -0.301 N 
ATOM     18  C   LIG d   1       4.315  -3.935  -7.431  0.00  0.00     0.015 C 
ATOM     19  C   LIG d   1       4.460  -1.557  -7.640  0.00  0.00     0.015 C 
ATOM     20  C   LIG d   1       3.638  -3.535  -8.768  0.00  0.00    -0.036 C 
ATOM     21  H   LIG d   1       5.298  -4.369  -7.616  0.00  0.00     0.046 H 
ATOM     22  H   LIG d   1       3.688  -4.638  -6.884  0.00  0.00     0.046 H 
ATOM     23  C   LIG d   1       4.302  -2.162  -9.051  0.00  0.00    -0.036 C 
ATOM     24  H   LIG d   1       2.560  -3.431  -8.647  0.00  0.00     0.028 H 
ATOM     25  H   LIG d   1       3.875  -4.253  -9.553  0.00  0.00     0.028 H 
ATOM     26  H   LIG d   1       3.653  -1.539  -9.667  0.00  0.00     0.028 H 
ATOM     27  H   LIG d   1       5.275  -2.294  -9.525  0.00  0.00     0.028 H 
ATOM     28  H   LIG d   1       3.633  -0.879  -7.432  0.00  0.00     0.046 H 
ATOM     29  H   LIG d   1       5.408  -1.022  -7.570  0.00  0.00     0.046 H 
ENDBRANCH   4  15
BRANCH   5  30
ATOM     30  C   LIG d   1       3.112  -1.574  -2.694  0.00  0.00    -0.058 C 
ATOM     31  H   LIG d   1       2.426  -1.537  -3.540  0.00  0.00     0.024 H 
ATOM     32  H   LIG d   1       3.158  -2.592  -2.307  0.00  0.00     0.024 H 
ATOM     33  H   LIG d   1       2.759  -0.904  -1.910  0.00  0.00     0.024 H 
ENDBRANCH   5  30
BRANCH   5  34
ATOM     34  C   LIG d   1       5.609  -1.914  -2.427  0.00  0.00    -0.058 C 
ATOM     35  H   LIG d   1       6.568  -1.710  -2.904  0.00  0.00     0.024 H 
ATOM     36  H   LIG d   1       5.649  -1.604  -1.383  0.00  0.00     0.024 H 
ATOM     37  H   LIG d   1       5.397  -2.982  -2.481  0.00  0.00     0.024 H 
ENDBRANCH   5  34
BRANCH   1  38
ATOM     38  C   LIG d   1       4.639   0.999  -1.617  0.00  0.00    -0.052 C 
ATOM     39  H   LIG d   1       5.413   0.542  -0.999  0.00  0.00     0.024 H 
ATOM     40  H   LIG d   1       4.798   2.076  -1.661  0.00  0.00     0.024 H 
ATOM     41  H   LIG d   1       3.660   0.792  -1.185  0.00  0.00     0.024 H 
ENDBRANCH   1  38
TORSDOF 4
ENDMDL
MODEL 4
REMARK VINA RESULT:      -5.4      1.800      2.222
REMARK  4 active torsions:
REMARK  status: ('A' for Active; 'I' for Inactive)
REMARK    1  A    between atoms: C_1  and  C_2 
REMARK    2  A    between atoms: C_5  and  C_12 
REMARK    3  A    between atoms: C_6  and  C_7 
REMARK    4  A    between atoms: C_6  and  C_8 
REMARK       I    between atoms: C_12  and  N_14 
ROOT
ATOM      1  C   LIG d   1       5.196  -0.058  -2.794  0.00  0.00     0.032 C 
ATOM      2  C   LIG d   1       5.972  -1.368  -2.460  0.00  0.00    -0.039 C 
ATOM      3  C   LIG d   1       5.969  -2.171  -3.782  0.00  0.00    -0.037 C 
ATOM      4  C   LIG d   1       5.198  -1.261  -4.787  0.00  0.00     0.060 C 
ATOM      5  C   LIG d   1       4.146  -0.596  -3.829  0.00  0.00    -0.009 C 
ATOM      6  C   LIG d   1       6.156  -0.054  -5.027  0.00  0.00     0.021 C 
ATOM      7  C   LIG d   1       6.128   0.740  -3.717  0.00  0.00     0.141 C 
ATOM      8  O   LIG d   1       6.721   1.759  -3.456  0.00  0.00    -0.297 OA
ATOM      9  H   LIG d   1       6.994  -1.138  -2.157  0.00  0.00     0.028 H 
ATOM     10  H   LIG d   1       5.458  -1.925  -1.676  0.00  0.00     0.028 H 
ATOM     11  H   LIG d   1       6.989  -2.340  -4.126  0.00  0.00     0.028 H 
ATOM     12  H   LIG d   1       5.448  -3.119  -3.650  0.00  0.00     0.028 H 
ATOM     13  H   LIG d   1       7.164  -0.407  -5.247  0.00  0.00     0.035 H 
ATOM     14  H   LIG d   1       5.786   0.568  -5.843  0.00  0.00     0.035 H 
ENDROOT
BRANCH   4  15
ATOM     15  C   LIG d   1       4.649  -1.946  -6.012  0.00  0.00     0.223 C 
ATOM     16  O   LIG d   1       4.275  -1.287  -6.960  0.00  0.00    -0.275 OA
ATOM     17  N   LIG d   1       4.573  -3.291  -6.056  0.00  0.00    -0.301 N 
ATOM     18  C   LIG d   1       4.061  -4.087  -7.186  0.00  0.00     0.015 C 
ATOM     19  C   LIG d   1       4.984  -4.207  -4.983  0.00  0.00     0.015 C 
ATOM     20  C   LIG d   1       4.736  -5.474  -7.030  0.00  0.00    -0.036 C 
ATOM     21  H   LIG d   1       2.976  -4.181  -7.123  0.00  0.00     0.046 H 
ATOM     22  H   LIG d   1       4.347  -3.630  -8.133  0.00  0.00     0.046 H 
ATOM     23  C   LIG d   1       4.739  -5.645  -5.488  0.00  0.00    -0.036 C 
ATOM     24  H   LIG d   1       5.752  -5.464  -7.425  0.00  0.00     0.028 H 
ATOM     25  H   LIG d   1       4.140  -6.252  -7.508  0.00  0.00     0.028 H 
ATOM     26  H   LIG d   1       5.548  -6.306  -5.175  0.00  0.00     0.028 H 
ATOM     27  H   LIG d   1       3.777  -6.018  -5.139  0.00  0.00     0.028 H 
ATOM     28  H   LIG d   1       6.041  -4.067  -4.760  0.00  0.00     0.046 H 
ATOM     29  H   LIG d   1       4.387  -4.022  -4.089  0.00  0.00     0.046 H 
ENDBRANCH   4  15
BRANCH   5  30
ATOM     30  C   LIG d   1       3.380   0.536  -4.514  0.00  0.00    -0.058 C 
ATOM     31  H   LIG d   1       3.872   1.486  -4.307  0.00  0.00     0.024 H 
ATOM     32  H   LIG d   1       3.360   0.364  -5.590  0.00  0.00     0.024 H 
ATOM     33  H   LIG d   1       2.359   0.565  -4.133  0.00  0.00     0.024 H 
ENDBRANCH   5  30
BRANCH   5  34
ATOM     34  C   LIG d   1       3.203  -1.628  -3.207  0.00  0.00    -0.058 C 
ATOM     35  H   LIG d   1       3.576  -2.631  -3.413  0.00  0.00     0.024 H 
ATOM     36  H   LIG d   1       3.155  -1.472  -2.129  0.00  0.00     0.024 H 
ATOM     37  H   LIG d   1       2.207  -1.515  -3.635  0.00  0.00     0.024 H 
ENDBRANCH   5  34
BRANCH   1  38
ATOM     38  C   LIG d   1       4.631   0.707  -1.595  0.00  0.00    -0.052 C 
ATOM     39  H   LIG d   1       5.452   1.078  -0.981  0.00  0.00     0.024 H 
ATOM     40  H   LIG d   1       4.032   1.546  -1.949  0.00  0.00     0.024 H 
ATOM     41  H   LIG d   1       4.006   0.039  -1.002  0.00  0.00     0.024 H 
ENDBRANCH   1  38
TORSDOF 4
ENDMDL
MODEL 5
REMARK VINA RESULT:      -5.4      2.419      4.428
REMARK  4 active torsions:
REMARK  status: ('A' for Active; 'I' for Inactive)
REMARK    1  A    between atoms: C_1  and  C_2 
REMARK    2  A    between atoms: C_5  and  C_12 
REMARK    3  A    between atoms: C_6  and  C_7 
REMARK    4  A    between atoms: C_6  and  C_8 
REMARK       I    between atoms: C_12  and  N_14 
ROOT
ATOM      1  C   LIG d   1       4.265  -1.196  -3.076  0.00  0.00     0.032 C 
ATOM      2  C   LIG d   1       2.912  -0.501  -3.418  0.00  0.00    -0.039 C 
ATOM      3  C   LIG d   1       3.069  -0.042  -4.887  0.00  0.00    -0.037 C 
ATOM      4  C   LIG d   1       4.500  -0.513  -5.290  0.00  0.00     0.060 C 
ATOM      5  C   LIG d   1       5.260  -0.331  -3.927  0.00  0.00    -0.009 C 
ATOM      6  C   LIG d   1       4.394  -2.068  -5.340  0.00  0.00     0.021 C 
ATOM      7  C   LIG d   1       4.261  -2.505  -3.877  0.00  0.00     0.141 C 
ATOM      8  O   LIG d   1       4.158  -3.628  -3.446  0.00  0.00    -0.297 OA
ATOM      9  H   LIG d   1       2.087  -1.208  -3.327  0.00  0.00     0.028 H 
ATOM     10  H   LIG d   1       2.750   0.359  -2.767  0.00  0.00     0.028 H 
ATOM     11  H   LIG d   1       2.319  -0.520  -5.517  0.00  0.00     0.028 H 
ATOM     12  H   LIG d   1       2.992   1.042  -4.957  0.00  0.00     0.028 H 
ATOM     13  H   LIG d   1       3.520  -2.371  -5.917  0.00  0.00     0.035 H 
ATOM     14  H   LIG d   1       5.299  -2.497  -5.773  0.00  0.00     0.035 H 
ENDROOT
BRANCH   4  15
ATOM     15  C   LIG d   1       5.107   0.165  -6.491  0.00  0.00     0.223 C 
ATOM     16  O   LIG d   1       6.267   0.516  -6.468  0.00  0.00    -0.275 OA
ATOM     17  N   LIG d   1       4.360   0.381  -7.592  0.00  0.00    -0.301 N 
ATOM     18  C   LIG d   1       4.823   1.029  -8.832  0.00  0.00     0.015 C 
ATOM     19  C   LIG d   1       2.945   0.013  -7.753  0.00  0.00     0.015 C 
ATOM     20  C   LIG d   1       3.875   0.494  -9.936  0.00  0.00    -0.036 C 
ATOM     21  H   LIG d   1       4.737   2.113  -8.748  0.00  0.00     0.046 H 
ATOM     22  H   LIG d   1       5.853   0.745  -9.046  0.00  0.00     0.046 H 
ATOM     23  C   LIG d   1       2.523   0.430  -9.178  0.00  0.00    -0.036 C 
ATOM     24  H   LIG d   1       4.182  -0.496 -10.272  0.00  0.00     0.028 H 
ATOM     25  H   LIG d   1       3.820   1.190 -10.773  0.00  0.00     0.028 H 
ATOM     26  H   LIG d   1       1.868  -0.321  -9.620  0.00  0.00     0.028 H 
ATOM     27  H   LIG d   1       2.040   1.406  -9.166  0.00  0.00     0.028 H 
ATOM     28  H   LIG d   1       2.826  -1.063  -7.630  0.00  0.00     0.046 H 
ATOM     29  H   LIG d   1       2.339   0.542  -7.017  0.00  0.00     0.046 H 
ENDBRANCH   4  15
BRANCH   5  30
ATOM     30  C   LIG d   1       6.663  -0.938  -3.965  0.00  0.00    -0.058 C 
ATOM     31  H   LIG d   1       7.040  -0.917  -4.988  0.00  0.00     0.024 H 
ATOM     32  H   LIG d   1       7.327  -0.362  -3.321  0.00  0.00     0.024 H 
ATOM     33  H   LIG d   1       6.622  -1.970  -3.614  0.00  0.00     0.024 H 
ENDBRANCH   5  30
BRANCH   5  34
ATOM     34  C   LIG d   1       5.284   1.130  -3.474  0.00  0.00    -0.058 C 
ATOM     35  H   LIG d   1       5.128   1.780  -4.336  0.00  0.00     0.024 H 
ATOM     36  H   LIG d   1       4.491   1.297  -2.746  0.00  0.00     0.024 H 
ATOM     37  H   LIG d   1       6.249   1.355  -3.020  0.00  0.00     0.024 H 
ENDBRANCH   5  34
BRANCH   1  38
ATOM     38  C   LIG d   1       4.589  -1.327  -1.586  0.00  0.00    -0.052 C 
ATOM     39  H   LIG d   1       3.739  -0.981  -0.998  0.00  0.00     0.024 H 
ATOM     40  H   LIG d   1       4.796  -2.370  -1.350  0.00  0.00     0.024 H 
ATOM     41  H   LIG d   1       5.464  -0.720  -1.351  0.00  0.00     0.024 H 
ENDBRANCH   1  38
TORSDOF 4
ENDMDL
MODEL 6
REMARK VINA RESULT:      -5.4      2.534      4.241
REMARK  4 active torsions:
REMARK  status: ('A' for Active; 'I' for Inactive)
REMARK    1  A    between atoms: C_1  and  C_2 
REMARK    2  A    between atoms: C_5  and  C_12 
REMARK    3  A    between atoms: C_6  and  C_7 
REMARK    4  A    between atoms: C_6  and  C_8 
REMARK       I    between atoms: C_12  and  N_14 
ROOT
ATOM      1  C   LIG d   1       4.239  -1.178  -2.843  0.00  0.00     0.032 C 
ATOM      2  C   LIG d   1       4.794   0.031  -2.029  0.00  0.00    -0.039 C 
ATOM      3  C   LIG d   1       5.653   0.822  -3.043  0.00  0.00    -0.037 C 
ATOM      4  C   LIG d   1       5.526   0.016  -4.373  0.00  0.00     0.060 C 
ATOM      5  C   LIG d   1       5.440  -1.450  -3.817  0.00  0.00    -0.009 C 
ATOM      6  C   LIG d   1       4.046   0.232  -4.814  0.00  0.00     0.021 C 
ATOM      7  C   LIG d   1       3.212  -0.576  -3.813  0.00  0.00     0.141 C 
ATOM      8  O   LIG d   1       2.012  -0.700  -3.779  0.00  0.00    -0.297 OA
ATOM      9  H   LIG d   1       3.975   0.649  -1.662  0.00  0.00     0.028 H 
ATOM     10  H   LIG d   1       5.409  -0.319  -1.200  0.00  0.00     0.028 H 
ATOM     11  H   LIG d   1       5.260   1.830  -3.170  0.00  0.00     0.028 H 
ATOM     12  H   LIG d   1       6.692   0.855  -2.717  0.00  0.00     0.028 H 
ATOM     13  H   LIG d   1       3.787   1.290  -4.770  0.00  0.00     0.035 H 
ATOM     14  H   LIG d   1       3.890  -0.155  -5.821  0.00  0.00     0.035 H 
ENDROOT
BRANCH   4  15
ATOM     15  C   LIG d   1       6.588   0.278  -5.409  0.00  0.00     0.223 C 
ATOM     16  O   LIG d   1       6.461  -0.161  -6.533  0.00  0.00    -0.275 OA
ATOM     17  N   LIG d   1       7.680   1.000  -5.089  0.00  0.00    -0.301 N 
ATOM     18  C   LIG d   1       8.790   1.330  -6.000  0.00  0.00     0.015 C 
ATOM     19  C   LIG d   1       7.964   1.584  -3.770  0.00  0.00     0.015 C 
ATOM     20  C   LIG d   1       9.421   2.615  -5.404  0.00  0.00    -0.036 C 
ATOM     21  H   LIG d   1       9.520   0.520  -6.019  0.00  0.00     0.046 H 
ATOM     22  H   LIG d   1       8.413   1.524  -7.003  0.00  0.00     0.046 H 
ATOM     23  C   LIG d   1       9.305   2.339  -3.882  0.00  0.00    -0.036 C 
ATOM     24  H   LIG d   1       8.852   3.501  -5.685  0.00  0.00     0.028 H 
ATOM     25  H   LIG d   1      10.465   2.712  -5.704  0.00  0.00     0.028 H 
ATOM     26  H   LIG d   1       9.268   3.274  -3.322  0.00  0.00     0.028 H 
ATOM     27  H   LIG d   1      10.129   1.715  -3.538  0.00  0.00     0.028 H 
ATOM     28  H   LIG d   1       7.169   2.276  -3.492  0.00  0.00     0.046 H 
ATOM     29  H   LIG d   1       8.045   0.792  -3.024  0.00  0.00     0.046 H 
ENDBRANCH   4  15
BRANCH   5  30
ATOM     30  C   LIG d   1       5.079  -2.459  -4.908  0.00  0.00    -0.058 C 
ATOM     31  H   LIG d   1       4.785  -1.927  -5.812  0.00  0.00     0.024 H 
ATOM     32  H   LIG d   1       5.943  -3.089  -5.121  0.00  0.00     0.024 H 
ATOM     33  H   LIG d   1       4.252  -3.082  -4.567  0.00  0.00     0.024 H 
ENDBRANCH   5  30
BRANCH   5  34
ATOM     34  C   LIG d   1       6.709  -1.854  -3.064  0.00  0.00    -0.058 C 
ATOM     35  H   LIG d   1       6.776  -1.289  -2.134  0.00  0.00     0.024 H 
ATOM     36  H   LIG d   1       6.674  -2.920  -2.839  0.00  0.00     0.024 H 
ATOM     37  H   LIG d   1       7.582  -1.641  -3.681  0.00  0.00     0.024 H 
ENDBRANCH   5  34
BRANCH   1  38
ATOM     38  C   LIG d   1       3.756  -2.372  -2.018  0.00  0.00    -0.052 C 
ATOM     39  H   LIG d   1       3.058  -2.964  -2.610  0.00  0.00     0.024 H 
ATOM     40  H   LIG d   1       4.609  -2.989  -1.737  0.00  0.00     0.024 H 
ATOM     41  H   LIG d   1       3.255  -2.013  -1.119  0.00  0.00     0.024 H 
ENDBRANCH   1  38
TORSDOF 4
ENDMDL
MODEL 7
REMARK VINA RESULT:      -5.3      2.864      4.004
REMARK  4 active torsions:
REMARK  status: ('A' for Active; 'I' for Inactive)
REMARK    1  A    between atoms: C_1  and  C_2 
REMARK    2  A    between atoms: C_5  and  C_12 
REMARK    3  A    between atoms: C_6  and  C_7 
REMARK    4  A    between atoms: C_6  and  C_8 
REMARK       I    between atoms: C_12  and  N_14 
ROOT
ATOM      1  C   LIG d   1       4.934  -1.284  -2.973  0.00  0.00     0.032 C 
ATOM      2  C   LIG d   1       6.345  -1.941  -2.887  0.00  0.00    -0.039 C 
ATOM      3  C   LIG d   1       7.185  -1.204  -3.957  0.00  0.00    -0.037 C 
ATOM      4  C   LIG d   1       6.198  -0.168  -4.578  0.00  0.00     0.060 C 
ATOM      5  C   LIG d   1       4.851  -0.972  -4.509  0.00  0.00    -0.009 C 
ATOM      6  C   LIG d   1       5.960   0.870  -3.439  0.00  0.00     0.021 C 
ATOM      7  C   LIG d   1       5.109   0.129  -2.401  0.00  0.00     0.141 C 
ATOM      8  O   LIG d   1       4.685   0.553  -1.353  0.00  0.00    -0.297 OA
ATOM      9  H   LIG d   1       6.775  -1.790  -1.897  0.00  0.00     0.028 H 
ATOM     10  H   LIG d   1       6.285  -3.005  -3.118  0.00  0.00     0.028 H 
ATOM     11  H   LIG d   1       8.030  -0.695  -3.493  0.00  0.00     0.028 H 
ATOM     12  H   LIG d   1       7.531  -1.903  -4.717  0.00  0.00     0.028 H 
ATOM     13  H   LIG d   1       6.910   1.186  -3.008  0.00  0.00     0.035 H 
ATOM     14  H   LIG d   1       5.410   1.732  -3.819  0.00  0.00     0.035 H 
ENDROOT
BRANCH   4  15
ATOM     15  C   LIG d   1       6.581   0.383  -5.928  0.00  0.00     0.223 C 
ATOM     16  O   LIG d   1       5.838   0.237  -6.876  0.00  0.00    -0.275 OA
ATOM     17  N   LIG d   1       7.748   1.039  -6.082  0.00  0.00    -0.301 N 
ATOM     18  C   LIG d   1       8.245   1.627  -7.339  0.00  0.00     0.015 C 
ATOM     19  C   LIG d   1       8.740   1.282  -5.025  0.00  0.00     0.015 C 
ATOM     20  C   LIG d   1       9.226   2.742  -6.893  0.00  0.00    -0.036 C 
ATOM     21  H   LIG d   1       8.766   0.874  -7.930  0.00  0.00     0.046 H 
ATOM     22  H   LIG d   1       7.420   2.054  -7.910  0.00  0.00     0.046 H 
ATOM     23  C   LIG d   1       9.896   2.088  -5.656  0.00  0.00    -0.036 C 
ATOM     24  H   LIG d   1       8.691   3.649  -6.615  0.00  0.00     0.028 H 
ATOM     25  H   LIG d   1       9.961   2.947  -7.672  0.00  0.00     0.028 H 
ATOM     26  H   LIG d   1      10.256   2.850  -4.965  0.00  0.00     0.028 H 
ATOM     27  H   LIG d   1      10.706   1.426  -5.960  0.00  0.00     0.028 H 
ATOM     28  H   LIG d   1       8.287   1.854  -4.216  0.00  0.00     0.046 H 
ATOM     29  H   LIG d   1       9.116   0.332  -4.645  0.00  0.00     0.046 H 
ENDBRANCH   4  15
BRANCH   5  30
ATOM     30  C   LIG d   1       3.642  -0.101  -4.856  0.00  0.00    -0.058 C 
ATOM     31  H   LIG d   1       2.761  -0.731  -4.968  0.00  0.00     0.024 H 
ATOM     32  H   LIG d   1       3.474   0.622  -4.057  0.00  0.00     0.024 H 
ATOM     33  H   LIG d   1       3.833   0.429  -5.790  0.00  0.00     0.024 H 
ENDBRANCH   5  30
BRANCH   5  34
ATOM     34  C   LIG d   1       4.898  -2.244  -5.358  0.00  0.00    -0.058 C 
ATOM     35  H   LIG d   1       4.592  -2.012  -6.378  0.00  0.00     0.024 H 
ATOM     36  H   LIG d   1       5.913  -2.639  -5.364  0.00  0.00     0.024 H 
ATOM     37  H   LIG d   1       4.221  -2.988  -4.937  0.00  0.00     0.024 H 
ENDBRANCH   5  34
BRANCH   1  38
ATOM     38  C   LIG d   1       3.781  -2.102  -2.388  0.00  0.00    -0.052 C 
ATOM     39  H   LIG d   1       4.165  -2.774  -1.620  0.00  0.00     0.024 H 
ATOM     40  H   LIG d   1       3.045  -1.430  -1.948  0.00  0.00     0.024 H 
ATOM     41  H   LIG d   1       3.312  -2.686  -3.180  0.00  0.00     0.024 H 
ENDBRANCH   1  38
TORSDOF 4
ENDMDL
MODEL 8
REMARK VINA RESULT:      -5.3      2.092      2.782
REMARK  4 active torsions:
REMARK  status: ('A' for Active; 'I' for Inactive)
REMARK    1  A    between atoms: C_1  and  C_2 
REMARK    2  A    between atoms: C_5  and  C_12 
REMARK    3  A    between atoms: C_6  and  C_7 
REMARK    4  A    between atoms: C_6  and  C_8 
REMARK       I    between atoms: C_12  and  N_14 
ROOT
ATOM      1  C   LIG d   1       3.672  -0.651  -2.955  0.00  0.00     0.032 C 
ATOM      2  C   LIG d   1       4.557  -1.541  -2.029  0.00  0.00    -0.039 C 
ATOM      3  C   LIG d   1       5.994  -1.358  -2.570  0.00  0.00    -0.037 C 
ATOM      4  C   LIG d   1       5.837  -0.368  -3.765  0.00  0.00     0.060 C 
ATOM      5  C   LIG d   1       4.433  -0.803  -4.319  0.00  0.00    -0.009 C 
ATOM      6  C   LIG d   1       5.461   0.988  -3.095  0.00  0.00     0.021 C 
ATOM      7  C   LIG d   1       4.028   0.795  -2.586  0.00  0.00     0.141 C 
ATOM      8  O   LIG d   1       3.334   1.595  -2.005  0.00  0.00    -0.297 OA
ATOM      9  H   LIG d   1       4.493  -1.198  -0.997  0.00  0.00     0.028 H 
ATOM     10  H   LIG d   1       4.253  -2.586  -2.103  0.00  0.00     0.028 H 
ATOM     11  H   LIG d   1       6.638  -0.929  -1.803  0.00  0.00     0.028 H 
ATOM     12  H   LIG d   1       6.395  -2.311  -2.916  0.00  0.00     0.028 H 
ATOM     13  H   LIG d   1       6.140   1.206  -2.270  0.00  0.00     0.035 H 
ATOM     14  H   LIG d   1       5.486   1.795  -3.828  0.00  0.00     0.035 H 
ENDROOT
BRANCH   4  15
ATOM     15  C   LIG d   1       6.970  -0.343  -4.758  0.00  0.00     0.223 C 
ATOM     16  O   LIG d   1       7.097   0.600  -5.510  0.00  0.00    -0.275 OA
ATOM     17  N   LIG d   1       7.843  -1.369  -4.811  0.00  0.00    -0.301 N 
ATOM     18  C   LIG d   1       8.992  -1.474  -5.728  0.00  0.00     0.015 C 
ATOM     19  C   LIG d   1       7.804  -2.571  -3.966  0.00  0.00     0.015 C 
ATOM     20  C   LIG d   1       9.981  -2.431  -5.014  0.00  0.00    -0.036 C 
ATOM     21  H   LIG d   1       8.678  -1.893  -6.684  0.00  0.00     0.046 H 
ATOM     22  H   LIG d   1       9.451  -0.496  -5.875  0.00  0.00     0.046 H 
ATOM     23  C   LIG d   1       9.009  -3.450  -4.362  0.00  0.00    -0.036 C 
ATOM     24  H   LIG d   1      10.562  -1.905  -4.256  0.00  0.00     0.028 H 
ATOM     25  H   LIG d   1      10.636  -2.922  -5.734  0.00  0.00     0.028 H 
ATOM     26  H   LIG d   1       9.461  -3.904  -3.480  0.00  0.00     0.028 H 
ATOM     27  H   LIG d   1       8.710  -4.212  -5.081  0.00  0.00     0.028 H 
ATOM     28  H   LIG d   1       7.879  -2.289  -2.916  0.00  0.00     0.046 H 
ATOM     29  H   LIG d   1       6.875  -3.116  -4.140  0.00  0.00     0.046 H 
ENDBRANCH   4  15
BRANCH   5  30
ATOM     30  C   LIG d   1       3.909   0.164  -5.382  0.00  0.00    -0.058 C 
ATOM     31  H   LIG d   1       3.033  -0.267  -5.866  0.00  0.00     0.024 H 
ATOM     32  H   LIG d   1       3.636   1.109  -4.911  0.00  0.00     0.024 H 
ATOM     33  H   LIG d   1       4.686   0.341  -6.126  0.00  0.00     0.024 H 
ENDBRANCH   5  30
BRANCH   5  34
ATOM     34  C   LIG d   1       4.435  -2.250  -4.818  0.00  0.00    -0.058 C 
ATOM     35  H   LIG d   1       4.893  -2.893  -4.066  0.00  0.00     0.024 H 
ATOM     36  H   LIG d   1       3.410  -2.574  -4.997  0.00  0.00     0.024 H 
ATOM     37  H   LIG d   1       5.004  -2.314  -5.745  0.00  0.00     0.024 H 
ENDBRANCH   5  34
BRANCH   1  38
ATOM     38  C   LIG d   1       2.180  -0.987  -2.974  0.00  0.00    -0.052 C 
ATOM     39  H   LIG d   1       2.020  -1.960  -2.509  0.00  0.00     0.024 H 
ATOM     40  H   LIG d   1       1.629  -0.226  -2.422  0.00  0.00     0.024 H 
ATOM     41  H   LIG d   1       1.827  -1.015  -4.005  0.00  0.00     0.024 H 
ENDBRANCH   1  38
TORSDOF 4
ENDMDL
MODEL 9
REMARK VINA RESULT:      -5.2      3.804      5.656
REMARK  4 active torsions:
REMARK  status: ('A' for Active; 'I' for Inactive)
REMARK    1  A    between atoms: C_1  and  C_2 
REMARK    2  A    between atoms: C_5  and  C_12 
REMARK    3  A    between atoms: C_6  and  C_7 
REMARK    4  A    between atoms: C_6  and  C_8 
REMARK       I    between atoms: C_12  and  N_14 
ROOT
ATOM      1  C   LIG d   1       4.395   0.139 -10.003  0.00  0.00     0.032 C 
ATOM      2  C   LIG d   1       5.711   0.788  -9.474  0.00  0.00    -0.039 C 
ATOM      3  C   LIG d   1       5.660   0.579  -7.942  0.00  0.00    -0.037 C 
ATOM      4  C   LIG d   1       4.321  -0.183  -7.698  0.00  0.00     0.060 C 
ATOM      5  C   LIG d   1       3.418   0.452  -8.815  0.00  0.00    -0.009 C 
ATOM      6  C   LIG d   1       4.565  -1.596  -8.310  0.00  0.00     0.021 C 
ATOM      7  C   LIG d   1       4.590  -1.373  -9.826  0.00  0.00     0.141 C 
ATOM      8  O   LIG d   1       4.746  -2.198 -10.694  0.00  0.00    -0.297 OA
ATOM      9  H   LIG d   1       6.580   0.284  -9.898  0.00  0.00     0.028 H 
ATOM     10  H   LIG d   1       5.734   1.851  -9.712  0.00  0.00     0.028 H 
ATOM     11  H   LIG d   1       6.507  -0.023  -7.612  0.00  0.00     0.028 H 
ATOM     12  H   LIG d   1       5.651   1.539  -7.428  0.00  0.00     0.028 H 
ATOM     13  H   LIG d   1       5.515  -2.003  -7.962  0.00  0.00     0.035 H 
ATOM     14  H   LIG d   1       3.747  -2.269  -8.050  0.00  0.00     0.035 H 
ENDROOT
BRANCH   4  15
ATOM     15  C   LIG d   1       3.780  -0.137  -6.293  0.00  0.00     0.223 C 
ATOM     16  O   LIG d   1       2.863   0.608  -6.019  0.00  0.00    -0.275 OA
ATOM     17  N   LIG d   1       4.315  -0.924  -5.338  0.00  0.00    -0.301 N 
ATOM     18  C   LIG d   1       3.885  -0.980  -3.929  0.00  0.00     0.015 C 
ATOM     19  C   LIG d   1       5.428  -1.865  -5.528  0.00  0.00     0.015 C 
ATOM     20  C   LIG d   1       4.323  -2.385  -3.438  0.00  0.00    -0.036 C 
ATOM     21  H   LIG d   1       4.381  -0.201  -3.350  0.00  0.00     0.046 H 
ATOM     22  H   LIG d   1       2.803  -0.875  -3.858  0.00  0.00     0.046 H 
ATOM     23  C   LIG d   1       5.678  -2.560  -4.173  0.00  0.00    -0.036 C 
ATOM     24  H   LIG d   1       3.610  -3.149  -3.745  0.00  0.00     0.028 H 
ATOM     25  H   LIG d   1       4.462  -2.393  -2.357  0.00  0.00     0.028 H 
ATOM     26  H   LIG d   1       5.904  -3.617  -4.318  0.00  0.00     0.028 H 
ATOM     27  H   LIG d   1       6.480  -2.064  -3.628  0.00  0.00     0.028 H 
ATOM     28  H   LIG d   1       5.163  -2.606  -6.282  0.00  0.00     0.046 H 
ATOM     29  H   LIG d   1       6.323  -1.323  -5.837  0.00  0.00     0.046 H 
ENDBRANCH   4  15
BRANCH   5  30
ATOM     30  C   LIG d   1       2.083  -0.280  -8.960  0.00  0.00    -0.058 C 
ATOM     31  H   LIG d   1       2.266  -1.322  -9.221  0.00  0.00     0.024 H 
ATOM     32  H   LIG d   1       1.537  -0.231  -8.018  0.00  0.00     0.024 H 
ATOM     33  H   LIG d   1       1.493   0.194  -9.746  0.00  0.00     0.024 H 
ENDBRANCH   5  30
BRANCH   5  34
ATOM     34  C   LIG d   1       3.224   1.956  -8.611  0.00  0.00    -0.058 C 
ATOM     35  H   LIG d   1       3.246   2.460  -9.577  0.00  0.00     0.024 H 
ATOM     36  H   LIG d   1       2.263   2.136  -8.129  0.00  0.00     0.024 H 
ATOM     37  H   LIG d   1       4.025   2.344  -7.981  0.00  0.00     0.024 H 
ENDBRANCH   5  34
BRANCH   1  38
ATOM     38  C   LIG d   1       3.938   0.595 -11.390  0.00  0.00    -0.052 C 
ATOM     39  H   LIG d   1       4.166   1.654 -11.518  0.00  0.00     0.024 H 
ATOM     40  H   LIG d   1       4.458   0.016 -12.153  0.00  0.00     0.024 H 
ATOM     41  H   LIG d   1       2.863   0.441 -11.486  0.00  0.00     0.024 H 
ENDBRANCH   1  38
TORSDOF 4
ENDMDL
MODEL 10
REMARK VINA RESULT:      -5.2      3.366      5.257
REMARK  4 active torsions:
REMARK  status: ('A' for Active; 'I' for Inactive)
REMARK    1  A    between atoms: C_1  and  C_2 
REMARK    2  A    between atoms: C_5  and  C_12 
REMARK    3  A    between atoms: C_6  and  C_7 
REMARK    4  A    between atoms: C_6  and  C_8 
REMARK       I    between atoms: C_12  and  N_14 
ROOT
ATOM      1  C   LIG d   1       3.927   0.685  -9.427  0.00  0.00     0.032 C 
ATOM      2  C   LIG d   1       2.793   1.233  -8.508  0.00  0.00    -0.039 C 
ATOM      3  C   LIG d   1       3.026   0.540  -7.145  0.00  0.00    -0.037 C 
ATOM      4  C   LIG d   1       4.285  -0.353  -7.374  0.00  0.00     0.060 C 
ATOM      5  C   LIG d   1       4.072  -0.775  -8.872  0.00  0.00    -0.009 C 
ATOM      6  C   LIG d   1       5.455   0.665  -7.537  0.00  0.00     0.021 C 
ATOM      7  C   LIG d   1       5.219   1.325  -8.900  0.00  0.00     0.141 C 
ATOM      8  O   LIG d   1       5.889   2.174  -9.437  0.00  0.00    -0.297 OA
ATOM      9  H   LIG d   1       2.878   2.315  -8.403  0.00  0.00     0.028 H 
ATOM     10  H   LIG d   1       1.815   0.965  -8.909  0.00  0.00     0.028 H 
ATOM     11  H   LIG d   1       3.221   1.281  -6.369  0.00  0.00     0.028 H 
ATOM     12  H   LIG d   1       2.167  -0.075  -6.879  0.00  0.00     0.028 H 
ATOM     13  H   LIG d   1       5.428   1.405  -6.737  0.00  0.00     0.035 H 
ATOM     14  H   LIG d   1       6.413   0.144  -7.540  0.00  0.00     0.035 H 
ENDROOT
BRANCH   4  15
ATOM     15  C   LIG d   1       4.491  -1.472  -6.386  0.00  0.00     0.223 C 
ATOM     16  O   LIG d   1       4.968  -2.525  -6.751  0.00  0.00    -0.275 OA
ATOM     17  N   LIG d   1       4.146  -1.302  -5.093  0.00  0.00    -0.301 N 
ATOM     18  C   LIG d   1       4.293  -2.307  -4.025  0.00  0.00     0.015 C 
ATOM     19  C   LIG d   1       3.556  -0.085  -4.517  0.00  0.00     0.015 C 
ATOM     20  C   LIG d   1       4.367  -1.482  -2.714  0.00  0.00    -0.036 C 
ATOM     21  H   LIG d   1       3.430  -2.972  -4.009  0.00  0.00     0.046 H 
ATOM     22  H   LIG d   1       5.210  -2.878  -4.165  0.00  0.00     0.046 H 
ATOM     23  C   LIG d   1       3.356  -0.343  -3.008  0.00  0.00    -0.036 C 
ATOM     24  H   LIG d   1       5.369  -1.084  -2.555  0.00  0.00     0.028 H 
ATOM     25  H   LIG d   1       4.045  -2.078  -1.861  0.00  0.00     0.028 H 
ATOM     26  H   LIG d   1       3.600   0.549  -2.430  0.00  0.00     0.028 H 
ATOM     27  H   LIG d   1       2.336  -0.669  -2.805  0.00  0.00     0.028 H 
ATOM     28  H   LIG d   1       4.229   0.759  -4.663  0.00  0.00     0.046 H 
ATOM     29  H   LIG d   1       2.594   0.119  -4.989  0.00  0.00     0.046 H 
ENDBRANCH   4  15
BRANCH   5  30
ATOM     30  C   LIG d   1       5.296  -1.491  -9.446  0.00  0.00    -0.058 C 
ATOM     31  H   LIG d   1       5.848  -0.807 -10.091  0.00  0.00     0.024 H 
ATOM     32  H   LIG d   1       5.940  -1.823  -8.632  0.00  0.00     0.024 H 
ATOM     33  H   LIG d   1       4.971  -2.355 -10.027  0.00  0.00     0.024 H 
ENDBRANCH   5  30
BRANCH   5  34
ATOM     34  C   LIG d   1       2.793  -1.593  -9.062  0.00  0.00    -0.058 C 
ATOM     35  H   LIG d   1       2.007  -0.950  -9.461  0.00  0.00     0.024 H 
ATOM     36  H   LIG d   1       2.984  -2.408  -9.760  0.00  0.00     0.024 H 
ATOM     37  H   LIG d   1       2.476  -2.001  -8.103  0.00  0.00     0.024 H 
ENDBRANCH   5  34
BRANCH   1  38
ATOM     38  C   LIG d   1       3.686   0.814 -10.932  0.00  0.00    -0.052 C 
ATOM     39  H   LIG d   1       2.613   0.807 -11.130  0.00  0.00     0.024 H 
ATOM     40  H   LIG d   1       4.116   1.749 -11.291  0.00  0.00     0.024 H 
ATOM     41  H   LIG d   1       4.155  -0.024 -11.447  0.00  0.00     0.024 H 
ENDBRANCH   1  38
TORSDOF 4
ENDMDL
