MODEL 1
REMARK VINA RESULT:      -6.7      0.000      0.000
REMARK  5 active torsions:
REMARK  status: ('A' for Active; 'I' for Inactive)
REMARK    1  A    between atoms: C_1  and  O_2 
REMARK    2  A    between atoms: O_2  and  C_3 
REMARK    3  A    between atoms: C_6  and  N_9 
REMARK    4  A    between atoms: C_20  and  C_21 
REMARK    5  A    between atoms: C_21  and  C_23 
ROOT
ATOM      1  N   LIG d   1       4.245  -0.410  -9.379  0.00  0.00    -0.207 N 
ATOM      2  C   LIG d   1       4.642  -1.174  -8.321  0.00  0.00     0.240 C 
ATOM      3  O   LIG d   1       4.038  -2.103  -7.828  0.00  0.00    -0.274 OA
ATOM      4  C   LIG d   1       5.972  -0.640  -7.887  0.00  0.00     0.133 C 
ATOM      5  H   LIG d   1       6.799  -1.094  -8.433  0.00  0.00     0.050 H 
ATOM      6  C   LIG d   1       5.717   0.867  -8.275  0.00  0.00     0.221 C 
ATOM      7  H   LIG d   1       4.895   1.085  -7.593  0.00  0.00     0.087 H 
ATOM      8  C   LIG d   1       4.977   0.743  -9.503  0.00  0.00     0.271 C 
ATOM      9  O   LIG d   1       4.995   1.500 -10.450  0.00  0.00    -0.271 OA
ATOM     10  O   LIG d   1       6.731   1.480  -7.607  0.00  0.00    -0.379 OA
ATOM     11  N   LIG d   1       6.738   0.803  -6.328  0.00  0.00    -0.084 NA
ATOM     12  C   LIG d   1       6.284  -0.442  -6.438  0.00  0.00     0.143 C 
ENDROOT
BRANCH   1  13
ATOM     13  C   LIG d   1       3.203  -0.767 -10.249  0.00  0.00     0.044 A 
ATOM     14  C   LIG d   1       1.897  -0.402  -9.954  0.00  0.00    -0.036 A 
ATOM     15  C   LIG d   1       0.872  -0.753 -10.811  0.00  0.00    -0.018 A 
ATOM     16  H   LIG d   1       1.682   0.156  -9.055  0.00  0.00     0.064 H 
ATOM     17  C   LIG d   1       1.148  -1.469 -11.966  0.00  0.00     0.120 A 
ATOM     18  H   LIG d   1      -0.145  -0.468 -10.582  0.00  0.00     0.066 H 
ATOM     19  C   LIG d   1       2.454  -1.838 -12.259  0.00  0.00    -0.018 A 
ATOM     20  C   LIG d   1       3.479  -1.483 -11.405  0.00  0.00    -0.036 A 
ATOM     21  H   LIG d   1       2.668  -2.401 -13.156  0.00  0.00     0.066 H 
ATOM     22  H   LIG d   1       4.496  -1.767 -11.635  0.00  0.00     0.064 H 
BRANCH  17  23
ATOM     23  O   LIG d   1       0.140  -1.815 -12.809  0.00  0.00    -0.495 OA
BRANCH  23  24
ATOM     24  C   LIG d   1      -0.301  -3.174 -12.771  0.00  0.00     0.079 C 
ATOM     25  H   LIG d   1      -0.313  -3.581 -13.782  0.00  0.00     0.066 H 
ATOM     26  H   LIG d   1       0.379  -3.759 -12.152  0.00  0.00     0.066 H 
ATOM     27  H   LIG d   1      -1.305  -3.218 -12.350  0.00  0.00     0.066 H 
ENDBRANCH  23  24
ENDBRANCH  17  23
ENDBRANCH   1  13
BRANCH  12  28
ATOM     28  C   LIG d   1       6.115  -1.431  -5.358  0.00  0.00     0.211 C 
ATOM     29  O   LIG d   1       6.910  -2.344  -5.240  0.00  0.00    -0.285 OA
BRANCH  28  30
ATOM     30  C   LIG d   1       4.980  -1.314  -4.420  0.00  0.00     0.024 A 
ATOM     31  C   LIG d   1       4.960  -2.070  -3.244  0.00  0.00    -0.051 A 
ATOM     32  C   LIG d   1       3.900  -1.952  -2.370  0.00  0.00    -0.061 A 
ATOM     33  H   LIG d   1       5.775  -2.741  -3.019  0.00  0.00     0.062 H 
ATOM     34  C   LIG d   1       2.852  -1.096  -2.660  0.00  0.00    -0.062 A 
ATOM     35  H   LIG d   1       3.886  -2.531  -1.460  0.00  0.00     0.062 H 
ATOM     36  C   LIG d   1       2.862  -0.348  -3.826  0.00  0.00    -0.061 A 
ATOM     37  H   LIG d   1       2.022  -1.010  -1.974  0.00  0.00     0.062 H 
ATOM     38  C   LIG d   1       3.919  -0.452  -4.706  0.00  0.00    -0.051 A 
ATOM     39  H   LIG d   1       2.041   0.319  -4.045  0.00  0.00     0.062 H 
ATOM     40  H   LIG d   1       3.926   0.132  -5.614  0.00  0.00     0.062 H 
ENDBRANCH  28  30
ENDBRANCH  12  28
TORSDOF 5
ENDMDL
MODEL 2
REMARK VINA RESULT:      -6.3      2.636      3.772
REMARK  5 active torsions:
REMARK  status: ('A' for Active; 'I' for Inactive)
REMARK    1  A    between atoms: C_1  and  O_2 
REMARK    2  A    between atoms: O_2  and  C_3 
REMARK    3  A    between atoms: C_6  and  N_9 
REMARK    4  A    between atoms: C_20  and  C_21 
REMARK    5  A    between atoms: C_21  and  C_23 
ROOT
ATOM      1  N   LIG d   1       4.172  -2.898  -8.636  0.00  0.00    -0.207 N 
ATOM      2  C   LIG d   1       4.748  -2.453  -7.482  0.00  0.00     0.240 C 
ATOM      3  O   LIG d   1       5.601  -1.597  -7.379  0.00  0.00    -0.274 OA
ATOM      4  C   LIG d   1       4.120  -3.230  -6.368  0.00  0.00     0.133 C 
ATOM      5  H   LIG d   1       3.203  -2.766  -6.004  0.00  0.00     0.050 H 
ATOM      6  C   LIG d   1       3.871  -4.565  -7.170  0.00  0.00     0.221 C 
ATOM      7  H   LIG d   1       4.906  -4.833  -7.385  0.00  0.00     0.087 H 
ATOM      8  C   LIG d   1       3.483  -4.071  -8.465  0.00  0.00     0.271 C 
ATOM      9  O   LIG d   1       2.709  -4.585  -9.244  0.00  0.00    -0.271 OA
ATOM     10  O   LIG d   1       3.621  -5.433  -6.154  0.00  0.00    -0.379 OA
ATOM     11  N   LIG d   1       4.614  -5.076  -5.164  0.00  0.00    -0.084 NA
ATOM     12  C   LIG d   1       4.953  -3.794  -5.261  0.00  0.00     0.143 C 
ENDROOT
BRANCH   1  13
ATOM     13  C   LIG d   1       4.271  -2.226  -9.864  0.00  0.00     0.044 A 
ATOM     14  C   LIG d   1       3.410  -1.175 -10.151  0.00  0.00    -0.036 A 
ATOM     15  C   LIG d   1       3.508  -0.513 -11.359  0.00  0.00    -0.018 A 
ATOM     16  H   LIG d   1       2.664  -0.875  -9.430  0.00  0.00     0.064 H 
ATOM     17  C   LIG d   1       4.466  -0.898 -12.286  0.00  0.00     0.120 A 
ATOM     18  H   LIG d   1       2.839   0.305 -11.583  0.00  0.00     0.066 H 
ATOM     19  C   LIG d   1       5.323  -1.952 -12.001  0.00  0.00    -0.018 A 
ATOM     20  C   LIG d   1       5.229  -2.610 -10.791  0.00  0.00    -0.036 A 
ATOM     21  H   LIG d   1       6.065  -2.254 -12.725  0.00  0.00     0.066 H 
ATOM     22  H   LIG d   1       5.899  -3.428 -10.568  0.00  0.00     0.064 H 
BRANCH  17  23
ATOM     23  O   LIG d   1       4.562  -0.247 -13.475  0.00  0.00    -0.495 OA
BRANCH  23  24
ATOM     24  C   LIG d   1       4.244  -0.994 -14.651  0.00  0.00     0.079 C 
ATOM     25  H   LIG d   1       4.393  -2.056 -14.459  0.00  0.00     0.066 H 
ATOM     26  H   LIG d   1       3.204  -0.817 -14.924  0.00  0.00     0.066 H 
ATOM     27  H   LIG d   1       4.893  -0.678 -15.468  0.00  0.00     0.066 H 
ENDBRANCH  23  24
ENDBRANCH  17  23
ENDBRANCH   1  13
BRANCH  12  28
ATOM     28  C   LIG d   1       5.948  -3.068  -4.450  0.00  0.00     0.211 C 
ATOM     29  O   LIG d   1       7.113  -3.415  -4.465  0.00  0.00    -0.285 OA
BRANCH  28  30
ATOM     30  C   LIG d   1       5.529  -1.921  -3.618  0.00  0.00     0.024 A 
ATOM     31  C   LIG d   1       6.212  -0.705  -3.704  0.00  0.00    -0.051 A 
ATOM     32  C   LIG d   1       5.813   0.363  -2.929  0.00  0.00    -0.061 A 
ATOM     33  H   LIG d   1       7.049  -0.602  -4.379  0.00  0.00     0.062 H 
ATOM     34  C   LIG d   1       4.744   0.230  -2.060  0.00  0.00    -0.062 A 
ATOM     35  H   LIG d   1       6.337   1.304  -2.998  0.00  0.00     0.062 H 
ATOM     36  C   LIG d   1       4.065  -0.974  -1.966  0.00  0.00    -0.061 A 
ATOM     37  H   LIG d   1       4.437   1.068  -1.452  0.00  0.00     0.062 H 
ATOM     38  C   LIG d   1       4.450  -2.049  -2.739  0.00  0.00    -0.051 A 
ATOM     39  H   LIG d   1       3.231  -1.071  -1.286  0.00  0.00     0.062 H 
ATOM     40  H   LIG d   1       3.921  -2.986  -2.665  0.00  0.00     0.062 H 
ENDBRANCH  28  30
ENDBRANCH  12  28
TORSDOF 5
ENDMDL
MODEL 3
REMARK VINA RESULT:      -6.3      2.716      7.594
REMARK  5 active torsions:
REMARK  status: ('A' for Active; 'I' for Inactive)
REMARK    1  A    between atoms: C_1  and  O_2 
REMARK    2  A    between atoms: O_2  and  C_3 
REMARK    3  A    between atoms: C_6  and  N_9 
REMARK    4  A    between atoms: C_20  and  C_21 
REMARK    5  A    between atoms: C_21  and  C_23 
ROOT
ATOM      1  N   LIG d   1       5.319  -1.910  -5.161  0.00  0.00    -0.207 N 
ATOM      2  C   LIG d   1       5.111  -1.410  -6.413  0.00  0.00     0.240 C 
ATOM      3  O   LIG d   1       5.899  -1.407  -7.334  0.00  0.00    -0.274 OA
ATOM      4  C   LIG d   1       3.717  -0.866  -6.426  0.00  0.00     0.133 C 
ATOM      5  H   LIG d   1       2.978  -1.625  -6.684  0.00  0.00     0.050 H 
ATOM      6  C   LIG d   1       3.660  -0.426  -4.913  0.00  0.00     0.221 C 
ATOM      7  H   LIG d   1       4.445   0.331  -4.923  0.00  0.00     0.087 H 
ATOM      8  C   LIG d   1       4.373  -1.493  -4.261  0.00  0.00     0.271 C 
ATOM      9  O   LIG d   1       4.179  -1.931  -3.147  0.00  0.00    -0.271 OA
ATOM     10  O   LIG d   1       2.567   0.383  -4.920  0.00  0.00    -0.379 OA
ATOM     11  N   LIG d   1       2.731   1.146  -6.139  0.00  0.00    -0.084 NA
ATOM     12  C   LIG d   1       3.416   0.460  -7.049  0.00  0.00     0.143 C 
ENDROOT
BRANCH   1  13
ATOM     13  C   LIG d   1       6.384  -2.763  -4.831  0.00  0.00     0.044 A 
ATOM     14  C   LIG d   1       6.408  -4.063  -5.318  0.00  0.00    -0.036 A 
ATOM     15  C   LIG d   1       7.457  -4.902  -4.994  0.00  0.00    -0.018 A 
ATOM     16  H   LIG d   1       5.608  -4.419  -5.949  0.00  0.00     0.064 H 
ATOM     17  C   LIG d   1       8.486  -4.445  -4.183  0.00  0.00     0.120 A 
ATOM     18  H   LIG d   1       7.477  -5.913  -5.373  0.00  0.00     0.066 H 
ATOM     19  C   LIG d   1       8.459  -3.147  -3.693  0.00  0.00    -0.018 A 
ATOM     20  C   LIG d   1       7.414  -2.306  -4.021  0.00  0.00    -0.036 A 
ATOM     21  H   LIG d   1       9.258  -2.793  -3.057  0.00  0.00     0.066 H 
ATOM     22  H   LIG d   1       7.395  -1.294  -3.642  0.00  0.00     0.064 H 
BRANCH  17  23
ATOM     23  O   LIG d   1       9.517  -5.270  -3.864  0.00  0.00    -0.495 OA
BRANCH  23  24
ATOM     24  C   LIG d   1      10.263  -4.952  -2.687  0.00  0.00     0.079 C 
ATOM     25  H   LIG d   1       9.614  -4.447  -1.972  0.00  0.00     0.066 H 
ATOM     26  H   LIG d   1      10.649  -5.869  -2.242  0.00  0.00     0.066 H 
ATOM     27  H   LIG d   1      11.094  -4.297  -2.949  0.00  0.00     0.066 H 
ENDBRANCH  23  24
ENDBRANCH  17  23
ENDBRANCH   1  13
BRANCH  12  28
ATOM     28  C   LIG d   1       3.807   0.907  -8.399  0.00  0.00     0.211 C 
ATOM     29  O   LIG d   1       4.609   1.812  -8.529  0.00  0.00    -0.285 OA
BRANCH  28  30
ATOM     30  C   LIG d   1       3.224   0.258  -9.591  0.00  0.00     0.024 A 
ATOM     31  C   LIG d   1       1.928  -0.263  -9.543  0.00  0.00    -0.051 A 
ATOM     32  C   LIG d   1       1.389  -0.864 -10.661  0.00  0.00    -0.061 A 
ATOM     33  H   LIG d   1       1.350  -0.192  -8.634  0.00  0.00     0.062 H 
ATOM     34  C   LIG d   1       2.131  -0.961 -11.825  0.00  0.00    -0.062 A 
ATOM     35  H   LIG d   1       0.386  -1.262 -10.627  0.00  0.00     0.062 H 
ATOM     36  C   LIG d   1       3.418  -0.452 -11.878  0.00  0.00    -0.061 A 
ATOM     37  H   LIG d   1       1.705  -1.436 -12.696  0.00  0.00     0.062 H 
ATOM     38  C   LIG d   1       3.968   0.157 -10.769  0.00  0.00    -0.051 A 
ATOM     39  H   LIG d   1       3.992  -0.530 -12.789  0.00  0.00     0.062 H 
ATOM     40  H   LIG d   1       4.971   0.554 -10.811  0.00  0.00     0.062 H 
ENDBRANCH  28  30
ENDBRANCH  12  28
TORSDOF 5
ENDMDL
MODEL 4
REMARK VINA RESULT:      -6.2      5.035      8.848
REMARK  5 active torsions:
REMARK  status: ('A' for Active; 'I' for Inactive)
REMARK    1  A    between atoms: C_1  and  O_2 
REMARK    2  A    between atoms: O_2  and  C_3 
REMARK    3  A    between atoms: C_6  and  N_9 
REMARK    4  A    between atoms: C_20  and  C_21 
REMARK    5  A    between atoms: C_21  and  C_23 
ROOT
ATOM      1  N   LIG d   1       9.656   2.233  -4.557  0.00  0.00    -0.207 N 
ATOM      2  C   LIG d   1       8.371   1.916  -4.888  0.00  0.00     0.240 C 
ATOM      3  O   LIG d   1       7.365   2.489  -4.526  0.00  0.00    -0.274 OA
ATOM      4  C   LIG d   1       8.447   0.722  -5.787  0.00  0.00     0.133 C 
ATOM      5  H   LIG d   1       8.572   0.998  -6.834  0.00  0.00     0.050 H 
ATOM      6  C   LIG d   1       9.736   0.075  -5.151  0.00  0.00     0.221 C 
ATOM      7  H   LIG d   1       9.352  -0.131  -4.152  0.00  0.00     0.087 H 
ATOM      8  C   LIG d   1      10.542   1.231  -4.858  0.00  0.00     0.271 C 
ATOM      9  O   LIG d   1      11.752   1.305  -4.874  0.00  0.00    -0.271 OA
ATOM     10  O   LIG d   1       9.681  -1.179  -5.675  0.00  0.00    -0.379 OA
ATOM     11  N   LIG d   1       8.279  -1.520  -5.565  0.00  0.00    -0.084 NA
ATOM     12  C   LIG d   1       7.514  -0.433  -5.609  0.00  0.00     0.143 C 
ENDROOT
BRANCH   1  13
ATOM     13  C   LIG d   1      10.031   3.454  -3.976  0.00  0.00     0.044 A 
ATOM     14  C   LIG d   1      10.046   4.612  -4.741  0.00  0.00    -0.036 A 
ATOM     15  C   LIG d   1      10.414   5.814  -4.168  0.00  0.00    -0.018 A 
ATOM     16  H   LIG d   1       9.770   4.573  -5.785  0.00  0.00     0.064 H 
ATOM     17  C   LIG d   1      10.768   5.863  -2.828  0.00  0.00     0.120 A 
ATOM     18  H   LIG d   1      10.425   6.715  -4.764  0.00  0.00     0.066 H 
ATOM     19  C   LIG d   1      10.757   4.705  -2.063  0.00  0.00    -0.018 A 
ATOM     20  C   LIG d   1      10.384   3.504  -2.634  0.00  0.00    -0.036 A 
ATOM     21  H   LIG d   1      11.038   4.744  -1.021  0.00  0.00     0.066 H 
ATOM     22  H   LIG d   1      10.372   2.603  -2.039  0.00  0.00     0.064 H 
BRANCH  17  23
ATOM     23  O   LIG d   1      11.131   7.046  -2.264  0.00  0.00    -0.495 OA
BRANCH  23  24
ATOM     24  C   LIG d   1      10.301   7.544  -1.212  0.00  0.00     0.079 C 
ATOM     25  H   LIG d   1       9.382   7.948  -1.635  0.00  0.00     0.066 H 
ATOM     26  H   LIG d   1      10.060   6.734  -0.525  0.00  0.00     0.066 H 
ATOM     27  H   LIG d   1      10.830   8.331  -0.675  0.00  0.00     0.066 H 
ENDBRANCH  23  24
ENDBRANCH  17  23
ENDBRANCH   1  13
BRANCH  12  28
ATOM     28  C   LIG d   1       6.044  -0.370  -5.500  0.00  0.00     0.211 C 
ATOM     29  O   LIG d   1       5.383   0.039  -6.435  0.00  0.00    -0.285 OA
BRANCH  28  30
ATOM     30  C   LIG d   1       5.376  -0.803  -4.255  0.00  0.00     0.024 A 
ATOM     31  C   LIG d   1       5.343   0.046  -3.145  0.00  0.00    -0.051 A 
ATOM     32  C   LIG d   1       4.713  -0.362  -1.989  0.00  0.00    -0.061 A 
ATOM     33  H   LIG d   1       5.805   1.020  -3.195  0.00  0.00     0.062 H 
ATOM     34  C   LIG d   1       4.124  -1.613  -1.921  0.00  0.00    -0.062 A 
ATOM     35  H   LIG d   1       4.682   0.295  -1.132  0.00  0.00     0.062 H 
ATOM     36  C   LIG d   1       4.158  -2.461  -3.015  0.00  0.00    -0.061 A 
ATOM     37  H   LIG d   1       3.636  -1.929  -1.011  0.00  0.00     0.062 H 
ATOM     38  C   LIG d   1       4.780  -2.063  -4.181  0.00  0.00    -0.051 A 
ATOM     39  H   LIG d   1       3.696  -3.435  -2.956  0.00  0.00     0.062 H 
ATOM     40  H   LIG d   1       4.806  -2.726  -5.033  0.00  0.00     0.062 H 
ENDBRANCH  28  30
ENDBRANCH  12  28
TORSDOF 5
ENDMDL
MODEL 5
REMARK VINA RESULT:      -6.1      4.944      8.665
REMARK  5 active torsions:
REMARK  status: ('A' for Active; 'I' for Inactive)
REMARK    1  A    between atoms: C_1  and  O_2 
REMARK    2  A    between atoms: O_2  and  C_3 
REMARK    3  A    between atoms: C_6  and  N_9 
REMARK    4  A    between atoms: C_20  and  C_21 
REMARK    5  A    between atoms: C_21  and  C_23 
ROOT
ATOM      1  N   LIG d   1       9.212   2.404  -4.486  0.00  0.00    -0.207 N 
ATOM      2  C   LIG d   1       8.056   1.726  -4.232  0.00  0.00     0.240 C 
ATOM      3  O   LIG d   1       7.241   1.976  -3.370  0.00  0.00    -0.274 OA
ATOM      4  C   LIG d   1       7.993   0.609  -5.227  0.00  0.00     0.133 C 
ATOM      5  H   LIG d   1       7.524   0.914  -6.162  0.00  0.00     0.050 H 
ATOM      6  C   LIG d   1       9.546   0.367  -5.355  0.00  0.00     0.221 C 
ATOM      7  H   LIG d   1       9.757   0.054  -4.332  0.00  0.00     0.087 H 
ATOM      8  C   LIG d   1      10.067   1.708  -5.301  0.00  0.00     0.271 C 
ATOM      9  O   LIG d   1      11.055   2.134  -5.859  0.00  0.00    -0.271 OA
ATOM     10  O   LIG d   1       9.568  -0.845  -5.970  0.00  0.00    -0.379 OA
ATOM     11  N   LIG d   1       8.532  -1.583  -5.279  0.00  0.00    -0.084 NA
ATOM     12  C   LIG d   1       7.592  -0.769  -4.809  0.00  0.00     0.143 C 
ENDROOT
BRANCH   1  13
ATOM     13  C   LIG d   1       9.495   3.679  -3.971  0.00  0.00     0.044 A 
ATOM     14  C   LIG d   1       9.166   4.811  -4.704  0.00  0.00    -0.036 A 
ATOM     15  C   LIG d   1       9.443   6.066  -4.198  0.00  0.00    -0.018 A 
ATOM     16  H   LIG d   1       8.694   4.712  -5.670  0.00  0.00     0.064 H 
ATOM     17  C   LIG d   1      10.049   6.195  -2.956  0.00  0.00     0.120 A 
ATOM     18  H   LIG d   1       9.186   6.948  -4.767  0.00  0.00     0.066 H 
ATOM     19  C   LIG d   1      10.381   5.063  -2.226  0.00  0.00    -0.018 A 
ATOM     20  C   LIG d   1      10.100   3.809  -2.729  0.00  0.00    -0.036 A 
ATOM     21  H   LIG d   1      10.858   5.164  -1.262  0.00  0.00     0.066 H 
ATOM     22  H   LIG d   1      10.356   2.927  -2.159  0.00  0.00     0.064 H 
BRANCH  17  23
ATOM     23  O   LIG d   1      10.322   7.430  -2.458  0.00  0.00    -0.495 OA
BRANCH  23  24
ATOM     24  C   LIG d   1       9.762   7.753  -1.183  0.00  0.00     0.079 C 
ATOM     25  H   LIG d   1       8.675   7.712  -1.243  0.00  0.00     0.066 H 
ATOM     26  H   LIG d   1      10.112   7.036  -0.441  0.00  0.00     0.066 H 
ATOM     27  H   LIG d   1      10.072   8.757  -0.895  0.00  0.00     0.066 H 
ENDBRANCH  23  24
ENDBRANCH  17  23
ENDBRANCH   1  13
BRANCH  12  28
ATOM     28  C   LIG d   1       6.395  -1.141  -4.030  0.00  0.00     0.211 C 
ATOM     29  O   LIG d   1       6.495  -1.909  -3.094  0.00  0.00    -0.285 OA
BRANCH  28  30
ATOM     30  C   LIG d   1       5.077  -0.579  -4.389  0.00  0.00     0.024 A 
ATOM     31  C   LIG d   1       4.611  -0.667  -5.704  0.00  0.00    -0.051 A 
ATOM     32  C   LIG d   1       3.377  -0.145  -6.031  0.00  0.00    -0.061 A 
ATOM     33  H   LIG d   1       5.215  -1.145  -6.461  0.00  0.00     0.062 H 
ATOM     34  C   LIG d   1       2.605   0.473  -5.062  0.00  0.00    -0.062 A 
ATOM     35  H   LIG d   1       3.014  -0.216  -7.045  0.00  0.00     0.062 H 
ATOM     36  C   LIG d   1       3.062   0.568  -3.759  0.00  0.00    -0.061 A 
ATOM     37  H   LIG d   1       1.641   0.883  -5.324  0.00  0.00     0.062 H 
ATOM     38  C   LIG d   1       4.292   0.045  -3.417  0.00  0.00    -0.051 A 
ATOM     39  H   LIG d   1       2.454   1.051  -3.008  0.00  0.00     0.062 H 
ATOM     40  H   LIG d   1       4.648   0.120  -2.400  0.00  0.00     0.062 H 
ENDBRANCH  28  30
ENDBRANCH  12  28
TORSDOF 5
ENDMDL
MODEL 6
REMARK VINA RESULT:      -6.1      2.356      3.339
REMARK  5 active torsions:
REMARK  status: ('A' for Active; 'I' for Inactive)
REMARK    1  A    between atoms: C_1  and  O_2 
REMARK    2  A    between atoms: O_2  and  C_3 
REMARK    3  A    between atoms: C_6  and  N_9 
REMARK    4  A    between atoms: C_20  and  C_21 
REMARK    5  A    between atoms: C_21  and  C_23 
ROOT
ATOM      1  N   LIG d   1       3.457  -0.452  -7.844  0.00  0.00    -0.207 N 
ATOM      2  C   LIG d   1       4.096  -1.351  -7.040  0.00  0.00     0.240 C 
ATOM      3  O   LIG d   1       4.295  -2.523  -7.276  0.00  0.00    -0.274 OA
ATOM      4  C   LIG d   1       4.502  -0.603  -5.809  0.00  0.00     0.133 C 
ATOM      5  H   LIG d   1       5.473  -0.120  -5.918  0.00  0.00     0.050 H 
ATOM      6  C   LIG d   1       3.296   0.412  -5.783  0.00  0.00     0.221 C 
ATOM      7  H   LIG d   1       2.478  -0.294  -5.639  0.00  0.00     0.087 H 
ATOM      8  C   LIG d   1       3.113   0.698  -7.182  0.00  0.00     0.271 C 
ATOM      9  O   LIG d   1       2.733   1.739  -7.674  0.00  0.00    -0.271 OA
ATOM     10  O   LIG d   1       3.397   0.901  -4.519  0.00  0.00    -0.379 OA
ATOM     11  N   LIG d   1       3.677  -0.280  -3.731  0.00  0.00    -0.084 NA
ATOM     12  C   LIG d   1       4.312  -1.201  -4.451  0.00  0.00     0.143 C 
ENDROOT
BRANCH   1  13
ATOM     13  C   LIG d   1       3.185  -0.679  -9.202  0.00  0.00     0.044 A 
ATOM     14  C   LIG d   1       4.160  -0.427 -10.156  0.00  0.00    -0.036 A 
ATOM     15  C   LIG d   1       3.893  -0.652 -11.493  0.00  0.00    -0.018 A 
ATOM     16  H   LIG d   1       5.129  -0.056  -9.855  0.00  0.00     0.064 H 
ATOM     17  C   LIG d   1       2.649  -1.129 -11.881  0.00  0.00     0.120 A 
ATOM     18  H   LIG d   1       4.652  -0.457 -12.236  0.00  0.00     0.066 H 
ATOM     19  C   LIG d   1       1.673  -1.377 -10.927  0.00  0.00    -0.018 A 
ATOM     20  C   LIG d   1       1.941  -1.158  -9.590  0.00  0.00    -0.036 A 
ATOM     21  H   LIG d   1       0.703  -1.744 -11.230  0.00  0.00     0.066 H 
ATOM     22  H   LIG d   1       1.182  -1.354  -8.847  0.00  0.00     0.064 H 
BRANCH  17  23
ATOM     23  O   LIG d   1       2.386  -1.350 -13.196  0.00  0.00    -0.495 OA
BRANCH  23  24
ATOM     24  C   LIG d   1       1.322  -2.254 -13.502  0.00  0.00     0.079 C 
ATOM     25  H   LIG d   1       1.487  -2.690 -14.486  0.00  0.00     0.066 H 
ATOM     26  H   LIG d   1       1.292  -3.046 -12.754  0.00  0.00     0.066 H 
ATOM     27  H   LIG d   1       0.375  -1.714 -13.497  0.00  0.00     0.066 H 
ENDBRANCH  23  24
ENDBRANCH  17  23
ENDBRANCH   1  13
BRANCH  12  28
ATOM     28  C   LIG d   1       4.740  -2.541  -4.010  0.00  0.00     0.211 C 
ATOM     29  O   LIG d   1       3.976  -3.246  -3.379  0.00  0.00    -0.285 OA
BRANCH  28  30
ATOM     30  C   LIG d   1       6.097  -3.027  -4.335  0.00  0.00     0.024 A 
ATOM     31  C   LIG d   1       6.263  -4.167  -5.127  0.00  0.00    -0.051 A 
ATOM     32  C   LIG d   1       7.533  -4.612  -5.431  0.00  0.00    -0.061 A 
ATOM     33  H   LIG d   1       5.400  -4.694  -5.504  0.00  0.00     0.062 H 
ATOM     34  C   LIG d   1       8.640  -3.939  -4.944  0.00  0.00    -0.062 A 
ATOM     35  H   LIG d   1       7.663  -5.489  -6.046  0.00  0.00     0.062 H 
ATOM     36  C   LIG d   1       8.483  -2.813  -4.154  0.00  0.00    -0.061 A 
ATOM     37  H   LIG d   1       9.632  -4.294  -5.181  0.00  0.00     0.062 H 
ATOM     38  C   LIG d   1       7.219  -2.353  -3.847  0.00  0.00    -0.051 A 
ATOM     39  H   LIG d   1       9.351  -2.292  -3.778  0.00  0.00     0.062 H 
ATOM     40  H   LIG d   1       7.097  -1.475  -3.231  0.00  0.00     0.062 H 
ENDBRANCH  28  30
ENDBRANCH  12  28
TORSDOF 5
ENDMDL
MODEL 7
REMARK VINA RESULT:      -6.0      4.376      7.333
REMARK  5 active torsions:
REMARK  status: ('A' for Active; 'I' for Inactive)
REMARK    1  A    between atoms: C_1  and  O_2 
REMARK    2  A    between atoms: O_2  and  C_3 
REMARK    3  A    between atoms: C_6  and  N_9 
REMARK    4  A    between atoms: C_20  and  C_21 
REMARK    5  A    between atoms: C_21  and  C_23 
ROOT
ATOM      1  N   LIG d   1       8.844   0.820  -5.760  0.00  0.00    -0.207 N 
ATOM      2  C   LIG d   1       7.635   0.283  -6.090  0.00  0.00     0.240 C 
ATOM      3  O   LIG d   1       6.592   0.882  -6.247  0.00  0.00    -0.274 OA
ATOM      4  C   LIG d   1       7.847  -1.193  -6.221  0.00  0.00     0.133 C 
ATOM      5  H   LIG d   1       8.167  -1.479  -7.223  0.00  0.00     0.050 H 
ATOM      6  C   LIG d   1       8.986  -1.327  -5.138  0.00  0.00     0.221 C 
ATOM      7  H   LIG d   1       8.422  -1.024  -4.255  0.00  0.00     0.087 H 
ATOM      8  C   LIG d   1       9.749  -0.126  -5.351  0.00  0.00     0.271 C 
ATOM      9  O   LIG d   1      10.943   0.021  -5.200  0.00  0.00    -0.271 OA
ATOM     10  O   LIG d   1       9.000  -2.673  -4.945  0.00  0.00    -0.379 OA
ATOM     11  N   LIG d   1       7.595  -3.016  -4.911  0.00  0.00    -0.084 NA
ATOM     12  C   LIG d   1       6.873  -2.164  -5.633  0.00  0.00     0.143 C 
ENDROOT
BRANCH   1  13
ATOM     13  C   LIG d   1       9.133   2.192  -5.835  0.00  0.00     0.044 A 
ATOM     14  C   LIG d   1       9.530   2.752  -7.041  0.00  0.00    -0.036 A 
ATOM     15  C   LIG d   1       9.813   4.102  -7.115  0.00  0.00    -0.018 A 
ATOM     16  H   LIG d   1       9.617   2.133  -7.922  0.00  0.00     0.064 H 
ATOM     17  C   LIG d   1       9.701   4.897  -5.984  0.00  0.00     0.120 A 
ATOM     18  H   LIG d   1      10.121   4.539  -8.054  0.00  0.00     0.066 H 
ATOM     19  C   LIG d   1       9.308   4.336  -4.777  0.00  0.00    -0.018 A 
ATOM     20  C   LIG d   1       9.020   2.987  -4.704  0.00  0.00    -0.036 A 
ATOM     21  H   LIG d   1       9.226   4.954  -3.895  0.00  0.00     0.066 H 
ATOM     22  H   LIG d   1       8.712   2.551  -3.765  0.00  0.00     0.064 H 
BRANCH  17  23
ATOM     23  O   LIG d   1       9.980   6.226  -6.056  0.00  0.00    -0.495 OA
BRANCH  23  24
ATOM     24  C   LIG d   1       9.351   7.074  -5.093  0.00  0.00     0.079 C 
ATOM     25  H   LIG d   1       9.069   6.486  -4.220  0.00  0.00     0.066 H 
ATOM     26  H   LIG d   1      10.044   7.860  -4.793  0.00  0.00     0.066 H 
ATOM     27  H   LIG d   1       8.460   7.523  -5.532  0.00  0.00     0.066 H 
ENDBRANCH  23  24
ENDBRANCH  17  23
ENDBRANCH   1  13
BRANCH  12  28
ATOM     28  C   LIG d   1       5.410  -2.165  -5.819  0.00  0.00     0.211 C 
ATOM     29  O   LIG d   1       4.933  -2.542  -6.872  0.00  0.00    -0.285 OA
BRANCH  28  30
ATOM     30  C   LIG d   1       4.526  -1.707  -4.728  0.00  0.00     0.024 A 
ATOM     31  C   LIG d   1       3.721  -0.578  -4.904  0.00  0.00    -0.051 A 
ATOM     32  C   LIG d   1       2.895  -0.160  -3.883  0.00  0.00    -0.061 A 
ATOM     33  H   LIG d   1       3.744  -0.038  -5.838  0.00  0.00     0.062 H 
ATOM     34  C   LIG d   1       2.868  -0.848  -2.682  0.00  0.00    -0.062 A 
ATOM     35  H   LIG d   1       2.269   0.709  -4.018  0.00  0.00     0.062 H 
ATOM     36  C   LIG d   1       3.667  -1.965  -2.499  0.00  0.00    -0.061 A 
ATOM     37  H   LIG d   1       2.222  -0.514  -1.884  0.00  0.00     0.062 H 
ATOM     38  C   LIG d   1       4.494  -2.398  -3.514  0.00  0.00    -0.051 A 
ATOM     39  H   LIG d   1       3.641  -2.498  -1.560  0.00  0.00     0.062 H 
ATOM     40  H   LIG d   1       5.117  -3.269  -3.371  0.00  0.00     0.062 H 
ENDBRANCH  28  30
ENDBRANCH  12  28
TORSDOF 5
ENDMDL
MODEL 8
REMARK VINA RESULT:      -5.9      2.983      7.857
REMARK  5 active torsions:
REMARK  status: ('A' for Active; 'I' for Inactive)
REMARK    1  A    between atoms: C_1  and  O_2 
REMARK    2  A    between atoms: O_2  and  C_3 
REMARK    3  A    between atoms: C_6  and  N_9 
REMARK    4  A    between atoms: C_20  and  C_21 
REMARK    5  A    between atoms: C_21  and  C_23 
ROOT
ATOM      1  N   LIG d   1       6.590  -0.226  -5.528  0.00  0.00    -0.207 N 
ATOM      2  C   LIG d   1       5.867   0.146  -6.624  0.00  0.00     0.240 C 
ATOM      3  O   LIG d   1       6.251   0.828  -7.550  0.00  0.00    -0.274 OA
ATOM      4  C   LIG d   1       4.506  -0.454  -6.457  0.00  0.00     0.133 C 
ATOM      5  H   LIG d   1       4.448  -1.468  -6.853  0.00  0.00     0.050 H 
ATOM      6  C   LIG d   1       4.451  -0.392  -4.882  0.00  0.00     0.221 C 
ATOM      7  H   LIG d   1       4.492   0.689  -4.750  0.00  0.00     0.087 H 
ATOM      8  C   LIG d   1       5.805  -0.723  -4.520  0.00  0.00     0.271 C 
ATOM      9  O   LIG d   1       6.174  -1.316  -3.529  0.00  0.00    -0.271 OA
ATOM     10  O   LIG d   1       3.125  -0.596  -4.662  0.00  0.00    -0.379 OA
ATOM     11  N   LIG d   1       2.494   0.217  -5.679  0.00  0.00    -0.084 NA
ATOM     12  C   LIG d   1       3.275   0.343  -6.749  0.00  0.00     0.143 C 
ENDROOT
BRANCH   1  13
ATOM     13  C   LIG d   1       7.987  -0.117  -5.444  0.00  0.00     0.044 A 
ATOM     14  C   LIG d   1       8.561   1.014  -4.880  0.00  0.00    -0.036 A 
ATOM     15  C   LIG d   1       9.936   1.121  -4.796  0.00  0.00    -0.018 A 
ATOM     16  H   LIG d   1       7.934   1.810  -4.506  0.00  0.00     0.064 H 
ATOM     17  C   LIG d   1      10.742   0.098  -5.275  0.00  0.00     0.120 A 
ATOM     18  H   LIG d   1      10.383   2.000  -4.356  0.00  0.00     0.066 H 
ATOM     19  C   LIG d   1      10.167  -1.030  -5.843  0.00  0.00    -0.018 A 
ATOM     20  C   LIG d   1       8.793  -1.140  -5.923  0.00  0.00    -0.036 A 
ATOM     21  H   LIG d   1      10.795  -1.823  -6.221  0.00  0.00     0.066 H 
ATOM     22  H   LIG d   1       8.346  -2.020  -6.362  0.00  0.00     0.064 H 
BRANCH  17  23
ATOM     23  O   LIG d   1      12.094   0.204  -5.193  0.00  0.00    -0.495 OA
BRANCH  23  24
ATOM     24  C   LIG d   1      12.641   0.569  -3.924  0.00  0.00     0.079 C 
ATOM     25  H   LIG d   1      12.880  -0.331  -3.359  0.00  0.00     0.066 H 
ATOM     26  H   LIG d   1      13.547   1.155  -4.074  0.00  0.00     0.066 H 
ATOM     27  H   LIG d   1      11.911   1.162  -3.372  0.00  0.00     0.066 H 
ENDBRANCH  23  24
ENDBRANCH  17  23
ENDBRANCH   1  13
BRANCH  12  28
ATOM     28  C   LIG d   1       2.994   1.114  -7.974  0.00  0.00     0.211 C 
ATOM     29  O   LIG d   1       2.924   2.327  -7.926  0.00  0.00    -0.285 OA
BRANCH  28  30
ATOM     30  C   LIG d   1       2.798   0.413  -9.259  0.00  0.00     0.024 A 
ATOM     31  C   LIG d   1       3.677   0.637 -10.323  0.00  0.00    -0.051 A 
ATOM     32  C   LIG d   1       3.491  -0.025 -11.518  0.00  0.00    -0.061 A 
ATOM     33  H   LIG d   1       4.502   1.324 -10.207  0.00  0.00     0.062 H 
ATOM     34  C   LIG d   1       2.430  -0.902 -11.670  0.00  0.00    -0.062 A 
ATOM     35  H   LIG d   1       4.172   0.143 -12.338  0.00  0.00     0.062 H 
ATOM     36  C   LIG d   1       1.552  -1.125 -10.622  0.00  0.00    -0.061 A 
ATOM     37  H   LIG d   1       2.287  -1.415 -12.609  0.00  0.00     0.062 H 
ATOM     38  C   LIG d   1       1.730  -0.474  -9.419  0.00  0.00    -0.051 A 
ATOM     39  H   LIG d   1       0.727  -1.810 -10.747  0.00  0.00     0.062 H 
ATOM     40  H   LIG d   1       1.045  -0.648  -8.603  0.00  0.00     0.062 H 
ENDBRANCH  28  30
ENDBRANCH  12  28
TORSDOF 5
ENDMDL
MODEL 9
REMARK VINA RESULT:      -5.9      5.116      6.868
REMARK  5 active torsions:
REMARK  status: ('A' for Active; 'I' for Inactive)
REMARK    1  A    between atoms: C_1  and  O_2 
REMARK    2  A    between atoms: O_2  and  C_3 
REMARK    3  A    between atoms: C_6  and  N_9 
REMARK    4  A    between atoms: C_20  and  C_21 
REMARK    5  A    between atoms: C_21  and  C_23 
ROOT
ATOM      1  N   LIG d   1       6.199  -6.112  -5.933  0.00  0.00    -0.207 N 
ATOM      2  C   LIG d   1       5.529  -5.001  -5.510  0.00  0.00     0.240 C 
ATOM      3  O   LIG d   1       4.329  -4.881  -5.382  0.00  0.00    -0.274 OA
ATOM      4  C   LIG d   1       6.567  -3.958  -5.237  0.00  0.00     0.133 C 
ATOM      5  H   LIG d   1       6.959  -4.019  -4.222  0.00  0.00     0.050 H 
ATOM      6  C   LIG d   1       7.602  -4.413  -6.337  0.00  0.00     0.221 C 
ATOM      7  H   LIG d   1       6.999  -4.234  -7.227  0.00  0.00     0.087 H 
ATOM      8  C   LIG d   1       7.501  -5.848  -6.272  0.00  0.00     0.271 C 
ATOM      9  O   LIG d   1       8.382  -6.655  -6.475  0.00  0.00    -0.271 OA
ATOM     10  O   LIG d   1       8.414  -3.325  -6.392  0.00  0.00    -0.379 OA
ATOM     11  N   LIG d   1       7.485  -2.217  -6.346  0.00  0.00    -0.084 NA
ATOM     12  C   LIG d   1       6.375  -2.546  -5.691  0.00  0.00     0.143 C 
ENDROOT
BRANCH   1  13
ATOM     13  C   LIG d   1       5.619  -7.388  -6.007  0.00  0.00     0.044 A 
ATOM     14  C   LIG d   1       5.092  -7.841  -7.208  0.00  0.00    -0.036 A 
ATOM     15  C   LIG d   1       4.523  -9.098  -7.282  0.00  0.00    -0.018 A 
ATOM     16  H   LIG d   1       5.126  -7.212  -8.085  0.00  0.00     0.064 H 
ATOM     17  C   LIG d   1       4.479  -9.907  -6.156  0.00  0.00     0.120 A 
ATOM     18  H   LIG d   1       4.113  -9.451  -8.217  0.00  0.00     0.066 H 
ATOM     19  C   LIG d   1       5.003  -9.452  -4.954  0.00  0.00    -0.018 A 
ATOM     20  C   LIG d   1       5.576  -8.198  -4.881  0.00  0.00    -0.036 A 
ATOM     21  H   LIG d   1       4.964 -10.080  -4.076  0.00  0.00     0.066 H 
ATOM     22  H   LIG d   1       5.987  -7.845  -3.946  0.00  0.00     0.064 H 
BRANCH  17  23
ATOM     23  O   LIG d   1       3.919 -11.143  -6.228  0.00  0.00    -0.495 OA
BRANCH  23  24
ATOM     24  C   LIG d   1       4.633 -12.216  -5.611  0.00  0.00     0.079 C 
ATOM     25  H   LIG d   1       5.134 -11.851  -4.715  0.00  0.00     0.066 H 
ATOM     26  H   LIG d   1       3.935 -13.008  -5.339  0.00  0.00     0.066 H 
ATOM     27  H   LIG d   1       5.374 -12.607  -6.308  0.00  0.00     0.066 H 
ENDBRANCH  23  24
ENDBRANCH  17  23
ENDBRANCH   1  13
BRANCH  12  28
ATOM     28  C   LIG d   1       5.189  -1.700  -5.459  0.00  0.00     0.211 C 
ATOM     29  O   LIG d   1       4.387  -1.521  -6.354  0.00  0.00    -0.285 OA
BRANCH  28  30
ATOM     30  C   LIG d   1       4.978  -1.071  -4.139  0.00  0.00     0.024 A 
ATOM     31  C   LIG d   1       4.360  -1.787  -3.110  0.00  0.00    -0.051 A 
ATOM     32  C   LIG d   1       4.171  -1.196  -1.880  0.00  0.00    -0.061 A 
ATOM     33  H   LIG d   1       4.036  -2.803  -3.278  0.00  0.00     0.062 H 
ATOM     34  C   LIG d   1       4.581   0.109  -1.665  0.00  0.00    -0.062 A 
ATOM     35  H   LIG d   1       3.698  -1.750  -1.083  0.00  0.00     0.062 H 
ATOM     36  C   LIG d   1       5.190   0.827  -2.680  0.00  0.00    -0.061 A 
ATOM     37  H   LIG d   1       4.427   0.569  -0.700  0.00  0.00     0.062 H 
ATOM     38  C   LIG d   1       5.391   0.245  -3.915  0.00  0.00    -0.051 A 
ATOM     39  H   LIG d   1       5.508   1.844  -2.506  0.00  0.00     0.062 H 
ATOM     40  H   LIG d   1       5.865   0.806  -4.707  0.00  0.00     0.062 H 
ENDBRANCH  28  30
ENDBRANCH  12  28
TORSDOF 5
ENDMDL
