MODEL 1
REMARK VINA RESULT:      -8.2      0.000      0.000
REMARK  8 active torsions:
REMARK  status: ('A' for Active; 'I' for Inactive)
REMARK    1  A    between atoms: C_1  and  C_2 
REMARK    2  A    between atoms: C_2  and  C_4 
REMARK    3  A    between atoms: C_2  and  O_19 
REMARK       I    between atoms: C_4  and  N_6 
REMARK       I    between atoms: N_6  and  CA_7 
REMARK    4  A    between atoms: CA_7  and  CB_9 
REMARK       I    between atoms: CA_7  and  C_17 
REMARK    5  A    between atoms: CB_9  and  CG_10 
REMARK    6  A    between atoms: CZ_13  and  OH_16 
REMARK    7  A    between atoms: O_19  and  C_20 
REMARK    8  A    between atoms: C_24  and  C_31 
ROOT
ATOM      1  C   UNK d   0       3.654  -4.970  -8.688  0.00  0.00     0.173 C 
ATOM      2  H   UNK d   0       3.135  -4.690  -7.771  0.00  0.00     0.083 H 
ENDROOT
BRANCH   1   3
ATOM      3  C   UNK d   0       3.341  -6.430  -9.024  0.00  0.00    -0.019 C 
ATOM      4  H   UNK d   0       4.002  -6.769  -9.822  0.00  0.00     0.027 H 
ATOM      5  H   UNK d   0       3.494  -7.048  -8.139  0.00  0.00     0.027 H 
ATOM      6  H   UNK d   0       2.305  -6.513  -9.351  0.00  0.00     0.027 H 
ENDBRANCH   1   3
BRANCH   1   7
ATOM      7  C   UNK d   0       3.193  -4.085  -9.817  0.00  0.00     0.254 C 
ATOM      8  O   UNK d   0       3.674  -4.213 -10.923  0.00  0.00    -0.272 OA
ATOM      9  N   TYR d   1       2.248  -3.151  -9.598  0.00  0.00    -0.304 N 
ATOM     10  CA  TYR d   1       1.799  -2.290 -10.695  0.00  0.00     0.067 C 
ATOM     11  H   TYR d   1       1.863  -3.048  -8.713  0.00  0.00     0.149 HD
ATOM     12  HA  TYR d   1       2.641  -2.074 -11.353  0.00  0.00     0.056 H 
ATOM     13  C   TYR d   1       0.719  -2.993 -11.476  0.00  0.00     0.062 C 
ATOM     14  O   TYR d   1       0.360  -4.100 -11.149  0.00  0.00    -0.548 OA
ATOM     15  OXT TYR d   1       0.156  -2.390 -12.535  0.00  0.00    -0.548 OA
BRANCH  10  16
ATOM     16  CB  TYR d   1       1.248  -0.982 -10.126  0.00  0.00    -0.004 C 
ATOM     17  HB1 TYR d   1       0.523  -0.559 -10.821  0.00  0.00     0.034 H 
ATOM     18  HB2 TYR d   1       0.762  -1.178  -9.169  0.00  0.00     0.034 H 
BRANCH  16  19
ATOM     19  CG  TYR d   1       2.379  -0.006  -9.923  0.00  0.00    -0.045 A 
ATOM     20  CD1 TYR d   1       3.278   0.229 -10.947  0.00  0.00    -0.055 A 
ATOM     21  CE1 TYR d   1       4.315   1.123 -10.764  0.00  0.00    -0.020 A 
ATOM     22  HD1 TYR d   1       3.170  -0.286 -11.889  0.00  0.00     0.062 H 
ATOM     23  CZ  TYR d   1       4.453   1.786  -9.553  0.00  0.00     0.117 A 
ATOM     24  HE1 TYR d   1       5.019   1.306 -11.564  0.00  0.00     0.065 H 
ATOM     25  CE2 TYR d   1       3.549   1.549  -8.528  0.00  0.00    -0.020 A 
ATOM     26  CD2 TYR d   1       2.511   0.657  -8.718  0.00  0.00    -0.055 A 
ATOM     27  HE2 TYR d   1       3.654   2.063  -7.584  0.00  0.00     0.065 H 
ATOM     28  HD2 TYR d   1       1.804   0.476  -7.922  0.00  0.00     0.062 H 
BRANCH  23  29
ATOM     29  OH  TYR d   1       5.473   2.666  -9.371  0.00  0.00    -0.507 OA
ATOM     30  HH  TYR d   1       5.876   2.976 -10.194  0.00  0.00     0.292 HD
ENDBRANCH  23  29
ENDBRANCH  16  19
ENDBRANCH  10  16
ENDBRANCH   1   7
BRANCH   1  31
ATOM     31  O   UNK d   0       5.063  -4.816  -8.505  0.00  0.00    -0.480 OA
BRANCH  31  32
ATOM     32  C   UNK d   0       5.473  -4.208  -7.362  0.00  0.00     0.125 A 
ATOM     33  C   UNK d   0       6.644  -4.620  -6.748  0.00  0.00     0.023 A 
ATOM     34  C   UNK d   0       7.064  -4.000  -5.579  0.00  0.00     0.143 A 
ATOM     35  H   UNK d   0       7.229  -5.420  -7.176  0.00  0.00     0.069 H 
ATOM     36  C   UNK d   0       6.290  -2.960  -5.035  0.00  0.00     0.025 A 
ATOM     37  O   UNK d   0       8.203  -4.386  -4.966  0.00  0.00    -0.422 OA
ATOM     38  C   UNK d   0       5.111  -2.558  -5.667  0.00  0.00    -0.047 A 
ATOM     39  C   UNK d   0       6.746  -2.308  -3.795  0.00  0.00    -0.001 A 
ATOM     40  C   UNK d   0       4.712  -3.178  -6.817  0.00  0.00    -0.019 A 
ATOM     41  H   UNK d   0       4.517  -1.758  -5.249  0.00  0.00     0.063 H 
ATOM     42  H   UNK d   0       3.800  -2.866  -7.306  0.00  0.00     0.065 H 
ATOM     43  C   UNK d   0       7.922  -2.757  -3.225  0.00  0.00     0.031 A 
ATOM     44  C   UNK d   0       8.633  -3.803  -3.836  0.00  0.00     0.338 A 
ATOM     45  H   UNK d   0       8.292  -2.307  -2.315  0.00  0.00     0.070 H 
ATOM     46  O   UNK d   0       9.669  -4.192  -3.326  0.00  0.00    -0.245 OA
BRANCH  39  47
ATOM     47  C   UNK d   0       5.969  -1.210  -3.181  0.00  0.00    -0.017 A 
ATOM     48  C   UNK d   0       6.329   0.119  -3.412  0.00  0.00    -0.054 A 
ATOM     49  C   UNK d   0       5.600   1.138  -2.837  0.00  0.00    -0.061 A 
ATOM     50  H   UNK d   0       7.178   0.348  -4.041  0.00  0.00     0.062 H 
ATOM     51  C   UNK d   0       4.512   0.846  -2.031  0.00  0.00    -0.062 A 
ATOM     52  H   UNK d   0       5.878   2.167  -3.014  0.00  0.00     0.062 H 
ATOM     53  C   UNK d   0       4.151  -0.468  -1.799  0.00  0.00    -0.061 A 
ATOM     54  H   UNK d   0       3.945   1.648  -1.583  0.00  0.00     0.062 H 
ATOM     55  C   UNK d   0       4.868  -1.497  -2.372  0.00  0.00    -0.054 A 
ATOM     56  H   UNK d   0       3.301  -0.689  -1.168  0.00  0.00     0.062 H 
ATOM     57  H   UNK d   0       4.581  -2.523  -2.193  0.00  0.00     0.062 H 
ENDBRANCH  39  47
ENDBRANCH  31  32
ENDBRANCH   1  31
TORSDOF 10
ENDMDL
MODEL 2
REMARK VINA RESULT:      -7.8      1.209      1.268
REMARK  8 active torsions:
REMARK  status: ('A' for Active; 'I' for Inactive)
REMARK    1  A    between atoms: C_1  and  C_2 
REMARK    2  A    between atoms: C_2  and  C_4 
REMARK    3  A    between atoms: C_2  and  O_19 
REMARK       I    between atoms: C_4  and  N_6 
REMARK       I    between atoms: N_6  and  CA_7 
REMARK    4  A    between atoms: CA_7  and  CB_9 
REMARK       I    between atoms: CA_7  and  C_17 
REMARK    5  A    between atoms: CB_9  and  CG_10 
REMARK    6  A    between atoms: CZ_13  and  OH_16 
REMARK    7  A    between atoms: O_19  and  C_20 
REMARK    8  A    between atoms: C_24  and  C_31 
ROOT
ATOM      1  C   UNK d   0       5.510  -3.914  -9.987  0.00  0.00     0.173 C 
ATOM      2  H   UNK d   0       5.224  -4.499  -9.113  0.00  0.00     0.083 H 
ENDROOT
BRANCH   1   3
ATOM      3  C   UNK d   0       6.413  -4.758 -10.890  0.00  0.00    -0.019 C 
ATOM      4  H   UNK d   0       5.814  -5.518 -11.394  0.00  0.00     0.027 H 
ATOM      5  H   UNK d   0       6.885  -4.117 -11.633  0.00  0.00     0.027 H 
ATOM      6  H   UNK d   0       7.180  -5.241 -10.286  0.00  0.00     0.027 H 
ENDBRANCH   1   3
BRANCH   1   7
ATOM      7  C   UNK d   0       4.274  -3.511 -10.749  0.00  0.00     0.254 C 
ATOM      8  O   UNK d   0       4.189  -3.748 -11.935  0.00  0.00    -0.272 OA
ATOM      9  N   TYR d   1       3.264  -2.886 -10.113  0.00  0.00    -0.304 N 
ATOM     10  CA  TYR d   1       2.062  -2.494 -10.852  0.00  0.00     0.067 C 
ATOM     11  H   TYR d   1       3.332  -2.697  -9.164  0.00  0.00     0.149 HD
ATOM     12  HA  TYR d   1       2.340  -2.196 -11.863  0.00  0.00     0.056 H 
ATOM     13  C   TYR d   1       1.109  -3.660 -10.917  0.00  0.00     0.062 C 
ATOM     14  O   TYR d   1       1.404  -4.711 -10.398  0.00  0.00    -0.548 OA
ATOM     15  OXT TYR d   1      -0.067  -3.531 -11.552  0.00  0.00    -0.548 OA
BRANCH  10  16
ATOM     16  CB  TYR d   1       1.385  -1.321 -10.142  0.00  0.00    -0.004 C 
ATOM     17  HB1 TYR d   1       0.566  -0.947 -10.756  0.00  0.00     0.034 H 
ATOM     18  HB2 TYR d   1       0.996  -1.654  -9.179  0.00  0.00     0.034 H 
BRANCH  16  19
ATOM     19  CG  TYR d   1       2.391  -0.219  -9.922  0.00  0.00    -0.045 A 
ATOM     20  CD1 TYR d   1       3.160   0.234 -10.978  0.00  0.00    -0.055 A 
ATOM     21  CE1 TYR d   1       4.082   1.242 -10.779  0.00  0.00    -0.020 A 
ATOM     22  HD1 TYR d   1       3.040  -0.202 -11.958  0.00  0.00     0.062 H 
ATOM     23  CZ  TYR d   1       4.236   1.802  -9.519  0.00  0.00     0.117 A 
ATOM     24  HE1 TYR d   1       4.684   1.596 -11.604  0.00  0.00     0.065 H 
ATOM     25  CE2 TYR d   1       3.462   1.346  -8.461  0.00  0.00    -0.020 A 
ATOM     26  CD2 TYR d   1       2.538   0.340  -8.666  0.00  0.00    -0.055 A 
ATOM     27  HE2 TYR d   1       3.580   1.779  -7.478  0.00  0.00     0.065 H 
ATOM     28  HD2 TYR d   1       1.933  -0.013  -7.844  0.00  0.00     0.062 H 
BRANCH  23  29
ATOM     29  OH  TYR d   1       5.142   2.795  -9.320  0.00  0.00    -0.507 OA
ATOM     30  HH  TYR d   1       5.025   3.556  -9.905  0.00  0.00     0.292 HD
ENDBRANCH  23  29
ENDBRANCH  16  19
ENDBRANCH  10  16
ENDBRANCH   1   7
BRANCH   1  31
ATOM     31  O   UNK d   0       6.216  -2.744  -9.568  0.00  0.00    -0.480 OA
BRANCH  31  32
ATOM     32  C   UNK d   0       6.369  -2.562  -8.231  0.00  0.00     0.125 A 
ATOM     33  C   UNK d   0       7.331  -3.285  -7.546  0.00  0.00     0.023 A 
ATOM     34  C   UNK d   0       7.488  -3.101  -6.179  0.00  0.00     0.143 A 
ATOM     35  H   UNK d   0       7.958  -3.989  -8.073  0.00  0.00     0.069 H 
ATOM     36  C   UNK d   0       6.664  -2.180  -5.510  0.00  0.00     0.025 A 
ATOM     37  O   UNK d   0       8.422  -3.794  -5.494  0.00  0.00    -0.422 OA
ATOM     38  C   UNK d   0       5.698  -1.460  -6.216  0.00  0.00    -0.047 A 
ATOM     39  C   UNK d   0       6.841  -1.991  -4.060  0.00  0.00    -0.001 A 
ATOM     40  C   UNK d   0       5.556  -1.652  -7.561  0.00  0.00    -0.019 A 
ATOM     41  H   UNK d   0       5.065  -0.752  -5.701  0.00  0.00     0.063 H 
ATOM     42  H   UNK d   0       4.808  -1.095  -8.107  0.00  0.00     0.065 H 
ATOM     43  C   UNK d   0       7.816  -2.736  -3.426  0.00  0.00     0.031 A 
ATOM     44  C   UNK d   0       8.596  -3.635  -4.173  0.00  0.00     0.338 A 
ATOM     45  H   UNK d   0       7.979  -2.629  -2.364  0.00  0.00     0.070 H 
ATOM     46  O   UNK d   0       9.455  -4.288  -3.606  0.00  0.00    -0.245 OA
BRANCH  39  47
ATOM     47  C   UNK d   0       5.999  -1.035  -3.307  0.00  0.00    -0.017 A 
ATOM     48  C   UNK d   0       6.271   0.333  -3.361  0.00  0.00    -0.054 A 
ATOM     49  C   UNK d   0       5.483   1.218  -2.657  0.00  0.00    -0.061 A 
ATOM     50  H   UNK d   0       7.099   0.697  -3.954  0.00  0.00     0.062 H 
ATOM     51  C   UNK d   0       4.422   0.754  -1.898  0.00  0.00    -0.062 A 
ATOM     52  H   UNK d   0       5.692   2.277  -2.698  0.00  0.00     0.062 H 
ATOM     53  C   UNK d   0       4.148  -0.601  -1.841  0.00  0.00    -0.061 A 
ATOM     54  H   UNK d   0       3.808   1.451  -1.349  0.00  0.00     0.062 H 
ATOM     55  C   UNK d   0       4.925  -1.496  -2.544  0.00  0.00    -0.054 A 
ATOM     56  H   UNK d   0       3.319  -0.957  -1.246  0.00  0.00     0.062 H 
ATOM     57  H   UNK d   0       4.706  -2.553  -2.502  0.00  0.00     0.062 H 
ENDBRANCH  39  47
ENDBRANCH  31  32
ENDBRANCH   1  31
TORSDOF 10
ENDMDL
MODEL 3
REMARK VINA RESULT:      -7.7      2.128      2.530
REMARK  8 active torsions:
REMARK  status: ('A' for Active; 'I' for Inactive)
REMARK    1  A    between atoms: C_1  and  C_2 
REMARK    2  A    between atoms: C_2  and  C_4 
REMARK    3  A    between atoms: C_2  and  O_19 
REMARK       I    between atoms: C_4  and  N_6 
REMARK       I    between atoms: N_6  and  CA_7 
REMARK    4  A    between atoms: CA_7  and  CB_9 
REMARK       I    between atoms: CA_7  and  C_17 
REMARK    5  A    between atoms: CB_9  and  CG_10 
REMARK    6  A    between atoms: CZ_13  and  OH_16 
REMARK    7  A    between atoms: O_19  and  C_20 
REMARK    8  A    between atoms: C_24  and  C_31 
ROOT
ATOM      1  C   UNK d   0       3.515  -5.459 -10.355  0.00  0.00     0.173 C 
ATOM      2  H   UNK d   0       2.851  -5.680  -9.519  0.00  0.00     0.083 H 
ENDROOT
BRANCH   1   3
ATOM      3  C   UNK d   0       3.541  -6.651 -11.313  0.00  0.00    -0.019 C 
ATOM      4  H   UNK d   0       4.000  -6.350 -12.256  0.00  0.00     0.027 H 
ATOM      5  H   UNK d   0       4.121  -7.461 -10.871  0.00  0.00     0.027 H 
ATOM      6  H   UNK d   0       2.523  -6.992 -11.497  0.00  0.00     0.027 H 
ENDBRANCH   1   3
BRANCH   1   7
ATOM      7  C   UNK d   0       3.014  -4.239 -11.085  0.00  0.00     0.254 C 
ATOM      8  O   UNK d   0       3.398  -4.008 -12.212  0.00  0.00    -0.272 OA
ATOM      9  N   TYR d   1       2.143  -3.405 -10.486  0.00  0.00    -0.304 N 
ATOM     10  CA  TYR d   1       1.656  -2.219 -11.196  0.00  0.00     0.067 C 
ATOM     11  H   TYR d   1       1.836  -3.590  -9.585  0.00  0.00     0.149 HD
ATOM     12  HA  TYR d   1       2.453  -1.820 -11.823  0.00  0.00     0.056 H 
ATOM     13  C   TYR d   1       0.480  -2.597 -12.058  0.00  0.00     0.062 C 
ATOM     14  O   TYR d   1       0.088  -3.740 -12.078  0.00  0.00    -0.548 OA
ATOM     15  OXT TYR d   1      -0.132  -1.664 -12.805  0.00  0.00    -0.548 OA
BRANCH  10  16
ATOM     16  CB  TYR d   1       1.225  -1.158 -10.181  0.00  0.00    -0.004 C 
ATOM     17  HB1 TYR d   1       0.354  -0.625 -10.561  0.00  0.00     0.034 H 
ATOM     18  HB2 TYR d   1       0.973  -1.640  -9.236  0.00  0.00     0.034 H 
BRANCH  16  19
ATOM     19  CG  TYR d   1       2.355  -0.185  -9.962  0.00  0.00    -0.045 A 
ATOM     20  CD1 TYR d   1       3.183   0.159 -11.015  0.00  0.00    -0.055 A 
ATOM     21  CE1 TYR d   1       4.219   1.051 -10.817  0.00  0.00    -0.020 A 
ATOM     22  HD1 TYR d   1       3.020  -0.270 -11.992  0.00  0.00     0.062 H 
ATOM     23  CZ  TYR d   1       4.428   1.603  -9.561  0.00  0.00     0.117 A 
ATOM     24  HE1 TYR d   1       4.867   1.319 -11.639  0.00  0.00     0.065 H 
ATOM     25  CE2 TYR d   1       3.595   1.257  -8.507  0.00  0.00    -0.020 A 
ATOM     26  CD2 TYR d   1       2.557   0.368  -8.711  0.00  0.00    -0.055 A 
ATOM     27  HE2 TYR d   1       3.755   1.684  -7.528  0.00  0.00     0.065 H 
ATOM     28  HD2 TYR d   1       1.906   0.102  -7.892  0.00  0.00     0.062 H 
BRANCH  23  29
ATOM     29  OH  TYR d   1       5.446   2.481  -9.364  0.00  0.00    -0.507 OA
ATOM     30  HH  TYR d   1       5.703   2.583  -8.437  0.00  0.00     0.292 HD
ENDBRANCH  23  29
ENDBRANCH  16  19
ENDBRANCH  10  16
ENDBRANCH   1   7
BRANCH   1  31
ATOM     31  O   UNK d   0       4.834  -5.213  -9.864  0.00  0.00    -0.480 OA
BRANCH  31  32
ATOM     32  C   UNK d   0       4.978  -4.211  -8.958  0.00  0.00     0.125 A 
ATOM     33  C   UNK d   0       5.830  -3.155  -9.233  0.00  0.00     0.023 A 
ATOM     34  C   UNK d   0       5.979  -2.131  -8.308  0.00  0.00     0.143 A 
ATOM     35  H   UNK d   0       6.376  -3.127 -10.164  0.00  0.00     0.069 H 
ATOM     36  C   UNK d   0       5.260  -2.183  -7.101  0.00  0.00     0.025 A 
ATOM     37  O   UNK d   0       6.803  -1.091  -8.559  0.00  0.00    -0.422 OA
ATOM     38  C   UNK d   0       4.406  -3.258  -6.840  0.00  0.00    -0.047 A 
ATOM     39  C   UNK d   0       5.424  -1.091  -6.128  0.00  0.00    -0.001 A 
ATOM     40  C   UNK d   0       4.270  -4.257  -7.760  0.00  0.00    -0.019 A 
ATOM     41  H   UNK d   0       3.853  -3.297  -5.912  0.00  0.00     0.063 H 
ATOM     42  H   UNK d   0       3.609  -5.087  -7.558  0.00  0.00     0.065 H 
ATOM     43  C   UNK d   0       6.284  -0.060  -6.453  0.00  0.00     0.031 A 
ATOM     44  C   UNK d   0       6.964  -0.087  -7.683  0.00  0.00     0.338 A 
ATOM     45  H   UNK d   0       6.435   0.761  -5.768  0.00  0.00     0.070 H 
ATOM     46  O   UNK d   0       7.721   0.826  -7.962  0.00  0.00    -0.245 OA
BRANCH  39  47
ATOM     47  C   UNK d   0       4.691  -1.097  -4.843  0.00  0.00    -0.017 A 
ATOM     48  C   UNK d   0       3.478  -0.418  -4.723  0.00  0.00    -0.054 A 
ATOM     49  C   UNK d   0       2.800  -0.429  -3.523  0.00  0.00    -0.061 A 
ATOM     50  H   UNK d   0       3.070   0.115  -5.570  0.00  0.00     0.062 H 
ATOM     51  C   UNK d   0       3.320  -1.112  -2.437  0.00  0.00    -0.062 A 
ATOM     52  H   UNK d   0       1.861   0.097  -3.429  0.00  0.00     0.062 H 
ATOM     53  C   UNK d   0       4.521  -1.787  -2.549  0.00  0.00    -0.061 A 
ATOM     54  H   UNK d   0       2.785  -1.118  -1.499  0.00  0.00     0.062 H 
ATOM     55  C   UNK d   0       5.207  -1.789  -3.745  0.00  0.00    -0.054 A 
ATOM     56  H   UNK d   0       4.922  -2.319  -1.697  0.00  0.00     0.062 H 
ATOM     57  H   UNK d   0       6.143  -2.321  -3.832  0.00  0.00     0.062 H 
ENDBRANCH  39  47
ENDBRANCH  31  32
ENDBRANCH   1  31
TORSDOF 10
ENDMDL
MODEL 4
REMARK VINA RESULT:      -7.7      4.672      9.475
REMARK  8 active torsions:
REMARK  status: ('A' for Active; 'I' for Inactive)
REMARK    1  A    between atoms: C_1  and  C_2 
REMARK    2  A    between atoms: C_2  and  C_4 
REMARK    3  A    between atoms: C_2  and  O_19 
REMARK       I    between atoms: C_4  and  N_6 
REMARK       I    between atoms: N_6  and  CA_7 
REMARK    4  A    between atoms: CA_7  and  CB_9 
REMARK       I    between atoms: CA_7  and  C_17 
REMARK    5  A    between atoms: CB_9  and  CG_10 
REMARK    6  A    between atoms: CZ_13  and  OH_16 
REMARK    7  A    between atoms: O_19  and  C_20 
REMARK    8  A    between atoms: C_24  and  C_31 
ROOT
ATOM      1  C   UNK d   0      10.916  -5.950  -3.344  0.00  0.00     0.173 C 
ATOM      2  H   UNK d   0      10.493  -5.465  -2.464  0.00  0.00     0.083 H 
ENDROOT
BRANCH   1   3
ATOM      3  C   UNK d   0      12.443  -5.918  -3.257  0.00  0.00    -0.019 C 
ATOM      4  H   UNK d   0      12.799  -4.914  -3.491  0.00  0.00     0.027 H 
ATOM      5  H   UNK d   0      12.756  -6.187  -2.249  0.00  0.00     0.027 H 
ATOM      6  H   UNK d   0      12.863  -6.627  -3.970  0.00  0.00     0.027 H 
ENDBRANCH   1   3
BRANCH   1   7
ATOM      7  C   UNK d   0      10.447  -7.380  -3.405  0.00  0.00     0.254 C 
ATOM      8  O   UNK d   0      10.728  -8.070  -4.363  0.00  0.00    -0.272 OA
ATOM      9  N   TYR d   1       9.713  -7.893  -2.399  0.00  0.00    -0.304 N 
ATOM     10  CA  TYR d   1       9.256  -9.283  -2.458  0.00  0.00     0.067 C 
ATOM     11  H   TYR d   1       9.487  -7.341  -1.633  0.00  0.00     0.149 HD
ATOM     12  HA  TYR d   1       9.027  -9.546  -3.491  0.00  0.00     0.056 H 
ATOM     13  C   TYR d   1      10.340 -10.192  -1.938  0.00  0.00     0.062 C 
ATOM     14  O   TYR d   1      11.388  -9.724  -1.556  0.00  0.00    -0.548 OA
ATOM     15  OXT TYR d   1      10.144 -11.519  -1.899  0.00  0.00    -0.548 OA
BRANCH  10  16
ATOM     16  CB  TYR d   1       8.000  -9.446  -1.600  0.00  0.00    -0.004 C 
ATOM     17  HB1 TYR d   1       8.143 -10.265  -0.896  0.00  0.00     0.034 H 
ATOM     18  HB2 TYR d   1       7.814  -8.522  -1.050  0.00  0.00     0.034 H 
BRANCH  16  19
ATOM     19  CG  TYR d   1       6.820  -9.747  -2.489  0.00  0.00    -0.045 A 
ATOM     20  CD1 TYR d   1       5.762 -10.491  -2.001  0.00  0.00    -0.055 A 
ATOM     21  CE1 TYR d   1       4.680 -10.769  -2.814  0.00  0.00    -0.020 A 
ATOM     22  HD1 TYR d   1       5.781 -10.856  -0.986  0.00  0.00     0.062 H 
ATOM     23  CZ  TYR d   1       4.655 -10.300  -4.119  0.00  0.00     0.117 A 
ATOM     24  HE1 TYR d   1       3.853 -11.351  -2.433  0.00  0.00     0.065 H 
ATOM     25  CE2 TYR d   1       5.718  -9.552  -4.606  0.00  0.00    -0.020 A 
ATOM     26  CD2 TYR d   1       6.796  -9.273  -3.787  0.00  0.00    -0.055 A 
ATOM     27  HE2 TYR d   1       5.702  -9.186  -5.621  0.00  0.00     0.065 H 
ATOM     28  HD2 TYR d   1       7.621  -8.688  -4.164  0.00  0.00     0.062 H 
BRANCH  23  29
ATOM     29  OH  TYR d   1       3.591 -10.571  -4.920  0.00  0.00    -0.507 OA
ATOM     30  HH  TYR d   1       3.628 -10.136  -5.783  0.00  0.00     0.292 HD
ENDBRANCH  23  29
ENDBRANCH  16  19
ENDBRANCH  10  16
ENDBRANCH   1   7
BRANCH   1  31
ATOM     31  O   UNK d   0      10.492  -5.257  -4.520  0.00  0.00    -0.480 OA
BRANCH  31  32
ATOM     32  C   UNK d   0       9.290  -4.627  -4.465  0.00  0.00     0.125 A 
ATOM     33  C   UNK d   0       8.208  -5.151  -5.150  0.00  0.00     0.023 A 
ATOM     34  C   UNK d   0       6.979  -4.507  -5.095  0.00  0.00     0.143 A 
ATOM     35  H   UNK d   0       8.318  -6.058  -5.726  0.00  0.00     0.069 H 
ATOM     36  C   UNK d   0       6.854  -3.328  -4.340  0.00  0.00     0.025 A 
ATOM     37  O   UNK d   0       5.912  -5.004  -5.755  0.00  0.00    -0.422 OA
ATOM     38  C   UNK d   0       7.957  -2.812  -3.655  0.00  0.00    -0.047 A 
ATOM     39  C   UNK d   0       5.545  -2.654  -4.287  0.00  0.00    -0.001 A 
ATOM     40  C   UNK d   0       9.158  -3.458  -3.720  0.00  0.00    -0.019 A 
ATOM     41  H   UNK d   0       7.859  -1.906  -3.075  0.00  0.00     0.063 H 
ATOM     42  H   UNK d   0      10.011  -3.059  -3.189  0.00  0.00     0.065 H 
ATOM     43  C   UNK d   0       4.499  -3.221  -4.988  0.00  0.00     0.031 A 
ATOM     44  C   UNK d   0       4.712  -4.402  -5.717  0.00  0.00     0.338 A 
ATOM     45  H   UNK d   0       3.522  -2.758  -4.977  0.00  0.00     0.070 H 
ATOM     46  O   UNK d   0       3.783  -4.895  -6.333  0.00  0.00    -0.245 OA
BRANCH  39  47
ATOM     47  C   UNK d   0       5.359  -1.410  -3.509  0.00  0.00    -0.017 A 
ATOM     48  C   UNK d   0       4.558  -1.411  -2.366  0.00  0.00    -0.054 A 
ATOM     49  C   UNK d   0       4.389  -0.248  -1.645  0.00  0.00    -0.061 A 
ATOM     50  H   UNK d   0       4.070  -2.321  -2.047  0.00  0.00     0.062 H 
ATOM     51  C   UNK d   0       5.013   0.919  -2.051  0.00  0.00    -0.062 A 
ATOM     52  H   UNK d   0       3.768  -0.247  -0.760  0.00  0.00     0.062 H 
ATOM     53  C   UNK d   0       5.808   0.927  -3.182  0.00  0.00    -0.061 A 
ATOM     54  H   UNK d   0       4.877   1.827  -1.482  0.00  0.00     0.062 H 
ATOM     55  C   UNK d   0       5.990  -0.231  -3.909  0.00  0.00    -0.054 A 
ATOM     56  H   UNK d   0       6.292   1.841  -3.494  0.00  0.00     0.062 H 
ATOM     57  H   UNK d   0       6.616  -0.224  -4.790  0.00  0.00     0.062 H 
ENDBRANCH  39  47
ENDBRANCH  31  32
ENDBRANCH   1  31
TORSDOF 10
ENDMDL
MODEL 5
REMARK VINA RESULT:      -7.7      2.876      3.693
REMARK  8 active torsions:
REMARK  status: ('A' for Active; 'I' for Inactive)
REMARK    1  A    between atoms: C_1  and  C_2 
REMARK    2  A    between atoms: C_2  and  C_4 
REMARK    3  A    between atoms: C_2  and  O_19 
REMARK       I    between atoms: C_4  and  N_6 
REMARK       I    between atoms: N_6  and  CA_7 
REMARK    4  A    between atoms: CA_7  and  CB_9 
REMARK       I    between atoms: CA_7  and  C_17 
REMARK    5  A    between atoms: CB_9  and  CG_10 
REMARK    6  A    between atoms: CZ_13  and  OH_16 
REMARK    7  A    between atoms: O_19  and  C_20 
REMARK    8  A    between atoms: C_24  and  C_31 
ROOT
ATOM      1  C   UNK d   0       7.838  -2.174 -10.316  0.00  0.00     0.173 C 
ATOM      2  H   UNK d   0       7.200  -3.021 -10.063  0.00  0.00     0.083 H 
ENDROOT
BRANCH   1   3
ATOM      3  C   UNK d   0       9.113  -2.684 -10.993  0.00  0.00    -0.019 C 
ATOM      4  H   UNK d   0       9.239  -2.182 -11.953  0.00  0.00     0.027 H 
ATOM      5  H   UNK d   0       9.972  -2.472 -10.358  0.00  0.00     0.027 H 
ATOM      6  H   UNK d   0       9.034  -3.759 -11.153  0.00  0.00     0.027 H 
ENDBRANCH   1   3
BRANCH   1   7
ATOM      7  C   UNK d   0       7.104  -1.254 -11.256  0.00  0.00     0.254 C 
ATOM      8  O   UNK d   0       7.691  -0.334 -11.787  0.00  0.00    -0.272 OA
ATOM      9  N   TYR d   1       5.795  -1.450 -11.506  0.00  0.00    -0.304 N 
ATOM     10  CA  TYR d   1       5.081  -0.555 -12.420  0.00  0.00     0.067 C 
ATOM     11  H   TYR d   1       5.325  -2.185 -11.082  0.00  0.00     0.149 HD
ATOM     12  HA  TYR d   1       5.472   0.457 -12.316  0.00  0.00     0.056 H 
ATOM     13  C   TYR d   1       5.275  -1.026 -13.839  0.00  0.00     0.062 C 
ATOM     14  O   TYR d   1       5.941  -2.009 -14.063  0.00  0.00    -0.548 OA
ATOM     15  OXT TYR d   1       4.708  -0.353 -14.853  0.00  0.00    -0.548 OA
BRANCH  10  16
ATOM     16  CB  TYR d   1       3.589  -0.562 -12.080  0.00  0.00    -0.004 C 
ATOM     17  HB1 TYR d   1       3.034  -0.050 -12.866  0.00  0.00     0.034 H 
ATOM     18  HB2 TYR d   1       3.240  -1.592 -11.999  0.00  0.00     0.034 H 
BRANCH  16  19
ATOM     19  CG  TYR d   1       3.370   0.147 -10.767  0.00  0.00    -0.045 A 
ATOM     20  CD1 TYR d   1       3.818   1.444 -10.601  0.00  0.00    -0.055 A 
ATOM     21  CE1 TYR d   1       3.619   2.095  -9.400  0.00  0.00    -0.020 A 
ATOM     22  HD1 TYR d   1       4.324   1.948 -11.411  0.00  0.00     0.062 H 
ATOM     23  CZ  TYR d   1       2.968   1.447  -8.360  0.00  0.00     0.117 A 
ATOM     24  HE1 TYR d   1       3.969   3.109  -9.269  0.00  0.00     0.065 H 
ATOM     25  CE2 TYR d   1       2.519   0.146  -8.529  0.00  0.00    -0.020 A 
ATOM     26  CD2 TYR d   1       2.717  -0.500  -9.735  0.00  0.00    -0.055 A 
ATOM     27  HE2 TYR d   1       2.013  -0.362  -7.722  0.00  0.00     0.065 H 
ATOM     28  HD2 TYR d   1       2.364  -1.511  -9.869  0.00  0.00     0.062 H 
BRANCH  23  29
ATOM     29  OH  TYR d   1       2.770   2.086  -7.177  0.00  0.00    -0.507 OA
ATOM     30  HH  TYR d   1       2.751   3.050  -7.249  0.00  0.00     0.292 HD
ENDBRANCH  23  29
ENDBRANCH  16  19
ENDBRANCH  10  16
ENDBRANCH   1   7
BRANCH   1  31
ATOM     31  O   UNK d   0       8.184  -1.464  -9.125  0.00  0.00    -0.480 OA
BRANCH  31  32
ATOM     32  C   UNK d   0       7.365  -1.622  -8.053  0.00  0.00     0.125 A 
ATOM     33  C   UNK d   0       6.868  -2.879  -7.749  0.00  0.00     0.023 A 
ATOM     34  C   UNK d   0       6.030  -3.042  -6.654  0.00  0.00     0.143 A 
ATOM     35  H   UNK d   0       7.132  -3.729  -8.360  0.00  0.00     0.069 H 
ATOM     36  C   UNK d   0       5.697  -1.924  -5.869  0.00  0.00     0.025 A 
ATOM     37  O   UNK d   0       5.538  -4.259  -6.340  0.00  0.00    -0.422 OA
ATOM     38  C   UNK d   0       6.206  -0.664  -6.192  0.00  0.00    -0.047 A 
ATOM     39  C   UNK d   0       4.809  -2.110  -4.709  0.00  0.00    -0.001 A 
ATOM     40  C   UNK d   0       7.030  -0.520  -7.271  0.00  0.00    -0.019 A 
ATOM     41  H   UNK d   0       5.950   0.195  -5.588  0.00  0.00     0.063 H 
ATOM     42  H   UNK d   0       7.423   0.455  -7.520  0.00  0.00     0.065 H 
ATOM     43  C   UNK d   0       4.344  -3.384  -4.450  0.00  0.00     0.031 A 
ATOM     44  C   UNK d   0       4.727  -4.446  -5.287  0.00  0.00     0.338 A 
ATOM     45  H   UNK d   0       3.690  -3.564  -3.610  0.00  0.00     0.070 H 
ATOM     46  O   UNK d   0       4.312  -5.567  -5.050  0.00  0.00    -0.245 OA
BRANCH  39  47
ATOM     47  C   UNK d   0       4.427  -0.967  -3.851  0.00  0.00    -0.017 A 
ATOM     48  C   UNK d   0       4.999  -0.817  -2.587  0.00  0.00    -0.054 A 
ATOM     49  C   UNK d   0       4.639   0.251  -1.793  0.00  0.00    -0.061 A 
ATOM     50  H   UNK d   0       5.723  -1.536  -2.231  0.00  0.00     0.062 H 
ATOM     51  C   UNK d   0       3.712   1.174  -2.246  0.00  0.00    -0.062 A 
ATOM     52  H   UNK d   0       5.080   0.368  -0.813  0.00  0.00     0.062 H 
ATOM     53  C   UNK d   0       3.142   1.031  -3.498  0.00  0.00    -0.061 A 
ATOM     54  H   UNK d   0       3.434   2.008  -1.620  0.00  0.00     0.062 H 
ATOM     55  C   UNK d   0       3.497  -0.030  -4.305  0.00  0.00    -0.054 A 
ATOM     56  H   UNK d   0       2.418   1.754  -3.846  0.00  0.00     0.062 H 
ATOM     57  H   UNK d   0       3.055  -0.137  -5.284  0.00  0.00     0.062 H 
ENDBRANCH  39  47
ENDBRANCH  31  32
ENDBRANCH   1  31
TORSDOF 10
ENDMDL
MODEL 6
REMARK VINA RESULT:      -7.5      2.137      7.566
REMARK  8 active torsions:
REMARK  status: ('A' for Active; 'I' for Inactive)
REMARK    1  A    between atoms: C_1  and  C_2 
REMARK    2  A    between atoms: C_2  and  C_4 
REMARK    3  A    between atoms: C_2  and  O_19 
REMARK       I    between atoms: C_4  and  N_6 
REMARK       I    between atoms: N_6  and  CA_7 
REMARK    4  A    between atoms: CA_7  and  CB_9 
REMARK       I    between atoms: CA_7  and  C_17 
REMARK    5  A    between atoms: CB_9  and  CG_10 
REMARK    6  A    between atoms: CZ_13  and  OH_16 
REMARK    7  A    between atoms: O_19  and  C_20 
REMARK    8  A    between atoms: C_24  and  C_31 
ROOT
ATOM      1  C   UNK d   0       7.337  -5.226  -7.499  0.00  0.00     0.173 C 
ATOM      2  H   UNK d   0       7.603  -4.310  -8.027  0.00  0.00     0.083 H 
ENDROOT
BRANCH   1   3
ATOM      3  C   UNK d   0       8.342  -6.325  -7.848  0.00  0.00    -0.019 C 
ATOM      4  H   UNK d   0       7.969  -6.902  -8.695  0.00  0.00     0.027 H 
ATOM      5  H   UNK d   0       9.298  -5.874  -8.109  0.00  0.00     0.027 H 
ATOM      6  H   UNK d   0       8.472  -6.984  -6.990  0.00  0.00     0.027 H 
ENDBRANCH   1   3
BRANCH   1   7
ATOM      7  C   UNK d   0       7.361  -4.976  -6.013  0.00  0.00     0.254 C 
ATOM      8  O   UNK d   0       7.048  -5.860  -5.244  0.00  0.00    -0.272 OA
ATOM      9  N   TYR d   1       7.730  -3.770  -5.538  0.00  0.00    -0.304 N 
ATOM     10  CA  TYR d   1       7.754  -3.527  -4.094  0.00  0.00     0.067 C 
ATOM     11  H   TYR d   1       7.980  -3.063  -6.153  0.00  0.00     0.149 HD
ATOM     12  HA  TYR d   1       6.941  -4.076  -3.620  0.00  0.00     0.056 H 
ATOM     13  C   TYR d   1       9.071  -3.991  -3.528  0.00  0.00     0.062 C 
ATOM     14  O   TYR d   1       9.904  -4.476  -4.257  0.00  0.00    -0.548 OA
ATOM     15  OXT TYR d   1       9.318  -3.868  -2.215  0.00  0.00    -0.548 OA
BRANCH  10  16
ATOM     16  CB  TYR d   1       7.583  -2.030  -3.826  0.00  0.00    -0.004 C 
ATOM     17  HB1 TYR d   1       7.981  -1.790  -2.840  0.00  0.00     0.034 H 
ATOM     18  HB2 TYR d   1       8.122  -1.461  -4.584  0.00  0.00     0.034 H 
BRANCH  16  19
ATOM     19  CG  TYR d   1       6.119  -1.675  -3.877  0.00  0.00    -0.045 A 
ATOM     20  CD1 TYR d   1       5.310  -1.924  -2.783  0.00  0.00    -0.055 A 
ATOM     21  CE1 TYR d   1       3.969  -1.600  -2.828  0.00  0.00    -0.020 A 
ATOM     22  HD1 TYR d   1       5.727  -2.373  -1.895  0.00  0.00     0.062 H 
ATOM     23  CZ  TYR d   1       3.433  -1.022  -3.970  0.00  0.00     0.117 A 
ATOM     24  HE1 TYR d   1       3.336  -1.795  -1.974  0.00  0.00     0.065 H 
ATOM     25  CE2 TYR d   1       4.247  -0.772  -5.066  0.00  0.00    -0.020 A 
ATOM     26  CD2 TYR d   1       5.589  -1.095  -5.014  0.00  0.00    -0.055 A 
ATOM     27  HE2 TYR d   1       3.833  -0.323  -5.956  0.00  0.00     0.065 H 
ATOM     28  HD2 TYR d   1       6.224  -0.896  -5.865  0.00  0.00     0.062 H 
BRANCH  23  29
ATOM     29  OH  TYR d   1       2.113  -0.702  -4.016  0.00  0.00    -0.507 OA
ATOM     30  HH  TYR d   1       1.598  -1.051  -3.277  0.00  0.00     0.292 HD
ENDBRANCH  23  29
ENDBRANCH  16  19
ENDBRANCH  10  16
ENDBRANCH   1   7
BRANCH   1  31
ATOM     31  O   UNK d   0       6.025  -5.638  -7.892  0.00  0.00    -0.480 OA
BRANCH  31  32
ATOM     32  C   UNK d   0       5.185  -4.671  -8.343  0.00  0.00     0.125 A 
ATOM     33  C   UNK d   0       3.985  -5.027  -8.936  0.00  0.00     0.023 A 
ATOM     34  C   UNK d   0       3.127  -4.039  -9.399  0.00  0.00     0.143 A 
ATOM     35  H   UNK d   0       3.719  -6.068  -9.039  0.00  0.00     0.069 H 
ATOM     36  C   UNK d   0       3.490  -2.689  -9.257  0.00  0.00     0.025 A 
ATOM     37  O   UNK d   0       1.952  -4.366  -9.978  0.00  0.00    -0.422 OA
ATOM     38  C   UNK d   0       4.704  -2.348  -8.657  0.00  0.00    -0.047 A 
ATOM     39  C   UNK d   0       2.570  -1.650  -9.750  0.00  0.00    -0.001 A 
ATOM     40  C   UNK d   0       5.538  -3.331  -8.207  0.00  0.00    -0.019 A 
ATOM     41  H   UNK d   0       4.983  -1.310  -8.548  0.00  0.00     0.063 H 
ATOM     42  H   UNK d   0       6.478  -3.067  -7.742  0.00  0.00     0.065 H 
ATOM     43  C   UNK d   0       1.386  -2.059 -10.332  0.00  0.00     0.031 A 
ATOM     44  C   UNK d   0       1.101  -3.432 -10.433  0.00  0.00     0.338 A 
ATOM     45  H   UNK d   0       0.683  -1.330 -10.707  0.00  0.00     0.070 H 
ATOM     46  O   UNK d   0       0.055  -3.784 -10.948  0.00  0.00    -0.245 OA
BRANCH  39  47
ATOM     47  C   UNK d   0       2.903  -0.214  -9.626  0.00  0.00    -0.017 A 
ATOM     48  C   UNK d   0       3.541   0.451 -10.675  0.00  0.00    -0.054 A 
ATOM     49  C   UNK d   0       3.849   1.790 -10.553  0.00  0.00    -0.061 A 
ATOM     50  H   UNK d   0       3.794  -0.083 -11.580  0.00  0.00     0.062 H 
ATOM     51  C   UNK d   0       3.526   2.475  -9.394  0.00  0.00    -0.062 A 
ATOM     52  H   UNK d   0       4.343   2.305 -11.363  0.00  0.00     0.062 H 
ATOM     53  C   UNK d   0       2.894   1.822  -8.352  0.00  0.00    -0.061 A 
ATOM     54  H   UNK d   0       3.769   3.523  -9.304  0.00  0.00     0.062 H 
ATOM     55  C   UNK d   0       2.576   0.484  -8.463  0.00  0.00    -0.054 A 
ATOM     56  H   UNK d   0       2.645   2.362  -7.449  0.00  0.00     0.062 H 
ATOM     57  H   UNK d   0       2.077  -0.023  -7.649  0.00  0.00     0.062 H 
ENDBRANCH  39  47
ENDBRANCH  31  32
ENDBRANCH   1  31
TORSDOF 10
ENDMDL
MODEL 7
REMARK VINA RESULT:      -7.5      3.391      4.162
REMARK  8 active torsions:
REMARK  status: ('A' for Active; 'I' for Inactive)
REMARK    1  A    between atoms: C_1  and  C_2 
REMARK    2  A    between atoms: C_2  and  C_4 
REMARK    3  A    between atoms: C_2  and  O_19 
REMARK       I    between atoms: C_4  and  N_6 
REMARK       I    between atoms: N_6  and  CA_7 
REMARK    4  A    between atoms: CA_7  and  CB_9 
REMARK       I    between atoms: CA_7  and  C_17 
REMARK    5  A    between atoms: CB_9  and  CG_10 
REMARK    6  A    between atoms: CZ_13  and  OH_16 
REMARK    7  A    between atoms: O_19  and  C_20 
REMARK    8  A    between atoms: C_24  and  C_31 
ROOT
ATOM      1  C   UNK d   0       7.813  -2.127  -9.905  0.00  0.00     0.173 C 
ATOM      2  H   UNK d   0       7.032  -2.601  -9.310  0.00  0.00     0.083 H 
ENDROOT
BRANCH   1   3
ATOM      3  C   UNK d   0       8.670  -3.207 -10.570  0.00  0.00    -0.019 C 
ATOM      4  H   UNK d   0       8.233  -4.187 -10.376  0.00  0.00     0.027 H 
ATOM      5  H   UNK d   0       8.705  -3.032 -11.645  0.00  0.00     0.027 H 
ATOM      6  H   UNK d   0       9.679  -3.171 -10.162  0.00  0.00     0.027 H 
ENDBRANCH   1   3
BRANCH   1   7
ATOM      7  C   UNK d   0       7.182  -1.262 -10.965  0.00  0.00     0.254 C 
ATOM      8  O   UNK d   0       7.836  -0.396 -11.509  0.00  0.00    -0.272 OA
ATOM      9  N   TYR d   1       5.893  -1.449 -11.309  0.00  0.00    -0.304 N 
ATOM     10  CA  TYR d   1       5.280  -0.608 -12.340  0.00  0.00     0.067 C 
ATOM     11  H   TYR d   1       5.371  -2.141 -10.875  0.00  0.00     0.149 HD
ATOM     12  HA  TYR d   1       5.689   0.401 -12.276  0.00  0.00     0.056 H 
ATOM     13  C   TYR d   1       5.576  -1.184 -13.701  0.00  0.00     0.062 C 
ATOM     14  O   TYR d   1       6.233  -2.194 -13.799  0.00  0.00    -0.548 OA
ATOM     15  OXT TYR d   1       5.112  -0.575 -14.803  0.00  0.00    -0.548 OA
BRANCH  10  16
ATOM     16  CB  TYR d   1       3.766  -0.559 -12.126  0.00  0.00    -0.004 C 
ATOM     17  HB1 TYR d   1       3.293  -0.080 -12.982  0.00  0.00     0.034 H 
ATOM     18  HB2 TYR d   1       3.382  -1.574 -12.017  0.00  0.00     0.034 H 
BRANCH  16  19
ATOM     19  CG  TYR d   1       3.461   0.229 -10.877  0.00  0.00    -0.045 A 
ATOM     20  CD1 TYR d   1       2.765  -0.365  -9.840  0.00  0.00    -0.055 A 
ATOM     21  CE1 TYR d   1       2.485   0.355  -8.695  0.00  0.00    -0.020 A 
ATOM     22  HD1 TYR d   1       2.440  -1.390  -9.925  0.00  0.00     0.062 H 
ATOM     23  CZ  TYR d   1       2.902   1.674  -8.585  0.00  0.00     0.117 A 
ATOM     24  HE1 TYR d   1       1.940  -0.108  -7.885  0.00  0.00     0.065 H 
ATOM     25  CE2 TYR d   1       3.602   2.267  -9.627  0.00  0.00    -0.020 A 
ATOM     26  CD2 TYR d   1       3.884   1.541 -10.769  0.00  0.00    -0.055 A 
ATOM     27  HE2 TYR d   1       3.928   3.293  -9.545  0.00  0.00     0.065 H 
ATOM     28  HD2 TYR d   1       4.431   2.000 -11.578  0.00  0.00     0.062 H 
BRANCH  23  29
ATOM     29  OH  TYR d   1       2.628   2.384  -7.460  0.00  0.00    -0.507 OA
ATOM     30  HH  TYR d   1       2.289   3.274  -7.629  0.00  0.00     0.292 HD
ENDBRANCH  23  29
ENDBRANCH  16  19
ENDBRANCH  10  16
ENDBRANCH   1   7
BRANCH   1  31
ATOM     31  O   UNK d   0       8.635  -1.321  -9.058  0.00  0.00    -0.480 OA
BRANCH  31  32
ATOM     32  C   UNK d   0       8.099  -0.923  -7.876  0.00  0.00     0.125 A 
ATOM     33  C   UNK d   0       8.731   0.058  -7.131  0.00  0.00     0.023 A 
ATOM     34  C   UNK d   0       8.184   0.464  -5.921  0.00  0.00     0.143 A 
ATOM     35  H   UNK d   0       9.647   0.505  -7.488  0.00  0.00     0.069 H 
ATOM     36  C   UNK d   0       6.993  -0.129  -5.471  0.00  0.00     0.025 A 
ATOM     37  O   UNK d   0       8.785   1.421  -5.182  0.00  0.00    -0.422 OA
ATOM     38  C   UNK d   0       6.368  -1.118  -6.235  0.00  0.00    -0.047 A 
ATOM     39  C   UNK d   0       6.421   0.312  -4.187  0.00  0.00    -0.001 A 
ATOM     40  C   UNK d   0       6.919  -1.507  -7.422  0.00  0.00    -0.019 A 
ATOM     41  H   UNK d   0       5.452  -1.573  -5.888  0.00  0.00     0.063 H 
ATOM     42  H   UNK d   0       6.435  -2.272  -8.013  0.00  0.00     0.065 H 
ATOM     43  C   UNK d   0       7.091   1.295  -3.485  0.00  0.00     0.031 A 
ATOM     44  C   UNK d   0       8.278   1.834  -4.010  0.00  0.00     0.338 A 
ATOM     45  H   UNK d   0       6.707   1.647  -2.539  0.00  0.00     0.070 H 
ATOM     46  O   UNK d   0       8.863   2.700  -3.384  0.00  0.00    -0.245 OA
BRANCH  39  47
ATOM     47  C   UNK d   0       5.169  -0.280  -3.667  0.00  0.00    -0.017 A 
ATOM     48  C   UNK d   0       5.217  -1.371  -2.798  0.00  0.00    -0.054 A 
ATOM     49  C   UNK d   0       4.046  -1.917  -2.316  0.00  0.00    -0.061 A 
ATOM     50  H   UNK d   0       6.170  -1.788  -2.505  0.00  0.00     0.062 H 
ATOM     51  C   UNK d   0       2.824  -1.385  -2.691  0.00  0.00    -0.062 A 
ATOM     52  H   UNK d   0       4.082  -2.763  -1.644  0.00  0.00     0.062 H 
ATOM     53  C   UNK d   0       2.770  -0.303  -3.551  0.00  0.00    -0.061 A 
ATOM     54  H   UNK d   0       1.911  -1.817  -2.310  0.00  0.00     0.062 H 
ATOM     55  C   UNK d   0       3.934   0.256  -4.036  0.00  0.00    -0.054 A 
ATOM     56  H   UNK d   0       1.813   0.108  -3.840  0.00  0.00     0.062 H 
ATOM     57  H   UNK d   0       3.889   1.104  -4.703  0.00  0.00     0.062 H 
ENDBRANCH  39  47
ENDBRANCH  31  32
ENDBRANCH   1  31
TORSDOF 10
ENDMDL
MODEL 8
REMARK VINA RESULT:      -7.3      5.277     11.014
REMARK  8 active torsions:
REMARK  status: ('A' for Active; 'I' for Inactive)
REMARK    1  A    between atoms: C_1  and  C_2 
REMARK    2  A    between atoms: C_2  and  C_4 
REMARK    3  A    between atoms: C_2  and  O_19 
REMARK       I    between atoms: C_4  and  N_6 
REMARK       I    between atoms: N_6  and  CA_7 
REMARK    4  A    between atoms: CA_7  and  CB_9 
REMARK       I    between atoms: CA_7  and  C_17 
REMARK    5  A    between atoms: CB_9  and  CG_10 
REMARK    6  A    between atoms: CZ_13  and  OH_16 
REMARK    7  A    between atoms: O_19  and  C_20 
REMARK    8  A    between atoms: C_24  and  C_31 
ROOT
ATOM      1  C   UNK d   0      11.134  -5.234  -3.146  0.00  0.00     0.173 C 
ATOM      2  H   UNK d   0      11.102  -4.221  -2.745  0.00  0.00     0.083 H 
ENDROOT
BRANCH   1   3
ATOM      3  C   UNK d   0      12.583  -5.610  -3.462  0.00  0.00    -0.019 C 
ATOM      4  H   UNK d   0      13.204  -5.436  -2.583  0.00  0.00     0.027 H 
ATOM      5  H   UNK d   0      12.634  -6.662  -3.740  0.00  0.00     0.027 H 
ATOM      6  H   UNK d   0      12.945  -4.998  -4.288  0.00  0.00     0.027 H 
ENDBRANCH   1   3
BRANCH   1   7
ATOM      7  C   UNK d   0      10.576  -6.195  -2.129  0.00  0.00     0.254 C 
ATOM      8  O   UNK d   0       9.620  -5.876  -1.454  0.00  0.00    -0.272 OA
ATOM      9  N   TYR d   1      11.139  -7.409  -1.969  0.00  0.00    -0.304 N 
ATOM     10  CA  TYR d   1      10.596  -8.344  -0.980  0.00  0.00     0.067 C 
ATOM     11  H   TYR d   1      11.903  -7.664  -2.509  0.00  0.00     0.149 HD
ATOM     12  HA  TYR d   1      10.238  -7.788  -0.114  0.00  0.00     0.056 H 
ATOM     13  C   TYR d   1       9.454  -9.114  -1.590  0.00  0.00     0.062 C 
ATOM     14  O   TYR d   1       9.126  -8.903  -2.735  0.00  0.00    -0.548 OA
ATOM     15  OXT TYR d   1       8.799 -10.033  -0.864  0.00  0.00    -0.548 OA
BRANCH  10  16
ATOM     16  CB  TYR d   1      11.692  -9.318  -0.544  0.00  0.00    -0.004 C 
ATOM     17  HB1 TYR d   1      11.342 -10.342  -0.673  0.00  0.00     0.034 H 
ATOM     18  HB2 TYR d   1      12.583  -9.159  -1.152  0.00  0.00     0.034 H 
BRANCH  16  19
ATOM     19  CG  TYR d   1      12.026  -9.081   0.907  0.00  0.00    -0.045 A 
ATOM     20  CD1 TYR d   1      13.299  -9.352   1.375  0.00  0.00    -0.055 A 
ATOM     21  CE1 TYR d   1      13.606  -9.136   2.704  0.00  0.00    -0.020 A 
ATOM     22  HD1 TYR d   1      14.051  -9.734   0.702  0.00  0.00     0.062 H 
ATOM     23  CZ  TYR d   1      12.639  -8.645   3.569  0.00  0.00     0.117 A 
ATOM     24  HE1 TYR d   1      14.601  -9.349   3.070  0.00  0.00     0.065 H 
ATOM     25  CE2 TYR d   1      11.364  -8.372   3.096  0.00  0.00    -0.020 A 
ATOM     26  CD2 TYR d   1      11.062  -8.587   1.765  0.00  0.00    -0.055 A 
ATOM     27  HE2 TYR d   1      10.608  -7.991   3.767  0.00  0.00     0.065 H 
ATOM     28  HD2 TYR d   1      10.070  -8.370   1.396  0.00  0.00     0.062 H 
BRANCH  23  29
ATOM     29  OH  TYR d   1      12.940  -8.431   4.877  0.00  0.00    -0.507 OA
ATOM     30  HH  TYR d   1      13.840  -8.108   5.025  0.00  0.00     0.292 HD
ENDBRANCH  23  29
ENDBRANCH  16  19
ENDBRANCH  10  16
ENDBRANCH   1   7
BRANCH   1  31
ATOM     31  O   UNK d   0      10.353  -5.298  -4.342  0.00  0.00    -0.480 OA
BRANCH  31  32
ATOM     32  C   UNK d   0       9.165  -4.640  -4.339  0.00  0.00     0.125 A 
ATOM     33  C   UNK d   0       8.106  -5.133  -5.082  0.00  0.00     0.023 A 
ATOM     34  C   UNK d   0       6.892  -4.461  -5.080  0.00  0.00     0.143 A 
ATOM     35  H   UNK d   0       8.224  -6.036  -5.661  0.00  0.00     0.069 H 
ATOM     36  C   UNK d   0       6.756  -3.286  -4.320  0.00  0.00     0.025 A 
ATOM     37  O   UNK d   0       5.846  -4.926  -5.797  0.00  0.00    -0.422 OA
ATOM     38  C   UNK d   0       7.835  -2.803  -3.577  0.00  0.00    -0.047 A 
ATOM     39  C   UNK d   0       5.462  -2.583  -4.324  0.00  0.00    -0.001 A 
ATOM     40  C   UNK d   0       9.023  -3.475  -3.589  0.00  0.00    -0.019 A 
ATOM     41  H   UNK d   0       7.730  -1.900  -2.992  0.00  0.00     0.063 H 
ATOM     42  H   UNK d   0       9.858  -3.101  -3.013  0.00  0.00     0.065 H 
ATOM     43  C   UNK d   0       4.438  -3.118  -5.081  0.00  0.00     0.031 A 
ATOM     44  C   UNK d   0       4.660  -4.298  -5.811  0.00  0.00     0.338 A 
ATOM     45  H   UNK d   0       3.473  -2.634  -5.113  0.00  0.00     0.070 H 
ATOM     46  O   UNK d   0       3.752  -4.763  -6.477  0.00  0.00    -0.245 OA
BRANCH  39  47
ATOM     47  C   UNK d   0       5.266  -1.342  -3.542  0.00  0.00    -0.017 A 
ATOM     48  C   UNK d   0       5.798  -0.135  -3.997  0.00  0.00    -0.054 A 
ATOM     49  C   UNK d   0       5.611   1.018  -3.263  0.00  0.00    -0.061 A 
ATOM     50  H   UNK d   0       6.357  -0.104  -4.921  0.00  0.00     0.062 H 
ATOM     51  C   UNK d   0       4.896   0.980  -2.079  0.00  0.00    -0.062 A 
ATOM     52  H   UNK d   0       6.023   1.953  -3.614  0.00  0.00     0.062 H 
ATOM     53  C   UNK d   0       4.365  -0.213  -1.623  0.00  0.00    -0.061 A 
ATOM     54  H   UNK d   0       4.752   1.885  -1.509  0.00  0.00     0.062 H 
ATOM     55  C   UNK d   0       4.540  -1.372  -2.350  0.00  0.00    -0.054 A 
ATOM     56  H   UNK d   0       3.808  -0.236  -0.698  0.00  0.00     0.062 H 
ATOM     57  H   UNK d   0       4.121  -2.302  -1.995  0.00  0.00     0.062 H 
ENDBRANCH  39  47
ENDBRANCH  31  32
ENDBRANCH   1  31
TORSDOF 10
ENDMDL
MODEL 9
REMARK VINA RESULT:      -7.2      7.112     10.367
REMARK  8 active torsions:
REMARK  status: ('A' for Active; 'I' for Inactive)
REMARK    1  A    between atoms: C_1  and  C_2 
REMARK    2  A    between atoms: C_2  and  C_4 
REMARK    3  A    between atoms: C_2  and  O_19 
REMARK       I    between atoms: C_4  and  N_6 
REMARK       I    between atoms: N_6  and  CA_7 
REMARK    4  A    between atoms: CA_7  and  CB_9 
REMARK       I    between atoms: CA_7  and  C_17 
REMARK    5  A    between atoms: CB_9  and  CG_10 
REMARK    6  A    between atoms: CZ_13  and  OH_16 
REMARK    7  A    between atoms: O_19  and  C_20 
REMARK    8  A    between atoms: C_24  and  C_31 
ROOT
ATOM      1  C   UNK d   0       9.908   2.605  -4.418  0.00  0.00     0.173 C 
ATOM      2  H   UNK d   0      10.103   2.496  -3.351  0.00  0.00     0.083 H 
ENDROOT
BRANCH   1   3
ATOM      3  C   UNK d   0      11.230   2.553  -5.185  0.00  0.00    -0.019 C 
ATOM      4  H   UNK d   0      11.036   2.668  -6.252  0.00  0.00     0.027 H 
ATOM      5  H   UNK d   0      11.880   3.359  -4.846  0.00  0.00     0.027 H 
ATOM      6  H   UNK d   0      11.716   1.594  -5.006  0.00  0.00     0.027 H 
ENDBRANCH   1   3
BRANCH   1   7
ATOM      7  C   UNK d   0       9.013   1.486  -4.883  0.00  0.00     0.254 C 
ATOM      8  O   UNK d   0       8.648   1.441  -6.039  0.00  0.00    -0.272 OA
ATOM      9  N   TYR d   1       8.616   0.535  -4.015  0.00  0.00    -0.304 N 
ATOM     10  CA  TYR d   1       7.746  -0.554  -4.467  0.00  0.00     0.067 C 
ATOM     11  H   TYR d   1       8.908   0.570  -3.090  0.00  0.00     0.149 HD
ATOM     12  HA  TYR d   1       7.053  -0.176  -5.218  0.00  0.00     0.056 H 
ATOM     13  C   TYR d   1       8.585  -1.653  -5.065  0.00  0.00     0.062 C 
ATOM     14  O   TYR d   1       9.788  -1.539  -5.109  0.00  0.00    -0.548 OA
ATOM     15  OXT TYR d   1       7.998  -2.759  -5.549  0.00  0.00    -0.548 OA
BRANCH  10  16
ATOM     16  CB  TYR d   1       6.957  -1.104  -3.277  0.00  0.00    -0.004 C 
ATOM     17  HB1 TYR d   1       7.185  -2.162  -3.147  0.00  0.00     0.034 H 
ATOM     18  HB2 TYR d   1       7.234  -0.559  -2.374  0.00  0.00     0.034 H 
BRANCH  16  19
ATOM     19  CG  TYR d   1       5.481  -0.935  -3.532  0.00  0.00    -0.045 A 
ATOM     20  CD1 TYR d   1       4.566  -1.327  -2.572  0.00  0.00    -0.055 A 
ATOM     21  CE1 TYR d   1       3.214  -1.173  -2.803  0.00  0.00    -0.020 A 
ATOM     22  HD1 TYR d   1       4.909  -1.754  -1.642  0.00  0.00     0.062 H 
ATOM     23  CZ  TYR d   1       2.772  -0.625  -3.999  0.00  0.00     0.117 A 
ATOM     24  HE1 TYR d   1       2.498  -1.480  -2.054  0.00  0.00     0.065 H 
ATOM     25  CE2 TYR d   1       3.692  -0.231  -4.960  0.00  0.00    -0.020 A 
ATOM     26  CD2 TYR d   1       5.045  -0.383  -4.722  0.00  0.00    -0.055 A 
ATOM     27  HE2 TYR d   1       3.353   0.196  -5.892  0.00  0.00     0.065 H 
ATOM     28  HD2 TYR d   1       5.762  -0.074  -5.468  0.00  0.00     0.062 H 
BRANCH  23  29
ATOM     29  OH  TYR d   1       1.442  -0.472  -4.228  0.00  0.00    -0.507 OA
ATOM     30  HH  TYR d   1       0.930  -1.286  -4.130  0.00  0.00     0.292 HD
ENDBRANCH  23  29
ENDBRANCH  16  19
ENDBRANCH  10  16
ENDBRANCH   1   7
BRANCH   1  31
ATOM     31  O   UNK d   0       9.267   3.860  -4.659  0.00  0.00    -0.480 OA
BRANCH  31  32
ATOM     32  C   UNK d   0       9.614   4.895  -3.851  0.00  0.00     0.125 A 
ATOM     33  C   UNK d   0       9.977   4.649  -2.537  0.00  0.00     0.023 A 
ATOM     34  C   UNK d   0      10.331   5.706  -1.711  0.00  0.00     0.143 A 
ATOM     35  H   UNK d   0       9.983   3.639  -2.157  0.00  0.00     0.069 H 
ATOM     36  C   UNK d   0      10.317   7.015  -2.223  0.00  0.00     0.025 A 
ATOM     37  O   UNK d   0      10.689   5.486  -0.428  0.00  0.00    -0.422 OA
ATOM     38  C   UNK d   0       9.948   7.245  -3.550  0.00  0.00    -0.047 A 
ATOM     39  C   UNK d   0      10.697   8.129  -1.337  0.00  0.00    -0.001 A 
ATOM     40  C   UNK d   0       9.602   6.195  -4.351  0.00  0.00    -0.019 A 
ATOM     41  H   UNK d   0       9.938   8.252  -3.944  0.00  0.00     0.063 H 
ATOM     42  H   UNK d   0       9.317   6.373  -5.378  0.00  0.00     0.065 H 
ATOM     43  C   UNK d   0      11.051   7.827  -0.037  0.00  0.00     0.031 A 
ATOM     44  C   UNK d   0      11.038   6.489   0.393  0.00  0.00     0.338 A 
ATOM     45  H   UNK d   0      11.336   8.614   0.646  0.00  0.00     0.070 H 
ATOM     46  O   UNK d   0      11.352   6.232   1.542  0.00  0.00    -0.245 OA
BRANCH  39  47
ATOM     47  C   UNK d   0      10.699   9.525  -1.826  0.00  0.00    -0.017 A 
ATOM     48  C   UNK d   0       9.531  10.287  -1.774  0.00  0.00    -0.054 A 
ATOM     49  C   UNK d   0       9.539  11.589  -2.230  0.00  0.00    -0.061 A 
ATOM     50  H   UNK d   0       8.621   9.858  -1.378  0.00  0.00     0.062 H 
ATOM     51  C   UNK d   0      10.703  12.140  -2.737  0.00  0.00    -0.062 A 
ATOM     52  H   UNK d   0       8.636  12.180  -2.192  0.00  0.00     0.062 H 
ATOM     53  C   UNK d   0      11.864  11.390  -2.790  0.00  0.00    -0.061 A 
ATOM     54  H   UNK d   0      10.704  13.159  -3.093  0.00  0.00     0.062 H 
ATOM     55  C   UNK d   0      11.870  10.089  -2.333  0.00  0.00    -0.054 A 
ATOM     56  H   UNK d   0      12.770  11.826  -3.188  0.00  0.00     0.062 H 
ATOM     57  H   UNK d   0      12.779   9.507  -2.370  0.00  0.00     0.062 H 
ENDBRANCH  39  47
ENDBRANCH  31  32
ENDBRANCH   1  31
TORSDOF 10
ENDMDL
MODEL 10
REMARK VINA RESULT:      -7.2      7.063     10.852
REMARK  8 active torsions:
REMARK  status: ('A' for Active; 'I' for Inactive)
REMARK    1  A    between atoms: C_1  and  C_2 
REMARK    2  A    between atoms: C_2  and  C_4 
REMARK    3  A    between atoms: C_2  and  O_19 
REMARK       I    between atoms: C_4  and  N_6 
REMARK       I    between atoms: N_6  and  CA_7 
REMARK    4  A    between atoms: CA_7  and  CB_9 
REMARK       I    between atoms: CA_7  and  C_17 
REMARK    5  A    between atoms: CB_9  and  CG_10 
REMARK    6  A    between atoms: CZ_13  and  OH_16 
REMARK    7  A    between atoms: O_19  and  C_20 
REMARK    8  A    between atoms: C_24  and  C_31 
ROOT
ATOM      1  C   UNK d   0       9.884   4.396  -4.265  0.00  0.00     0.173 C 
ATOM      2  H   UNK d   0       8.796   4.334  -4.293  0.00  0.00     0.083 H 
ENDROOT
BRANCH   1   3
ATOM      3  C   UNK d   0      10.382   5.151  -5.500  0.00  0.00    -0.019 C 
ATOM      4  H   UNK d   0      11.125   4.546  -6.020  0.00  0.00     0.027 H 
ATOM      5  H   UNK d   0       9.544   5.349  -6.168  0.00  0.00     0.027 H 
ATOM      6  H   UNK d   0      10.832   6.094  -5.192  0.00  0.00     0.027 H 
ENDBRANCH   1   3
BRANCH   1   7
ATOM      7  C   UNK d   0      10.315   5.129  -3.021  0.00  0.00     0.254 C 
ATOM      8  O   UNK d   0       9.843   4.826  -1.945  0.00  0.00    -0.272 OA
ATOM      9  N   TYR d   1      11.222   6.122  -3.103  0.00  0.00    -0.304 N 
ATOM     10  CA  TYR d   1      11.641   6.834  -1.894  0.00  0.00     0.067 C 
ATOM     11  H   TYR d   1      11.599   6.364  -3.963  0.00  0.00     0.149 HD
ATOM     12  HA  TYR d   1      10.794   6.921  -1.213  0.00  0.00     0.056 H 
ATOM     13  C   TYR d   1      12.751   6.070  -1.219  0.00  0.00     0.062 C 
ATOM     14  O   TYR d   1      13.151   5.036  -1.700  0.00  0.00    -0.548 OA
ATOM     15  OXT TYR d   1      13.294   6.537  -0.084  0.00  0.00    -0.548 OA
BRANCH  10  16
ATOM     16  CB  TYR d   1      12.138   8.231  -2.270  0.00  0.00    -0.004 C 
ATOM     17  HB1 TYR d   1      12.767   8.621  -1.470  0.00  0.00     0.034 H 
ATOM     18  HB2 TYR d   1      12.717   8.174  -3.193  0.00  0.00     0.034 H 
BRANCH  16  19
ATOM     19  CG  TYR d   1      10.958   9.146  -2.474  0.00  0.00    -0.045 A 
ATOM     20  CD1 TYR d   1      10.156   9.486  -1.400  0.00  0.00    -0.055 A 
ATOM     21  CE1 TYR d   1       9.074  10.325  -1.584  0.00  0.00    -0.020 A 
ATOM     22  HD1 TYR d   1      10.374   9.095  -0.418  0.00  0.00     0.062 H 
ATOM     23  CZ  TYR d   1       8.793  10.827  -2.846  0.00  0.00     0.117 A 
ATOM     24  HE1 TYR d   1       8.446  10.590  -0.745  0.00  0.00     0.065 H 
ATOM     25  CE2 TYR d   1       9.600  10.486  -3.922  0.00  0.00    -0.020 A 
ATOM     26  CD2 TYR d   1      10.684   9.650  -3.731  0.00  0.00    -0.055 A 
ATOM     27  HE2 TYR d   1       9.384  10.875  -4.906  0.00  0.00     0.065 H 
ATOM     28  HD2 TYR d   1      11.315   9.387  -4.567  0.00  0.00     0.062 H 
BRANCH  23  29
ATOM     29  OH  TYR d   1       7.729  11.653  -3.030  0.00  0.00    -0.507 OA
ATOM     30  HH  TYR d   1       7.091  11.332  -3.681  0.00  0.00     0.292 HD
ENDBRANCH  23  29
ENDBRANCH  16  19
ENDBRANCH  10  16
ENDBRANCH   1   7
BRANCH   1  31
ATOM     31  O   UNK d   0      10.437   3.078  -4.258  0.00  0.00    -0.480 OA
BRANCH  31  32
ATOM     32  C   UNK d   0       9.562   2.043  -4.338  0.00  0.00     0.125 A 
ATOM     33  C   UNK d   0       9.936   0.876  -4.983  0.00  0.00     0.023 A 
ATOM     34  C   UNK d   0       9.042  -0.183  -5.066  0.00  0.00     0.143 A 
ATOM     35  H   UNK d   0      10.919   0.789  -5.419  0.00  0.00     0.069 H 
ATOM     36  C   UNK d   0       7.766  -0.053  -4.492  0.00  0.00     0.025 A 
ATOM     37  O   UNK d   0       9.389  -1.329  -5.688  0.00  0.00    -0.422 OA
ATOM     38  C   UNK d   0       7.404   1.132  -3.846  0.00  0.00    -0.047 A 
ATOM     39  C   UNK d   0       6.826  -1.183  -4.584  0.00  0.00    -0.001 A 
ATOM     40  C   UNK d   0       8.295   2.164  -3.772  0.00  0.00    -0.019 A 
ATOM     41  H   UNK d   0       6.423   1.231  -3.404  0.00  0.00     0.063 H 
ATOM     42  H   UNK d   0       8.015   3.080  -3.273  0.00  0.00     0.065 H 
ATOM     43  C   UNK d   0       7.251  -2.324  -5.236  0.00  0.00     0.031 A 
ATOM     44  C   UNK d   0       8.545  -2.369  -5.782  0.00  0.00     0.338 A 
ATOM     45  H   UNK d   0       6.594  -3.176  -5.328  0.00  0.00     0.070 H 
ATOM     46  O   UNK d   0       8.912  -3.380  -6.356  0.00  0.00    -0.245 OA
BRANCH  39  47
ATOM     47  C   UNK d   0       5.471  -1.099  -3.998  0.00  0.00    -0.017 A 
ATOM     48  C   UNK d   0       4.438  -0.479  -4.704  0.00  0.00    -0.054 A 
ATOM     49  C   UNK d   0       3.177  -0.405  -4.151  0.00  0.00    -0.061 A 
ATOM     50  H   UNK d   0       4.627  -0.058  -5.681  0.00  0.00     0.062 H 
ATOM     51  C   UNK d   0       2.933  -0.943  -2.900  0.00  0.00    -0.062 A 
ATOM     52  H   UNK d   0       2.377   0.076  -4.696  0.00  0.00     0.062 H 
ATOM     53  C   UNK d   0       3.951  -1.558  -2.195  0.00  0.00    -0.061 A 
ATOM     54  H   UNK d   0       1.944  -0.882  -2.472  0.00  0.00     0.062 H 
ATOM     55  C   UNK d   0       5.216  -1.645  -2.739  0.00  0.00    -0.054 A 
ATOM     56  H   UNK d   0       3.755  -1.977  -1.218  0.00  0.00     0.062 H 
ATOM     57  H   UNK d   0       6.009  -2.130  -2.189  0.00  0.00     0.062 H 
ENDBRANCH  39  47
ENDBRANCH  31  32
ENDBRANCH   1  31
TORSDOF 10
ENDMDL
