MODEL 1
REMARK VINA RESULT:      -6.8      0.000      0.000
REMARK  4 active torsions:
REMARK  status: ('A' for Active; 'I' for Inactive)
REMARK    1  A    between atoms: C_1  and  C_2 
REMARK    2  A    between atoms: C_3  and  C_16 
REMARK    3  A    between atoms: C_4  and  C_8 
REMARK    4  A    between atoms: C_11  and  O_15 
ROOT
ATOM      1  C   LIG d   1       4.567  -4.587  -6.663  0.00  0.00     0.041 A 
ATOM      2  C   LIG d   1       4.711  -3.287  -6.285  0.00  0.00     0.030 A 
ATOM      3  C   LIG d   1       4.614  -3.240  -4.871  0.00  0.00     0.100 A 
ATOM      4  N   LIG d   1       4.418  -4.468  -4.441  0.00  0.00    -0.173 NA
ATOM      5  N   LIG d   1       4.380  -5.323  -5.547  0.00  0.00    -0.281 N 
ATOM      6  H   LIG d   1       4.246  -6.285  -5.518  0.00  0.00     0.189 HD
ENDROOT
BRANCH   2   7
ATOM      7  C   LIG d   1       4.932  -2.130  -7.188  0.00  0.00    -0.010 A 
ATOM      8  C   LIG d   1       3.841  -1.442  -7.720  0.00  0.00    -0.009 A 
ATOM      9  C   LIG d   1       4.057  -0.363  -8.557  0.00  0.00     0.163 A 
ATOM     10  H   LIG d   1       2.835  -1.748  -7.476  0.00  0.00     0.066 H 
ATOM     11  C   LIG d   1       5.351   0.027  -8.874  0.00  0.00     0.162 A 
ATOM     12  O   LIG d   1       2.999   0.321  -9.082  0.00  0.00    -0.488 OA
ATOM     13  C   LIG d   1       6.436  -0.658  -8.350  0.00  0.00    -0.016 A 
ATOM     14  O   LIG d   1       5.549   1.091  -9.707  0.00  0.00    -0.488 OA
ATOM     15  C   LIG d   1       6.229  -1.734  -7.509  0.00  0.00    -0.050 A 
ATOM     16  H   LIG d   1       7.441  -0.351  -8.599  0.00  0.00     0.066 H 
ATOM     17  H   LIG d   1       7.073  -2.269  -7.100  0.00  0.00     0.062 H 
ATOM     18  C   LIG d   1       5.177   2.369  -9.188  0.00  0.00     0.093 C 
ATOM     19  C   LIG d   1       3.694   2.626  -9.397  0.00  0.00     0.016 C 
ATOM     20  H   LIG d   1       5.751   3.144  -9.697  0.00  0.00     0.070 H 
ATOM     21  H   LIG d   1       5.401   2.402  -8.121  0.00  0.00     0.070 H 
ATOM     22  C   LIG d   1       2.823   1.659  -8.611  0.00  0.00     0.093 C 
ATOM     23  H   LIG d   1       3.464   2.527 -10.457  0.00  0.00     0.033 H 
ATOM     24  H   LIG d   1       3.463   3.644  -9.081  0.00  0.00     0.033 H 
ATOM     25  H   LIG d   1       1.777   1.944  -8.724  0.00  0.00     0.070 H 
ATOM     26  H   LIG d   1       3.094   1.705  -7.556  0.00  0.00     0.070 H 
ENDBRANCH   2   7
BRANCH   1  27
ATOM     27  C   LIG d   1       4.601  -5.111  -8.076  0.00  0.00    -0.022 C 
ATOM     28  H   LIG d   1       4.771  -4.283  -8.766  0.00  0.00     0.029 H 
ATOM     29  H   LIG d   1       5.406  -5.838  -8.175  0.00  0.00     0.029 H 
ATOM     30  H   LIG d   1       3.649  -5.588  -8.309  0.00  0.00     0.029 H 
ENDBRANCH   1  27
BRANCH   3  31
ATOM     31  C   LIG d   1       4.713  -2.024  -4.029  0.00  0.00    -0.005 A 
ATOM     32  C   LIG d   1       5.967  -1.494  -3.709  0.00  0.00    -0.096 A 
ATOM     33  C   LIG d   1       6.054  -0.355  -2.926  0.00  0.00    -0.027 A 
ATOM     34  O   LIG d   1       7.097  -2.091  -4.170  0.00  0.00    -0.873 OA
ATOM     35  C   LIG d   1       4.900   0.250  -2.451  0.00  0.00     0.116 A 
ATOM     36  H   LIG d   1       7.020   0.059  -2.680  0.00  0.00     0.065 H 
ATOM     37  C   LIG d   1       3.654  -0.280  -2.764  0.00  0.00    -0.020 A 
ATOM     38  C   LIG d   1       3.558  -1.411  -3.548  0.00  0.00    -0.050 A 
ATOM     39  H   LIG d   1       2.758   0.195  -2.393  0.00  0.00     0.065 H 
ATOM     40  H   LIG d   1       2.588  -1.820  -3.790  0.00  0.00     0.062 H 
BRANCH  35  41
ATOM     41  O   LIG d   1       4.987   1.363  -1.679  0.00  0.00    -0.507 OA
ATOM     42  H   LIG d   1       5.890   1.687  -1.556  0.00  0.00     0.292 HD
ENDBRANCH  35  41
ENDBRANCH   3  31
TORSDOF 4
ENDMDL
MODEL 2
REMARK VINA RESULT:      -6.6      1.764      2.422
REMARK  4 active torsions:
REMARK  status: ('A' for Active; 'I' for Inactive)
REMARK    1  A    between atoms: C_1  and  C_2 
REMARK    2  A    between atoms: C_3  and  C_16 
REMARK    3  A    between atoms: C_4  and  C_8 
REMARK    4  A    between atoms: C_11  and  O_15 
ROOT
ATOM      1  C   LIG d   1       7.372  -3.659  -6.249  0.00  0.00     0.041 A 
ATOM      2  C   LIG d   1       6.471  -2.691  -5.923  0.00  0.00     0.030 A 
ATOM      3  C   LIG d   1       6.629  -2.408  -4.543  0.00  0.00     0.100 A 
ATOM      4  N   LIG d   1       7.586  -3.184  -4.080  0.00  0.00    -0.173 NA
ATOM      5  N   LIG d   1       8.059  -3.977  -5.131  0.00  0.00    -0.281 N 
ATOM      6  H   LIG d   1       8.764  -4.641  -5.068  0.00  0.00     0.189 HD
ENDROOT
BRANCH   2   7
ATOM      7  C   LIG d   1       5.502  -2.049  -6.844  0.00  0.00    -0.010 A 
ATOM      8  C   LIG d   1       5.588  -0.682  -7.107  0.00  0.00    -0.009 A 
ATOM      9  C   LIG d   1       4.683  -0.093  -7.970  0.00  0.00     0.163 A 
ATOM     10  H   LIG d   1       6.360  -0.087  -6.641  0.00  0.00     0.066 H 
ATOM     11  C   LIG d   1       3.688  -0.856  -8.565  0.00  0.00     0.162 A 
ATOM     12  O   LIG d   1       4.759   1.243  -8.238  0.00  0.00    -0.488 OA
ATOM     13  C   LIG d   1       3.597  -2.214  -8.303  0.00  0.00    -0.016 A 
ATOM     14  O   LIG d   1       2.797  -0.260  -9.412  0.00  0.00    -0.488 OA
ATOM     15  C   LIG d   1       4.501  -2.810  -7.445  0.00  0.00    -0.050 A 
ATOM     16  H   LIG d   1       2.822  -2.805  -8.768  0.00  0.00     0.066 H 
ATOM     17  H   LIG d   1       4.431  -3.868  -7.239  0.00  0.00     0.062 H 
ATOM     18  C   LIG d   1       3.329   0.205 -10.653  0.00  0.00     0.093 C 
ATOM     19  C   LIG d   1       3.934   1.591 -10.495  0.00  0.00     0.016 C 
ATOM     20  H   LIG d   1       2.531   0.244 -11.394  0.00  0.00     0.070 H 
ATOM     21  H   LIG d   1       4.100  -0.486 -10.995  0.00  0.00     0.070 H 
ATOM     22  C   LIG d   1       5.140   1.594  -9.570  0.00  0.00     0.093 C 
ATOM     23  H   LIG d   1       3.177   2.263 -10.091  0.00  0.00     0.033 H 
ATOM     24  H   LIG d   1       4.240   1.957 -11.475  0.00  0.00     0.033 H 
ATOM     25  H   LIG d   1       5.587   2.588  -9.565  0.00  0.00     0.070 H 
ATOM     26  H   LIG d   1       5.874   0.874  -9.933  0.00  0.00     0.070 H 
ENDBRANCH   2   7
BRANCH   1  27
ATOM     27  C   LIG d   1       7.563  -4.273  -7.612  0.00  0.00    -0.022 C 
ATOM     28  H   LIG d   1       8.590  -4.111  -7.942  0.00  0.00     0.029 H 
ATOM     29  H   LIG d   1       7.361  -5.342  -7.561  0.00  0.00     0.029 H 
ATOM     30  H   LIG d   1       6.877  -3.806  -8.319  0.00  0.00     0.029 H 
ENDBRANCH   1  27
BRANCH   3  31
ATOM     31  C   LIG d   1       5.853  -1.416  -3.760  0.00  0.00    -0.005 A 
ATOM     32  C   LIG d   1       4.618  -1.770  -3.209  0.00  0.00    -0.096 A 
ATOM     33  C   LIG d   1       3.900  -0.840  -2.474  0.00  0.00    -0.027 A 
ATOM     34  O   LIG d   1       4.125  -3.023  -3.388  0.00  0.00    -0.873 OA
ATOM     35  C   LIG d   1       4.402   0.440  -2.297  0.00  0.00     0.116 A 
ATOM     36  H   LIG d   1       2.948  -1.111  -2.044  0.00  0.00     0.065 H 
ATOM     37  C   LIG d   1       5.626   0.794  -2.849  0.00  0.00    -0.020 A 
ATOM     38  C   LIG d   1       6.351  -0.127  -3.577  0.00  0.00    -0.050 A 
ATOM     39  H   LIG d   1       6.014   1.792  -2.708  0.00  0.00     0.065 H 
ATOM     40  H   LIG d   1       7.302   0.150  -4.006  0.00  0.00     0.062 H 
BRANCH  35  41
ATOM     41  O   LIG d   1       3.694   1.352  -1.581  0.00  0.00    -0.507 OA
ATOM     42  H   LIG d   1       3.465   2.150  -2.077  0.00  0.00     0.292 HD
ENDBRANCH  35  41
ENDBRANCH   3  31
TORSDOF 4
ENDMDL
MODEL 3
REMARK VINA RESULT:      -6.5      2.057      2.482
REMARK  4 active torsions:
REMARK  status: ('A' for Active; 'I' for Inactive)
REMARK    1  A    between atoms: C_1  and  C_2 
REMARK    2  A    between atoms: C_3  and  C_16 
REMARK    3  A    between atoms: C_4  and  C_8 
REMARK    4  A    between atoms: C_11  and  O_15 
ROOT
ATOM      1  C   LIG d   1       8.214  -2.802  -5.996  0.00  0.00     0.041 A 
ATOM      2  C   LIG d   1       7.312  -1.805  -5.775  0.00  0.00     0.030 A 
ATOM      3  C   LIG d   1       6.908  -1.887  -4.419  0.00  0.00     0.100 A 
ATOM      4  N   LIG d   1       7.549  -2.896  -3.869  0.00  0.00    -0.173 NA
ATOM      5  N   LIG d   1       8.366  -3.483  -4.841  0.00  0.00    -0.281 N 
ATOM      6  H   LIG d   1       8.947  -4.250  -4.707  0.00  0.00     0.189 HD
ENDROOT
BRANCH   2   7
ATOM      7  C   LIG d   1       6.840  -0.813  -6.773  0.00  0.00    -0.010 A 
ATOM      8  C   LIG d   1       5.624  -1.006  -7.429  0.00  0.00    -0.009 A 
ATOM      9  C   LIG d   1       5.191  -0.075  -8.354  0.00  0.00     0.163 A 
ATOM     10  H   LIG d   1       5.024  -1.877  -7.213  0.00  0.00     0.066 H 
ATOM     11  C   LIG d   1       5.966   1.043  -8.635  0.00  0.00     0.162 A 
ATOM     12  O   LIG d   1       4.002  -0.250  -9.000  0.00  0.00    -0.488 OA
ATOM     13  C   LIG d   1       7.176   1.235  -7.987  0.00  0.00    -0.016 A 
ATOM     14  O   LIG d   1       5.528   1.952  -9.555  0.00  0.00    -0.488 OA
ATOM     15  C   LIG d   1       7.614   0.311  -7.058  0.00  0.00    -0.050 A 
ATOM     16  H   LIG d   1       7.776   2.105  -8.209  0.00  0.00     0.066 H 
ATOM     17  H   LIG d   1       8.557   0.459  -6.553  0.00  0.00     0.062 H 
ATOM     18  C   LIG d   1       4.377   2.712  -9.184  0.00  0.00     0.093 C 
ATOM     19  C   LIG d   1       3.102   1.948  -9.499  0.00  0.00     0.016 C 
ATOM     20  H   LIG d   1       4.377   3.654  -9.733  0.00  0.00     0.070 H 
ATOM     21  H   LIG d   1       4.416   2.922  -8.115  0.00  0.00     0.070 H 
ATOM     22  C   LIG d   1       2.968   0.680  -8.672  0.00  0.00     0.093 C 
ATOM     23  H   LIG d   1       3.100   1.684 -10.556  0.00  0.00     0.033 H 
ATOM     24  H   LIG d   1       2.245   2.593  -9.297  0.00  0.00     0.033 H 
ATOM     25  H   LIG d   1       1.998   0.222  -8.870  0.00  0.00     0.070 H 
ATOM     26  H   LIG d   1       3.035   0.931  -7.614  0.00  0.00     0.070 H 
ENDBRANCH   2   7
BRANCH   1  27
ATOM     27  C   LIG d   1       8.911  -3.097  -7.299  0.00  0.00    -0.022 C 
ATOM     28  H   LIG d   1       9.620  -3.912  -7.155  0.00  0.00     0.029 H 
ATOM     29  H   LIG d   1       8.175  -3.383  -8.049  0.00  0.00     0.029 H 
ATOM     30  H   LIG d   1       9.444  -2.207  -7.635  0.00  0.00     0.029 H 
ENDBRANCH   1  27
BRANCH   3  31
ATOM     31  C   LIG d   1       5.936  -0.996  -3.742  0.00  0.00    -0.005 A 
ATOM     32  C   LIG d   1       4.635  -1.444  -3.486  0.00  0.00    -0.096 A 
ATOM     33  C   LIG d   1       3.733  -0.609  -2.848  0.00  0.00    -0.027 A 
ATOM     34  O   LIG d   1       4.260  -2.696  -3.857  0.00  0.00    -0.873 OA
ATOM     35  C   LIG d   1       4.116   0.671  -2.476  0.00  0.00     0.116 A 
ATOM     36  H   LIG d   1       2.730  -0.952  -2.646  0.00  0.00     0.065 H 
ATOM     37  C   LIG d   1       5.405   1.118  -2.735  0.00  0.00    -0.020 A 
ATOM     38  C   LIG d   1       6.312   0.291  -3.364  0.00  0.00    -0.050 A 
ATOM     39  H   LIG d   1       5.700   2.115  -2.442  0.00  0.00     0.065 H 
ATOM     40  H   LIG d   1       7.315   0.641  -3.565  0.00  0.00     0.062 H 
BRANCH  35  41
ATOM     41  O   LIG d   1       3.228   1.490  -1.855  0.00  0.00    -0.507 OA
ATOM     42  H   LIG d   1       2.576   1.886  -2.450  0.00  0.00     0.292 HD
ENDBRANCH  35  41
ENDBRANCH   3  31
TORSDOF 4
ENDMDL
MODEL 4
REMARK VINA RESULT:      -6.2      2.976      6.275
REMARK  4 active torsions:
REMARK  status: ('A' for Active; 'I' for Inactive)
REMARK    1  A    between atoms: C_1  and  C_2 
REMARK    2  A    between atoms: C_3  and  C_16 
REMARK    3  A    between atoms: C_4  and  C_8 
REMARK    4  A    between atoms: C_11  and  O_15 
ROOT
ATOM      1  C   LIG d   1       4.650   0.867  -9.541  0.00  0.00     0.041 A 
ATOM      2  C   LIG d   1       4.409  -0.184  -8.708  0.00  0.00     0.030 A 
ATOM      3  C   LIG d   1       4.582  -1.373  -9.461  0.00  0.00     0.100 A 
ATOM      4  N   LIG d   1       4.911  -1.028 -10.687  0.00  0.00    -0.173 NA
ATOM      5  N   LIG d   1       4.953   0.369 -10.757  0.00  0.00    -0.281 N 
ATOM      6  H   LIG d   1       5.166   0.891 -11.547  0.00  0.00     0.189 HD
ENDROOT
BRANCH   2   7
ATOM      7  C   LIG d   1       4.034  -0.100  -7.275  0.00  0.00    -0.010 A 
ATOM      8  C   LIG d   1       4.986  -0.357  -6.288  0.00  0.00    -0.009 A 
ATOM      9  C   LIG d   1       4.629  -0.272  -4.956  0.00  0.00     0.163 A 
ATOM     10  H   LIG d   1       5.998  -0.616  -6.564  0.00  0.00     0.066 H 
ATOM     11  C   LIG d   1       3.328   0.057  -4.601  0.00  0.00     0.162 A 
ATOM     12  O   LIG d   1       5.552  -0.518  -3.980  0.00  0.00    -0.488 OA
ATOM     13  C   LIG d   1       2.379   0.308  -5.579  0.00  0.00    -0.016 A 
ATOM     14  O   LIG d   1       2.987   0.132  -3.280  0.00  0.00    -0.488 OA
ATOM     15  C   LIG d   1       2.730   0.230  -6.914  0.00  0.00    -0.050 A 
ATOM     16  H   LIG d   1       1.368   0.564  -5.300  0.00  0.00     0.066 H 
ATOM     17  H   LIG d   1       1.991   0.425  -7.677  0.00  0.00     0.062 H 
ATOM     18  C   LIG d   1       3.572   1.206  -2.544  0.00  0.00     0.093 C 
ATOM     19  C   LIG d   1       4.959   0.829  -2.049  0.00  0.00     0.016 C 
ATOM     20  H   LIG d   1       2.938   1.443  -1.689  0.00  0.00     0.070 H 
ATOM     21  H   LIG d   1       3.647   2.084  -3.187  0.00  0.00     0.070 H 
ATOM     22  C   LIG d   1       5.940   0.608  -3.189  0.00  0.00     0.093 C 
ATOM     23  H   LIG d   1       4.888  -0.086  -1.461  0.00  0.00     0.033 H 
ATOM     24  H   LIG d   1       5.336   1.628  -1.410  0.00  0.00     0.033 H 
ATOM     25  H   LIG d   1       6.935   0.431  -2.778  0.00  0.00     0.070 H 
ATOM     26  H   LIG d   1       5.966   1.496  -3.819  0.00  0.00     0.070 H 
ENDBRANCH   2   7
BRANCH   1  27
ATOM     27  C   LIG d   1       4.583   2.326  -9.171  0.00  0.00    -0.022 C 
ATOM     28  H   LIG d   1       5.465   2.594  -8.588  0.00  0.00     0.029 H 
ATOM     29  H   LIG d   1       4.548   2.930 -10.077  0.00  0.00     0.029 H 
ATOM     30  H   LIG d   1       3.687   2.509  -8.577  0.00  0.00     0.029 H 
ENDBRANCH   1  27
BRANCH   3  31
ATOM     31  C   LIG d   1       4.421  -2.758  -8.956  0.00  0.00    -0.005 A 
ATOM     32  C   LIG d   1       3.219  -3.443  -9.163  0.00  0.00    -0.096 A 
ATOM     33  C   LIG d   1       3.076  -4.738  -8.693  0.00  0.00    -0.027 A 
ATOM     34  O   LIG d   1       2.197  -2.842  -9.826  0.00  0.00    -0.873 OA
ATOM     35  C   LIG d   1       4.118  -5.348  -8.011  0.00  0.00     0.116 A 
ATOM     36  H   LIG d   1       2.152  -5.272  -8.854  0.00  0.00     0.065 H 
ATOM     37  C   LIG d   1       5.309  -4.665  -7.801  0.00  0.00    -0.020 A 
ATOM     38  C   LIG d   1       5.463  -3.377  -8.270  0.00  0.00    -0.050 A 
ATOM     39  H   LIG d   1       6.119  -5.144  -7.269  0.00  0.00     0.065 H 
ATOM     40  H   LIG d   1       6.390  -2.848  -8.105  0.00  0.00     0.062 H 
BRANCH  35  41
ATOM     41  O   LIG d   1       3.974  -6.616  -7.547  0.00  0.00    -0.507 OA
ATOM     42  H   LIG d   1       3.877  -6.675  -6.587  0.00  0.00     0.292 HD
ENDBRANCH  35  41
ENDBRANCH   3  31
TORSDOF 4
ENDMDL
MODEL 5
REMARK VINA RESULT:      -6.2      4.193      6.458
REMARK  4 active torsions:
REMARK  status: ('A' for Active; 'I' for Inactive)
REMARK    1  A    between atoms: C_1  and  C_2 
REMARK    2  A    between atoms: C_3  and  C_16 
REMARK    3  A    between atoms: C_4  and  C_8 
REMARK    4  A    between atoms: C_11  and  O_15 
ROOT
ATOM      1  C   LIG d   1       9.556  -1.288  -5.684  0.00  0.00     0.041 A 
ATOM      2  C   LIG d   1       8.961  -2.221  -4.889  0.00  0.00     0.030 A 
ATOM      3  C   LIG d   1       9.933  -3.209  -4.590  0.00  0.00     0.100 A 
ATOM      4  N   LIG d   1      11.053  -2.865  -5.189  0.00  0.00    -0.173 NA
ATOM      5  N   LIG d   1      10.835  -1.669  -5.882  0.00  0.00    -0.281 N 
ATOM      6  H   LIG d   1      11.494  -1.193  -6.413  0.00  0.00     0.189 HD
ENDROOT
BRANCH   2   7
ATOM      7  C   LIG d   1       7.553  -2.206  -4.422  0.00  0.00    -0.010 A 
ATOM      8  C   LIG d   1       7.130  -1.238  -3.512  0.00  0.00    -0.009 A 
ATOM      9  C   LIG d   1       5.815  -1.229  -3.085  0.00  0.00     0.163 A 
ATOM     10  H   LIG d   1       7.825  -0.497  -3.145  0.00  0.00     0.066 H 
ATOM     11  C   LIG d   1       4.923  -2.185  -3.553  0.00  0.00     0.162 A 
ATOM     12  O   LIG d   1       5.387  -0.285  -2.197  0.00  0.00    -0.488 OA
ATOM     13  C   LIG d   1       5.342  -3.150  -4.454  0.00  0.00    -0.016 A 
ATOM     14  O   LIG d   1       3.628  -2.168  -3.118  0.00  0.00    -0.488 OA
ATOM     15  C   LIG d   1       6.654  -3.162  -4.889  0.00  0.00    -0.050 A 
ATOM     16  H   LIG d   1       4.645  -3.892  -4.816  0.00  0.00     0.066 H 
ATOM     17  H   LIG d   1       6.982  -3.914  -5.591  0.00  0.00     0.062 H 
ATOM     18  C   LIG d   1       2.837  -1.061  -3.555  0.00  0.00     0.093 C 
ATOM     19  C   LIG d   1       3.040   0.139  -2.645  0.00  0.00     0.016 C 
ATOM     20  H   LIG d   1       1.785  -1.346  -3.544  0.00  0.00     0.070 H 
ATOM     21  H   LIG d   1       3.124  -0.794  -4.572  0.00  0.00     0.070 H 
ATOM     22  C   LIG d   1       4.460   0.677  -2.704  0.00  0.00     0.093 C 
ATOM     23  H   LIG d   1       2.814  -0.152  -1.620  0.00  0.00     0.033 H 
ATOM     24  H   LIG d   1       2.351   0.930  -2.945  0.00  0.00     0.033 H 
ATOM     25  H   LIG d   1       4.525   1.587  -2.107  0.00  0.00     0.070 H 
ATOM     26  H   LIG d   1       4.715   0.909  -3.738  0.00  0.00     0.070 H 
ENDBRANCH   2   7
BRANCH   1  27
ATOM     27  C   LIG d   1       8.901  -0.053  -6.247  0.00  0.00    -0.022 C 
ATOM     28  H   LIG d   1       8.041   0.215  -5.632  0.00  0.00     0.029 H 
ATOM     29  H   LIG d   1       9.616   0.769  -6.250  0.00  0.00     0.029 H 
ATOM     30  H   LIG d   1       8.570  -0.251  -7.267  0.00  0.00     0.029 H 
ENDBRANCH   1  27
BRANCH   3  31
ATOM     31  C   LIG d   1       9.724  -4.414  -3.753  0.00  0.00    -0.005 A 
ATOM     32  C   LIG d   1       9.372  -5.629  -4.350  0.00  0.00    -0.096 A 
ATOM     33  C   LIG d   1       9.183  -6.753  -3.563  0.00  0.00    -0.027 A 
ATOM     34  O   LIG d   1       9.221  -5.708  -5.698  0.00  0.00    -0.873 OA
ATOM     35  C   LIG d   1       9.332  -6.670  -2.187  0.00  0.00     0.116 A 
ATOM     36  H   LIG d   1       8.915  -7.694  -4.020  0.00  0.00     0.065 H 
ATOM     37  C   LIG d   1       9.676  -5.462  -1.594  0.00  0.00    -0.020 A 
ATOM     38  C   LIG d   1       9.872  -4.339  -2.370  0.00  0.00    -0.050 A 
ATOM     39  H   LIG d   1       9.791  -5.402  -0.521  0.00  0.00     0.065 H 
ATOM     40  H   LIG d   1      10.139  -3.401  -1.906  0.00  0.00     0.062 H 
BRANCH  35  41
ATOM     41  O   LIG d   1       9.141  -7.772  -1.417  0.00  0.00    -0.507 OA
ATOM     42  H   LIG d   1       8.395  -8.322  -1.694  0.00  0.00     0.292 HD
ENDBRANCH  35  41
ENDBRANCH   3  31
TORSDOF 4
ENDMDL
MODEL 6
REMARK VINA RESULT:      -6.1      2.608      4.141
REMARK  4 active torsions:
REMARK  status: ('A' for Active; 'I' for Inactive)
REMARK    1  A    between atoms: C_1  and  C_2 
REMARK    2  A    between atoms: C_3  and  C_16 
REMARK    3  A    between atoms: C_4  and  C_8 
REMARK    4  A    between atoms: C_11  and  O_15 
ROOT
ATOM      1  C   LIG d   1       3.324  -0.915  -4.180  0.00  0.00     0.041 A 
ATOM      2  C   LIG d   1       4.173  -1.585  -5.008  0.00  0.00     0.030 A 
ATOM      3  C   LIG d   1       4.621  -2.739  -4.317  0.00  0.00     0.100 A 
ATOM      4  N   LIG d   1       4.054  -2.742  -3.129  0.00  0.00    -0.173 NA
ATOM      5  N   LIG d   1       3.244  -1.606  -3.023  0.00  0.00    -0.281 N 
ATOM      6  H   LIG d   1       2.712  -1.359  -2.250  0.00  0.00     0.189 HD
ENDROOT
BRANCH   2   7
ATOM      7  C   LIG d   1       4.559  -1.180  -6.382  0.00  0.00    -0.010 A 
ATOM      8  C   LIG d   1       3.851  -1.670  -7.479  0.00  0.00    -0.009 A 
ATOM      9  C   LIG d   1       4.215  -1.285  -8.755  0.00  0.00     0.163 A 
ATOM     10  H   LIG d   1       3.020  -2.345  -7.331  0.00  0.00     0.066 H 
ATOM     11  C   LIG d   1       5.286  -0.422  -8.946  0.00  0.00     0.162 A 
ATOM     12  O   LIG d   1       3.528  -1.755  -9.837  0.00  0.00    -0.488 OA
ATOM     13  C   LIG d   1       5.994   0.063  -7.857  0.00  0.00    -0.016 A 
ATOM     14  O   LIG d   1       5.638  -0.054 -10.212  0.00  0.00    -0.488 OA
ATOM     15  C   LIG d   1       5.633  -0.314  -6.578  0.00  0.00    -0.050 A 
ATOM     16  H   LIG d   1       6.827   0.734  -8.009  0.00  0.00     0.066 H 
ATOM     17  H   LIG d   1       6.184   0.063  -5.729  0.00  0.00     0.062 H 
ATOM     18  C   LIG d   1       4.707   0.780 -10.903  0.00  0.00     0.093 C 
ATOM     19  C   LIG d   1       3.624  -0.055 -11.568  0.00  0.00     0.016 C 
ATOM     20  H   LIG d   1       5.235   1.355 -11.664  0.00  0.00     0.070 H 
ATOM     21  H   LIG d   1       4.245   1.467 -10.193  0.00  0.00     0.070 H 
ATOM     22  C   LIG d   1       2.758  -0.790 -10.557  0.00  0.00     0.093 C 
ATOM     23  H   LIG d   1       4.095  -0.784 -12.227  0.00  0.00     0.033 H 
ATOM     24  H   LIG d   1       2.990   0.600 -12.166  0.00  0.00     0.033 H 
ATOM     25  H   LIG d   1       1.947  -1.296 -11.081  0.00  0.00     0.070 H 
ATOM     26  H   LIG d   1       2.337  -0.072  -9.854  0.00  0.00     0.070 H 
ENDBRANCH   2   7
BRANCH   1  27
ATOM     27  C   LIG d   1       2.606   0.372  -4.495  0.00  0.00    -0.022 C 
ATOM     28  H   LIG d   1       3.330   1.186  -4.555  0.00  0.00     0.029 H 
ATOM     29  H   LIG d   1       2.088   0.275  -5.449  0.00  0.00     0.029 H 
ATOM     30  H   LIG d   1       1.883   0.587  -3.709  0.00  0.00     0.029 H 
ENDBRANCH   1  27
BRANCH   3  31
ATOM     31  C   LIG d   1       5.561  -3.760  -4.839  0.00  0.00    -0.005 A 
ATOM     32  C   LIG d   1       5.069  -4.906  -5.471  0.00  0.00    -0.096 A 
ATOM     33  C   LIG d   1       5.952  -5.854  -5.961  0.00  0.00    -0.027 A 
ATOM     34  O   LIG d   1       3.729  -5.088  -5.608  0.00  0.00    -0.873 OA
ATOM     35  C   LIG d   1       7.318  -5.671  -5.815  0.00  0.00     0.116 A 
ATOM     36  H   LIG d   1       5.576  -6.739  -6.453  0.00  0.00     0.065 H 
ATOM     37  C   LIG d   1       7.807  -4.535  -5.183  0.00  0.00    -0.020 A 
ATOM     38  C   LIG d   1       6.935  -3.582  -4.696  0.00  0.00    -0.050 A 
ATOM     39  H   LIG d   1       8.872  -4.395  -5.071  0.00  0.00     0.065 H 
ATOM     40  H   LIG d   1       7.318  -2.700  -4.205  0.00  0.00     0.062 H 
BRANCH  35  41
ATOM     41  O   LIG d   1       8.182  -6.604  -6.292  0.00  0.00    -0.507 OA
ATOM     42  H   LIG d   1       8.891  -6.240  -6.841  0.00  0.00     0.292 HD
ENDBRANCH  35  41
ENDBRANCH   3  31
TORSDOF 4
ENDMDL
MODEL 7
REMARK VINA RESULT:      -6.0      2.697      6.162
REMARK  4 active torsions:
REMARK  status: ('A' for Active; 'I' for Inactive)
REMARK    1  A    between atoms: C_1  and  C_2 
REMARK    2  A    between atoms: C_3  and  C_16 
REMARK    3  A    between atoms: C_4  and  C_8 
REMARK    4  A    between atoms: C_11  and  O_15 
ROOT
ATOM      1  C   LIG d   1       3.958  -0.416  -3.268  0.00  0.00     0.041 A 
ATOM      2  C   LIG d   1       4.276  -0.921  -4.493  0.00  0.00     0.030 A 
ATOM      3  C   LIG d   1       3.777  -0.021  -5.468  0.00  0.00     0.100 A 
ATOM      4  N   LIG d   1       3.188   0.971  -4.835  0.00  0.00    -0.173 NA
ATOM      5  N   LIG d   1       3.287   0.739  -3.459  0.00  0.00    -0.281 N 
ATOM      6  H   LIG d   1       2.935   1.313  -2.759  0.00  0.00     0.189 HD
ENDROOT
BRANCH   2   7
ATOM      7  C   LIG d   1       5.012  -2.181  -4.758  0.00  0.00    -0.010 A 
ATOM      8  C   LIG d   1       4.313  -3.377  -4.924  0.00  0.00    -0.009 A 
ATOM      9  C   LIG d   1       5.007  -4.546  -5.174  0.00  0.00     0.163 A 
ATOM     10  H   LIG d   1       3.235  -3.388  -4.860  0.00  0.00     0.066 H 
ATOM     11  C   LIG d   1       6.393  -4.532  -5.250  0.00  0.00     0.162 A 
ATOM     12  O   LIG d   1       4.334  -5.721  -5.341  0.00  0.00    -0.488 OA
ATOM     13  C   LIG d   1       7.091  -3.346  -5.082  0.00  0.00    -0.016 A 
ATOM     14  O   LIG d   1       7.066  -5.695  -5.493  0.00  0.00    -0.488 OA
ATOM     15  C   LIG d   1       6.404  -2.173  -4.836  0.00  0.00    -0.050 A 
ATOM     16  H   LIG d   1       8.169  -3.340  -5.142  0.00  0.00     0.066 H 
ATOM     17  H   LIG d   1       6.946  -1.249  -4.704  0.00  0.00     0.062 H 
ATOM     18  C   LIG d   1       6.894  -6.258  -6.794  0.00  0.00     0.093 C 
ATOM     19  C   LIG d   1       5.634  -7.106  -6.853  0.00  0.00     0.016 C 
ATOM     20  H   LIG d   1       7.757  -6.879  -7.034  0.00  0.00     0.070 H 
ATOM     21  H   LIG d   1       6.819  -5.453  -7.526  0.00  0.00     0.070 H 
ATOM     22  C   LIG d   1       4.372  -6.283  -6.655  0.00  0.00     0.093 C 
ATOM     23  H   LIG d   1       5.685  -7.868  -6.076  0.00  0.00     0.033 H 
ATOM     24  H   LIG d   1       5.584  -7.599  -7.825  0.00  0.00     0.033 H 
ATOM     25  H   LIG d   1       3.500  -6.921  -6.797  0.00  0.00     0.070 H 
ATOM     26  H   LIG d   1       4.348  -5.477  -7.389  0.00  0.00     0.070 H 
ENDBRANCH   2   7
BRANCH   1  27
ATOM     27  C   LIG d   1       4.291  -1.040  -1.937  0.00  0.00    -0.022 C 
ATOM     28  H   LIG d   1       3.866  -2.043  -1.890  0.00  0.00     0.029 H 
ATOM     29  H   LIG d   1       5.372  -1.097  -1.822  0.00  0.00     0.029 H 
ATOM     30  H   LIG d   1       3.872  -0.430  -1.136  0.00  0.00     0.029 H 
ENDBRANCH   1  27
BRANCH   3  31
ATOM     31  C   LIG d   1       3.896  -0.172  -6.938  0.00  0.00    -0.005 A 
ATOM     32  C   LIG d   1       5.095   0.152  -7.580  0.00  0.00    -0.096 A 
ATOM     33  C   LIG d   1       5.202   0.005  -8.953  0.00  0.00    -0.027 A 
ATOM     34  O   LIG d   1       6.154   0.606  -6.860  0.00  0.00    -0.873 OA
ATOM     35  C   LIG d   1       4.118  -0.453  -9.688  0.00  0.00     0.116 A 
ATOM     36  H   LIG d   1       6.127   0.250  -9.452  0.00  0.00     0.065 H 
ATOM     37  C   LIG d   1       2.926  -0.769  -9.051  0.00  0.00    -0.020 A 
ATOM     38  C   LIG d   1       2.812  -0.631  -7.683  0.00  0.00    -0.050 A 
ATOM     39  H   LIG d   1       2.084  -1.126  -9.627  0.00  0.00     0.065 H 
ATOM     40  H   LIG d   1       1.883  -0.878  -7.190  0.00  0.00     0.062 H 
BRANCH  35  41
ATOM     41  O   LIG d   1       4.224  -0.592 -11.035  0.00  0.00    -0.507 OA
ATOM     42  H   LIG d   1       3.377  -0.552 -11.502  0.00  0.00     0.292 HD
ENDBRANCH  35  41
ENDBRANCH   3  31
TORSDOF 4
ENDMDL
MODEL 8
REMARK VINA RESULT:      -6.0      3.770      6.833
REMARK  4 active torsions:
REMARK  status: ('A' for Active; 'I' for Inactive)
REMARK    1  A    between atoms: C_1  and  C_2 
REMARK    2  A    between atoms: C_3  and  C_16 
REMARK    3  A    between atoms: C_4  and  C_8 
REMARK    4  A    between atoms: C_11  and  O_15 
ROOT
ATOM      1  C   LIG d   1       4.731  -0.780  -2.668  0.00  0.00     0.041 A 
ATOM      2  C   LIG d   1       5.878  -0.784  -3.402  0.00  0.00     0.030 A 
ATOM      3  C   LIG d   1       6.234   0.566  -3.646  0.00  0.00     0.100 A 
ATOM      4  N   LIG d   1       5.327   1.330  -3.076  0.00  0.00    -0.173 NA
ATOM      5  N   LIG d   1       4.376   0.506  -2.464  0.00  0.00    -0.281 N 
ATOM      6  H   LIG d   1       3.594   0.808  -1.973  0.00  0.00     0.189 HD
ENDROOT
BRANCH   2   7
ATOM      7  C   LIG d   1       6.621  -1.984  -3.863  0.00  0.00    -0.010 A 
ATOM      8  C   LIG d   1       7.822  -2.338  -3.250  0.00  0.00    -0.009 A 
ATOM      9  C   LIG d   1       8.505  -3.460  -3.683  0.00  0.00     0.163 A 
ATOM     10  H   LIG d   1       8.215  -1.742  -2.440  0.00  0.00     0.066 H 
ATOM     11  C   LIG d   1       8.003  -4.223  -4.728  0.00  0.00     0.162 A 
ATOM     12  O   LIG d   1       9.681  -3.820  -3.090  0.00  0.00    -0.488 OA
ATOM     13  C   LIG d   1       6.810  -3.870  -5.341  0.00  0.00    -0.016 A 
ATOM     14  O   LIG d   1       8.690  -5.325  -5.149  0.00  0.00    -0.488 OA
ATOM     15  C   LIG d   1       6.120  -2.754  -4.911  0.00  0.00    -0.050 A 
ATOM     16  H   LIG d   1       6.422  -4.467  -6.153  0.00  0.00     0.066 H 
ATOM     17  H   LIG d   1       5.191  -2.477  -5.388  0.00  0.00     0.062 H 
ATOM     18  C   LIG d   1       8.739  -6.420  -4.233  0.00  0.00     0.093 C 
ATOM     19  C   LIG d   1       9.869  -6.236  -3.233  0.00  0.00     0.016 C 
ATOM     20  H   LIG d   1       8.897  -7.345  -4.787  0.00  0.00     0.070 H 
ATOM     21  H   LIG d   1       7.792  -6.481  -3.697  0.00  0.00     0.070 H 
ATOM     22  C   LIG d   1       9.654  -5.031  -2.331  0.00  0.00     0.093 C 
ATOM     23  H   LIG d   1      10.805  -6.109  -3.776  0.00  0.00     0.033 H 
ATOM     24  H   LIG d   1       9.942  -7.131  -2.613  0.00  0.00     0.033 H 
ATOM     25  H   LIG d   1      10.442  -4.999  -1.579  0.00  0.00     0.070 H 
ATOM     26  H   LIG d   1       8.688  -5.120  -1.835  0.00  0.00     0.070 H 
ENDBRANCH   2   7
BRANCH   1  27
ATOM     27  C   LIG d   1       3.986  -1.995  -2.177  0.00  0.00    -0.022 C 
ATOM     28  H   LIG d   1       4.658  -2.853  -2.166  0.00  0.00     0.029 H 
ATOM     29  H   LIG d   1       3.613  -1.811  -1.170  0.00  0.00     0.029 H 
ATOM     30  H   LIG d   1       3.147  -2.200  -2.843  0.00  0.00     0.029 H 
ENDBRANCH   1  27
BRANCH   3  31
ATOM     31  C   LIG d   1       7.416   1.034  -4.408  0.00  0.00    -0.005 A 
ATOM     32  C   LIG d   1       7.418   0.974  -5.805  0.00  0.00    -0.096 A 
ATOM     33  C   LIG d   1       8.524   1.417  -6.512  0.00  0.00    -0.027 A 
ATOM     34  O   LIG d   1       6.337   0.486  -6.468  0.00  0.00    -0.873 OA
ATOM     35  C   LIG d   1       9.629   1.909  -5.833  0.00  0.00     0.116 A 
ATOM     36  H   LIG d   1       8.528   1.375  -7.590  0.00  0.00     0.065 H 
ATOM     37  C   LIG d   1       9.629   1.964  -4.446  0.00  0.00    -0.020 A 
ATOM     38  C   LIG d   1       8.530   1.530  -3.734  0.00  0.00    -0.050 A 
ATOM     39  H   LIG d   1      10.492   2.349  -3.921  0.00  0.00     0.065 H 
ATOM     40  H   LIG d   1       8.533   1.574  -2.655  0.00  0.00     0.062 H 
BRANCH  35  41
ATOM     41  O   LIG d   1      10.714   2.339  -6.528  0.00  0.00    -0.507 OA
ATOM     42  H   LIG d   1      11.532   1.872  -6.308  0.00  0.00     0.292 HD
ENDBRANCH  35  41
ENDBRANCH   3  31
TORSDOF 4
ENDMDL
MODEL 9
REMARK VINA RESULT:      -5.9      2.455      3.305
REMARK  4 active torsions:
REMARK  status: ('A' for Active; 'I' for Inactive)
REMARK    1  A    between atoms: C_1  and  C_2 
REMARK    2  A    between atoms: C_3  and  C_16 
REMARK    3  A    between atoms: C_4  and  C_8 
REMARK    4  A    between atoms: C_11  and  O_15 
ROOT
ATOM      1  C   LIG d   1       6.173  -4.553  -6.040  0.00  0.00     0.041 A 
ATOM      2  C   LIG d   1       6.153  -3.285  -5.542  0.00  0.00     0.030 A 
ATOM      3  C   LIG d   1       4.986  -3.156  -4.747  0.00  0.00     0.100 A 
ATOM      4  N   LIG d   1       4.348  -4.307  -4.780  0.00  0.00    -0.173 NA
ATOM      5  N   LIG d   1       5.072  -5.190  -5.588  0.00  0.00    -0.281 N 
ATOM      6  H   LIG d   1       4.827  -6.108  -5.788  0.00  0.00     0.189 HD
ENDROOT
BRANCH   2   7
ATOM      7  C   LIG d   1       7.168  -2.230  -5.787  0.00  0.00    -0.010 A 
ATOM      8  C   LIG d   1       7.072  -1.418  -6.916  0.00  0.00    -0.009 A 
ATOM      9  C   LIG d   1       8.020  -0.436  -7.134  0.00  0.00     0.163 A 
ATOM     10  H   LIG d   1       6.260  -1.553  -7.615  0.00  0.00     0.066 H 
ATOM     11  C   LIG d   1       9.068  -0.265  -6.239  0.00  0.00     0.162 A 
ATOM     12  O   LIG d   1       7.937   0.368  -8.234  0.00  0.00    -0.488 OA
ATOM     13  C   LIG d   1       9.167  -1.074  -5.117  0.00  0.00    -0.016 A 
ATOM     14  O   LIG d   1      10.000   0.705  -6.469  0.00  0.00    -0.488 OA
ATOM     15  C   LIG d   1       8.220  -2.055  -4.891  0.00  0.00    -0.050 A 
ATOM     16  H   LIG d   1       9.983  -0.938  -4.423  0.00  0.00     0.066 H 
ATOM     17  H   LIG d   1       8.297  -2.686  -4.018  0.00  0.00     0.062 H 
ATOM     18  C   LIG d   1       9.542   2.053  -6.354  0.00  0.00     0.093 C 
ATOM     19  C   LIG d   1       8.901   2.518  -7.651  0.00  0.00     0.016 C 
ATOM     20  H   LIG d   1      10.386   2.700  -6.118  0.00  0.00     0.070 H 
ATOM     21  H   LIG d   1       8.808   2.115  -5.549  0.00  0.00     0.070 H 
ATOM     22  C   LIG d   1       7.637   1.743  -7.983  0.00  0.00     0.093 C 
ATOM     23  H   LIG d   1       9.617   2.392  -8.463  0.00  0.00     0.033 H 
ATOM     24  H   LIG d   1       8.653   3.577  -7.563  0.00  0.00     0.033 H 
ATOM     25  H   LIG d   1       7.172   2.176  -8.869  0.00  0.00     0.070 H 
ATOM     26  H   LIG d   1       6.943   1.810  -7.146  0.00  0.00     0.070 H 
ENDBRANCH   2   7
BRANCH   1  27
ATOM     27  C   LIG d   1       7.230  -5.137  -6.940  0.00  0.00    -0.022 C 
ATOM     28  H   LIG d   1       7.527  -6.117  -6.564  0.00  0.00     0.029 H 
ATOM     29  H   LIG d   1       6.833  -5.240  -7.949  0.00  0.00     0.029 H 
ATOM     30  H   LIG d   1       8.098  -4.477  -6.957  0.00  0.00     0.029 H 
ENDBRANCH   1  27
BRANCH   3  31
ATOM     31  C   LIG d   1       4.561  -1.943  -4.010  0.00  0.00    -0.005 A 
ATOM     32  C   LIG d   1       3.990  -0.868  -4.700  0.00  0.00    -0.096 A 
ATOM     33  C   LIG d   1       3.590   0.262  -4.005  0.00  0.00    -0.027 A 
ATOM     34  O   LIG d   1       3.825  -0.933  -6.046  0.00  0.00    -0.873 OA
ATOM     35  C   LIG d   1       3.765   0.329  -2.631  0.00  0.00     0.116 A 
ATOM     36  H   LIG d   1       3.146   1.091  -4.533  0.00  0.00     0.065 H 
ATOM     37  C   LIG d   1       4.337  -0.736  -1.946  0.00  0.00    -0.020 A 
ATOM     38  C   LIG d   1       4.733  -1.867  -2.629  0.00  0.00    -0.050 A 
ATOM     39  H   LIG d   1       4.471  -0.679  -0.876  0.00  0.00     0.065 H 
ATOM     40  H   LIG d   1       5.177  -2.694  -2.094  0.00  0.00     0.062 H 
BRANCH  35  41
ATOM     41  O   LIG d   1       3.377   1.439  -1.952  0.00  0.00    -0.507 OA
ATOM     42  H   LIG d   1       2.423   1.599  -1.972  0.00  0.00     0.292 HD
ENDBRANCH  35  41
ENDBRANCH   3  31
TORSDOF 4
ENDMDL
