MODEL 1
REMARK VINA RESULT:      -6.3      0.000      0.000
REMARK  7 active torsions:
REMARK  status: ('A' for Active; 'I' for Inactive)
REMARK    1  A    between atoms: C_4  and  C_7 
REMARK    2  A    between atoms: C_9  and  C_14 
REMARK    3  A    between atoms: C_14  and  C_15 
REMARK    4  A    between atoms: C_15  and  O_17 
REMARK    5  A    between atoms: O_17  and  C_18 
REMARK    6  A    between atoms: C_18  and  C_19 
REMARK    7  A    between atoms: C_19  and  C_21 
ROOT
ATOM      1  C   LIG d   1       3.849  -0.872  -8.496  0.00  0.00     0.074 C 
ATOM      2  H   LIG d   1       3.446  -1.324  -9.403  0.00  0.00     0.040 H 
ATOM      3  H   LIG d   1       3.432  -1.378  -7.624  0.00  0.00     0.040 H 
ENDROOT
BRANCH   1   4
ATOM      4  C   LIG d   1       5.372  -1.012  -8.489  0.00  0.00     0.102 C 
ATOM      5  C   LIG d   1       6.003   0.028  -7.538  0.00  0.00     0.113 C 
ATOM      6  H   LIG d   1       5.328   0.870  -7.382  0.00  0.00     0.067 H 
ATOM      7  O   LIG d   1       7.188   0.447  -8.259  0.00  0.00    -0.344 OA
ATOM      8  C   LIG d   1       6.755   0.446  -9.636  0.00  0.00     0.149 C 
ATOM      9  O   LIG d   1       5.908  -0.706  -9.789  0.00  0.00    -0.347 OA
ATOM     10  H   LIG d   1       7.615   0.370 -10.300  0.00  0.00     0.087 H 
ATOM     11  H   LIG d   1       6.193   1.356  -9.853  0.00  0.00     0.087 H 
ATOM     12  H   LIG d   1       5.657  -2.021  -8.190  0.00  0.00     0.063 H 
BRANCH   5  13
ATOM     13  C   LIG d   1       6.377  -0.608  -6.223  0.00  0.00    -0.016 A 
ATOM     14  C   LIG d   1       6.914   0.163  -5.211  0.00  0.00    -0.056 A 
ATOM     15  C   LIG d   1       7.257  -0.420  -4.005  0.00  0.00    -0.061 A 
ATOM     16  H   LIG d   1       7.067   1.222  -5.361  0.00  0.00     0.062 H 
ATOM     17  C   LIG d   1       7.060  -1.775  -3.812  0.00  0.00    -0.062 A 
ATOM     18  H   LIG d   1       7.677   0.183  -3.214  0.00  0.00     0.062 H 
ATOM     19  C   LIG d   1       6.522  -2.546  -4.824  0.00  0.00    -0.061 A 
ATOM     20  H   LIG d   1       7.328  -2.230  -2.870  0.00  0.00     0.062 H 
ATOM     21  C   LIG d   1       6.176  -1.962  -6.029  0.00  0.00    -0.056 A 
ATOM     22  H   LIG d   1       6.369  -3.605  -4.675  0.00  0.00     0.062 H 
ATOM     23  H   LIG d   1       5.752  -2.565  -6.818  0.00  0.00     0.062 H 
ENDBRANCH   5  13
ENDBRANCH   1   4
BRANCH   1  24
ATOM     24  C   LIG d   1       3.477   0.588  -8.455  0.00  0.00     0.310 C 
ATOM     25  O   LIG d   1       3.473   1.239  -9.472  0.00  0.00    -0.251 OA
BRANCH  24  26
ATOM     26  O   LIG d   1       3.151   1.164  -7.287  0.00  0.00    -0.457 OA
BRANCH  26  27
ATOM     27  C   LIG d   1       2.663   0.290  -6.236  0.00  0.00     0.155 C 
ATOM     28  H   LIG d   1       1.704   0.063  -6.409  0.00  0.00     0.078 H 
ATOM     29  H   LIG d   1       3.255  -0.625  -6.218  0.00  0.00     0.078 H 
BRANCH  27  30
ATOM     30  C   LIG d   1       2.781   0.989  -4.906  0.00  0.00     0.200 C 
ATOM     31  O   LIG d   1       2.418   2.140  -4.792  0.00  0.00    -0.288 OA
BRANCH  30  32
ATOM     32  C   LIG d   1       3.336   0.275  -3.746  0.00  0.00     0.021 A 
ATOM     33  C   LIG d   1       4.019   0.979  -2.747  0.00  0.00    -0.051 A 
ATOM     34  C   LIG d   1       4.538   0.302  -1.663  0.00  0.00    -0.061 A 
ATOM     35  H   LIG d   1       4.139   2.049  -2.826  0.00  0.00     0.062 H 
ATOM     36  C   LIG d   1       4.384  -1.070  -1.562  0.00  0.00    -0.062 A 
ATOM     37  H   LIG d   1       5.064   0.844  -0.892  0.00  0.00     0.062 H 
ATOM     38  C   LIG d   1       3.710  -1.774  -2.545  0.00  0.00    -0.061 A 
ATOM     39  H   LIG d   1       4.791  -1.594  -0.710  0.00  0.00     0.062 H 
ATOM     40  C   LIG d   1       3.182  -1.110  -3.633  0.00  0.00    -0.051 A 
ATOM     41  H   LIG d   1       3.595  -2.844  -2.459  0.00  0.00     0.062 H 
ATOM     42  H   LIG d   1       2.653  -1.660  -4.397  0.00  0.00     0.062 H 
ENDBRANCH  30  32
ENDBRANCH  27  30
ENDBRANCH  26  27
ENDBRANCH  24  26
ENDBRANCH   1  24
TORSDOF 7
ENDMDL
MODEL 2
REMARK VINA RESULT:      -6.2      2.437      4.732
REMARK  7 active torsions:
REMARK  status: ('A' for Active; 'I' for Inactive)
REMARK    1  A    between atoms: C_4  and  C_7 
REMARK    2  A    between atoms: C_9  and  C_14 
REMARK    3  A    between atoms: C_14  and  C_15 
REMARK    4  A    between atoms: C_15  and  O_17 
REMARK    5  A    between atoms: O_17  and  C_18 
REMARK    6  A    between atoms: C_18  and  C_19 
REMARK    7  A    between atoms: C_19  and  C_21 
ROOT
ATOM      1  C   LIG d   1       3.910  -2.987  -7.761  0.00  0.00     0.074 C 
ATOM      2  H   LIG d   1       3.123  -2.583  -7.125  0.00  0.00     0.040 H 
ATOM      3  H   LIG d   1       3.902  -4.076  -7.700  0.00  0.00     0.040 H 
ENDROOT
BRANCH   1   4
ATOM      4  C   LIG d   1       3.670  -2.555  -9.208  0.00  0.00     0.102 C 
ATOM      5  C   LIG d   1       2.439  -1.627  -9.296  0.00  0.00     0.113 C 
ATOM      6  H   LIG d   1       1.780  -1.777  -8.441  0.00  0.00     0.067 H 
ATOM      7  O   LIG d   1       1.796  -2.058 -10.520  0.00  0.00    -0.344 OA
ATOM      8  C   LIG d   1       2.006  -3.486 -10.519  0.00  0.00     0.149 C 
ATOM      9  O   LIG d   1       3.338  -3.695 -10.022  0.00  0.00    -0.347 OA
ATOM     10  H   LIG d   1       1.917  -3.880 -11.531  0.00  0.00     0.087 H 
ATOM     11  H   LIG d   1       1.281  -3.972  -9.863  0.00  0.00     0.087 H 
ATOM     12  H   LIG d   1       4.553  -2.052  -9.604  0.00  0.00     0.063 H 
BRANCH   5  13
ATOM     13  C   LIG d   1       2.864  -0.185  -9.397  0.00  0.00    -0.016 A 
ATOM     14  C   LIG d   1       3.452   0.283 -10.557  0.00  0.00    -0.056 A 
ATOM     15  C   LIG d   1       3.842   1.606 -10.651  0.00  0.00    -0.061 A 
ATOM     16  H   LIG d   1       3.607  -0.386 -11.392  0.00  0.00     0.062 H 
ATOM     17  C   LIG d   1       3.643   2.462  -9.583  0.00  0.00    -0.062 A 
ATOM     18  H   LIG d   1       4.302   1.970 -11.557  0.00  0.00     0.062 H 
ATOM     19  C   LIG d   1       3.054   1.995  -8.424  0.00  0.00    -0.061 A 
ATOM     20  H   LIG d   1       3.948   3.495  -9.656  0.00  0.00     0.062 H 
ATOM     21  C   LIG d   1       2.661   0.673  -8.332  0.00  0.00    -0.056 A 
ATOM     22  H   LIG d   1       2.900   2.663  -7.589  0.00  0.00     0.062 H 
ATOM     23  H   LIG d   1       2.198   0.310  -7.427  0.00  0.00     0.062 H 
ENDBRANCH   5  13
ENDBRANCH   1   4
BRANCH   1  24
ATOM     24  C   LIG d   1       5.247  -2.468  -7.297  0.00  0.00     0.310 C 
ATOM     25  O   LIG d   1       5.670  -1.421  -7.724  0.00  0.00    -0.251 OA
BRANCH  24  26
ATOM     26  O   LIG d   1       5.967  -3.171  -6.408  0.00  0.00    -0.457 OA
BRANCH  26  27
ATOM     27  C   LIG d   1       6.227  -2.540  -5.126  0.00  0.00     0.155 C 
ATOM     28  H   LIG d   1       6.956  -3.035  -4.652  0.00  0.00     0.078 H 
ATOM     29  H   LIG d   1       6.535  -1.506  -5.285  0.00  0.00     0.078 H 
BRANCH  27  30
ATOM     30  C   LIG d   1       4.974  -2.568  -4.289  0.00  0.00     0.200 C 
ATOM     31  O   LIG d   1       4.371  -3.608  -4.136  0.00  0.00    -0.288 OA
BRANCH  30  32
ATOM     32  C   LIG d   1       4.485  -1.332  -3.657  0.00  0.00     0.021 A 
ATOM     33  C   LIG d   1       4.860  -1.016  -2.347  0.00  0.00    -0.051 A 
ATOM     34  C   LIG d   1       4.396   0.144  -1.761  0.00  0.00    -0.061 A 
ATOM     35  H   LIG d   1       5.511  -1.678  -1.795  0.00  0.00     0.062 H 
ATOM     36  C   LIG d   1       3.562   0.993  -2.467  0.00  0.00    -0.062 A 
ATOM     37  H   LIG d   1       4.685   0.390  -0.750  0.00  0.00     0.062 H 
ATOM     38  C   LIG d   1       3.186   0.688  -3.763  0.00  0.00    -0.061 A 
ATOM     39  H   LIG d   1       3.203   1.900  -2.003  0.00  0.00     0.062 H 
ATOM     40  C   LIG d   1       3.645  -0.466  -4.364  0.00  0.00    -0.051 A 
ATOM     41  H   LIG d   1       2.534   1.355  -4.307  0.00  0.00     0.062 H 
ATOM     42  H   LIG d   1       3.354  -0.701  -5.377  0.00  0.00     0.062 H 
ENDBRANCH  30  32
ENDBRANCH  27  30
ENDBRANCH  26  27
ENDBRANCH  24  26
ENDBRANCH   1  24
TORSDOF 7
ENDMDL
MODEL 3
REMARK VINA RESULT:      -6.1      1.923      3.033
REMARK  7 active torsions:
REMARK  status: ('A' for Active; 'I' for Inactive)
REMARK    1  A    between atoms: C_4  and  C_7 
REMARK    2  A    between atoms: C_9  and  C_14 
REMARK    3  A    between atoms: C_14  and  C_15 
REMARK    4  A    between atoms: C_15  and  O_17 
REMARK    5  A    between atoms: O_17  and  C_18 
REMARK    6  A    between atoms: C_18  and  C_19 
REMARK    7  A    between atoms: C_19  and  C_21 
ROOT
ATOM      1  C   LIG d   1       5.667  -1.503  -7.312  0.00  0.00     0.074 C 
ATOM      2  H   LIG d   1       6.368  -0.882  -7.869  0.00  0.00     0.040 H 
ATOM      3  H   LIG d   1       5.701  -2.523  -7.697  0.00  0.00     0.040 H 
ENDROOT
BRANCH   1   4
ATOM      4  C   LIG d   1       6.051  -1.504  -5.832  0.00  0.00     0.102 C 
ATOM      5  C   LIG d   1       7.574  -1.302  -5.670  0.00  0.00     0.113 C 
ATOM      6  H   LIG d   1       8.100  -1.589  -6.580  0.00  0.00     0.067 H 
ATOM      7  O   LIG d   1       7.905  -2.197  -4.581  0.00  0.00    -0.344 OA
ATOM      8  C   LIG d   1       7.039  -3.330  -4.809  0.00  0.00     0.149 C 
ATOM      9  O   LIG d   1       5.780  -2.790  -5.245  0.00  0.00    -0.347 OA
ATOM     10  H   LIG d   1       6.907  -3.892  -3.886  0.00  0.00     0.087 H 
ATOM     11  H   LIG d   1       7.459  -3.973  -5.583  0.00  0.00     0.087 H 
ATOM     12  H   LIG d   1       5.507  -0.723  -5.300  0.00  0.00     0.063 H 
BRANCH   5  13
ATOM     13  C   LIG d   1       7.886   0.126  -5.300  0.00  0.00    -0.016 A 
ATOM     14  C   LIG d   1       7.588   0.592  -4.034  0.00  0.00    -0.056 A 
ATOM     15  C   LIG d   1       7.875   1.901  -3.693  0.00  0.00    -0.061 A 
ATOM     16  H   LIG d   1       7.131  -0.066  -3.309  0.00  0.00     0.062 H 
ATOM     17  C   LIG d   1       8.461   2.743  -4.621  0.00  0.00    -0.062 A 
ATOM     18  H   LIG d   1       7.641   2.265  -2.704  0.00  0.00     0.062 H 
ATOM     19  C   LIG d   1       8.760   2.277  -5.886  0.00  0.00    -0.061 A 
ATOM     20  H   LIG d   1       8.685   3.766  -4.355  0.00  0.00     0.062 H 
ATOM     21  C   LIG d   1       8.477   0.967  -6.225  0.00  0.00    -0.056 A 
ATOM     22  H   LIG d   1       9.217   2.935  -6.611  0.00  0.00     0.062 H 
ATOM     23  H   LIG d   1       8.714   0.602  -7.213  0.00  0.00     0.062 H 
ENDBRANCH   5  13
ENDBRANCH   1   4
BRANCH   1  24
ATOM     24  C   LIG d   1       4.273  -0.953  -7.469  0.00  0.00     0.310 C 
ATOM     25  O   LIG d   1       3.453  -1.561  -8.116  0.00  0.00    -0.251 OA
BRANCH  24  26
ATOM     26  O   LIG d   1       3.942   0.212  -6.891  0.00  0.00    -0.457 OA
BRANCH  26  27
ATOM     27  C   LIG d   1       2.627   0.295  -6.282  0.00  0.00     0.155 C 
ATOM     28  H   LIG d   1       2.010   0.798  -6.888  0.00  0.00     0.078 H 
ATOM     29  H   LIG d   1       2.237  -0.710  -6.120  0.00  0.00     0.078 H 
BRANCH  27  30
ATOM     30  C   LIG d   1       2.729   1.014  -4.961  0.00  0.00     0.200 C 
ATOM     31  O   LIG d   1       2.317   2.149  -4.855  0.00  0.00    -0.288 OA
BRANCH  30  32
ATOM     32  C   LIG d   1       3.330   0.337  -3.801  0.00  0.00     0.021 A 
ATOM     33  C   LIG d   1       3.171  -1.043  -3.632  0.00  0.00    -0.051 A 
ATOM     34  C   LIG d   1       3.737  -1.670  -2.542  0.00  0.00    -0.061 A 
ATOM     35  H   LIG d   1       2.607  -1.615  -4.353  0.00  0.00     0.062 H 
ATOM     36  C   LIG d   1       4.461  -0.938  -1.616  0.00  0.00    -0.062 A 
ATOM     37  H   LIG d   1       3.616  -2.735  -2.410  0.00  0.00     0.062 H 
ATOM     38  C   LIG d   1       4.623   0.427  -1.776  0.00  0.00    -0.061 A 
ATOM     39  H   LIG d   1       4.902  -1.435  -0.766  0.00  0.00     0.062 H 
ATOM     40  C   LIG d   1       4.067   1.068  -2.864  0.00  0.00    -0.051 A 
ATOM     41  H   LIG d   1       5.188   0.992  -1.050  0.00  0.00     0.062 H 
ATOM     42  H   LIG d   1       4.198   2.133  -2.990  0.00  0.00     0.062 H 
ENDBRANCH  30  32
ENDBRANCH  27  30
ENDBRANCH  26  27
ENDBRANCH  24  26
ENDBRANCH   1  24
TORSDOF 7
ENDMDL
MODEL 4
REMARK VINA RESULT:      -6.1      2.323      5.386
REMARK  7 active torsions:
REMARK  status: ('A' for Active; 'I' for Inactive)
REMARK    1  A    between atoms: C_4  and  C_7 
REMARK    2  A    between atoms: C_9  and  C_14 
REMARK    3  A    between atoms: C_14  and  C_15 
REMARK    4  A    between atoms: C_15  and  O_17 
REMARK    5  A    between atoms: O_17  and  C_18 
REMARK    6  A    between atoms: C_18  and  C_19 
REMARK    7  A    between atoms: C_19  and  C_21 
ROOT
ATOM      1  C   LIG d   1       6.539  -1.574  -6.749  0.00  0.00     0.074 C 
ATOM      2  H   LIG d   1       7.524  -1.111  -6.689  0.00  0.00     0.040 H 
ATOM      3  H   LIG d   1       6.503  -2.236  -7.615  0.00  0.00     0.040 H 
ENDROOT
BRANCH   1   4
ATOM      4  C   LIG d   1       6.277  -2.382  -5.478  0.00  0.00     0.102 C 
ATOM      5  C   LIG d   1       7.040  -1.769  -4.283  0.00  0.00     0.113 C 
ATOM      6  H   LIG d   1       7.883  -1.171  -4.629  0.00  0.00     0.067 H 
ATOM      7  O   LIG d   1       7.502  -2.937  -3.561  0.00  0.00    -0.344 OA
ATOM      8  C   LIG d   1       7.825  -3.871  -4.614  0.00  0.00     0.149 C 
ATOM      9  O   LIG d   1       6.803  -3.715  -5.614  0.00  0.00    -0.347 OA
ATOM     10  H   LIG d   1       7.819  -4.889  -4.228  0.00  0.00     0.087 H 
ATOM     11  H   LIG d   1       8.802  -3.636  -5.038  0.00  0.00     0.087 H 
ATOM     12  H   LIG d   1       5.208  -2.418  -5.266  0.00  0.00     0.063 H 
BRANCH   5  13
ATOM     13  C   LIG d   1       6.114  -0.945  -3.425  0.00  0.00    -0.016 A 
ATOM     14  C   LIG d   1       5.120  -1.562  -2.690  0.00  0.00    -0.056 A 
ATOM     15  C   LIG d   1       4.271  -0.807  -1.903  0.00  0.00    -0.061 A 
ATOM     16  H   LIG d   1       5.006  -2.636  -2.731  0.00  0.00     0.062 H 
ATOM     17  C   LIG d   1       4.418   0.567  -1.850  0.00  0.00    -0.062 A 
ATOM     18  H   LIG d   1       3.494  -1.289  -1.329  0.00  0.00     0.062 H 
ATOM     19  C   LIG d   1       5.413   1.185  -2.584  0.00  0.00    -0.061 A 
ATOM     20  H   LIG d   1       3.755   1.158  -1.235  0.00  0.00     0.062 H 
ATOM     21  C   LIG d   1       6.264   0.429  -3.368  0.00  0.00    -0.056 A 
ATOM     22  H   LIG d   1       5.527   2.258  -2.544  0.00  0.00     0.062 H 
ATOM     23  H   LIG d   1       7.044   0.911  -3.939  0.00  0.00     0.062 H 
ENDBRANCH   5  13
ENDBRANCH   1   4
BRANCH   1  24
ATOM     24  C   LIG d   1       5.488  -0.504  -6.891  0.00  0.00     0.310 C 
ATOM     25  O   LIG d   1       5.796   0.660  -6.800  0.00  0.00    -0.251 OA
BRANCH  24  26
ATOM     26  O   LIG d   1       4.210  -0.845  -7.117  0.00  0.00    -0.457 OA
BRANCH  26  27
ATOM     27  C   LIG d   1       3.198   0.152  -6.814  0.00  0.00     0.155 C 
ATOM     28  H   LIG d   1       2.352  -0.304  -6.540  0.00  0.00     0.078 H 
ATOM     29  H   LIG d   1       3.547   0.788  -6.000  0.00  0.00     0.078 H 
BRANCH  27  30
ATOM     30  C   LIG d   1       2.941   0.996  -8.036  0.00  0.00     0.200 C 
ATOM     31  O   LIG d   1       2.880   2.202  -7.938  0.00  0.00    -0.288 OA
BRANCH  30  32
ATOM     32  C   LIG d   1       2.765   0.354  -9.349  0.00  0.00     0.021 A 
ATOM     33  C   LIG d   1       1.640  -0.440  -9.598  0.00  0.00    -0.051 A 
ATOM     34  C   LIG d   1       1.482  -1.038 -10.830  0.00  0.00    -0.061 A 
ATOM     35  H   LIG d   1       0.898  -0.584  -8.827  0.00  0.00     0.062 H 
ATOM     36  C   LIG d   1       2.434  -0.855 -11.819  0.00  0.00    -0.062 A 
ATOM     37  H   LIG d   1       0.614  -1.651 -11.024  0.00  0.00     0.062 H 
ATOM     38  C   LIG d   1       3.549  -0.072 -11.581  0.00  0.00    -0.061 A 
ATOM     39  H   LIG d   1       2.303  -1.325 -12.782  0.00  0.00     0.062 H 
ATOM     40  C   LIG d   1       3.719   0.538 -10.355  0.00  0.00    -0.051 A 
ATOM     41  H   LIG d   1       4.287   0.067 -12.357  0.00  0.00     0.062 H 
ATOM     42  H   LIG d   1       4.587   1.152 -10.172  0.00  0.00     0.062 H 
ENDBRANCH  30  32
ENDBRANCH  27  30
ENDBRANCH  26  27
ENDBRANCH  24  26
ENDBRANCH   1  24
TORSDOF 7
ENDMDL
MODEL 5
REMARK VINA RESULT:      -6.1      2.306      5.524
REMARK  7 active torsions:
REMARK  status: ('A' for Active; 'I' for Inactive)
REMARK    1  A    between atoms: C_4  and  C_7 
REMARK    2  A    between atoms: C_9  and  C_14 
REMARK    3  A    between atoms: C_14  and  C_15 
REMARK    4  A    between atoms: C_15  and  O_17 
REMARK    5  A    between atoms: O_17  and  C_18 
REMARK    6  A    between atoms: C_18  and  C_19 
REMARK    7  A    between atoms: C_19  and  C_21 
ROOT
ATOM      1  C   LIG d   1       6.489  -1.617  -6.526  0.00  0.00     0.074 C 
ATOM      2  H   LIG d   1       7.285  -1.636  -5.782  0.00  0.00     0.040 H 
ATOM      3  H   LIG d   1       6.744  -2.289  -7.347  0.00  0.00     0.040 H 
ENDROOT
BRANCH   1   4
ATOM      4  C   LIG d   1       5.178  -2.071  -5.884  0.00  0.00     0.102 C 
ATOM      5  C   LIG d   1       5.372  -2.302  -4.369  0.00  0.00     0.113 C 
ATOM      6  H   LIG d   1       6.421  -2.484  -4.137  0.00  0.00     0.067 H 
ATOM      7  O   LIG d   1       4.578  -3.487  -4.118  0.00  0.00    -0.344 OA
ATOM      8  C   LIG d   1       4.778  -4.277  -5.310  0.00  0.00     0.149 C 
ATOM      9  O   LIG d   1       4.780  -3.351  -6.410  0.00  0.00    -0.347 OA
ATOM     10  H   LIG d   1       3.966  -4.994  -5.426  0.00  0.00     0.087 H 
ATOM     11  H   LIG d   1       5.735  -4.799  -5.258  0.00  0.00     0.087 H 
ATOM     12  H   LIG d   1       4.396  -1.331  -6.057  0.00  0.00     0.063 H 
BRANCH   5  13
ATOM     13  C   LIG d   1       4.844  -1.131  -3.579  0.00  0.00    -0.016 A 
ATOM     14  C   LIG d   1       5.720  -0.191  -3.069  0.00  0.00    -0.056 A 
ATOM     15  C   LIG d   1       5.237   0.883  -2.345  0.00  0.00    -0.061 A 
ATOM     16  H   LIG d   1       6.782  -0.296  -3.236  0.00  0.00     0.062 H 
ATOM     17  C   LIG d   1       3.877   1.017  -2.132  0.00  0.00    -0.062 A 
ATOM     18  H   LIG d   1       5.921   1.617  -1.946  0.00  0.00     0.062 H 
ATOM     19  C   LIG d   1       3.002   0.078  -2.643  0.00  0.00    -0.061 A 
ATOM     20  H   LIG d   1       3.500   1.855  -1.566  0.00  0.00     0.062 H 
ATOM     21  C   LIG d   1       3.485  -0.994  -3.370  0.00  0.00    -0.056 A 
ATOM     22  H   LIG d   1       1.940   0.181  -2.475  0.00  0.00     0.062 H 
ATOM     23  H   LIG d   1       2.800  -1.726  -3.772  0.00  0.00     0.062 H 
ENDBRANCH   5  13
ENDBRANCH   1   4
BRANCH   1  24
ATOM     24  C   LIG d   1       6.331  -0.215  -7.056  0.00  0.00     0.310 C 
ATOM     25  O   LIG d   1       6.587   0.730  -6.349  0.00  0.00    -0.251 OA
BRANCH  24  26
ATOM     26  O   LIG d   1       5.905  -0.017  -8.313  0.00  0.00    -0.457 OA
BRANCH  26  27
ATOM     27  C   LIG d   1       5.969   1.340  -8.825  0.00  0.00     0.155 C 
ATOM     28  H   LIG d   1       6.337   1.945  -8.119  0.00  0.00     0.078 H 
ATOM     29  H   LIG d   1       6.616   1.368  -9.702  0.00  0.00     0.078 H 
BRANCH  27  30
ATOM     30  C   LIG d   1       4.585   1.799  -9.207  0.00  0.00     0.200 C 
ATOM     31  O   LIG d   1       4.234   2.933  -8.963  0.00  0.00    -0.288 OA
BRANCH  30  32
ATOM     32  C   LIG d   1       3.661   0.870  -9.876  0.00  0.00     0.021 A 
ATOM     33  C   LIG d   1       3.908   0.457 -11.190  0.00  0.00    -0.051 A 
ATOM     34  C   LIG d   1       3.037  -0.414 -11.810  0.00  0.00    -0.061 A 
ATOM     35  H   LIG d   1       4.778   0.819 -11.716  0.00  0.00     0.062 H 
ATOM     36  C   LIG d   1       1.921  -0.878 -11.136  0.00  0.00    -0.062 A 
ATOM     37  H   LIG d   1       3.226  -0.734 -12.824  0.00  0.00     0.062 H 
ATOM     38  C   LIG d   1       1.669  -0.475  -9.837  0.00  0.00    -0.061 A 
ATOM     39  H   LIG d   1       1.243  -1.561 -11.627  0.00  0.00     0.062 H 
ATOM     40  C   LIG d   1       2.533   0.392  -9.201  0.00  0.00    -0.051 A 
ATOM     41  H   LIG d   1       0.796  -0.842  -9.318  0.00  0.00     0.062 H 
ATOM     42  H   LIG d   1       2.338   0.703  -8.185  0.00  0.00     0.062 H 
ENDBRANCH  30  32
ENDBRANCH  27  30
ENDBRANCH  26  27
ENDBRANCH  24  26
ENDBRANCH   1  24
TORSDOF 7
ENDMDL
MODEL 6
REMARK VINA RESULT:      -6.0      2.364      5.331
REMARK  7 active torsions:
REMARK  status: ('A' for Active; 'I' for Inactive)
REMARK    1  A    between atoms: C_4  and  C_7 
REMARK    2  A    between atoms: C_9  and  C_14 
REMARK    3  A    between atoms: C_14  and  C_15 
REMARK    4  A    between atoms: C_15  and  O_17 
REMARK    5  A    between atoms: O_17  and  C_18 
REMARK    6  A    between atoms: C_18  and  C_19 
REMARK    7  A    between atoms: C_19  and  C_21 
ROOT
ATOM      1  C   LIG d   1       6.714  -1.986  -6.469  0.00  0.00     0.074 C 
ATOM      2  H   LIG d   1       7.621  -1.384  -6.528  0.00  0.00     0.040 H 
ATOM      3  H   LIG d   1       6.745  -2.762  -7.235  0.00  0.00     0.040 H 
ENDROOT
BRANCH   1   4
ATOM      4  C   LIG d   1       6.620  -2.635  -5.088  0.00  0.00     0.102 C 
ATOM      5  C   LIG d   1       7.261  -1.722  -4.019  0.00  0.00     0.113 C 
ATOM      6  H   LIG d   1       7.971  -1.033  -4.476  0.00  0.00     0.067 H 
ATOM      7  O   LIG d   1       7.943  -2.664  -3.156  0.00  0.00    -0.344 OA
ATOM      8  C   LIG d   1       8.430  -3.664  -4.077  0.00  0.00     0.149 C 
ATOM      9  O   LIG d   1       7.391  -3.850  -5.053  0.00  0.00    -0.347 OA
ATOM     10  H   LIG d   1       8.621  -4.598  -3.550  0.00  0.00     0.087 H 
ATOM     11  H   LIG d   1       9.342  -3.314  -4.564  0.00  0.00     0.087 H 
ATOM     12  H   LIG d   1       5.579  -2.839  -4.836  0.00  0.00     0.063 H 
BRANCH   5  13
ATOM     13  C   LIG d   1       6.202  -0.970  -3.255  0.00  0.00    -0.016 A 
ATOM     14  C   LIG d   1       6.260   0.408  -3.168  0.00  0.00    -0.056 A 
ATOM     15  C   LIG d   1       5.288   1.098  -2.467  0.00  0.00    -0.061 A 
ATOM     16  H   LIG d   1       7.064   0.946  -3.648  0.00  0.00     0.062 H 
ATOM     17  C   LIG d   1       4.258   0.409  -1.855  0.00  0.00    -0.062 A 
ATOM     18  H   LIG d   1       5.334   2.175  -2.399  0.00  0.00     0.062 H 
ATOM     19  C   LIG d   1       4.199  -0.968  -1.943  0.00  0.00    -0.061 A 
ATOM     20  H   LIG d   1       3.499   0.948  -1.307  0.00  0.00     0.062 H 
ATOM     21  C   LIG d   1       5.168  -1.658  -2.646  0.00  0.00    -0.056 A 
ATOM     22  H   LIG d   1       3.395  -1.507  -1.463  0.00  0.00     0.062 H 
ATOM     23  H   LIG d   1       5.120  -2.735  -2.718  0.00  0.00     0.062 H 
ENDBRANCH   5  13
ENDBRANCH   1   4
BRANCH   1  24
ATOM     24  C   LIG d   1       5.512  -1.105  -6.695  0.00  0.00     0.310 C 
ATOM     25  O   LIG d   1       5.638   0.095  -6.711  0.00  0.00    -0.251 OA
BRANCH  24  26
ATOM     26  O   LIG d   1       4.302  -1.657  -6.877  0.00  0.00    -0.457 OA
BRANCH  26  27
ATOM     27  C   LIG d   1       4.114  -2.450  -8.078  0.00  0.00     0.155 C 
ATOM     28  H   LIG d   1       4.985  -2.536  -8.561  0.00  0.00     0.078 H 
ATOM     29  H   LIG d   1       3.750  -3.441  -7.806  0.00  0.00     0.078 H 
BRANCH  27  30
ATOM     30  C   LIG d   1       3.108  -1.775  -8.974  0.00  0.00     0.200 C 
ATOM     31  O   LIG d   1       2.190  -2.412  -9.444  0.00  0.00    -0.288 OA
BRANCH  30  32
ATOM     32  C   LIG d   1       3.240  -0.341  -9.279  0.00  0.00     0.021 A 
ATOM     33  C   LIG d   1       3.988   0.076 -10.386  0.00  0.00    -0.051 A 
ATOM     34  C   LIG d   1       4.108   1.421 -10.665  0.00  0.00    -0.061 A 
ATOM     35  H   LIG d   1       4.470  -0.654 -11.020  0.00  0.00     0.062 H 
ATOM     36  C   LIG d   1       3.491   2.357  -9.853  0.00  0.00    -0.062 A 
ATOM     37  H   LIG d   1       4.685   1.745 -11.519  0.00  0.00     0.062 H 
ATOM     38  C   LIG d   1       2.750   1.953  -8.757  0.00  0.00    -0.061 A 
ATOM     39  H   LIG d   1       3.588   3.409 -10.078  0.00  0.00     0.062 H 
ATOM     40  C   LIG d   1       2.616   0.611  -8.468  0.00  0.00    -0.051 A 
ATOM     41  H   LIG d   1       2.271   2.690  -8.128  0.00  0.00     0.062 H 
ATOM     42  H   LIG d   1       2.034   0.297  -7.614  0.00  0.00     0.062 H 
ENDBRANCH  30  32
ENDBRANCH  27  30
ENDBRANCH  26  27
ENDBRANCH  24  26
ENDBRANCH   1  24
TORSDOF 7
ENDMDL
MODEL 7
REMARK VINA RESULT:      -6.0      2.230      5.274
REMARK  7 active torsions:
REMARK  status: ('A' for Active; 'I' for Inactive)
REMARK    1  A    between atoms: C_4  and  C_7 
REMARK    2  A    between atoms: C_9  and  C_14 
REMARK    3  A    between atoms: C_14  and  C_15 
REMARK    4  A    between atoms: C_15  and  O_17 
REMARK    5  A    between atoms: O_17  and  C_18 
REMARK    6  A    between atoms: C_18  and  C_19 
REMARK    7  A    between atoms: C_19  and  C_21 
ROOT
ATOM      1  C   LIG d   1       7.032   0.470  -6.731  0.00  0.00     0.074 C 
ATOM      2  H   LIG d   1       6.853   1.544  -6.777  0.00  0.00     0.040 H 
ATOM      3  H   LIG d   1       7.668   0.172  -7.566  0.00  0.00     0.040 H 
ENDROOT
BRANCH   1   4
ATOM      4  C   LIG d   1       7.726   0.124  -5.413  0.00  0.00     0.102 C 
ATOM      5  C   LIG d   1       7.297   1.110  -4.304  0.00  0.00     0.113 C 
ATOM      6  H   LIG d   1       6.931   2.041  -4.735  0.00  0.00     0.067 H 
ATOM      7  O   LIG d   1       8.528   1.331  -3.574  0.00  0.00    -0.344 OA
ATOM      8  C   LIG d   1       9.532   1.328  -4.611  0.00  0.00     0.149 C 
ATOM      9  O   LIG d   1       9.149   0.297  -5.537  0.00  0.00    -0.347 OA
ATOM     10  H   LIG d   1      10.510   1.106  -4.186  0.00  0.00     0.087 H 
ATOM     11  H   LIG d   1       9.554   2.295  -5.116  0.00  0.00     0.087 H 
ATOM     12  H   LIG d   1       7.493  -0.900  -5.120  0.00  0.00     0.063 H 
BRANCH   5  13
ATOM     13  C   LIG d   1       6.253   0.487  -3.412  0.00  0.00    -0.016 A 
ATOM     14  C   LIG d   1       5.387   1.292  -2.696  0.00  0.00    -0.056 A 
ATOM     15  C   LIG d   1       4.430   0.722  -1.878  0.00  0.00    -0.061 A 
ATOM     16  H   LIG d   1       5.458   2.367  -2.776  0.00  0.00     0.062 H 
ATOM     17  C   LIG d   1       4.339  -0.654  -1.776  0.00  0.00    -0.062 A 
ATOM     18  H   LIG d   1       3.754   1.351  -1.318  0.00  0.00     0.062 H 
ATOM     19  C   LIG d   1       5.204  -1.459  -2.492  0.00  0.00    -0.061 A 
ATOM     20  H   LIG d   1       3.591  -1.100  -1.137  0.00  0.00     0.062 H 
ATOM     21  C   LIG d   1       6.159  -0.889  -3.313  0.00  0.00    -0.056 A 
ATOM     22  H   LIG d   1       5.134  -2.533  -2.412  0.00  0.00     0.062 H 
ATOM     23  H   LIG d   1       6.832  -1.518  -3.876  0.00  0.00     0.062 H 
ENDBRANCH   5  13
ENDBRANCH   1   4
BRANCH   1  24
ATOM     24  C   LIG d   1       5.717  -0.263  -6.815  0.00  0.00     0.310 C 
ATOM     25  O   LIG d   1       5.671  -1.366  -7.303  0.00  0.00    -0.251 OA
BRANCH  24  26
ATOM     26  O   LIG d   1       4.599   0.313  -6.347  0.00  0.00    -0.457 OA
BRANCH  26  27
ATOM     27  C   LIG d   1       3.342  -0.114  -6.938  0.00  0.00     0.155 C 
ATOM     28  H   LIG d   1       3.426  -1.059  -7.254  0.00  0.00     0.078 H 
ATOM     29  H   LIG d   1       2.549  -0.048  -6.193  0.00  0.00     0.078 H 
BRANCH  27  30
ATOM     30  C   LIG d   1       3.009   0.778  -8.106  0.00  0.00     0.200 C 
ATOM     31  O   LIG d   1       2.927   1.977  -7.949  0.00  0.00    -0.288 OA
BRANCH  30  32
ATOM     32  C   LIG d   1       2.781   0.193  -9.437  0.00  0.00     0.021 A 
ATOM     33  C   LIG d   1       3.752   0.321 -10.437  0.00  0.00    -0.051 A 
ATOM     34  C   LIG d   1       3.532  -0.231 -11.681  0.00  0.00    -0.061 A 
ATOM     35  H   LIG d   1       4.672   0.849 -10.234  0.00  0.00     0.062 H 
ATOM     36  C   LIG d   1       2.353  -0.908 -11.943  0.00  0.00    -0.062 A 
ATOM     37  H   LIG d   1       4.280  -0.133 -12.454  0.00  0.00     0.062 H 
ATOM     38  C   LIG d   1       1.388  -1.039 -10.960  0.00  0.00    -0.061 A 
ATOM     39  H   LIG d   1       2.187  -1.339 -12.919  0.00  0.00     0.062 H 
ATOM     40  C   LIG d   1       1.596  -0.498  -9.708  0.00  0.00    -0.051 A 
ATOM     41  H   LIG d   1       0.472  -1.570 -11.171  0.00  0.00     0.062 H 
ATOM     42  H   LIG d   1       0.844  -0.605  -8.941  0.00  0.00     0.062 H 
ENDBRANCH  30  32
ENDBRANCH  27  30
ENDBRANCH  26  27
ENDBRANCH  24  26
ENDBRANCH   1  24
TORSDOF 7
ENDMDL
MODEL 8
REMARK VINA RESULT:      -5.9      1.954      4.540
REMARK  7 active torsions:
REMARK  status: ('A' for Active; 'I' for Inactive)
REMARK    1  A    between atoms: C_4  and  C_7 
REMARK    2  A    between atoms: C_9  and  C_14 
REMARK    3  A    between atoms: C_14  and  C_15 
REMARK    4  A    between atoms: C_15  and  O_17 
REMARK    5  A    between atoms: O_17  and  C_18 
REMARK    6  A    between atoms: C_18  and  C_19 
REMARK    7  A    between atoms: C_19  and  C_21 
ROOT
ATOM      1  C   LIG d   1       4.258  -1.841  -7.135  0.00  0.00     0.074 C 
ATOM      2  H   LIG d   1       3.658  -2.425  -6.438  0.00  0.00     0.040 H 
ATOM      3  H   LIG d   1       3.797  -1.871  -8.123  0.00  0.00     0.040 H 
ENDROOT
BRANCH   1   4
ATOM      4  C   LIG d   1       4.338  -0.392  -6.652  0.00  0.00     0.102 C 
ATOM      5  C   LIG d   1       3.139  -0.063  -5.737  0.00  0.00     0.113 C 
ATOM      6  H   LIG d   1       2.309  -0.744  -5.927  0.00  0.00     0.067 H 
ATOM      7  O   LIG d   1       2.794   1.288  -6.130  0.00  0.00    -0.344 OA
ATOM      8  C   LIG d   1       3.027   1.288  -7.555  0.00  0.00     0.149 C 
ATOM      9  O   LIG d   1       4.219   0.513  -7.765  0.00  0.00    -0.347 OA
ATOM     10  H   LIG d   1       3.174   2.307  -7.911  0.00  0.00     0.087 H 
ATOM     11  H   LIG d   1       2.184   0.827  -8.073  0.00  0.00     0.087 H 
ATOM     12  H   LIG d   1       5.276  -0.221  -6.124  0.00  0.00     0.063 H 
BRANCH   5  13
ATOM     13  C   LIG d   1       3.547  -0.108  -4.287  0.00  0.00    -0.016 A 
ATOM     14  C   LIG d   1       3.643   1.063  -3.559  0.00  0.00    -0.056 A 
ATOM     15  C   LIG d   1       4.017   1.022  -2.229  0.00  0.00    -0.061 A 
ATOM     16  H   LIG d   1       3.427   2.011  -4.030  0.00  0.00     0.062 H 
ATOM     17  C   LIG d   1       4.293  -0.191  -1.626  0.00  0.00    -0.062 A 
ATOM     18  H   LIG d   1       4.093   1.937  -1.661  0.00  0.00     0.062 H 
ATOM     19  C   LIG d   1       4.195  -1.362  -2.352  0.00  0.00    -0.061 A 
ATOM     20  H   LIG d   1       4.585  -0.223  -0.587  0.00  0.00     0.062 H 
ATOM     21  C   LIG d   1       3.818  -1.322  -3.682  0.00  0.00    -0.056 A 
ATOM     22  H   LIG d   1       4.412  -2.310  -1.882  0.00  0.00     0.062 H 
ATOM     23  H   LIG d   1       3.738  -2.237  -4.248  0.00  0.00     0.062 H 
ENDBRANCH   5  13
ENDBRANCH   1   4
BRANCH   1  24
ATOM     24  C   LIG d   1       5.647  -2.423  -7.212  0.00  0.00     0.310 C 
ATOM     25  O   LIG d   1       6.332  -2.223  -8.185  0.00  0.00    -0.251 OA
BRANCH  24  26
ATOM     26  O   LIG d   1       6.120  -3.164  -6.197  0.00  0.00    -0.457 OA
BRANCH  26  27
ATOM     27  C   LIG d   1       7.475  -2.886  -5.756  0.00  0.00     0.155 C 
ATOM     28  H   LIG d   1       7.931  -3.744  -5.518  0.00  0.00     0.078 H 
ATOM     29  H   LIG d   1       8.025  -2.393  -6.558  0.00  0.00     0.078 H 
BRANCH  27  30
ATOM     30  C   LIG d   1       7.436  -1.986  -4.548  0.00  0.00     0.200 C 
ATOM     31  O   LIG d   1       7.231  -2.455  -3.449  0.00  0.00    -0.288 OA
BRANCH  30  32
ATOM     32  C   LIG d   1       7.646  -0.538  -4.702  0.00  0.00     0.021 A 
ATOM     33  C   LIG d   1       8.176  -0.027  -5.893  0.00  0.00    -0.051 A 
ATOM     34  C   LIG d   1       8.371   1.331  -6.030  0.00  0.00    -0.061 A 
ATOM     35  H   LIG d   1       8.432  -0.696  -6.702  0.00  0.00     0.062 H 
ATOM     36  C   LIG d   1       8.044   2.188  -4.994  0.00  0.00    -0.062 A 
ATOM     37  H   LIG d   1       8.779   1.726  -6.948  0.00  0.00     0.062 H 
ATOM     38  C   LIG d   1       7.519   1.692  -3.814  0.00  0.00    -0.061 A 
ATOM     39  H   LIG d   1       8.197   3.251  -5.108  0.00  0.00     0.062 H 
ATOM     40  C   LIG d   1       7.314   0.336  -3.663  0.00  0.00    -0.051 A 
ATOM     41  H   LIG d   1       7.266   2.367  -3.010  0.00  0.00     0.062 H 
ATOM     42  H   LIG d   1       6.900  -0.050  -2.743  0.00  0.00     0.062 H 
ENDBRANCH  30  32
ENDBRANCH  27  30
ENDBRANCH  26  27
ENDBRANCH  24  26
ENDBRANCH   1  24
TORSDOF 7
ENDMDL
MODEL 9
REMARK VINA RESULT:      -5.9      2.160      5.504
REMARK  7 active torsions:
REMARK  status: ('A' for Active; 'I' for Inactive)
REMARK    1  A    between atoms: C_4  and  C_7 
REMARK    2  A    between atoms: C_9  and  C_14 
REMARK    3  A    between atoms: C_14  and  C_15 
REMARK    4  A    between atoms: C_15  and  O_17 
REMARK    5  A    between atoms: O_17  and  C_18 
REMARK    6  A    between atoms: C_18  and  C_19 
REMARK    7  A    between atoms: C_19  and  C_21 
ROOT
ATOM      1  C   LIG d   1       7.455  -1.808  -5.247  0.00  0.00     0.074 C 
ATOM      2  H   LIG d   1       7.791  -2.035  -4.236  0.00  0.00     0.040 H 
ATOM      3  H   LIG d   1       7.956  -2.470  -5.953  0.00  0.00     0.040 H 
ENDROOT
BRANCH   1   4
ATOM      4  C   LIG d   1       5.942  -2.013  -5.341  0.00  0.00     0.102 C 
ATOM      5  C   LIG d   1       5.340  -2.225  -3.935  0.00  0.00     0.113 C 
ATOM      6  H   LIG d   1       6.101  -2.575  -3.237  0.00  0.00     0.067 H 
ATOM      7  O   LIG d   1       4.343  -3.252  -4.162  0.00  0.00    -0.344 OA
ATOM      8  C   LIG d   1       4.962  -4.101  -5.152  0.00  0.00     0.149 C 
ATOM      9  O   LIG d   1       5.646  -3.223  -6.062  0.00  0.00    -0.347 OA
ATOM     10  H   LIG d   1       4.203  -4.674  -5.683  0.00  0.00     0.087 H 
ATOM     11  H   LIG d   1       5.675  -4.775  -4.675  0.00  0.00     0.087 H 
ATOM     12  H   LIG d   1       5.474  -1.158  -5.828  0.00  0.00     0.063 H 
BRANCH   5  13
ATOM     13  C   LIG d   1       4.695  -0.958  -3.433  0.00  0.00    -0.016 A 
ATOM     14  C   LIG d   1       5.062  -0.434  -2.209  0.00  0.00    -0.056 A 
ATOM     15  C   LIG d   1       4.472   0.728  -1.748  0.00  0.00    -0.061 A 
ATOM     16  H   LIG d   1       5.811  -0.933  -1.610  0.00  0.00     0.062 H 
ATOM     17  C   LIG d   1       3.514   1.366  -2.515  0.00  0.00    -0.062 A 
ATOM     18  H   LIG d   1       4.759   1.137  -0.791  0.00  0.00     0.062 H 
ATOM     19  C   LIG d   1       3.148   0.843  -3.740  0.00  0.00    -0.061 A 
ATOM     20  H   LIG d   1       3.053   2.274  -2.155  0.00  0.00     0.062 H 
ATOM     21  C   LIG d   1       3.741  -0.317  -4.202  0.00  0.00    -0.056 A 
ATOM     22  H   LIG d   1       2.399   1.341  -4.338  0.00  0.00     0.062 H 
ATOM     23  H   LIG d   1       3.457  -0.723  -5.161  0.00  0.00     0.062 H 
ENDBRANCH   5  13
ENDBRANCH   1   4
BRANCH   1  24
ATOM     24  C   LIG d   1       7.789  -0.375  -5.578  0.00  0.00     0.310 C 
ATOM     25  O   LIG d   1       7.798   0.459  -4.706  0.00  0.00    -0.251 OA
BRANCH  24  26
ATOM     26  O   LIG d   1       8.078  -0.029  -6.842  0.00  0.00    -0.457 OA
BRANCH  26  27
ATOM     27  C   LIG d   1       7.703   1.311  -7.260  0.00  0.00     0.155 C 
ATOM     28  H   LIG d   1       7.113   1.723  -6.566  0.00  0.00     0.078 H 
ATOM     29  H   LIG d   1       8.601   1.918  -7.381  0.00  0.00     0.078 H 
BRANCH  27  30
ATOM     30  C   LIG d   1       6.964   1.240  -8.571  0.00  0.00     0.200 C 
ATOM     31  O   LIG d   1       7.581   1.119  -9.608  0.00  0.00    -0.288 OA
BRANCH  30  32
ATOM     32  C   LIG d   1       5.495   1.317  -8.593  0.00  0.00     0.021 A 
ATOM     33  C   LIG d   1       4.730   0.333  -7.957  0.00  0.00    -0.051 A 
ATOM     34  C   LIG d   1       3.353   0.412  -7.982  0.00  0.00    -0.061 A 
ATOM     35  H   LIG d   1       5.216  -0.486  -7.448  0.00  0.00     0.062 H 
ATOM     36  C   LIG d   1       2.729   1.462  -8.634  0.00  0.00    -0.062 A 
ATOM     37  H   LIG d   1       2.761  -0.346  -7.491  0.00  0.00     0.062 H 
ATOM     38  C   LIG d   1       3.478   2.439  -9.265  0.00  0.00    -0.061 A 
ATOM     39  H   LIG d   1       1.651   1.518  -8.648  0.00  0.00     0.062 H 
ATOM     40  C   LIG d   1       4.856   2.376  -9.245  0.00  0.00    -0.051 A 
ATOM     41  H   LIG d   1       2.984   3.254  -9.772  0.00  0.00     0.062 H 
ATOM     42  H   LIG d   1       5.440   3.142  -9.734  0.00  0.00     0.062 H 
ENDBRANCH  30  32
ENDBRANCH  27  30
ENDBRANCH  26  27
ENDBRANCH  24  26
ENDBRANCH   1  24
TORSDOF 7
ENDMDL
