MODEL 1
REMARK VINA RESULT:      -5.8      0.000      0.000
REMARK  12 active torsions:
REMARK  status: ('A' for Active; 'I' for Inactive)
REMARK    1  A    between atoms: C_1  and  C_2 
REMARK    2  A    between atoms: C_6  and  O_25 
REMARK    3  A    between atoms: C_12  and  C_13 
REMARK    4  A    between atoms: C_13  and  C_14 
REMARK       I    between atoms: C_14  and  N_16 
REMARK       I    between atoms: N_16  and  CA_17 
REMARK    5  A    between atoms: CA_17  and  CB_19 
REMARK       I    between atoms: CA_17  and  C_23 
REMARK    6  A    between atoms: CB_19  and  CG_20 
REMARK    7  A    between atoms: CG_20  and  SD_21 
REMARK    8  A    between atoms: SD_21  and  CE_22 
REMARK    9  A    between atoms: C_23  and  O_24 
REMARK   10  A    between atoms: O_25  and  C_26 
REMARK   11  A    between atoms: C_26  and  C_27 
REMARK   12  A    between atoms: C_27  and  C_29 
ROOT
ATOM      1  C   UNK d   0       5.306  -2.985  -7.931  0.00  0.00    -0.029 A 
ATOM      2  C   UNK d   0       5.422  -2.637  -6.513  0.00  0.00     0.022 A 
ATOM      3  C   UNK d   0       6.180  -1.535  -6.100  0.00  0.00    -0.029 A 
ATOM      4  C   UNK d   0       6.271  -1.233  -4.773  0.00  0.00     0.083 A 
ATOM      5  C   UNK d   0       5.615  -2.016  -3.823  0.00  0.00     0.143 A 
ATOM      6  C   UNK d   0       4.865  -3.114  -4.214  0.00  0.00     0.025 A 
ATOM      7  C   UNK d   0       4.757  -3.430  -5.560  0.00  0.00     0.143 A 
ATOM      8  O   UNK d   0       4.026  -4.492  -5.962  0.00  0.00    -0.422 OA
ATOM      9  C   UNK d   0       3.915  -4.815  -7.260  0.00  0.00     0.341 A 
ATOM     10  O   UNK d   0       3.245  -5.782  -7.576  0.00  0.00    -0.245 OA
ATOM     11  C   UNK d   0       4.555  -4.065  -8.268  0.00  0.00     0.049 A 
ATOM     12 CL   UNK d   0       7.212   0.133  -4.261  0.00  0.00    -0.080 Cl
ATOM     13  H   UNK d   0       6.691  -0.925  -6.832  0.00  0.00     0.064 H 
ATOM     14  H   UNK d   0       4.362  -3.718  -3.474  0.00  0.00     0.069 H 
ENDROOT
BRANCH  11  15
ATOM     15  C   UNK d   0       4.405  -4.460  -9.714  0.00  0.00     0.056 C 
ATOM     16  H   UNK d   0       5.224  -4.033 -10.294  0.00  0.00     0.041 H 
ATOM     17  H   UNK d   0       4.428  -5.547  -9.798  0.00  0.00     0.041 H 
BRANCH  15  18
ATOM     18  C   UNK d   0       3.092  -3.943 -10.243  0.00  0.00     0.218 C 
ATOM     19  O   UNK d   0       2.232  -4.722 -10.597  0.00  0.00    -0.275 OA
ATOM     20  N   MET d   1       2.873  -2.616 -10.323  0.00  0.00    -0.310 N 
ATOM     21  CA  MET d   1       1.596  -2.113 -10.838  0.00  0.00     0.047 C 
ATOM     22  H   MET d   1       3.561  -1.993 -10.041  0.00  0.00     0.149 HD
ATOM     23  HA  MET d   1       0.793  -2.784 -10.531  0.00  0.00     0.052 H 
ATOM     24  C   MET d   1       1.653  -2.048 -12.365  0.00  0.00     0.063 C 
ATOM     25  H1  MET d   1       1.925  -3.026 -12.761  0.00  0.00     0.058 H 
ATOM     26  H2  MET d   1       0.675  -1.759 -12.752  0.00  0.00     0.058 H 
BRANCH  21  27
ATOM     27  CB  MET d   1       1.335  -0.714 -10.276  0.00  0.00    -0.023 C 
ATOM     28  HB1 MET d   1       1.555   0.031 -11.042  0.00  0.00     0.029 H 
ATOM     29  HB2 MET d   1       0.291  -0.632  -9.977  0.00  0.00     0.029 H 
BRANCH  27  30
ATOM     30  CG  MET d   1       2.235  -0.476  -9.061  0.00  0.00    -0.005 C 
ATOM     31  HG1 MET d   1       1.667  -0.656  -8.148  0.00  0.00     0.038 H 
ATOM     32  HG2 MET d   1       3.085  -1.157  -9.100  0.00  0.00     0.038 H 
BRANCH  30  33
ATOM     33  SD  MET d   1       2.830   1.236  -9.075  0.00  0.00    -0.164 SA
BRANCH  33  34
ATOM     34  CE  MET d   1       3.884   1.322 -10.549  0.00  0.00    -0.018 C 
ATOM     35  HE1 MET d   1       3.364   1.866 -11.337  0.00  0.00     0.034 H 
ATOM     36  HE2 MET d   1       4.812   1.839 -10.303  0.00  0.00     0.034 H 
ATOM     37  HE3 MET d   1       4.111   0.313 -10.893  0.00  0.00     0.034 H 
ENDBRANCH  33  34
ENDBRANCH  30  33
ENDBRANCH  27  30
ENDBRANCH  21  27
BRANCH  24  38
ATOM     38  O   MET d   1       2.627  -1.083 -12.765  0.00  0.00    -0.393 OA
ATOM     39  H   MET d   1       2.448  -0.188 -12.445  0.00  0.00     0.209 HD
ENDBRANCH  24  38
ENDBRANCH  15  18
ENDBRANCH  11  15
BRANCH   1  40
ATOM     40  C   UNK d   0       6.000  -2.164  -8.987  0.00  0.00    -0.038 C 
ATOM     41  H   UNK d   0       6.314  -2.814  -9.804  0.00  0.00     0.028 H 
ATOM     42  H   UNK d   0       5.314  -1.408  -9.369  0.00  0.00     0.028 H 
ATOM     43  H   UNK d   0       6.872  -1.677  -8.554  0.00  0.00     0.028 H 
ENDBRANCH   1  40
BRANCH   5  44
ATOM     44  O   UNK d   0       5.715  -1.704  -2.506  0.00  0.00    -0.486 OA
BRANCH  44  45
ATOM     45  C   UNK d   0       4.495  -1.456  -1.804  0.00  0.00     0.110 C 
ATOM     46  H   UNK d   0       4.684  -1.479  -0.730  0.00  0.00     0.074 H 
ATOM     47  H   UNK d   0       3.765  -2.223  -2.061  0.00  0.00     0.074 H 
BRANCH  45  48
ATOM     48  C   UNK d   0       3.959  -0.102  -2.191  0.00  0.00    -0.043 C 
ATOM     49  C   UNK d   0       4.522   0.984  -1.724  0.00  0.00    -0.097 C 
ATOM     50  H   UNK d   0       5.372   0.910  -1.060  0.00  0.00     0.053 H 
ATOM     51  H   UNK d   0       4.138   1.954  -2.002  0.00  0.00     0.053 H 
BRANCH  48  52
ATOM     52  C   UNK d   0       2.778   0.003  -3.121  0.00  0.00    -0.041 C 
ATOM     53  H   UNK d   0       3.078  -0.296  -4.126  0.00  0.00     0.028 H 
ATOM     54  H   UNK d   0       1.979  -0.649  -2.770  0.00  0.00     0.028 H 
ATOM     55  H   UNK d   0       2.421   1.034  -3.141  0.00  0.00     0.028 H 
ENDBRANCH  48  52
ENDBRANCH  45  48
ENDBRANCH  44  45
ENDBRANCH   5  44
TORSDOF 14
ENDMDL
MODEL 2
REMARK VINA RESULT:      -5.7      7.400     10.555
REMARK  12 active torsions:
REMARK  status: ('A' for Active; 'I' for Inactive)
REMARK    1  A    between atoms: C_1  and  C_2 
REMARK    2  A    between atoms: C_6  and  O_25 
REMARK    3  A    between atoms: C_12  and  C_13 
REMARK    4  A    between atoms: C_13  and  C_14 
REMARK       I    between atoms: C_14  and  N_16 
REMARK       I    between atoms: N_16  and  CA_17 
REMARK    5  A    between atoms: CA_17  and  CB_19 
REMARK       I    between atoms: CA_17  and  C_23 
REMARK    6  A    between atoms: CB_19  and  CG_20 
REMARK    7  A    between atoms: CG_20  and  SD_21 
REMARK    8  A    between atoms: SD_21  and  CE_22 
REMARK    9  A    between atoms: C_23  and  O_24 
REMARK   10  A    between atoms: O_25  and  C_26 
REMARK   11  A    between atoms: C_26  and  C_27 
REMARK   12  A    between atoms: C_27  and  C_29 
ROOT
ATOM      1  C   UNK d   0       9.590   3.438  -5.658  0.00  0.00    -0.029 A 
ATOM      2  C   UNK d   0       8.654   2.351  -5.364  0.00  0.00     0.022 A 
ATOM      3  C   UNK d   0       8.018   1.648  -6.394  0.00  0.00    -0.029 A 
ATOM      4  C   UNK d   0       7.151   0.638  -6.092  0.00  0.00     0.083 A 
ATOM      5  C   UNK d   0       6.892   0.303  -4.763  0.00  0.00     0.143 A 
ATOM      6  C   UNK d   0       7.509   0.992  -3.731  0.00  0.00     0.025 A 
ATOM      7  C   UNK d   0       8.398   2.016  -4.021  0.00  0.00     0.143 A 
ATOM      8  O   UNK d   0       9.014   2.695  -3.030  0.00  0.00    -0.422 OA
ATOM      9  C   UNK d   0       9.873   3.692  -3.293  0.00  0.00     0.341 A 
ATOM     10  O   UNK d   0      10.405   4.278  -2.367  0.00  0.00    -0.245 OA
ATOM     11  C   UNK d   0      10.176   4.080  -4.614  0.00  0.00     0.049 A 
ATOM     12 CL   UNK d   0       6.362  -0.232  -7.369  0.00  0.00    -0.080 Cl
ATOM     13  H   UNK d   0       8.214   1.904  -7.425  0.00  0.00     0.064 H 
ATOM     14  H   UNK d   0       7.302   0.729  -2.704  0.00  0.00     0.069 H 
ENDROOT
BRANCH  11  15
ATOM     15  C   UNK d   0      11.146   5.205  -4.869  0.00  0.00     0.056 C 
ATOM     16  H   UNK d   0      11.999   5.107  -4.197  0.00  0.00     0.041 H 
ATOM     17  H   UNK d   0      11.491   5.160  -5.903  0.00  0.00     0.041 H 
BRANCH  15  18
ATOM     18  C   UNK d   0      10.462   6.525  -4.625  0.00  0.00     0.218 C 
ATOM     19  O   UNK d   0       9.706   6.980  -5.458  0.00  0.00    -0.275 OA
ATOM     20  N   MET d   1      10.688   7.200  -3.481  0.00  0.00    -0.310 N 
ATOM     21  CA  MET d   1      10.022   8.484  -3.243  0.00  0.00     0.047 C 
ATOM     22  H   MET d   1      11.293   6.837  -2.814  0.00  0.00     0.149 HD
ATOM     23  HA  MET d   1       9.022   8.459  -3.676  0.00  0.00     0.052 H 
ATOM     24  C   MET d   1      10.832   9.606  -3.895  0.00  0.00     0.063 C 
ATOM     25  H1  MET d   1      10.980   9.382  -4.951  0.00  0.00     0.058 H 
ATOM     26  H2  MET d   1      10.293  10.548  -3.794  0.00  0.00     0.058 H 
BRANCH  21  27
ATOM     27  CB  MET d   1       9.921   8.735  -1.737  0.00  0.00    -0.023 C 
ATOM     28  HB1 MET d   1      10.752   9.364  -1.417  0.00  0.00     0.029 H 
ATOM     29  HB2 MET d   1       8.979   9.236  -1.515  0.00  0.00     0.029 H 
BRANCH  27  30
ATOM     30  CG  MET d   1       9.977   7.399  -0.993  0.00  0.00    -0.005 C 
ATOM     31  HG1 MET d   1       8.992   7.167  -0.588  0.00  0.00     0.038 H 
ATOM     32  HG2 MET d   1      10.281   6.612  -1.682  0.00  0.00     0.038 H 
BRANCH  30  33
ATOM     33  SD  MET d   1      11.176   7.512   0.363  0.00  0.00    -0.164 SA
BRANCH  33  34
ATOM     34  CE  MET d   1      11.102   5.881   1.152  0.00  0.00    -0.018 C 
ATOM     35  HE1 MET d   1      11.002   5.111   0.387  0.00  0.00     0.034 H 
ATOM     36  HE2 MET d   1      12.015   5.710   1.722  0.00  0.00     0.034 H 
ATOM     37  HE3 MET d   1      10.242   5.840   1.822  0.00  0.00     0.034 H 
ENDBRANCH  33  34
ENDBRANCH  30  33
ENDBRANCH  27  30
ENDBRANCH  21  27
BRANCH  24  38
ATOM     38  O   MET d   1      12.102   9.714  -3.248  0.00  0.00    -0.393 OA
ATOM     39  H   MET d   1      12.133   9.303  -2.373  0.00  0.00     0.209 HD
ENDBRANCH  24  38
ENDBRANCH  15  18
ENDBRANCH  11  15
BRANCH   1  40
ATOM     40  C   UNK d   0       9.896   3.831  -7.080  0.00  0.00    -0.038 C 
ATOM     41  H   UNK d   0       9.164   4.564  -7.419  0.00  0.00     0.028 H 
ATOM     42  H   UNK d   0      10.894   4.266  -7.130  0.00  0.00     0.028 H 
ATOM     43  H   UNK d   0       9.851   2.949  -7.718  0.00  0.00     0.028 H 
ENDBRANCH   1  40
BRANCH   5  44
ATOM     44  O   UNK d   0       6.027  -0.703  -4.478  0.00  0.00    -0.486 OA
BRANCH  44  45
ATOM     45  C   UNK d   0       6.101  -1.271  -3.168  0.00  0.00     0.110 C 
ATOM     46  H   UNK d   0       6.886  -0.772  -2.600  0.00  0.00     0.074 H 
ATOM     47  H   UNK d   0       6.329  -2.335  -3.246  0.00  0.00     0.074 H 
BRANCH  45  48
ATOM     48  C   UNK d   0       4.779  -1.090  -2.467  0.00  0.00    -0.043 C 
ATOM     49  C   UNK d   0       3.920  -2.076  -2.424  0.00  0.00    -0.097 C 
ATOM     50  H   UNK d   0       4.157  -3.021  -2.891  0.00  0.00     0.053 H 
ATOM     51  H   UNK d   0       2.972  -1.946  -1.922  0.00  0.00     0.053 H 
BRANCH  48  52
ATOM     52  C   UNK d   0       4.449   0.226  -1.811  0.00  0.00    -0.041 C 
ATOM     53  H   UNK d   0       5.291   0.548  -1.197  0.00  0.00     0.028 H 
ATOM     54  H   UNK d   0       4.249   0.974  -2.577  0.00  0.00     0.028 H 
ATOM     55  H   UNK d   0       3.566   0.107  -1.181  0.00  0.00     0.028 H 
ENDBRANCH  48  52
ENDBRANCH  45  48
ENDBRANCH  44  45
ENDBRANCH   5  44
TORSDOF 14
ENDMDL
MODEL 3
REMARK VINA RESULT:      -5.6      4.235      5.863
REMARK  12 active torsions:
REMARK  status: ('A' for Active; 'I' for Inactive)
REMARK    1  A    between atoms: C_1  and  C_2 
REMARK    2  A    between atoms: C_6  and  O_25 
REMARK    3  A    between atoms: C_12  and  C_13 
REMARK    4  A    between atoms: C_13  and  C_14 
REMARK       I    between atoms: C_14  and  N_16 
REMARK       I    between atoms: N_16  and  CA_17 
REMARK    5  A    between atoms: CA_17  and  CB_19 
REMARK       I    between atoms: CA_17  and  C_23 
REMARK    6  A    between atoms: CB_19  and  CG_20 
REMARK    7  A    between atoms: CG_20  and  SD_21 
REMARK    8  A    between atoms: SD_21  and  CE_22 
REMARK    9  A    between atoms: C_23  and  O_24 
REMARK   10  A    between atoms: O_25  and  C_26 
REMARK   11  A    between atoms: C_26  and  C_27 
REMARK   12  A    between atoms: C_27  and  C_29 
ROOT
ATOM      1  C   UNK d   0       1.524  -2.201 -10.988  0.00  0.00    -0.029 A 
ATOM      2  C   UNK d   0       2.203  -1.554  -9.864  0.00  0.00     0.022 A 
ATOM      3  C   UNK d   0       2.146  -0.166  -9.688  0.00  0.00    -0.029 A 
ATOM      4  C   UNK d   0       2.788   0.411  -8.631  0.00  0.00     0.083 A 
ATOM      5  C   UNK d   0       3.502  -0.373  -7.724  0.00  0.00     0.143 A 
ATOM      6  C   UNK d   0       3.573  -1.747  -7.886  0.00  0.00     0.025 A 
ATOM      7  C   UNK d   0       2.921  -2.350  -8.951  0.00  0.00     0.143 A 
ATOM      8  O   UNK d   0       2.974  -3.688  -9.124  0.00  0.00    -0.422 OA
ATOM      9  C   UNK d   0       2.352  -4.287 -10.152  0.00  0.00     0.341 A 
ATOM     10  O   UNK d   0       2.427  -5.497 -10.267  0.00  0.00    -0.245 OA
ATOM     11  C   UNK d   0       1.616  -3.551 -11.103  0.00  0.00     0.049 A 
ATOM     12 CL   UNK d   0       2.718   2.131  -8.414  0.00  0.00    -0.080 Cl
ATOM     13  H   UNK d   0       1.595   0.446 -10.388  0.00  0.00     0.064 H 
ATOM     14  H   UNK d   0       4.130  -2.347  -7.182  0.00  0.00     0.069 H 
ENDROOT
BRANCH  11  15
ATOM     15  C   UNK d   0       0.932  -4.260 -12.244  0.00  0.00     0.056 C 
ATOM     16  H   UNK d   0       0.807  -3.570 -13.077  0.00  0.00     0.041 H 
ATOM     17  H   UNK d   0       1.542  -5.107 -12.561  0.00  0.00     0.041 H 
BRANCH  15  18
ATOM     18  C   UNK d   0      -0.417  -4.754 -11.791  0.00  0.00     0.218 C 
ATOM     19  O   UNK d   0      -1.416  -4.116 -12.052  0.00  0.00    -0.275 OA
ATOM     20  N   MET d   1      -0.516  -5.906 -11.099  0.00  0.00    -0.310 N 
ATOM     21  CA  MET d   1      -1.829  -6.387 -10.659  0.00  0.00     0.047 C 
ATOM     22  H   MET d   1       0.282  -6.417 -10.891  0.00  0.00     0.149 HD
ATOM     23  HA  MET d   1      -2.578  -6.133 -11.410  0.00  0.00     0.052 H 
ATOM     24  C   MET d   1      -2.194  -5.726  -9.329  0.00  0.00     0.063 C 
ATOM     25  H1  MET d   1      -2.142  -4.643  -9.435  0.00  0.00     0.058 H 
ATOM     26  H2  MET d   1      -3.207  -6.016  -9.047  0.00  0.00     0.058 H 
BRANCH  21  27
ATOM     27  CB  MET d   1      -1.782  -7.906 -10.479  0.00  0.00    -0.023 C 
ATOM     28  HB1 MET d   1      -1.994  -8.155  -9.439  0.00  0.00     0.029 H 
ATOM     29  HB2 MET d   1      -2.527  -8.371 -11.124  0.00  0.00     0.029 H 
BRANCH  27  30
ATOM     30  CG  MET d   1      -0.390  -8.421 -10.853  0.00  0.00    -0.005 C 
ATOM     31  HG1 MET d   1      -0.032  -7.893 -11.737  0.00  0.00     0.038 H 
ATOM     32  HG2 MET d   1       0.296  -8.247 -10.024  0.00  0.00     0.038 H 
BRANCH  30  33
ATOM     33  SD  MET d   1      -0.476 -10.198 -11.203  0.00  0.00    -0.164 SA
BRANCH  33  34
ATOM     34  CE  MET d   1      -1.361 -10.291 -12.783  0.00  0.00    -0.018 C 
ATOM     35  HE1 MET d   1      -0.985  -9.521 -13.456  0.00  0.00     0.034 H 
ATOM     36  HE2 MET d   1      -1.203 -11.272 -13.231  0.00  0.00     0.034 H 
ATOM     37  HE3 MET d   1      -2.427 -10.136 -12.614  0.00  0.00     0.034 H 
ENDBRANCH  33  34
ENDBRANCH  30  33
ENDBRANCH  27  30
ENDBRANCH  21  27
BRANCH  24  38
ATOM     38  O   MET d   1      -1.278  -6.152  -8.319  0.00  0.00    -0.393 OA
ATOM     39  H   MET d   1      -1.649  -6.793  -7.697  0.00  0.00     0.209 HD
ENDBRANCH  24  38
ENDBRANCH  15  18
ENDBRANCH  11  15
BRANCH   1  40
ATOM     40  C   UNK d   0       0.743  -1.390 -11.990  0.00  0.00    -0.038 C 
ATOM     41  H   UNK d   0      -0.298  -1.712 -11.985  0.00  0.00     0.028 H 
ATOM     42  H   UNK d   0       0.797  -0.334 -11.724  0.00  0.00     0.028 H 
ATOM     43  H   UNK d   0       1.165  -1.536 -12.984  0.00  0.00     0.028 H 
ENDBRANCH   1  40
BRANCH   5  44
ATOM     44  O   UNK d   0       4.135   0.215  -6.678  0.00  0.00    -0.486 OA
BRANCH  44  45
ATOM     45  C   UNK d   0       4.244  -0.547  -5.473  0.00  0.00     0.110 C 
ATOM     46  H   UNK d   0       5.224  -0.380  -5.026  0.00  0.00     0.074 H 
ATOM     47  H   UNK d   0       4.124  -1.606  -5.702  0.00  0.00     0.074 H 
BRANCH  45  48
ATOM     48  C   UNK d   0       3.170  -0.116  -4.508  0.00  0.00    -0.043 C 
ATOM     49  C   UNK d   0       2.458   0.955  -4.755  0.00  0.00    -0.097 C 
ATOM     50  H   UNK d   0       2.640   1.530  -5.652  0.00  0.00     0.053 H 
ATOM     51  H   UNK d   0       1.689   1.263  -4.063  0.00  0.00     0.053 H 
BRANCH  48  52
ATOM     52  C   UNK d   0       2.911  -0.921  -3.260  0.00  0.00    -0.041 C 
ATOM     53  H   UNK d   0       1.977  -1.471  -3.369  0.00  0.00     0.028 H 
ATOM     54  H   UNK d   0       3.731  -1.621  -3.103  0.00  0.00     0.028 H 
ATOM     55  H   UNK d   0       2.839  -0.249  -2.403  0.00  0.00     0.028 H 
ENDBRANCH  48  52
ENDBRANCH  45  48
ENDBRANCH  44  45
ENDBRANCH   5  44
TORSDOF 14
ENDMDL
MODEL 4
REMARK VINA RESULT:      -5.4      3.379      4.479
REMARK  12 active torsions:
REMARK  status: ('A' for Active; 'I' for Inactive)
REMARK    1  A    between atoms: C_1  and  C_2 
REMARK    2  A    between atoms: C_6  and  O_25 
REMARK    3  A    between atoms: C_12  and  C_13 
REMARK    4  A    between atoms: C_13  and  C_14 
REMARK       I    between atoms: C_14  and  N_16 
REMARK       I    between atoms: N_16  and  CA_17 
REMARK    5  A    between atoms: CA_17  and  CB_19 
REMARK       I    between atoms: CA_17  and  C_23 
REMARK    6  A    between atoms: CB_19  and  CG_20 
REMARK    7  A    between atoms: CG_20  and  SD_21 
REMARK    8  A    between atoms: SD_21  and  CE_22 
REMARK    9  A    between atoms: C_23  and  O_24 
REMARK   10  A    between atoms: O_25  and  C_26 
REMARK   11  A    between atoms: C_26  and  C_27 
REMARK   12  A    between atoms: C_27  and  C_29 
ROOT
ATOM      1  C   UNK d   0       3.870  -2.381  -9.536  0.00  0.00    -0.029 A 
ATOM      2  C   UNK d   0       3.926  -1.639  -8.275  0.00  0.00     0.022 A 
ATOM      3  C   UNK d   0       4.949  -1.869  -7.348  0.00  0.00    -0.029 A 
ATOM      4  C   UNK d   0       4.978  -1.163  -6.180  0.00  0.00     0.083 A 
ATOM      5  C   UNK d   0       3.993  -0.214  -5.904  0.00  0.00     0.143 A 
ATOM      6  C   UNK d   0       2.971   0.022  -6.808  0.00  0.00     0.025 A 
ATOM      7  C   UNK d   0       2.930  -0.683  -8.002  0.00  0.00     0.143 A 
ATOM      8  O   UNK d   0       1.945  -0.463  -8.899  0.00  0.00    -0.422 OA
ATOM      9  C   UNK d   0       1.889  -1.140 -10.057  0.00  0.00     0.341 A 
ATOM     10  O   UNK d   0       0.981  -0.909 -10.836  0.00  0.00    -0.245 OA
ATOM     11  C   UNK d   0       2.852  -2.112 -10.395  0.00  0.00     0.049 A 
ATOM     12 CL   UNK d   0       6.246  -1.448  -5.030  0.00  0.00    -0.080 Cl
ATOM     13  H   UNK d   0       5.714  -2.603  -7.557  0.00  0.00     0.064 H 
ATOM     14  H   UNK d   0       2.210   0.755  -6.586  0.00  0.00     0.069 H 
ENDROOT
BRANCH  11  15
ATOM     15  C   UNK d   0       2.755  -2.850 -11.705  0.00  0.00     0.056 C 
ATOM     16  H   UNK d   0       2.265  -2.216 -12.444  0.00  0.00     0.041 H 
ATOM     17  H   UNK d   0       3.756  -3.107 -12.053  0.00  0.00     0.041 H 
BRANCH  15  18
ATOM     18  C   UNK d   0       1.952  -4.111 -11.513  0.00  0.00     0.218 C 
ATOM     19  O   UNK d   0       2.495  -5.193 -11.584  0.00  0.00    -0.275 OA
ATOM     20  N   MET d   1       0.630  -4.036 -11.262  0.00  0.00    -0.310 N 
ATOM     21  CA  MET d   1      -0.151  -5.262 -11.075  0.00  0.00     0.047 C 
ATOM     22  H   MET d   1       0.195  -3.171 -11.206  0.00  0.00     0.149 HD
ATOM     23  HA  MET d   1       0.461  -6.009 -10.569  0.00  0.00     0.052 H 
ATOM     24  C   MET d   1      -0.589  -5.800 -12.439  0.00  0.00     0.063 C 
ATOM     25  H1  MET d   1       0.286  -5.935 -13.074  0.00  0.00     0.058 H 
ATOM     26  H2  MET d   1      -1.094  -6.757 -12.306  0.00  0.00     0.058 H 
BRANCH  21  27
ATOM     27  CB  MET d   1      -1.387  -4.955 -10.227  0.00  0.00    -0.023 C 
ATOM     28  HB1 MET d   1      -1.195  -4.077  -9.609  0.00  0.00     0.029 H 
ATOM     29  HB2 MET d   1      -2.237  -4.761 -10.880  0.00  0.00     0.029 H 
BRANCH  27  30
ATOM     30  CG  MET d   1      -1.698  -6.153  -9.327  0.00  0.00    -0.005 C 
ATOM     31  HG1 MET d   1      -0.838  -6.823  -9.302  0.00  0.00     0.038 H 
ATOM     32  HG2 MET d   1      -1.914  -5.802  -8.318  0.00  0.00     0.038 H 
BRANCH  30  33
ATOM     33  SD  MET d   1      -3.138  -7.042  -9.979  0.00  0.00    -0.164 SA
BRANCH  33  34
ATOM     34  CE  MET d   1      -4.121  -5.751 -10.788  0.00  0.00    -0.018 C 
ATOM     35  HE1 MET d   1      -3.750  -5.590 -11.799  0.00  0.00     0.034 H 
ATOM     36  HE2 MET d   1      -5.166  -6.061 -10.830  0.00  0.00     0.034 H 
ATOM     37  HE3 MET d   1      -4.041  -4.823 -10.220  0.00  0.00     0.034 H 
ENDBRANCH  33  34
ENDBRANCH  30  33
ENDBRANCH  27  30
ENDBRANCH  21  27
BRANCH  24  38
ATOM     38  O   MET d   1      -1.485  -4.871 -13.052  0.00  0.00    -0.393 OA
ATOM     39  H   MET d   1      -1.220  -4.598 -13.941  0.00  0.00     0.209 HD
ENDBRANCH  24  38
ENDBRANCH  15  18
ENDBRANCH  11  15
BRANCH   1  40
ATOM     40  C   UNK d   0       4.914  -3.415  -9.872  0.00  0.00    -0.038 C 
ATOM     41  H   UNK d   0       5.169  -3.978  -8.975  0.00  0.00     0.028 H 
ATOM     42  H   UNK d   0       4.522  -4.094 -10.628  0.00  0.00     0.028 H 
ATOM     43  H   UNK d   0       5.805  -2.919 -10.257  0.00  0.00     0.028 H 
ENDBRANCH   1  40
BRANCH   5  44
ATOM     44  O   UNK d   0       4.035   0.480  -4.738  0.00  0.00    -0.486 OA
BRANCH  44  45
ATOM     45  C   UNK d   0       3.163   0.045  -3.692  0.00  0.00     0.110 C 
ATOM     46  H   UNK d   0       2.655  -0.869  -4.000  0.00  0.00     0.074 H 
ATOM     47  H   UNK d   0       2.425   0.820  -3.488  0.00  0.00     0.074 H 
BRANCH  45  48
ATOM     48  C   UNK d   0       3.969  -0.223  -2.447  0.00  0.00    -0.043 C 
ATOM     49  C   UNK d   0       4.443   0.776  -1.746  0.00  0.00    -0.097 C 
ATOM     50  H   UNK d   0       4.256   1.793  -2.059  0.00  0.00     0.053 H 
ATOM     51  H   UNK d   0       5.020   0.584  -0.854  0.00  0.00     0.053 H 
BRANCH  48  52
ATOM     52  C   UNK d   0       4.225  -1.641  -2.006  0.00  0.00    -0.041 C 
ATOM     53  H   UNK d   0       4.660  -1.638  -1.006  0.00  0.00     0.028 H 
ATOM     54  H   UNK d   0       3.286  -2.193  -1.993  0.00  0.00     0.028 H 
ATOM     55  H   UNK d   0       4.917  -2.119  -2.701  0.00  0.00     0.028 H 
ENDBRANCH  48  52
ENDBRANCH  45  48
ENDBRANCH  44  45
ENDBRANCH   5  44
TORSDOF 14
ENDMDL
MODEL 5
REMARK VINA RESULT:      -5.2      2.454      4.155
REMARK  12 active torsions:
REMARK  status: ('A' for Active; 'I' for Inactive)
REMARK    1  A    between atoms: C_1  and  C_2 
REMARK    2  A    between atoms: C_6  and  O_25 
REMARK    3  A    between atoms: C_12  and  C_13 
REMARK    4  A    between atoms: C_13  and  C_14 
REMARK       I    between atoms: C_14  and  N_16 
REMARK       I    between atoms: N_16  and  CA_17 
REMARK    5  A    between atoms: CA_17  and  CB_19 
REMARK       I    between atoms: CA_17  and  C_23 
REMARK    6  A    between atoms: CB_19  and  CG_20 
REMARK    7  A    between atoms: CG_20  and  SD_21 
REMARK    8  A    between atoms: SD_21  and  CE_22 
REMARK    9  A    between atoms: C_23  and  O_24 
REMARK   10  A    between atoms: O_25  and  C_26 
REMARK   11  A    between atoms: C_26  and  C_27 
REMARK   12  A    between atoms: C_27  and  C_29 
ROOT
ATOM      1  C   UNK d   0       4.280  -1.442  -9.946  0.00  0.00    -0.029 A 
ATOM      2  C   UNK d   0       4.092  -0.954  -8.578  0.00  0.00     0.022 A 
ATOM      3  C   UNK d   0       5.146  -0.970  -7.656  0.00  0.00    -0.029 A 
ATOM      4  C   UNK d   0       4.944  -0.510  -6.387  0.00  0.00     0.083 A 
ATOM      5  C   UNK d   0       3.695  -0.023  -6.003  0.00  0.00     0.143 A 
ATOM      6  C   UNK d   0       2.640  -0.004  -6.901  0.00  0.00     0.025 A 
ATOM      7  C   UNK d   0       2.830  -0.463  -8.196  0.00  0.00     0.143 A 
ATOM      8  O   UNK d   0       1.817  -0.449  -9.088  0.00  0.00    -0.422 OA
ATOM      9  C   UNK d   0       1.982  -0.893 -10.344  0.00  0.00     0.341 A 
ATOM     10  O   UNK d   0       1.039  -0.861 -11.114  0.00  0.00    -0.245 OA
ATOM     11  C   UNK d   0       3.219  -1.398 -10.794  0.00  0.00     0.049 A 
ATOM     12 CL   UNK d   0       6.250  -0.531  -5.244  0.00  0.00    -0.080 Cl
ATOM     13  H   UNK d   0       6.116  -1.347  -7.949  0.00  0.00     0.064 H 
ATOM     14  H   UNK d   0       1.675   0.370  -6.595  0.00  0.00     0.069 H 
ENDROOT
BRANCH  11  15
ATOM     15  C   UNK d   0       3.365  -1.888 -12.212  0.00  0.00     0.056 C 
ATOM     16  H   UNK d   0       2.818  -1.226 -12.883  0.00  0.00     0.041 H 
ATOM     17  H   UNK d   0       4.421  -1.893 -12.487  0.00  0.00     0.041 H 
BRANCH  15  18
ATOM     18  C   UNK d   0       2.811  -3.285 -12.321  0.00  0.00     0.218 C 
ATOM     19  O   UNK d   0       2.115  -3.590 -13.267  0.00  0.00    -0.275 OA
ATOM     20  N   MET d   1       3.089  -4.197 -11.368  0.00  0.00    -0.310 N 
ATOM     21  CA  MET d   1       2.550  -5.555 -11.474  0.00  0.00     0.047 C 
ATOM     22  H   MET d   1       3.646  -3.953 -10.612  0.00  0.00     0.149 HD
ATOM     23  HA  MET d   1       2.517  -5.852 -12.523  0.00  0.00     0.052 H 
ATOM     24  C   MET d   1       1.137  -5.590 -10.889  0.00  0.00     0.063 C 
ATOM     25  H1  MET d   1       0.521  -4.839 -11.382  0.00  0.00     0.058 H 
ATOM     26  H2  MET d   1       0.704  -6.578 -11.047  0.00  0.00     0.058 H 
BRANCH  21  27
ATOM     27  CB  MET d   1       3.448  -6.522 -10.699  0.00  0.00    -0.023 C 
ATOM     28  HB1 MET d   1       2.907  -6.905  -9.833  0.00  0.00     0.029 H 
ATOM     29  HB2 MET d   1       3.733  -7.351 -11.346  0.00  0.00     0.029 H 
BRANCH  27  30
ATOM     30  CG  MET d   1       4.705  -5.785 -10.229  0.00  0.00    -0.005 C 
ATOM     31  HG1 MET d   1       5.576  -6.188 -10.745  0.00  0.00     0.038 H 
ATOM     32  HG2 MET d   1       4.608  -4.723 -10.454  0.00  0.00     0.038 H 
BRANCH  30  33
ATOM     33  SD  MET d   1       4.903  -6.009  -8.440  0.00  0.00    -0.164 SA
BRANCH  33  34
ATOM     34  CE  MET d   1       4.067  -4.569  -7.723  0.00  0.00    -0.018 C 
ATOM     35  HE1 MET d   1       2.991  -4.743  -7.708  0.00  0.00     0.034 H 
ATOM     36  HE2 MET d   1       4.422  -4.411  -6.704  0.00  0.00     0.034 H 
ATOM     37  HE3 MET d   1       4.283  -3.685  -8.324  0.00  0.00     0.034 H 
ENDBRANCH  33  34
ENDBRANCH  30  33
ENDBRANCH  27  30
ENDBRANCH  21  27
BRANCH  24  38
ATOM     38  O   MET d   1       1.196  -5.315  -9.488  0.00  0.00    -0.393 OA
ATOM     39  H   MET d   1       1.990  -5.655  -9.053  0.00  0.00     0.209 HD
ENDBRANCH  24  38
ENDBRANCH  15  18
ENDBRANCH  11  15
BRANCH   1  40
ATOM     40  C   UNK d   0       5.613  -1.975 -10.401  0.00  0.00    -0.038 C 
ATOM     41  H   UNK d   0       6.408  -1.516  -9.814  0.00  0.00     0.028 H 
ATOM     42  H   UNK d   0       5.639  -3.056 -10.262  0.00  0.00     0.028 H 
ATOM     43  H   UNK d   0       5.758  -1.741 -11.456  0.00  0.00     0.028 H 
ENDBRANCH   1  40
BRANCH   5  44
ATOM     44  O   UNK d   0       3.509   0.432  -4.737  0.00  0.00    -0.486 OA
BRANCH  44  45
ATOM     45  C   UNK d   0       2.795  -0.421  -3.840  0.00  0.00     0.110 C 
ATOM     46  H   UNK d   0       2.501  -1.332  -4.361  0.00  0.00     0.074 H 
ATOM     47  H   UNK d   0       1.905   0.095  -3.479  0.00  0.00     0.074 H 
BRANCH  45  48
ATOM     48  C   UNK d   0       3.680  -0.774  -2.672  0.00  0.00    -0.043 C 
ATOM     49  C   UNK d   0       3.859  -2.028  -2.341  0.00  0.00    -0.097 C 
ATOM     50  H   UNK d   0       3.374  -2.811  -2.905  0.00  0.00     0.053 H 
ATOM     51  H   UNK d   0       4.493  -2.280  -1.504  0.00  0.00     0.053 H 
BRANCH  48  52
ATOM     52  C   UNK d   0       4.362   0.317  -1.887  0.00  0.00    -0.041 C 
ATOM     53  H   UNK d   0       4.120   0.212  -0.830  0.00  0.00     0.028 H 
ATOM     54  H   UNK d   0       5.441   0.243  -2.023  0.00  0.00     0.028 H 
ATOM     55  H   UNK d   0       4.019   1.290  -2.243  0.00  0.00     0.028 H 
ENDBRANCH  48  52
ENDBRANCH  45  48
ENDBRANCH  44  45
ENDBRANCH   5  44
TORSDOF 14
ENDMDL
MODEL 6
REMARK VINA RESULT:      -5.2      7.411     10.540
REMARK  12 active torsions:
REMARK  status: ('A' for Active; 'I' for Inactive)
REMARK    1  A    between atoms: C_1  and  C_2 
REMARK    2  A    between atoms: C_6  and  O_25 
REMARK    3  A    between atoms: C_12  and  C_13 
REMARK    4  A    between atoms: C_13  and  C_14 
REMARK       I    between atoms: C_14  and  N_16 
REMARK       I    between atoms: N_16  and  CA_17 
REMARK    5  A    between atoms: CA_17  and  CB_19 
REMARK       I    between atoms: CA_17  and  C_23 
REMARK    6  A    between atoms: CB_19  and  CG_20 
REMARK    7  A    between atoms: CG_20  and  SD_21 
REMARK    8  A    between atoms: SD_21  and  CE_22 
REMARK    9  A    between atoms: C_23  and  O_24 
REMARK   10  A    between atoms: O_25  and  C_26 
REMARK   11  A    between atoms: C_26  and  C_27 
REMARK   12  A    between atoms: C_27  and  C_29 
ROOT
ATOM      1  C   UNK d   0       9.385   3.281  -5.841  0.00  0.00    -0.029 A 
ATOM      2  C   UNK d   0       8.499   2.169  -5.491  0.00  0.00     0.022 A 
ATOM      3  C   UNK d   0       7.926   1.363  -6.482  0.00  0.00    -0.029 A 
ATOM      4  C   UNK d   0       7.103   0.333  -6.127  0.00  0.00     0.083 A 
ATOM      5  C   UNK d   0       6.829   0.078  -4.784  0.00  0.00     0.143 A 
ATOM      6  C   UNK d   0       7.384   0.869  -3.790  0.00  0.00     0.025 A 
ATOM      7  C   UNK d   0       8.226   1.916  -4.133  0.00  0.00     0.143 A 
ATOM      8  O   UNK d   0       8.781   2.695  -3.180  0.00  0.00    -0.422 OA
ATOM      9  C   UNK d   0       9.595   3.715  -3.495  0.00  0.00     0.341 A 
ATOM     10  O   UNK d   0      10.073   4.390  -2.601  0.00  0.00    -0.245 OA
ATOM     11  C   UNK d   0       9.911   4.025  -4.834  0.00  0.00     0.049 A 
ATOM     12 CL   UNK d   0       6.392  -0.665  -7.356  0.00  0.00    -0.080 Cl
ATOM     13  H   UNK d   0       8.135   1.556  -7.524  0.00  0.00     0.064 H 
ATOM     14  H   UNK d   0       7.165   0.668  -2.753  0.00  0.00     0.069 H 
ENDROOT
BRANCH  11  15
ATOM     15  C   UNK d   0      10.829   5.178  -5.146  0.00  0.00     0.056 C 
ATOM     16  H   UNK d   0      10.596   5.569  -6.137  0.00  0.00     0.041 H 
ATOM     17  H   UNK d   0      10.691   5.964  -4.403  0.00  0.00     0.041 H 
BRANCH  15  18
ATOM     18  C   UNK d   0      12.259   4.704  -5.116  0.00  0.00     0.218 C 
ATOM     19  O   UNK d   0      12.878   4.575  -6.152  0.00  0.00    -0.275 OA
ATOM     20  N   MET d   1      12.852   4.426  -3.939  0.00  0.00    -0.310 N 
ATOM     21  CA  MET d   1      14.243   3.965  -3.909  0.00  0.00     0.047 C 
ATOM     22  H   MET d   1      12.358   4.529  -3.110  0.00  0.00     0.149 HD
ATOM     23  HA  MET d   1      14.806   4.459  -4.703  0.00  0.00     0.052 H 
ATOM     24  C   MET d   1      14.283   2.451  -4.121  0.00  0.00     0.063 C 
ATOM     25  H1  MET d   1      13.762   2.199  -5.044  0.00  0.00     0.058 H 
ATOM     26  H2  MET d   1      15.320   2.121  -4.188  0.00  0.00     0.058 H 
BRANCH  21  27
ATOM     27  CB  MET d   1      14.865   4.307  -2.554  0.00  0.00    -0.023 C 
ATOM     28  HB1 MET d   1      15.106   3.387  -2.022  0.00  0.00     0.029 H 
ATOM     29  HB2 MET d   1      15.776   4.887  -2.708  0.00  0.00     0.029 H 
BRANCH  27  30
ATOM     30  CG  MET d   1      13.871   5.128  -1.729  0.00  0.00    -0.005 C 
ATOM     31  HG1 MET d   1      13.159   5.614  -2.397  0.00  0.00     0.038 H 
ATOM     32  HG2 MET d   1      13.337   4.470  -1.045  0.00  0.00     0.038 H 
BRANCH  30  33
ATOM     33  SD  MET d   1      14.767   6.387  -0.781  0.00  0.00    -0.164 SA
BRANCH  33  34
ATOM     34  CE  MET d   1      16.244   5.520  -0.186  0.00  0.00    -0.018 C 
ATOM     35  HE1 MET d   1      16.888   5.276  -1.030  0.00  0.00     0.034 H 
ATOM     36  HE2 MET d   1      16.787   6.160   0.510  0.00  0.00     0.034 H 
ATOM     37  HE3 MET d   1      15.947   4.602   0.322  0.00  0.00     0.034 H 
ENDBRANCH  33  34
ENDBRANCH  30  33
ENDBRANCH  27  30
ENDBRANCH  21  27
BRANCH  24  38
ATOM     38  O   MET d   1      13.646   1.799  -3.021  0.00  0.00    -0.393 OA
ATOM     39  H   MET d   1      12.805   1.378  -3.247  0.00  0.00     0.209 HD
ENDBRANCH  24  38
ENDBRANCH  15  18
ENDBRANCH  11  15
BRANCH   1  40
ATOM     40  C   UNK d   0       9.706   3.589  -7.281  0.00  0.00    -0.038 C 
ATOM     41  H   UNK d   0       8.822   3.995  -7.771  0.00  0.00     0.028 H 
ATOM     42  H   UNK d   0      10.513   4.320  -7.324  0.00  0.00     0.028 H 
ATOM     43  H   UNK d   0      10.016   2.675  -7.787  0.00  0.00     0.028 H 
ENDBRANCH   1  40
BRANCH   5  44
ATOM     44  O   UNK d   0       6.009  -0.950  -4.447  0.00  0.00    -0.486 OA
BRANCH  44  45
ATOM     45  C   UNK d   0       6.064  -1.406  -3.093  0.00  0.00     0.110 C 
ATOM     46  H   UNK d   0       6.831  -0.850  -2.553  0.00  0.00     0.074 H 
ATOM     47  H   UNK d   0       6.307  -2.469  -3.078  0.00  0.00     0.074 H 
BRANCH  45  48
ATOM     48  C   UNK d   0       4.726  -1.186  -2.435  0.00  0.00    -0.043 C 
ATOM     49  C   UNK d   0       3.827  -2.137  -2.445  0.00  0.00    -0.097 C 
ATOM     50  H   UNK d   0       4.043  -3.081  -2.925  0.00  0.00     0.053 H 
ATOM     51  H   UNK d   0       2.868  -1.979  -1.973  0.00  0.00     0.053 H 
BRANCH  48  52
ATOM     52  C   UNK d   0       4.426   0.127  -1.760  0.00  0.00    -0.041 C 
ATOM     53  H   UNK d   0       3.404   0.117  -1.381  0.00  0.00     0.028 H 
ATOM     54  H   UNK d   0       5.120   0.279  -0.934  0.00  0.00     0.028 H 
ATOM     55  H   UNK d   0       4.537   0.940  -2.480  0.00  0.00     0.028 H 
ENDBRANCH  48  52
ENDBRANCH  45  48
ENDBRANCH  44  45
ENDBRANCH   5  44
TORSDOF 14
ENDMDL
MODEL 7
REMARK VINA RESULT:      -5.2      3.410      4.611
REMARK  12 active torsions:
REMARK  status: ('A' for Active; 'I' for Inactive)
REMARK    1  A    between atoms: C_1  and  C_2 
REMARK    2  A    between atoms: C_6  and  O_25 
REMARK    3  A    between atoms: C_12  and  C_13 
REMARK    4  A    between atoms: C_13  and  C_14 
REMARK       I    between atoms: C_14  and  N_16 
REMARK       I    between atoms: N_16  and  CA_17 
REMARK    5  A    between atoms: CA_17  and  CB_19 
REMARK       I    between atoms: CA_17  and  C_23 
REMARK    6  A    between atoms: CB_19  and  CG_20 
REMARK    7  A    between atoms: CG_20  and  SD_21 
REMARK    8  A    between atoms: SD_21  and  CE_22 
REMARK    9  A    between atoms: C_23  and  O_24 
REMARK   10  A    between atoms: O_25  and  C_26 
REMARK   11  A    between atoms: C_26  and  C_27 
REMARK   12  A    between atoms: C_27  and  C_29 
ROOT
ATOM      1  C   UNK d   0       2.657  -1.053  -9.657  0.00  0.00    -0.029 A 
ATOM      2  C   UNK d   0       3.303  -0.832  -8.362  0.00  0.00     0.022 A 
ATOM      3  C   UNK d   0       2.647  -0.142  -7.336  0.00  0.00    -0.029 A 
ATOM      4  C   UNK d   0       3.273   0.048  -6.138  0.00  0.00     0.083 A 
ATOM      5  C   UNK d   0       4.563  -0.439  -5.929  0.00  0.00     0.143 A 
ATOM      6  C   UNK d   0       5.229  -1.120  -6.936  0.00  0.00     0.025 A 
ATOM      7  C   UNK d   0       4.605  -1.328  -8.156  0.00  0.00     0.143 A 
ATOM      8  O   UNK d   0       5.234  -1.994  -9.148  0.00  0.00    -0.422 OA
ATOM      9  C   UNK d   0       4.647  -2.199 -10.337  0.00  0.00     0.341 A 
ATOM     10  O   UNK d   0       5.253  -2.806 -11.202  0.00  0.00    -0.245 OA
ATOM     11  C   UNK d   0       3.345  -1.731 -10.611  0.00  0.00     0.049 A 
ATOM     12 CL   UNK d   0       2.459   0.905  -4.867  0.00  0.00    -0.080 Cl
ATOM     13  H   UNK d   0       1.648   0.238  -7.492  0.00  0.00     0.064 H 
ATOM     14  H   UNK d   0       6.228  -1.492  -6.768  0.00  0.00     0.069 H 
ENDROOT
BRANCH  11  15
ATOM     15  C   UNK d   0       2.720  -1.982 -11.959  0.00  0.00     0.056 C 
ATOM     16  H   UNK d   0       1.970  -1.217 -12.160  0.00  0.00     0.041 H 
ATOM     17  H   UNK d   0       3.491  -1.947 -12.729  0.00  0.00     0.041 H 
BRANCH  15  18
ATOM     18  C   UNK d   0       2.067  -3.340 -11.965  0.00  0.00     0.218 C 
ATOM     19  O   UNK d   0       2.653  -4.294 -12.433  0.00  0.00    -0.275 OA
ATOM     20  N   MET d   1       0.832  -3.497 -11.449  0.00  0.00    -0.310 N 
ATOM     21  CA  MET d   1       0.196  -4.817 -11.454  0.00  0.00     0.047 C 
ATOM     22  H   MET d   1       0.363  -2.734 -11.074  0.00  0.00     0.149 HD
ATOM     23  HA  MET d   1       0.955  -5.585 -11.301  0.00  0.00     0.052 H 
ATOM     24  C   MET d   1      -0.496  -5.044 -12.799  0.00  0.00     0.063 C 
ATOM     25  H1  MET d   1       0.223  -4.905 -13.606  0.00  0.00     0.058 H 
ATOM     26  H2  MET d   1      -0.892  -6.059 -12.836  0.00  0.00     0.058 H 
BRANCH  21  27
ATOM     27  CB  MET d   1      -0.838  -4.890 -10.329  0.00  0.00    -0.023 C 
ATOM     28  HB1 MET d   1      -0.543  -4.220  -9.521  0.00  0.00     0.029 H 
ATOM     29  HB2 MET d   1      -1.813  -4.591 -10.712  0.00  0.00     0.029 H 
BRANCH  27  30
ATOM     30  CG  MET d   1      -0.915  -6.324  -9.799  0.00  0.00    -0.005 C 
ATOM     31  HG1 MET d   1      -0.505  -7.008 -10.541  0.00  0.00     0.038 H 
ATOM     32  HG2 MET d   1      -0.339  -6.401  -8.877  0.00  0.00     0.038 H 
BRANCH  30  33
ATOM     33  SD  MET d   1      -2.645  -6.755  -9.470  0.00  0.00    -0.164 SA
BRANCH  33  34
ATOM     34  CE  MET d   1      -2.811  -8.437 -10.126  0.00  0.00    -0.018 C 
ATOM     35  HE1 MET d   1      -3.768  -8.856  -9.817  0.00  0.00     0.034 H 
ATOM     36  HE2 MET d   1      -2.763  -8.409 -11.215  0.00  0.00     0.034 H 
ATOM     37  HE3 MET d   1      -2.002  -9.059  -9.743  0.00  0.00     0.034 H 
ENDBRANCH  33  34
ENDBRANCH  30  33
ENDBRANCH  27  30
ENDBRANCH  21  27
BRANCH  24  38
ATOM     38  O   MET d   1      -1.566  -4.110 -12.948  0.00  0.00    -0.393 OA
ATOM     39  H   MET d   1      -1.517  -3.357 -12.342  0.00  0.00     0.209 HD
ENDBRANCH  24  38
ENDBRANCH  15  18
ENDBRANCH  11  15
BRANCH   1  40
ATOM     40  C   UNK d   0       1.264  -0.542  -9.923  0.00  0.00    -0.038 C 
ATOM     41  H   UNK d   0       1.310   0.287 -10.628  0.00  0.00     0.028 H 
ATOM     42  H   UNK d   0       0.658  -1.343 -10.344  0.00  0.00     0.028 H 
ATOM     43  H   UNK d   0       0.818  -0.201  -8.988  0.00  0.00     0.028 H 
ENDBRANCH   1  40
BRANCH   5  44
ATOM     44  O   UNK d   0       5.172  -0.241  -4.733  0.00  0.00    -0.486 OA
BRANCH  44  45
ATOM     45  C   UNK d   0       5.349  -1.388  -3.897  0.00  0.00     0.110 C 
ATOM     46  H   UNK d   0       6.399  -1.473  -3.615  0.00  0.00     0.074 H 
ATOM     47  H   UNK d   0       5.045  -2.283  -4.440  0.00  0.00     0.074 H 
BRANCH  45  48
ATOM     48  C   UNK d   0       4.505  -1.240  -2.657  0.00  0.00    -0.043 C 
ATOM     49  C   UNK d   0       3.752  -2.233  -2.256  0.00  0.00    -0.097 C 
ATOM     50  H   UNK d   0       3.735  -3.159  -2.813  0.00  0.00     0.053 H 
ATOM     51  H   UNK d   0       3.147  -2.127  -1.368  0.00  0.00     0.053 H 
BRANCH  48  52
ATOM     52  C   UNK d   0       4.532   0.048  -1.876  0.00  0.00    -0.041 C 
ATOM     53  H   UNK d   0       4.377  -0.164  -0.819  0.00  0.00     0.028 H 
ATOM     54  H   UNK d   0       5.497   0.536  -2.012  0.00  0.00     0.028 H 
ATOM     55  H   UNK d   0       3.740   0.707  -2.235  0.00  0.00     0.028 H 
ENDBRANCH  48  52
ENDBRANCH  45  48
ENDBRANCH  44  45
ENDBRANCH   5  44
TORSDOF 14
ENDMDL
MODEL 8
REMARK VINA RESULT:      -5.2      7.074      9.906
REMARK  12 active torsions:
REMARK  status: ('A' for Active; 'I' for Inactive)
REMARK    1  A    between atoms: C_1  and  C_2 
REMARK    2  A    between atoms: C_6  and  O_25 
REMARK    3  A    between atoms: C_12  and  C_13 
REMARK    4  A    between atoms: C_13  and  C_14 
REMARK       I    between atoms: C_14  and  N_16 
REMARK       I    between atoms: N_16  and  CA_17 
REMARK    5  A    between atoms: CA_17  and  CB_19 
REMARK       I    between atoms: CA_17  and  C_23 
REMARK    6  A    between atoms: CB_19  and  CG_20 
REMARK    7  A    between atoms: CG_20  and  SD_21 
REMARK    8  A    between atoms: SD_21  and  CE_22 
REMARK    9  A    between atoms: C_23  and  O_24 
REMARK   10  A    between atoms: O_25  and  C_26 
REMARK   11  A    between atoms: C_26  and  C_27 
REMARK   12  A    between atoms: C_27  and  C_29 
ROOT
ATOM      1  C   UNK d   0      10.475   2.778  -5.517  0.00  0.00    -0.029 A 
ATOM      2  C   UNK d   0       9.262   2.010  -5.231  0.00  0.00     0.022 A 
ATOM      3  C   UNK d   0       8.592   1.315  -6.245  0.00  0.00    -0.029 A 
ATOM      4  C   UNK d   0       7.464   0.606  -5.951  0.00  0.00     0.083 A 
ATOM      5  C   UNK d   0       6.972   0.570  -4.646  0.00  0.00     0.143 A 
ATOM      6  C   UNK d   0       7.620   1.256  -3.631  0.00  0.00     0.025 A 
ATOM      7  C   UNK d   0       8.771   1.976  -3.913  0.00  0.00     0.143 A 
ATOM      8  O   UNK d   0       9.420   2.647  -2.937  0.00  0.00    -0.422 OA
ATOM      9  C   UNK d   0      10.533   3.353  -3.193  0.00  0.00     0.341 A 
ATOM     10  O   UNK d   0      11.085   3.942  -2.281  0.00  0.00    -0.245 OA
ATOM     11  C   UNK d   0      11.080   3.430  -4.491  0.00  0.00     0.049 A 
ATOM     12 CL   UNK d   0       6.633  -0.255  -7.208  0.00  0.00    -0.080 Cl
ATOM     13  H   UNK d   0       8.968   1.340  -7.258  0.00  0.00     0.064 H 
ATOM     14  H   UNK d   0       7.232   1.227  -2.624  0.00  0.00     0.069 H 
ENDROOT
BRANCH  11  15
ATOM     15  C   UNK d   0      12.331   4.232  -4.737  0.00  0.00     0.056 C 
ATOM     16  H   UNK d   0      13.118   3.894  -4.063  0.00  0.00     0.041 H 
ATOM     17  H   UNK d   0      12.653   4.094  -5.770  0.00  0.00     0.041 H 
BRANCH  15  18
ATOM     18  C   UNK d   0      12.050   5.692  -4.491  0.00  0.00     0.218 C 
ATOM     19  O   UNK d   0      12.934   6.422  -4.093  0.00  0.00    -0.275 OA
ATOM     20  N   MET d   1      10.816   6.187  -4.713  0.00  0.00    -0.310 N 
ATOM     21  CA  MET d   1      10.542   7.607  -4.473  0.00  0.00     0.047 C 
ATOM     22  H   MET d   1      10.109   5.604  -5.031  0.00  0.00     0.149 HD
ATOM     23  HA  MET d   1      11.423   8.195  -4.732  0.00  0.00     0.052 H 
ATOM     24  C   MET d   1      10.202   7.818  -2.997  0.00  0.00     0.063 C 
ATOM     25  H1  MET d   1      11.006   7.420  -2.378  0.00  0.00     0.058 H 
ATOM     26  H2  MET d   1      10.085   8.884  -2.801  0.00  0.00     0.058 H 
BRANCH  21  27
ATOM     27  CB  MET d   1       9.361   8.051  -5.338  0.00  0.00    -0.023 C 
ATOM     28  HB1 MET d   1       9.341   7.462  -6.256  0.00  0.00     0.029 H 
ATOM     29  HB2 MET d   1       8.432   7.900  -4.789  0.00  0.00     0.029 H 
BRANCH  27  30
ATOM     30  CG  MET d   1       9.513   9.534  -5.686  0.00  0.00    -0.005 C 
ATOM     31  HG1 MET d   1       8.574  10.051  -5.490  0.00  0.00     0.038 H 
ATOM     32  HG2 MET d   1      10.303   9.971  -5.076  0.00  0.00     0.038 H 
BRANCH  30  33
ATOM     33  SD  MET d   1       9.940   9.702  -7.440  0.00  0.00    -0.164 SA
BRANCH  33  34
ATOM     34  CE  MET d   1       8.949   8.423  -8.258  0.00  0.00    -0.018 C 
ATOM     35  HE1 MET d   1       8.145   8.892  -8.824  0.00  0.00     0.034 H 
ATOM     36  HE2 MET d   1       9.582   7.849  -8.936  0.00  0.00     0.034 H 
ATOM     37  HE3 MET d   1       8.524   7.756  -7.508  0.00  0.00     0.034 H 
ENDBRANCH  33  34
ENDBRANCH  30  33
ENDBRANCH  27  30
ENDBRANCH  21  27
BRANCH  24  38
ATOM     38  O   MET d   1       8.983   7.140  -2.688  0.00  0.00    -0.393 OA
ATOM     39  H   MET d   1       8.453   7.576  -2.007  0.00  0.00     0.209 HD
ENDBRANCH  24  38
ENDBRANCH  15  18
ENDBRANCH  11  15
BRANCH   1  40
ATOM     40  C   UNK d   0      11.038   2.843  -6.914  0.00  0.00    -0.038 C 
ATOM     41  H   UNK d   0      10.788   1.927  -7.449  0.00  0.00     0.028 H 
ATOM     42  H   UNK d   0      10.611   3.697  -7.438  0.00  0.00     0.028 H 
ATOM     43  H   UNK d   0      12.121   2.952  -6.864  0.00  0.00     0.028 H 
ENDBRANCH   1  40
BRANCH   5  44
ATOM     44  O   UNK d   0       5.849  -0.139  -4.368  0.00  0.00    -0.486 OA
BRANCH  44  45
ATOM     45  C   UNK d   0       5.931  -1.096  -3.309  0.00  0.00     0.110 C 
ATOM     46  H   UNK d   0       6.826  -0.906  -2.717  0.00  0.00     0.074 H 
ATOM     47  H   UNK d   0       5.979  -2.100  -3.730  0.00  0.00     0.074 H 
BRANCH  45  48
ATOM     48  C   UNK d   0       4.712  -0.977  -2.430  0.00  0.00    -0.043 C 
ATOM     49  C   UNK d   0       4.482   0.134  -1.777  0.00  0.00    -0.097 C 
ATOM     50  H   UNK d   0       5.165   0.966  -1.868  0.00  0.00     0.053 H 
ATOM     51  H   UNK d   0       3.609   0.219  -1.147  0.00  0.00     0.053 H 
BRANCH  48  52
ATOM     52  C   UNK d   0       3.756  -2.135  -2.307  0.00  0.00    -0.041 C 
ATOM     53  H   UNK d   0       3.303  -2.129  -1.316  0.00  0.00     0.028 H 
ATOM     54  H   UNK d   0       2.978  -2.046  -3.065  0.00  0.00     0.028 H 
ATOM     55  H   UNK d   0       4.298  -3.071  -2.453  0.00  0.00     0.028 H 
ENDBRANCH  48  52
ENDBRANCH  45  48
ENDBRANCH  44  45
ENDBRANCH   5  44
TORSDOF 14
ENDMDL
MODEL 9
REMARK VINA RESULT:      -5.1      2.878      4.103
REMARK  12 active torsions:
REMARK  status: ('A' for Active; 'I' for Inactive)
REMARK    1  A    between atoms: C_1  and  C_2 
REMARK    2  A    between atoms: C_6  and  O_25 
REMARK    3  A    between atoms: C_12  and  C_13 
REMARK    4  A    between atoms: C_13  and  C_14 
REMARK       I    between atoms: C_14  and  N_16 
REMARK       I    between atoms: N_16  and  CA_17 
REMARK    5  A    between atoms: CA_17  and  CB_19 
REMARK       I    between atoms: CA_17  and  C_23 
REMARK    6  A    between atoms: CB_19  and  CG_20 
REMARK    7  A    between atoms: CG_20  and  SD_21 
REMARK    8  A    between atoms: SD_21  and  CE_22 
REMARK    9  A    between atoms: C_23  and  O_24 
REMARK   10  A    between atoms: O_25  and  C_26 
REMARK   11  A    between atoms: C_26  and  C_27 
REMARK   12  A    between atoms: C_27  and  C_29 
ROOT
ATOM      1  C   UNK d   0       3.491   0.205  -9.043  0.00  0.00    -0.029 A 
ATOM      2  C   UNK d   0       3.789  -0.243  -7.681  0.00  0.00     0.022 A 
ATOM      3  C   UNK d   0       3.010   0.177  -6.597  0.00  0.00    -0.029 A 
ATOM      4  C   UNK d   0       3.309  -0.257  -5.338  0.00  0.00     0.083 A 
ATOM      5  C   UNK d   0       4.387  -1.116  -5.124  0.00  0.00     0.143 A 
ATOM      6  C   UNK d   0       5.171  -1.538  -6.186  0.00  0.00     0.025 A 
ATOM      7  C   UNK d   0       4.877  -1.111  -7.472  0.00  0.00     0.143 A 
ATOM      8  O   UNK d   0       5.625  -1.515  -8.521  0.00  0.00    -0.422 OA
ATOM      9  C   UNK d   0       5.357  -1.108  -9.771  0.00  0.00     0.341 A 
ATOM     10  O   UNK d   0       6.060  -1.499 -10.686  0.00  0.00    -0.245 OA
ATOM     11  C   UNK d   0       4.283  -0.239 -10.053  0.00  0.00     0.049 A 
ATOM     12 CL   UNK d   0       2.344   0.266  -3.993  0.00  0.00    -0.080 Cl
ATOM     13  H   UNK d   0       2.174   0.843  -6.757  0.00  0.00     0.064 H 
ATOM     14  H   UNK d   0       6.006  -2.200  -6.013  0.00  0.00     0.069 H 
ENDROOT
BRANCH  11  15
ATOM     15  C   UNK d   0       4.014   0.195 -11.471  0.00  0.00     0.056 C 
ATOM     16  H   UNK d   0       3.411   1.103 -11.465  0.00  0.00     0.041 H 
ATOM     17  H   UNK d   0       4.960   0.390 -11.977  0.00  0.00     0.041 H 
BRANCH  15  18
ATOM     18  C   UNK d   0       3.272  -0.896 -12.199  0.00  0.00     0.218 C 
ATOM     19  O   UNK d   0       3.613  -1.220 -13.317  0.00  0.00    -0.275 OA
ATOM     20  N   MET d   1       2.230  -1.513 -11.607  0.00  0.00    -0.310 N 
ATOM     21  CA  MET d   1       1.508  -2.574 -12.315  0.00  0.00     0.047 C 
ATOM     22  H   MET d   1       1.957  -1.253 -10.713  0.00  0.00     0.149 HD
ATOM     23  HA  MET d   1       2.209  -3.145 -12.923  0.00  0.00     0.052 H 
ATOM     24  C   MET d   1       0.440  -1.950 -13.215  0.00  0.00     0.063 C 
ATOM     25  H1  MET d   1       0.905  -1.223 -13.881  0.00  0.00     0.058 H 
ATOM     26  H2  MET d   1      -0.037  -2.732 -13.807  0.00  0.00     0.058 H 
BRANCH  21  27
ATOM     27  CB  MET d   1       0.840  -3.502 -11.298  0.00  0.00    -0.023 C 
ATOM     28  HB1 MET d   1       1.574  -3.811 -10.553  0.00  0.00     0.029 H 
ATOM     29  HB2 MET d   1       0.023  -2.974 -10.807  0.00  0.00     0.029 H 
BRANCH  27  30
ATOM     30  CG  MET d   1       0.292  -4.736 -12.017  0.00  0.00    -0.005 C 
ATOM     31  HG1 MET d   1       0.445  -4.630 -13.091  0.00  0.00     0.038 H 
ATOM     32  HG2 MET d   1       0.814  -5.625 -11.662  0.00  0.00     0.038 H 
BRANCH  30  33
ATOM     33  SD  MET d   1      -1.481  -4.899 -11.673  0.00  0.00    -0.164 SA
BRANCH  33  34
ATOM     34  CE  MET d   1      -1.547  -5.362  -9.921  0.00  0.00    -0.018 C 
ATOM     35  HE1 MET d   1      -1.064  -6.328  -9.781  0.00  0.00     0.034 H 
ATOM     36  HE2 MET d   1      -1.031  -4.608  -9.326  0.00  0.00     0.034 H 
ATOM     37  HE3 MET d   1      -2.588  -5.427  -9.600  0.00  0.00     0.034 H 
ENDBRANCH  33  34
ENDBRANCH  30  33
ENDBRANCH  27  30
ENDBRANCH  21  27
BRANCH  24  38
ATOM     38  O   MET d   1      -0.542  -1.299 -12.408  0.00  0.00    -0.393 OA
ATOM     39  H   MET d   1      -1.136  -1.906 -11.945  0.00  0.00     0.209 HD
ENDBRANCH  24  38
ENDBRANCH  15  18
ENDBRANCH  11  15
BRANCH   1  40
ATOM     40  C   UNK d   0       2.336   1.134  -9.316  0.00  0.00    -0.038 C 
ATOM     41  H   UNK d   0       1.720   0.722 -10.115  0.00  0.00     0.028 H 
ATOM     42  H   UNK d   0       1.735   1.241  -8.414  0.00  0.00     0.028 H 
ATOM     43  H   UNK d   0       2.718   2.110  -9.616  0.00  0.00     0.028 H 
ENDBRANCH   1  40
BRANCH   5  44
ATOM     44  O   UNK d   0       4.672  -1.539  -3.867  0.00  0.00    -0.486 OA
BRANCH  44  45
ATOM     45  C   UNK d   0       5.902  -1.087  -3.294  0.00  0.00     0.110 C 
ATOM     46  H   UNK d   0       6.689  -1.127  -4.046  0.00  0.00     0.074 H 
ATOM     47  H   UNK d   0       6.168  -1.728  -2.454  0.00  0.00     0.074 H 
BRANCH  45  48
ATOM     48  C   UNK d   0       5.739   0.332  -2.812  0.00  0.00    -0.043 C 
ATOM     49  C   UNK d   0       6.442   1.293  -3.356  0.00  0.00    -0.097 C 
ATOM     50  H   UNK d   0       7.139   1.070  -4.151  0.00  0.00     0.053 H 
ATOM     51  H   UNK d   0       6.326   2.310  -3.010  0.00  0.00     0.053 H 
BRANCH  48  52
ATOM     52  C   UNK d   0       4.764   0.645  -1.706  0.00  0.00    -0.041 C 
ATOM     53  H   UNK d   0       5.301   1.064  -0.855  0.00  0.00     0.028 H 
ATOM     54  H   UNK d   0       4.028   1.364  -2.064  0.00  0.00     0.028 H 
ATOM     55  H   UNK d   0       4.256  -0.271  -1.399  0.00  0.00     0.028 H 
ENDBRANCH  48  52
ENDBRANCH  45  48
ENDBRANCH  44  45
ENDBRANCH   5  44
TORSDOF 14
ENDMDL
