MODEL 1
REMARK VINA RESULT:      -4.6      0.000      0.000
REMARK  7 active torsions:
REMARK  status: ('A' for Active; 'I' for Inactive)
REMARK    1  A    between atoms: C_1  and  C_2 
REMARK    2  A    between atoms: C_2  and  C_4 
REMARK    3  A    between atoms: C_5  and  O_13 
REMARK    4  A    between atoms: C_8  and  O_11 
REMARK    5  A    between atoms: C_9  and  O_10 
REMARK    6  A    between atoms: O_11  and  C_12 
REMARK    7  A    between atoms: O_13  and  C_14 
ROOT
ATOM      1  C   LIG d   1       5.154  -0.671  -3.549  0.00  0.00     0.104 A 
ATOM      2  C   LIG d   1       6.557  -0.702  -3.638  0.00  0.00     0.134 A 
ATOM      3  C   LIG d   1       7.196  -1.860  -4.042  0.00  0.00    -0.016 A 
ATOM      4  C   LIG d   1       6.460  -2.989  -4.360  0.00  0.00    -0.013 A 
ATOM      5  C   LIG d   1       5.078  -2.975  -4.272  0.00  0.00     0.162 A 
ATOM      6  C   LIG d   1       4.415  -1.821  -3.873  0.00  0.00     0.173 A 
ATOM      7  H   LIG d   1       8.273  -1.884  -4.111  0.00  0.00     0.066 H 
ATOM      8  H   LIG d   1       6.969  -3.888  -4.675  0.00  0.00     0.066 H 
ENDROOT
BRANCH   1   9
ATOM      9  C   LIG d   1       4.467   0.550  -3.120  0.00  0.00     0.167 C 
ATOM     10  O   LIG d   1       3.888   1.236  -3.936  0.00  0.00    -0.292 OA
BRANCH   9  11
ATOM     11  C   LIG d   1       4.481   0.952  -1.669  0.00  0.00    -0.001 C 
ATOM     12  H   LIG d   1       4.185   0.181  -1.106  0.00  0.00     0.031 H 
ATOM     13  H   LIG d   1       5.492   1.245  -1.383  0.00  0.00     0.031 H 
ATOM     14  H   LIG d   1       3.804   1.794  -1.519  0.00  0.00     0.031 H 
ENDBRANCH   9  11
ENDBRANCH   1   9
BRANCH   6  15
ATOM     15  O   LIG d   1       3.060  -1.808  -3.792  0.00  0.00    -0.503 OA
ATOM     16  H   LIG d   1       2.615  -2.118  -4.592  0.00  0.00     0.292 HD
ENDBRANCH   6  15
BRANCH   2  17
ATOM     17  O   LIG d   1       7.282   0.403  -3.328  0.00  0.00    -0.494 OA
BRANCH  17  18
ATOM     18  C   LIG d   1       7.966   1.052  -4.402  0.00  0.00     0.079 C 
ATOM     19  H   LIG d   1       7.728   2.115  -4.395  0.00  0.00     0.066 H 
ATOM     20  H   LIG d   1       9.042   0.919  -4.279  0.00  0.00     0.066 H 
ATOM     21  H   LIG d   1       7.653   0.615  -5.349  0.00  0.00     0.066 H 
ENDBRANCH  17  18
ENDBRANCH   2  17
BRANCH   5  22
ATOM     22  O   LIG d   1       4.367  -4.094  -4.581  0.00  0.00    -0.491 OA
BRANCH  22  23
ATOM     23  C   LIG d   1       4.885  -4.924  -5.624  0.00  0.00     0.079 C 
ATOM     24  H   LIG d   1       5.875  -4.569  -5.913  0.00  0.00     0.066 H 
ATOM     25  H   LIG d   1       4.956  -5.951  -5.269  0.00  0.00     0.066 H 
ATOM     26  H   LIG d   1       4.219  -4.881  -6.486  0.00  0.00     0.066 H 
ENDBRANCH  22  23
ENDBRANCH   5  22
TORSDOF 7
ENDMDL
MODEL 2
REMARK VINA RESULT:      -4.3      2.531      3.233
REMARK  7 active torsions:
REMARK  status: ('A' for Active; 'I' for Inactive)
REMARK    1  A    between atoms: C_1  and  C_2 
REMARK    2  A    between atoms: C_2  and  C_4 
REMARK    3  A    between atoms: C_5  and  O_13 
REMARK    4  A    between atoms: C_8  and  O_11 
REMARK    5  A    between atoms: C_9  and  O_10 
REMARK    6  A    between atoms: O_11  and  C_12 
REMARK    7  A    between atoms: O_13  and  C_14 
ROOT
ATOM      1  C   LIG d   1       4.403  -0.386  -4.141  0.00  0.00     0.104 A 
ATOM      2  C   LIG d   1       5.730  -0.560  -4.572  0.00  0.00     0.134 A 
ATOM      3  C   LIG d   1       6.023  -0.550  -5.924  0.00  0.00    -0.016 A 
ATOM      4  C   LIG d   1       5.014  -0.371  -6.855  0.00  0.00    -0.013 A 
ATOM      5  C   LIG d   1       3.701  -0.203  -6.446  0.00  0.00     0.162 A 
ATOM      6  C   LIG d   1       3.385  -0.204  -5.093  0.00  0.00     0.173 A 
ATOM      7  H   LIG d   1       7.042  -0.684  -6.255  0.00  0.00     0.066 H 
ATOM      8  H   LIG d   1       5.253  -0.365  -7.908  0.00  0.00     0.066 H 
ENDROOT
BRANCH   1   9
ATOM      9  C   LIG d   1       4.083  -0.395  -2.712  0.00  0.00     0.167 C 
ATOM     10  O   LIG d   1       3.664  -1.408  -2.192  0.00  0.00    -0.292 OA
BRANCH   9  11
ATOM     11  C   LIG d   1       4.273   0.852  -1.889  0.00  0.00    -0.001 C 
ATOM     12  H   LIG d   1       5.146   0.803  -1.405  0.00  0.00     0.031 H 
ATOM     13  H   LIG d   1       4.269   1.723  -2.544  0.00  0.00     0.031 H 
ATOM     14  H   LIG d   1       3.461   0.938  -1.166  0.00  0.00     0.031 H 
ENDBRANCH   9  11
ENDBRANCH   1   9
BRANCH   6  15
ATOM     15  O   LIG d   1       2.099  -0.035  -4.693  0.00  0.00    -0.503 OA
ATOM     16  H   LIG d   1       2.000   0.534  -3.918  0.00  0.00     0.292 HD
ENDBRANCH   6  15
BRANCH   2  17
ATOM     17  O   LIG d   1       6.722  -0.735  -3.663  0.00  0.00    -0.494 OA
BRANCH  17  18
ATOM     18  C   LIG d   1       7.249  -2.056  -3.524  0.00  0.00     0.079 C 
ATOM     19  H   LIG d   1       6.684  -2.595  -2.763  0.00  0.00     0.066 H 
ATOM     20  H   LIG d   1       7.168  -2.581  -4.476  0.00  0.00     0.066 H 
ATOM     21  H   LIG d   1       8.296  -2.001  -3.228  0.00  0.00     0.066 H 
ENDBRANCH  17  18
ENDBRANCH   2  17
BRANCH   5  22
ATOM     22  O   LIG d   1       2.718  -0.033  -7.372  0.00  0.00    -0.491 OA
BRANCH  22  23
ATOM     23  C   LIG d   1       2.894   1.024  -8.318  0.00  0.00     0.079 C 
ATOM     24  H   LIG d   1       3.739   1.644  -8.017  0.00  0.00     0.066 H 
ATOM     25  H   LIG d   1       3.087   0.600  -9.303  0.00  0.00     0.066 H 
ATOM     26  H   LIG d   1       1.991   1.633  -8.354  0.00  0.00     0.066 H 
ENDBRANCH  22  23
ENDBRANCH   5  22
TORSDOF 7
ENDMDL
MODEL 3
REMARK VINA RESULT:      -4.3      1.774      2.945
REMARK  7 active torsions:
REMARK  status: ('A' for Active; 'I' for Inactive)
REMARK    1  A    between atoms: C_1  and  C_2 
REMARK    2  A    between atoms: C_2  and  C_4 
REMARK    3  A    between atoms: C_5  and  O_13 
REMARK    4  A    between atoms: C_8  and  O_11 
REMARK    5  A    between atoms: C_9  and  O_10 
REMARK    6  A    between atoms: O_11  and  C_12 
REMARK    7  A    between atoms: O_13  and  C_14 
ROOT
ATOM      1  C   LIG d   1       5.555  -0.300  -3.963  0.00  0.00     0.104 A 
ATOM      2  C   LIG d   1       4.547  -0.354  -4.942  0.00  0.00     0.134 A 
ATOM      3  C   LIG d   1       4.521  -1.399  -5.847  0.00  0.00    -0.016 A 
ATOM      4  C   LIG d   1       5.483  -2.393  -5.793  0.00  0.00    -0.013 A 
ATOM      5  C   LIG d   1       6.485  -2.351  -4.837  0.00  0.00     0.162 A 
ATOM      6  C   LIG d   1       6.528  -1.313  -3.915  0.00  0.00     0.173 A 
ATOM      7  H   LIG d   1       3.747  -1.441  -6.599  0.00  0.00     0.066 H 
ATOM      8  H   LIG d   1       5.453  -3.206  -6.503  0.00  0.00     0.066 H 
ENDROOT
BRANCH   1   9
ATOM      9  C   LIG d   1       5.592   0.804  -3.001  0.00  0.00     0.167 C 
ATOM     10  O   LIG d   1       6.376   1.717  -3.158  0.00  0.00    -0.292 OA
BRANCH   9  11
ATOM     11  C   LIG d   1       4.659   0.805  -1.819  0.00  0.00    -0.001 C 
ATOM     12  H   LIG d   1       3.716   0.900  -2.138  0.00  0.00     0.031 H 
ATOM     13  H   LIG d   1       4.765  -0.131  -1.272  0.00  0.00     0.031 H 
ATOM     14  H   LIG d   1       4.906   1.640  -1.162  0.00  0.00     0.031 H 
ENDBRANCH   9  11
ENDBRANCH   1   9
BRANCH   6  15
ATOM     15  O   LIG d   1       7.507  -1.275  -2.976  0.00  0.00    -0.503 OA
ATOM     16  H   LIG d   1       8.192  -0.615  -3.149  0.00  0.00     0.292 HD
ENDBRANCH   6  15
BRANCH   2  17
ATOM     17  O   LIG d   1       3.602   0.618  -4.999  0.00  0.00    -0.494 OA
BRANCH  17  18
ATOM     18  C   LIG d   1       2.261   0.239  -4.683  0.00  0.00     0.079 C 
ATOM     19  H   LIG d   1       1.611   1.112  -4.744  0.00  0.00     0.066 H 
ATOM     20  H   LIG d   1       1.921  -0.516  -5.394  0.00  0.00     0.066 H 
ATOM     21  H   LIG d   1       2.227  -0.171  -3.675  0.00  0.00     0.066 H 
ENDBRANCH  17  18
ENDBRANCH   2  17
BRANCH   5  22
ATOM     22  O   LIG d   1       7.428  -3.332  -4.798  0.00  0.00    -0.491 OA
BRANCH  22  23
ATOM     23  C   LIG d   1       7.030  -4.632  -5.241  0.00  0.00     0.079 C 
ATOM     24  H   LIG d   1       6.158  -4.544  -5.889  0.00  0.00     0.066 H 
ATOM     25  H   LIG d   1       7.848  -5.094  -5.793  0.00  0.00     0.066 H 
ATOM     26  H   LIG d   1       6.779  -5.248  -4.378  0.00  0.00     0.066 H 
ENDBRANCH  22  23
ENDBRANCH   5  22
TORSDOF 7
ENDMDL
MODEL 4
REMARK VINA RESULT:      -4.2      2.421      4.416
REMARK  7 active torsions:
REMARK  status: ('A' for Active; 'I' for Inactive)
REMARK    1  A    between atoms: C_1  and  C_2 
REMARK    2  A    between atoms: C_2  and  C_4 
REMARK    3  A    between atoms: C_5  and  O_13 
REMARK    4  A    between atoms: C_8  and  O_11 
REMARK    5  A    between atoms: C_9  and  O_10 
REMARK    6  A    between atoms: O_11  and  C_12 
REMARK    7  A    between atoms: O_13  and  C_14 
ROOT
ATOM      1  C   LIG d   1       4.060  -0.780  -5.876  0.00  0.00     0.104 A 
ATOM      2  C   LIG d   1       4.598  -2.076  -5.779  0.00  0.00     0.134 A 
ATOM      3  C   LIG d   1       4.742  -2.671  -4.539  0.00  0.00    -0.016 A 
ATOM      4  C   LIG d   1       4.358  -1.997  -3.392  0.00  0.00    -0.013 A 
ATOM      5  C   LIG d   1       3.831  -0.718  -3.471  0.00  0.00     0.162 A 
ATOM      6  C   LIG d   1       3.673  -0.103  -4.707  0.00  0.00     0.173 A 
ATOM      7  H   LIG d   1       5.155  -3.666  -4.464  0.00  0.00     0.066 H 
ATOM      8  H   LIG d   1       4.474  -2.470  -2.429  0.00  0.00     0.066 H 
ENDROOT
BRANCH   1   9
ATOM      9  C   LIG d   1       3.905  -0.141  -7.184  0.00  0.00     0.167 C 
ATOM     10  O   LIG d   1       4.727   0.665  -7.566  0.00  0.00    -0.292 OA
BRANCH   9  11
ATOM     11  C   LIG d   1       2.725  -0.485  -8.056  0.00  0.00    -0.001 C 
ATOM     12  H   LIG d   1       2.245   0.354  -8.314  0.00  0.00     0.031 H 
ATOM     13  H   LIG d   1       3.073  -0.995  -8.953  0.00  0.00     0.031 H 
ATOM     14  H   LIG d   1       2.045  -1.138  -7.507  0.00  0.00     0.031 H 
ENDBRANCH   9  11
ENDBRANCH   1   9
BRANCH   6  15
ATOM     15  O   LIG d   1       3.152   1.148  -4.784  0.00  0.00    -0.503 OA
ATOM     16  H   LIG d   1       3.816   1.847  -4.853  0.00  0.00     0.292 HD
ENDBRANCH   6  15
BRANCH   2  17
ATOM     17  O   LIG d   1       4.975  -2.741  -6.900  0.00  0.00    -0.494 OA
BRANCH  17  18
ATOM     18  C   LIG d   1       4.253  -3.932  -7.222  0.00  0.00     0.079 C 
ATOM     19  H   LIG d   1       4.464  -4.698  -6.476  0.00  0.00     0.066 H 
ATOM     20  H   LIG d   1       3.184  -3.717  -7.229  0.00  0.00     0.066 H 
ATOM     21  H   LIG d   1       4.558  -4.287  -8.205  0.00  0.00     0.066 H 
ENDBRANCH  17  18
ENDBRANCH   2  17
BRANCH   5  22
ATOM     22  O   LIG d   1       3.463  -0.064  -2.336  0.00  0.00    -0.491 OA
BRANCH  22  23
ATOM     23  C   LIG d   1       4.471   0.705  -1.675  0.00  0.00     0.079 C 
ATOM     24  H   LIG d   1       5.203   1.049  -2.406  0.00  0.00     0.066 H 
ATOM     25  H   LIG d   1       4.011   1.565  -1.190  0.00  0.00     0.066 H 
ATOM     26  H   LIG d   1       4.967   0.087  -0.927  0.00  0.00     0.066 H 
ENDBRANCH  22  23
ENDBRANCH   5  22
TORSDOF 7
ENDMDL
MODEL 5
REMARK VINA RESULT:      -4.1      1.724      2.365
REMARK  7 active torsions:
REMARK  status: ('A' for Active; 'I' for Inactive)
REMARK    1  A    between atoms: C_1  and  C_2 
REMARK    2  A    between atoms: C_2  and  C_4 
REMARK    3  A    between atoms: C_5  and  O_13 
REMARK    4  A    between atoms: C_8  and  O_11 
REMARK    5  A    between atoms: C_9  and  O_10 
REMARK    6  A    between atoms: O_11  and  C_12 
REMARK    7  A    between atoms: O_13  and  C_14 
ROOT
ATOM      1  C   LIG d   1       4.590  -0.808  -4.835  0.00  0.00     0.104 A 
ATOM      2  C   LIG d   1       5.383  -0.231  -3.827  0.00  0.00     0.134 A 
ATOM      3  C   LIG d   1       6.405  -0.963  -3.250  0.00  0.00    -0.016 A 
ATOM      4  C   LIG d   1       6.650  -2.262  -3.661  0.00  0.00    -0.013 A 
ATOM      5  C   LIG d   1       5.875  -2.846  -4.650  0.00  0.00     0.162 A 
ATOM      6  C   LIG d   1       4.846  -2.127  -5.246  0.00  0.00     0.173 A 
ATOM      7  H   LIG d   1       7.013  -0.520  -2.476  0.00  0.00     0.066 H 
ATOM      8  H   LIG d   1       7.451  -2.825  -3.205  0.00  0.00     0.066 H 
ENDROOT
BRANCH   1   9
ATOM      9  C   LIG d   1       3.505  -0.041  -5.451  0.00  0.00     0.167 C 
ATOM     10  O   LIG d   1       3.647   0.422  -6.563  0.00  0.00    -0.292 OA
BRANCH   9  11
ATOM     11  C   LIG d   1       2.214   0.172  -4.704  0.00  0.00    -0.001 C 
ATOM     12  H   LIG d   1       1.703   0.920  -5.128  0.00  0.00     0.031 H 
ATOM     13  H   LIG d   1       1.620  -0.741  -4.739  0.00  0.00     0.031 H 
ATOM     14  H   LIG d   1       2.433   0.424  -3.665  0.00  0.00     0.031 H 
ENDBRANCH   9  11
ENDBRANCH   1   9
BRANCH   6  15
ATOM     15  O   LIG d   1       4.090  -2.698  -6.218  0.00  0.00    -0.503 OA
ATOM     16  H   LIG d   1       4.138  -2.246  -7.071  0.00  0.00     0.292 HD
ENDBRANCH   6  15
BRANCH   2  17
ATOM     17  O   LIG d   1       5.146   1.042  -3.421  0.00  0.00    -0.494 OA
BRANCH  17  18
ATOM     18  C   LIG d   1       4.648   1.218  -2.094  0.00  0.00     0.079 C 
ATOM     19  H   LIG d   1       4.678   2.276  -1.831  0.00  0.00     0.066 H 
ATOM     20  H   LIG d   1       3.619   0.861  -2.041  0.00  0.00     0.066 H 
ATOM     21  H   LIG d   1       5.265   0.653  -1.396  0.00  0.00     0.066 H 
ENDBRANCH  17  18
ENDBRANCH   2  17
BRANCH   5  22
ATOM     22  O   LIG d   1       6.124  -4.125  -5.040  0.00  0.00    -0.491 OA
BRANCH  22  23
ATOM     23  C   LIG d   1       7.460  -4.432  -5.444  0.00  0.00     0.079 C 
ATOM     24  H   LIG d   1       8.163  -3.856  -4.842  0.00  0.00     0.066 H 
ATOM     25  H   LIG d   1       7.647  -5.496  -5.303  0.00  0.00     0.066 H 
ATOM     26  H   LIG d   1       7.589  -4.177  -6.496  0.00  0.00     0.066 H 
ENDBRANCH  22  23
ENDBRANCH   5  22
TORSDOF 7
ENDMDL
MODEL 6
REMARK VINA RESULT:      -4.1      2.874      4.272
REMARK  7 active torsions:
REMARK  status: ('A' for Active; 'I' for Inactive)
REMARK    1  A    between atoms: C_1  and  C_2 
REMARK    2  A    between atoms: C_2  and  C_4 
REMARK    3  A    between atoms: C_5  and  O_13 
REMARK    4  A    between atoms: C_8  and  O_11 
REMARK    5  A    between atoms: C_9  and  O_10 
REMARK    6  A    between atoms: O_11  and  C_12 
REMARK    7  A    between atoms: O_13  and  C_14 
ROOT
ATOM      1  C   LIG d   1       4.083  -1.197  -4.709  0.00  0.00     0.104 A 
ATOM      2  C   LIG d   1       3.232  -0.182  -4.235  0.00  0.00     0.134 A 
ATOM      3  C   LIG d   1       2.589   0.651  -5.132  0.00  0.00    -0.016 A 
ATOM      4  C   LIG d   1       2.779   0.490  -6.494  0.00  0.00    -0.013 A 
ATOM      5  C   LIG d   1       3.617  -0.502  -6.975  0.00  0.00     0.162 A 
ATOM      6  C   LIG d   1       4.270  -1.354  -6.092  0.00  0.00     0.173 A 
ATOM      7  H   LIG d   1       1.936   1.431  -4.770  0.00  0.00     0.066 H 
ATOM      8  H   LIG d   1       2.272   1.145  -7.187  0.00  0.00     0.066 H 
ENDROOT
BRANCH   1   9
ATOM      9  C   LIG d   1       4.770  -2.084  -3.767  0.00  0.00     0.167 C 
ATOM     10  O   LIG d   1       4.284  -3.159  -3.483  0.00  0.00    -0.292 OA
BRANCH   9  11
ATOM     11  C   LIG d   1       6.077  -1.661  -3.150  0.00  0.00    -0.001 C 
ATOM     12  H   LIG d   1       6.710  -2.435  -3.146  0.00  0.00     0.031 H 
ATOM     13  H   LIG d   1       6.505  -0.845  -3.731  0.00  0.00     0.031 H 
ATOM     14  H   LIG d   1       5.905  -1.327  -2.126  0.00  0.00     0.031 H 
ENDBRANCH   9  11
ENDBRANCH   1   9
BRANCH   6  15
ATOM     15  O   LIG d   1       5.087  -2.329  -6.564  0.00  0.00    -0.503 OA
ATOM     16  H   LIG d   1       5.562  -2.813  -5.875  0.00  0.00     0.292 HD
ENDBRANCH   6  15
BRANCH   2  17
ATOM     17  O   LIG d   1       3.043  -0.021  -2.901  0.00  0.00    -0.494 OA
BRANCH  17  18
ATOM     18  C   LIG d   1       3.655   1.118  -2.292  0.00  0.00     0.079 C 
ATOM     19  H   LIG d   1       4.735   1.071  -2.434  0.00  0.00     0.066 H 
ATOM     20  H   LIG d   1       3.268   2.028  -2.752  0.00  0.00     0.066 H 
ATOM     21  H   LIG d   1       3.428   1.126  -1.227  0.00  0.00     0.066 H 
ENDBRANCH  17  18
ENDBRANCH   2  17
BRANCH   5  22
ATOM     22  O   LIG d   1       3.799  -0.647  -8.316  0.00  0.00    -0.491 OA
BRANCH  22  23
ATOM     23  C   LIG d   1       3.246   0.368  -9.159  0.00  0.00     0.079 C 
ATOM     24  H   LIG d   1       2.579   1.001  -8.574  0.00  0.00     0.066 H 
ATOM     25  H   LIG d   1       4.051   0.973  -9.574  0.00  0.00     0.066 H 
ATOM     26  H   LIG d   1       2.686  -0.099  -9.969  0.00  0.00     0.066 H 
ENDBRANCH  22  23
ENDBRANCH   5  22
TORSDOF 7
ENDMDL
MODEL 7
REMARK VINA RESULT:      -4.1      1.654      4.234
REMARK  7 active torsions:
REMARK  status: ('A' for Active; 'I' for Inactive)
REMARK    1  A    between atoms: C_1  and  C_2 
REMARK    2  A    between atoms: C_2  and  C_4 
REMARK    3  A    between atoms: C_5  and  O_13 
REMARK    4  A    between atoms: C_8  and  O_11 
REMARK    5  A    between atoms: C_9  and  O_10 
REMARK    6  A    between atoms: O_11  and  C_12 
REMARK    7  A    between atoms: O_13  and  C_14 
ROOT
ATOM      1  C   LIG d   1       5.025  -0.406  -3.786  0.00  0.00     0.104 A 
ATOM      2  C   LIG d   1       5.409  -1.049  -4.977  0.00  0.00     0.134 A 
ATOM      3  C   LIG d   1       6.568  -0.664  -5.624  0.00  0.00    -0.016 A 
ATOM      4  C   LIG d   1       7.353   0.352  -5.105  0.00  0.00    -0.013 A 
ATOM      5  C   LIG d   1       6.985   0.998  -3.936  0.00  0.00     0.162 A 
ATOM      6  C   LIG d   1       5.826   0.623  -3.267  0.00  0.00     0.173 A 
ATOM      7  H   LIG d   1       6.863  -1.157  -6.538  0.00  0.00     0.066 H 
ATOM      8  H   LIG d   1       8.256   0.645  -5.618  0.00  0.00     0.066 H 
ENDROOT
BRANCH   1   9
ATOM      9  C   LIG d   1       3.798  -0.807  -3.093  0.00  0.00     0.167 C 
ATOM     10  O   LIG d   1       2.804  -0.115  -3.173  0.00  0.00    -0.292 OA
BRANCH   9  11
ATOM     11  C   LIG d   1       3.770  -2.075  -2.282  0.00  0.00    -0.001 C 
ATOM     12  H   LIG d   1       2.821  -2.352  -2.128  0.00  0.00     0.031 H 
ATOM     13  H   LIG d   1       4.295  -2.863  -2.822  0.00  0.00     0.031 H 
ATOM     14  H   LIG d   1       4.259  -1.904  -1.323  0.00  0.00     0.031 H 
ENDBRANCH   9  11
ENDBRANCH   1   9
BRANCH   6  15
ATOM     15  O   LIG d   1       5.469   1.253  -2.119  0.00  0.00    -0.503 OA
ATOM     16  H   LIG d   1       4.534   1.497  -2.078  0.00  0.00     0.292 HD
ENDBRANCH   6  15
BRANCH   2  17
ATOM     17  O   LIG d   1       4.643  -2.046  -5.488  0.00  0.00    -0.494 OA
BRANCH  17  18
ATOM     18  C   LIG d   1       5.211  -3.357  -5.506  0.00  0.00     0.079 C 
ATOM     19  H   LIG d   1       6.002  -3.421  -4.758  0.00  0.00     0.066 H 
ATOM     20  H   LIG d   1       4.437  -4.091  -5.280  0.00  0.00     0.066 H 
ATOM     21  H   LIG d   1       5.626  -3.560  -6.492  0.00  0.00     0.066 H 
ENDBRANCH  17  18
ENDBRANCH   2  17
BRANCH   5  22
ATOM     22  O   LIG d   1       7.762   1.999  -3.440  0.00  0.00    -0.491 OA
BRANCH  22  23
ATOM     23  C   LIG d   1       8.638   2.656  -4.359  0.00  0.00     0.079 C 
ATOM     24  H   LIG d   1       8.695   2.079  -5.283  0.00  0.00     0.066 H 
ATOM     25  H   LIG d   1       8.254   3.652  -4.577  0.00  0.00     0.066 H 
ATOM     26  H   LIG d   1       9.632   2.736  -3.919  0.00  0.00     0.066 H 
ENDBRANCH  22  23
ENDBRANCH   5  22
TORSDOF 7
ENDMDL
MODEL 8
REMARK VINA RESULT:      -4.0      2.566      4.186
REMARK  7 active torsions:
REMARK  status: ('A' for Active; 'I' for Inactive)
REMARK    1  A    between atoms: C_1  and  C_2 
REMARK    2  A    between atoms: C_2  and  C_4 
REMARK    3  A    between atoms: C_5  and  O_13 
REMARK    4  A    between atoms: C_8  and  O_11 
REMARK    5  A    between atoms: C_9  and  O_10 
REMARK    6  A    between atoms: O_11  and  C_12 
REMARK    7  A    between atoms: O_13  and  C_14 
ROOT
ATOM      1  C   LIG d   1       4.477  -1.345  -4.682  0.00  0.00     0.104 A 
ATOM      2  C   LIG d   1       4.823  -2.417  -5.523  0.00  0.00     0.134 A 
ATOM      3  C   LIG d   1       4.575  -2.334  -6.881  0.00  0.00    -0.016 A 
ATOM      4  C   LIG d   1       3.989  -1.199  -7.416  0.00  0.00    -0.013 A 
ATOM      5  C   LIG d   1       3.639  -0.137  -6.599  0.00  0.00     0.162 A 
ATOM      6  C   LIG d   1       3.882  -0.197  -5.232  0.00  0.00     0.173 A 
ATOM      7  H   LIG d   1       4.840  -3.157  -7.528  0.00  0.00     0.066 H 
ATOM      8  H   LIG d   1       3.800  -1.144  -8.478  0.00  0.00     0.066 H 
ENDROOT
BRANCH   1   9
ATOM      9  C   LIG d   1       4.734  -1.424  -3.242  0.00  0.00     0.167 C 
ATOM     10  O   LIG d   1       5.708  -0.876  -2.769  0.00  0.00    -0.292 OA
BRANCH   9  11
ATOM     11  C   LIG d   1       3.790  -2.184  -2.348  0.00  0.00    -0.001 C 
ATOM     12  H   LIG d   1       4.099  -3.132  -2.265  0.00  0.00     0.031 H 
ATOM     13  H   LIG d   1       3.769  -1.720  -1.362  0.00  0.00     0.031 H 
ATOM     14  H   LIG d   1       2.788  -2.166  -2.779  0.00  0.00     0.031 H 
ENDBRANCH   9  11
ENDBRANCH   1   9
BRANCH   6  15
ATOM     15  O   LIG d   1       3.543   0.846  -4.433  0.00  0.00    -0.503 OA
ATOM     16  H   LIG d   1       3.430   1.683  -4.904  0.00  0.00     0.292 HD
ENDBRANCH   6  15
BRANCH   2  17
ATOM     17  O   LIG d   1       5.398  -3.531  -5.004  0.00  0.00    -0.494 OA
BRANCH  17  18
ATOM     18  C   LIG d   1       4.864  -4.790  -5.416  0.00  0.00     0.079 C 
ATOM     19  H   LIG d   1       3.780  -4.714  -5.508  0.00  0.00     0.066 H 
ATOM     20  H   LIG d   1       5.291  -5.067  -6.381  0.00  0.00     0.066 H 
ATOM     21  H   LIG d   1       5.113  -5.551  -4.678  0.00  0.00     0.066 H 
ENDBRANCH  17  18
ENDBRANCH   2  17
BRANCH   5  22
ATOM     22  O   LIG d   1       3.058   0.970  -7.136  0.00  0.00    -0.491 OA
BRANCH  22  23
ATOM     23  C   LIG d   1       2.848   0.971  -8.550  0.00  0.00     0.079 C 
ATOM     24  H   LIG d   1       2.164   1.778  -8.815  0.00  0.00     0.066 H 
ATOM     25  H   LIG d   1       3.800   1.119  -9.058  0.00  0.00     0.066 H 
ATOM     26  H   LIG d   1       2.417   0.017  -8.854  0.00  0.00     0.066 H 
ENDBRANCH  22  23
ENDBRANCH   5  22
TORSDOF 7
ENDMDL
MODEL 9
REMARK VINA RESULT:      -3.9      7.136      9.321
REMARK  7 active torsions:
REMARK  status: ('A' for Active; 'I' for Inactive)
REMARK    1  A    between atoms: C_1  and  C_2 
REMARK    2  A    between atoms: C_2  and  C_4 
REMARK    3  A    between atoms: C_5  and  O_13 
REMARK    4  A    between atoms: C_8  and  O_11 
REMARK    5  A    between atoms: C_9  and  O_10 
REMARK    6  A    between atoms: O_11  and  C_12 
REMARK    7  A    between atoms: O_13  and  C_14 
ROOT
ATOM      1  C   LIG d   1       9.847   6.890  -1.490  0.00  0.00     0.104 A 
ATOM      2  C   LIG d   1      10.579   6.156  -0.540  0.00  0.00     0.134 A 
ATOM      3  C   LIG d   1      11.148   4.946  -0.894  0.00  0.00    -0.016 A 
ATOM      4  C   LIG d   1      11.001   4.455  -2.180  0.00  0.00    -0.013 A 
ATOM      5  C   LIG d   1      10.278   5.164  -3.125  0.00  0.00     0.162 A 
ATOM      6  C   LIG d   1       9.702   6.384  -2.793  0.00  0.00     0.173 A 
ATOM      7  H   LIG d   1      11.711   4.382  -0.165  0.00  0.00     0.066 H 
ATOM      8  H   LIG d   1      11.450   3.510  -2.447  0.00  0.00     0.066 H 
ENDROOT
BRANCH   1   9
ATOM      9  C   LIG d   1       9.239   8.171  -1.125  0.00  0.00     0.167 C 
ATOM     10  O   LIG d   1       8.075   8.215  -0.787  0.00  0.00    -0.292 OA
BRANCH   9  11
ATOM     11  C   LIG d   1      10.059   9.434  -1.169  0.00  0.00    -0.001 C 
ATOM     12  H   LIG d   1      10.241   9.681  -2.120  0.00  0.00     0.031 H 
ATOM     13  H   LIG d   1       9.510  10.240  -0.682  0.00  0.00     0.031 H 
ATOM     14  H   LIG d   1      11.004   9.272  -0.648  0.00  0.00     0.031 H 
ENDBRANCH   9  11
ENDBRANCH   1   9
BRANCH   6  15
ATOM     15  O   LIG d   1       8.998   7.081  -3.721  0.00  0.00    -0.503 OA
ATOM     16  H   LIG d   1       9.549   7.588  -4.333  0.00  0.00     0.292 HD
ENDBRANCH   6  15
BRANCH   2  17
ATOM     17  O   LIG d   1      10.727   6.634   0.721  0.00  0.00    -0.494 OA
BRANCH  17  18
ATOM     18  C   LIG d   1      10.978   5.677   1.753  0.00  0.00     0.079 C 
ATOM     19  H   LIG d   1      11.532   4.834   1.340  0.00  0.00     0.066 H 
ATOM     20  H   LIG d   1      11.565   6.143   2.545  0.00  0.00     0.066 H 
ATOM     21  H   LIG d   1      10.032   5.326   2.161  0.00  0.00     0.066 H 
ENDBRANCH  17  18
ENDBRANCH   2  17
BRANCH   5  22
ATOM     22  O   LIG d   1      10.136   4.667  -4.384  0.00  0.00    -0.491 OA
BRANCH  22  23
ATOM     23  C   LIG d   1       9.197   3.604  -4.560  0.00  0.00     0.079 C 
ATOM     24  H   LIG d   1       9.551   2.932  -5.342  0.00  0.00     0.066 H 
ATOM     25  H   LIG d   1       9.094   3.053  -3.626  0.00  0.00     0.066 H 
ATOM     26  H   LIG d   1       8.230   4.018  -4.847  0.00  0.00     0.066 H 
ENDBRANCH  22  23
ENDBRANCH   5  22
TORSDOF 7
ENDMDL
MODEL 10
REMARK VINA RESULT:      -3.9      9.743     12.898
REMARK  7 active torsions:
REMARK  status: ('A' for Active; 'I' for Inactive)
REMARK    1  A    between atoms: C_1  and  C_2 
REMARK    2  A    between atoms: C_2  and  C_4 
REMARK    3  A    between atoms: C_5  and  O_13 
REMARK    4  A    between atoms: C_8  and  O_11 
REMARK    5  A    between atoms: C_9  and  O_10 
REMARK    6  A    between atoms: O_11  and  C_12 
REMARK    7  A    between atoms: O_13  and  C_14 
ROOT
ATOM      1  C   LIG d   1      10.967   7.908   0.463  0.00  0.00     0.104 A 
ATOM      2  C   LIG d   1       9.938   7.975  -0.494  0.00  0.00     0.134 A 
ATOM      3  C   LIG d   1       9.350   9.192  -0.788  0.00  0.00    -0.016 A 
ATOM      4  C   LIG d   1       9.769  10.344  -0.145  0.00  0.00    -0.013 A 
ATOM      5  C   LIG d   1      10.778  10.292   0.803  0.00  0.00     0.162 A 
ATOM      6  C   LIG d   1      11.386   9.082   1.111  0.00  0.00     0.173 A 
ATOM      7  H   LIG d   1       8.560   9.244  -1.522  0.00  0.00     0.066 H 
ATOM      8  H   LIG d   1       9.304  11.289  -0.382  0.00  0.00     0.066 H 
ENDROOT
BRANCH   1   9
ATOM      9  C   LIG d   1      11.596   6.624   0.783  0.00  0.00     0.167 C 
ATOM     10  O   LIG d   1      12.648   6.320   0.263  0.00  0.00    -0.292 OA
BRANCH   9  11
ATOM     11  C   LIG d   1      10.935   5.683   1.756  0.00  0.00    -0.001 C 
ATOM     12  H   LIG d   1      11.264   5.874   2.681  0.00  0.00     0.031 H 
ATOM     13  H   LIG d   1       9.855   5.822   1.719  0.00  0.00     0.031 H 
ATOM     14  H   LIG d   1      11.179   4.654   1.489  0.00  0.00     0.031 H 
ENDBRANCH   9  11
ENDBRANCH   1   9
BRANCH   6  15
ATOM     15  O   LIG d   1      12.378   9.033   2.037  0.00  0.00    -0.503 OA
ATOM     16  H   LIG d   1      13.209   8.668   1.705  0.00  0.00     0.292 HD
ENDBRANCH   6  15
BRANCH   2  17
ATOM     17  O   LIG d   1       9.525   6.849  -1.127  0.00  0.00    -0.494 OA
BRANCH  17  18
ATOM     18  C   LIG d   1       9.590   6.845  -2.554  0.00  0.00     0.079 C 
ATOM     19  H   LIG d   1      10.276   6.065  -2.885  0.00  0.00     0.066 H 
ATOM     20  H   LIG d   1       8.597   6.653  -2.963  0.00  0.00     0.066 H 
ATOM     21  H   LIG d   1       9.945   7.814  -2.904  0.00  0.00     0.066 H 
ENDBRANCH  17  18
ENDBRANCH   2  17
BRANCH   5  22
ATOM     22  O   LIG d   1      11.177  11.432   1.433  0.00  0.00    -0.491 OA
BRANCH  22  23
ATOM     23  C   LIG d   1      10.864  12.670   0.791  0.00  0.00     0.079 C 
ATOM     24  H   LIG d   1      10.362  12.472  -0.156  0.00  0.00     0.066 H 
ATOM     25  H   LIG d   1      10.210  13.257   1.434  0.00  0.00     0.066 H 
ATOM     26  H   LIG d   1      11.784  13.224   0.605  0.00  0.00     0.066 H 
ENDBRANCH  22  23
ENDBRANCH   5  22
TORSDOF 7
ENDMDL
