MODEL 1
REMARK VINA RESULT:      -7.6      0.000      0.000
REMARK  7 active torsions:
REMARK  status: ('A' for Active; 'I' for Inactive)
REMARK    1  A    between atoms: C_1  and  N_2 
REMARK       I    between atoms: N_5  and  C_8 
REMARK    2  A    between atoms: C_8  and  C_10 
REMARK    3  A    between atoms: C_10  and  C_11 
REMARK    4  A    between atoms: C_11  and  C_12 
REMARK    5  A    between atoms: C_22  and  N_25 
REMARK    6  A    between atoms: N_25  and  C_26 
REMARK    7  A    between atoms: C_26  and  C_27 
ROOT
ATOM      1  C   LIG d   1      10.398   4.943  -3.916  0.00  0.00     0.000 C 
ATOM      2  H   LIG d   1      11.407   4.557  -4.060  0.00  0.00     0.087 H 
ATOM      3  C   LIG d   1      10.255   6.306  -4.612  0.00  0.00     0.082 C 
ATOM      4  N   LIG d   1      10.016   6.170  -6.043  0.00  0.00    -0.292 NA
ATOM      5  C   LIG d   1       9.838   5.057  -6.668  0.00  0.00     0.008 C 
ATOM      6  O   LIG d   1       9.594   5.055  -7.995  0.00  0.00    -0.860 OA
ATOM      7  C   LIG d   1       9.905   3.772  -5.913  0.00  0.00     0.010 C 
ATOM      8  H   LIG d   1      10.929   3.397  -5.895  0.00  0.00     0.091 H 
ATOM      9  N   LIG d   1       9.432   4.047  -4.528  0.00  0.00     0.245 N 
ATOM     10  C   LIG d   1       9.243   2.731  -3.926  0.00  0.00    -0.015 C 
ATOM     11  C   LIG d   1       8.828   1.795  -5.091  0.00  0.00     0.054 C 
ATOM     12  H   LIG d   1       9.511   0.947  -5.159  0.00  0.00     0.051 H 
ATOM     13  C   LIG d   1       8.943   2.673  -6.382  0.00  0.00     0.015 C 
ATOM     14  H   LIG d   1       9.421   6.847  -4.165  0.00  0.00     0.056 H 
ATOM     15  H   LIG d   1      11.169   6.879  -4.459  0.00  0.00     0.056 H 
ATOM     16  H   LIG d   1      10.175   2.384  -3.478  0.00  0.00     0.083 H 
ATOM     17  H   LIG d   1       8.454   2.769  -3.175  0.00  0.00     0.083 H 
ATOM     18  H   LIG d   1       7.975   3.092  -6.655  0.00  0.00     0.034 H 
ATOM     19  H   LIG d   1       9.369   2.109  -7.211  0.00  0.00     0.034 H 
ATOM     20  H   LIG d   1       8.535   4.507  -4.575  0.00  0.00     0.204 HD
ENDROOT
BRANCH   1  21
ATOM     21  C   LIG d   1      10.103   5.087  -2.422  0.00  0.00     0.000 C 
ATOM     22  H   LIG d   1      11.017   4.918  -1.853  0.00  0.00     0.033 H 
ATOM     23  H   LIG d   1       9.351   4.355  -2.128  0.00  0.00     0.033 H 
BRANCH  21  24
ATOM     24  C   LIG d   1       9.579   6.496  -2.139  0.00  0.00     0.029 C 
ATOM     25  H   LIG d   1       8.498   6.464  -2.015  0.00  0.00     0.036 H 
ATOM     26  H   LIG d   1       9.831   7.152  -2.973  0.00  0.00     0.036 H 
BRANCH  24  27
ATOM     27  C   LIG d   1      10.214   7.024  -0.878  0.00  0.00     0.216 C 
ATOM     28  N   LIG d   1      10.757   8.257  -0.861  0.00  0.00    -0.299 N 
ATOM     29  C   LIG d   1      11.381   8.792   0.358  0.00  0.00     0.028 C 
ATOM     30  C   LIG d   1      10.744   9.104  -2.064  0.00  0.00     0.028 C 
ATOM     31  C   LIG d   1      10.790  10.177   0.640  0.00  0.00     0.015 C 
ATOM     32  H   LIG d   1      12.457   8.876   0.212  0.00  0.00     0.048 H 
ATOM     33  H   LIG d   1      11.173   8.127   1.198  0.00  0.00     0.048 H 
ATOM     34  N   LIG d   1      10.936  11.021  -0.553  0.00  0.00    -0.302 N 
ATOM     35  H   LIG d   1      11.318  10.634   1.477  0.00  0.00     0.044 H 
ATOM     36  H   LIG d   1       9.733  10.078   0.888  0.00  0.00     0.044 H 
ATOM     37  C   LIG d   1      10.177  10.476  -1.687  0.00  0.00     0.015 C 
ATOM     38  H   LIG d   1       9.129  10.373  -1.407  0.00  0.00     0.044 H 
ATOM     39  H   LIG d   1      10.262  11.152  -2.539  0.00  0.00     0.044 H 
ATOM     40  H   LIG d   1      11.760   9.218  -2.443  0.00  0.00     0.048 H 
ATOM     41  H   LIG d   1      10.114   8.645  -2.827  0.00  0.00     0.048 H 
ATOM     42  O   LIG d   1      10.234   6.340   0.123  0.00  0.00    -0.276 OA
BRANCH  34  43
ATOM     43  C   LIG d   1      10.539  12.406  -0.270  0.00  0.00    -0.013 C 
ATOM     44  H   LIG d   1      11.095  12.775   0.593  0.00  0.00     0.039 H 
ATOM     45  H   LIG d   1      10.755  13.032  -1.136  0.00  0.00     0.039 H 
ATOM     46  H   LIG d   1       9.471  12.441  -0.054  0.00  0.00     0.039 H 
ENDBRANCH  34  43
ENDBRANCH  24  27
ENDBRANCH  21  24
ENDBRANCH   1  21
BRANCH  11  47
ATOM     47  N   LIG d   1       7.450   1.325  -4.903  0.00  0.00    -0.304 N 
ATOM     48  H   LIG d   1       6.821   1.784  -5.544  0.00  0.00     0.123 HD
BRANCH  47  49
ATOM     49  C   LIG d   1       7.014   1.514  -3.513  0.00  0.00     0.022 C 
ATOM     50  H   LIG d   1       7.885   1.519  -2.857  0.00  0.00     0.047 H 
ATOM     51  H   LIG d   1       6.486   2.464  -3.424  0.00  0.00     0.047 H 
BRANCH  49  52
ATOM     52  C   LIG d   1       6.094   0.388  -3.117  0.00  0.00    -0.033 A 
ATOM     53  C   LIG d   1       6.307  -0.885  -3.612  0.00  0.00    -0.055 A 
ATOM     54  C   LIG d   1       5.466  -1.919  -3.245  0.00  0.00    -0.026 A 
ATOM     55  H   LIG d   1       7.133  -1.072  -4.282  0.00  0.00     0.062 H 
ATOM     56  C   LIG d   1       4.404  -1.677  -2.391  0.00  0.00     0.123 A 
ATOM     57  H   LIG d   1       5.636  -2.914  -3.629  0.00  0.00     0.065 H 
ATOM     58  C   LIG d   1       4.188  -0.401  -1.900  0.00  0.00    -0.026 A 
ATOM     59  F   LIG d   1       3.579  -2.686  -2.036  0.00  0.00    -0.205 F 
ATOM     60  C   LIG d   1       5.033   0.631  -2.264  0.00  0.00    -0.055 A 
ATOM     61  H   LIG d   1       3.360  -0.211  -1.233  0.00  0.00     0.065 H 
ATOM     62  H   LIG d   1       4.865   1.627  -1.881  0.00  0.00     0.062 H 
ENDBRANCH  49  52
ENDBRANCH  47  49
ENDBRANCH  11  47
TORSDOF 7
ENDMDL
MODEL 2
REMARK VINA RESULT:      -7.3      7.422     10.181
REMARK  7 active torsions:
REMARK  status: ('A' for Active; 'I' for Inactive)
REMARK    1  A    between atoms: C_1  and  N_2 
REMARK       I    between atoms: N_5  and  C_8 
REMARK    2  A    between atoms: C_8  and  C_10 
REMARK    3  A    between atoms: C_10  and  C_11 
REMARK    4  A    between atoms: C_11  and  C_12 
REMARK    5  A    between atoms: C_22  and  N_25 
REMARK    6  A    between atoms: N_25  and  C_26 
REMARK    7  A    between atoms: C_26  and  C_27 
ROOT
ATOM      1  C   LIG d   1       2.989  -1.578  -9.758  0.00  0.00     0.000 C 
ATOM      2  H   LIG d   1       3.862  -1.705 -10.397  0.00  0.00     0.087 H 
ATOM      3  C   LIG d   1       1.722  -2.022 -10.507  0.00  0.00     0.082 C 
ATOM      4  N   LIG d   1       1.549  -3.468 -10.484  0.00  0.00    -0.292 NA
ATOM      5  C   LIG d   1       2.293  -4.300  -9.838  0.00  0.00     0.008 C 
ATOM      6  O   LIG d   1       2.017  -5.621  -9.866  0.00  0.00    -0.860 OA
ATOM      7  C   LIG d   1       3.459  -3.790  -9.059  0.00  0.00     0.010 C 
ATOM      8  H   LIG d   1       4.347  -3.755  -9.689  0.00  0.00     0.091 H 
ATOM      9  N   LIG d   1       3.109  -2.424  -8.582  0.00  0.00     0.245 N 
ATOM     10  C   LIG d   1       4.140  -2.091  -7.603  0.00  0.00    -0.015 C 
ATOM     11  C   LIG d   1       4.548  -3.439  -6.953  0.00  0.00     0.054 C 
ATOM     12  H   LIG d   1       5.620  -3.603  -7.060  0.00  0.00     0.051 H 
ATOM     13  C   LIG d   1       3.761  -4.532  -7.751  0.00  0.00     0.015 C 
ATOM     14  H   LIG d   1       0.854  -1.555 -10.042  0.00  0.00     0.056 H 
ATOM     15  H   LIG d   1       1.789  -1.690 -11.542  0.00  0.00     0.056 H 
ATOM     16  H   LIG d   1       4.998  -1.637  -8.099  0.00  0.00     0.083 H 
ATOM     17  H   LIG d   1       3.739  -1.416  -6.848  0.00  0.00     0.083 H 
ATOM     18  H   LIG d   1       2.841  -4.805  -7.234  0.00  0.00     0.034 H 
ATOM     19  H   LIG d   1       4.378  -5.412  -7.934  0.00  0.00     0.034 H 
ATOM     20  H   LIG d   1       2.220  -2.461  -8.108  0.00  0.00     0.204 HD
ENDROOT
BRANCH   1  21
ATOM     21  C   LIG d   1       2.859  -0.113  -9.336  0.00  0.00     0.000 C 
ATOM     22  H   LIG d   1       3.183  -0.003  -8.301  0.00  0.00     0.033 H 
ATOM     23  H   LIG d   1       1.819   0.200  -9.427  0.00  0.00     0.033 H 
BRANCH  21  24
ATOM     24  C   LIG d   1       3.735   0.757 -10.239  0.00  0.00     0.029 C 
ATOM     25  H   LIG d   1       3.108   1.465 -10.780  0.00  0.00     0.036 H 
ATOM     26  H   LIG d   1       4.265   0.124 -10.951  0.00  0.00     0.036 H 
BRANCH  24  27
ATOM     27  C   LIG d   1       4.733   1.510  -9.398  0.00  0.00     0.216 C 
ATOM     28  N   LIG d   1       5.987   1.037  -9.255  0.00  0.00    -0.299 N 
ATOM     29  C   LIG d   1       6.977   1.756  -8.439  0.00  0.00     0.028 C 
ATOM     30  C   LIG d   1       6.402  -0.212  -9.911  0.00  0.00     0.028 C 
ATOM     31  C   LIG d   1       8.250   1.941  -9.270  0.00  0.00     0.015 C 
ATOM     32  H   LIG d   1       7.204   1.176  -7.545  0.00  0.00     0.048 H 
ATOM     33  H   LIG d   1       6.579   2.731  -8.156  0.00  0.00     0.048 H 
ATOM     34  N   LIG d   1       8.695   0.637  -9.779  0.00  0.00    -0.302 N 
ATOM     35  H   LIG d   1       9.032   2.375  -8.646  0.00  0.00     0.044 H 
ATOM     36  H   LIG d   1       8.044   2.607 -10.108  0.00  0.00     0.044 H 
ATOM     37  C   LIG d   1       7.698   0.051 -10.684  0.00  0.00     0.015 C 
ATOM     38  H   LIG d   1       7.499   0.743 -11.503  0.00  0.00     0.044 H 
ATOM     39  H   LIG d   1       8.080  -0.888 -11.086  0.00  0.00     0.044 H 
ATOM     40  H   LIG d   1       6.574  -0.982  -9.158  0.00  0.00     0.048 H 
ATOM     41  H   LIG d   1       5.624  -0.539 -10.601  0.00  0.00     0.048 H 
ATOM     42  O   LIG d   1       4.408   2.542  -8.850  0.00  0.00    -0.276 OA
BRANCH  34  43
ATOM     43  C   LIG d   1      10.004   0.746 -10.435  0.00  0.00    -0.013 C 
ATOM     44  H   LIG d   1      10.785   0.816  -9.677  0.00  0.00     0.039 H 
ATOM     45  H   LIG d   1      10.176  -0.135 -11.054  0.00  0.00     0.039 H 
ATOM     46  H   LIG d   1      10.024   1.639 -11.060  0.00  0.00     0.039 H 
ENDBRANCH  34  43
ENDBRANCH  24  27
ENDBRANCH  21  24
ENDBRANCH   1  21
BRANCH  11  47
ATOM     47  N   LIG d   1       4.169  -3.457  -5.535  0.00  0.00    -0.304 N 
ATOM     48  H   LIG d   1       3.487  -2.741  -5.333  0.00  0.00     0.123 HD
BRANCH  47  49
ATOM     49  C   LIG d   1       5.349  -3.315  -4.672  0.00  0.00     0.022 C 
ATOM     50  H   LIG d   1       5.483  -4.226  -4.088  0.00  0.00     0.047 H 
ATOM     51  H   LIG d   1       6.232  -3.147  -5.290  0.00  0.00     0.047 H 
BRANCH  49  52
ATOM     52  C   LIG d   1       5.155  -2.146  -3.742  0.00  0.00    -0.033 A 
ATOM     53  C   LIG d   1       6.031  -1.077  -3.783  0.00  0.00    -0.055 A 
ATOM     54  C   LIG d   1       5.850  -0.002  -2.934  0.00  0.00    -0.026 A 
ATOM     55  H   LIG d   1       6.855  -1.082  -4.481  0.00  0.00     0.062 H 
ATOM     56  C   LIG d   1       4.798  -0.000  -2.034  0.00  0.00     0.123 A 
ATOM     57  H   LIG d   1       6.533   0.834  -2.969  0.00  0.00     0.065 H 
ATOM     58  C   LIG d   1       3.924  -1.073  -1.991  0.00  0.00    -0.026 A 
ATOM     59  F   LIG d   1       4.623   1.048  -1.200  0.00  0.00    -0.205 F 
ATOM     60  C   LIG d   1       4.103  -2.145  -2.845  0.00  0.00    -0.055 A 
ATOM     61  H   LIG d   1       3.102  -1.073  -1.290  0.00  0.00     0.065 H 
ATOM     62  H   LIG d   1       3.421  -2.982  -2.811  0.00  0.00     0.062 H 
ENDBRANCH  49  52
ENDBRANCH  47  49
ENDBRANCH  11  47
TORSDOF 7
ENDMDL
MODEL 3
REMARK VINA RESULT:      -7.2      1.707      2.256
REMARK  7 active torsions:
REMARK  status: ('A' for Active; 'I' for Inactive)
REMARK    1  A    between atoms: C_1  and  N_2 
REMARK       I    between atoms: N_5  and  C_8 
REMARK    2  A    between atoms: C_8  and  C_10 
REMARK    3  A    between atoms: C_10  and  C_11 
REMARK    4  A    between atoms: C_11  and  C_12 
REMARK    5  A    between atoms: C_22  and  N_25 
REMARK    6  A    between atoms: N_25  and  C_26 
REMARK    7  A    between atoms: C_26  and  C_27 
ROOT
ATOM      1  C   LIG d   1      10.424   4.815  -6.126  0.00  0.00     0.000 C 
ATOM      2  H   LIG d   1      11.355   4.287  -6.332  0.00  0.00     0.087 H 
ATOM      3  C   LIG d   1      10.179   5.884  -7.203  0.00  0.00     0.082 C 
ATOM      4  N   LIG d   1       9.608   5.317  -8.418  0.00  0.00    -0.292 NA
ATOM      5  C   LIG d   1       9.245   4.091  -8.572  0.00  0.00     0.008 C 
ATOM      6  O   LIG d   1       8.698   3.684  -9.737  0.00  0.00    -0.860 OA
ATOM      7  C   LIG d   1       9.432   3.123  -7.452  0.00  0.00     0.010 C 
ATOM      8  H   LIG d   1      10.416   2.657  -7.516  0.00  0.00     0.091 H 
ATOM      9  N   LIG d   1       9.306   3.888  -6.180  0.00  0.00     0.245 N 
ATOM     10  C   LIG d   1       9.210   2.873  -5.137  0.00  0.00    -0.015 C 
ATOM     11  C   LIG d   1       8.496   1.664  -5.797  0.00  0.00     0.054 C 
ATOM     12  H   LIG d   1       9.109   0.766  -5.707  0.00  0.00     0.051 H 
ATOM     13  C   LIG d   1       8.343   2.053  -7.305  0.00  0.00     0.015 C 
ATOM     14  H   LIG d   1       9.495   6.634  -6.809  0.00  0.00     0.056 H 
ATOM     15  H   LIG d   1      11.126   6.363  -7.448  0.00  0.00     0.056 H 
ATOM     16  H   LIG d   1      10.205   2.584  -4.798  0.00  0.00     0.083 H 
ATOM     17  H   LIG d   1       8.619   3.246  -4.300  0.00  0.00     0.083 H 
ATOM     18  H   LIG d   1       7.356   2.471  -7.502  0.00  0.00     0.034 H 
ATOM     19  H   LIG d   1       8.541   1.203  -7.959  0.00  0.00     0.034 H 
ATOM     20  H   LIG d   1       8.443   4.410  -6.198  0.00  0.00     0.204 HD
ENDROOT
BRANCH   1  21
ATOM     21  C   LIG d   1      10.491   5.472  -4.746  0.00  0.00     0.000 C 
ATOM     22  H   LIG d   1      11.532   5.672  -4.488  0.00  0.00     0.033 H 
ATOM     23  H   LIG d   1      10.055   4.804  -4.004  0.00  0.00     0.033 H 
BRANCH  21  24
ATOM     24  C   LIG d   1       9.711   6.787  -4.769  0.00  0.00     0.029 C 
ATOM     25  H   LIG d   1       8.655   6.581  -4.940  0.00  0.00     0.036 H 
ATOM     26  H   LIG d   1      10.092   7.422  -5.569  0.00  0.00     0.036 H 
BRANCH  24  27
ATOM     27  C   LIG d   1       9.876   7.494  -3.448  0.00  0.00     0.216 C 
ATOM     28  N   LIG d   1      10.090   8.823  -3.416  0.00  0.00    -0.299 N 
ATOM     29  C   LIG d   1      10.254   9.532  -2.138  0.00  0.00     0.028 C 
ATOM     30  C   LIG d   1      10.166   9.606  -4.659  0.00  0.00     0.028 C 
ATOM     31  C   LIG d   1       9.300  10.730  -2.119  0.00  0.00     0.015 C 
ATOM     32  H   LIG d   1      11.282   9.882  -2.043  0.00  0.00     0.048 H 
ATOM     33  H   LIG d   1      10.014   8.860  -1.313  0.00  0.00     0.048 H 
ATOM     34  N   LIG d   1       9.524  11.550  -3.318  0.00  0.00    -0.302 N 
ATOM     35  H   LIG d   1       9.485  11.329  -1.228  0.00  0.00     0.044 H 
ATOM     36  H   LIG d   1       8.269  10.374  -2.110  0.00  0.00     0.044 H 
ATOM     37  C   LIG d   1       9.214  10.800  -4.542  0.00  0.00     0.015 C 
ATOM     38  H   LIG d   1       8.185  10.443  -4.499  0.00  0.00     0.044 H 
ATOM     39  H   LIG d   1       9.338  11.452  -5.408  0.00  0.00     0.044 H 
ATOM     40  H   LIG d   1      11.185   9.962  -4.807  0.00  0.00     0.048 H 
ATOM     41  H   LIG d   1       9.867   8.982  -5.503  0.00  0.00     0.048 H 
ATOM     42  O   LIG d   1       9.817   6.864  -2.412  0.00  0.00    -0.276 OA
BRANCH  34  43
ATOM     43  C   LIG d   1       8.752  12.798  -3.254  0.00  0.00    -0.013 C 
ATOM     44  H   LIG d   1       9.295  13.532  -2.659  0.00  0.00     0.039 H 
ATOM     45  H   LIG d   1       8.601  13.186  -4.261  0.00  0.00     0.039 H 
ATOM     46  H   LIG d   1       7.783  12.602  -2.792  0.00  0.00     0.039 H 
ENDBRANCH  34  43
ENDBRANCH  24  27
ENDBRANCH  21  24
ENDBRANCH   1  21
BRANCH  11  47
ATOM     47  N   LIG d   1       7.182   1.446  -5.180  0.00  0.00    -0.304 N 
ATOM     48  H   LIG d   1       6.541   2.186  -5.425  0.00  0.00     0.123 HD
BRANCH  47  49
ATOM     49  C   LIG d   1       7.299   1.314  -3.722  0.00  0.00     0.022 C 
ATOM     50  H   LIG d   1       8.304   0.977  -3.468  0.00  0.00     0.047 H 
ATOM     51  H   LIG d   1       7.111   2.280  -3.254  0.00  0.00     0.047 H 
BRANCH  49  52
ATOM     52  C   LIG d   1       6.292   0.309  -3.226  0.00  0.00    -0.033 A 
ATOM     53  C   LIG d   1       5.262   0.715  -2.398  0.00  0.00    -0.055 A 
ATOM     54  C   LIG d   1       4.334  -0.206  -1.947  0.00  0.00    -0.026 A 
ATOM     55  H   LIG d   1       5.179   1.751  -2.107  0.00  0.00     0.062 H 
ATOM     56  C   LIG d   1       4.444  -1.536  -2.315  0.00  0.00     0.123 A 
ATOM     57  H   LIG d   1       3.528   0.112  -1.303  0.00  0.00     0.065 H 
ATOM     58  C   LIG d   1       5.479  -1.942  -3.140  0.00  0.00    -0.026 A 
ATOM     59  F   LIG d   1       3.541  -2.438  -1.871  0.00  0.00    -0.205 F 
ATOM     60  C   LIG d   1       6.402  -1.019  -3.595  0.00  0.00    -0.055 A 
ATOM     61  H   LIG d   1       5.566  -2.979  -3.429  0.00  0.00     0.065 H 
ATOM     62  H   LIG d   1       7.209  -1.335  -4.239  0.00  0.00     0.062 H 
ENDBRANCH  49  52
ENDBRANCH  47  49
ENDBRANCH  11  47
TORSDOF 7
ENDMDL
MODEL 4
REMARK VINA RESULT:      -7.1      1.303      1.686
REMARK  7 active torsions:
REMARK  status: ('A' for Active; 'I' for Inactive)
REMARK    1  A    between atoms: C_1  and  N_2 
REMARK       I    between atoms: N_5  and  C_8 
REMARK    2  A    between atoms: C_8  and  C_10 
REMARK    3  A    between atoms: C_10  and  C_11 
REMARK    4  A    between atoms: C_11  and  C_12 
REMARK    5  A    between atoms: C_22  and  N_25 
REMARK    6  A    between atoms: N_25  and  C_26 
REMARK    7  A    between atoms: C_26  and  C_27 
ROOT
ATOM      1  C   LIG d   1      10.135   5.178  -4.980  0.00  0.00     0.000 C 
ATOM      2  H   LIG d   1      11.156   4.798  -5.004  0.00  0.00     0.087 H 
ATOM      3  C   LIG d   1       9.966   6.291  -6.026  0.00  0.00     0.082 C 
ATOM      4  N   LIG d   1       9.753   5.757  -7.366  0.00  0.00    -0.292 NA
ATOM      5  C   LIG d   1       9.617   4.510  -7.660  0.00  0.00     0.008 C 
ATOM      6  O   LIG d   1       9.394   4.134  -8.937  0.00  0.00    -0.860 OA
ATOM      7  C   LIG d   1       9.707   3.486  -6.580  0.00  0.00     0.010 C 
ATOM      8  H   LIG d   1      10.740   3.163  -6.451  0.00  0.00     0.091 H 
ATOM      9  N   LIG d   1       9.204   4.118  -5.329  0.00  0.00     0.245 N 
ATOM     10  C   LIG d   1       9.043   3.014  -4.387  0.00  0.00    -0.015 C 
ATOM     11  C   LIG d   1       8.672   1.780  -5.252  0.00  0.00     0.054 C 
ATOM     12  H   LIG d   1       9.379   0.968  -5.077  0.00  0.00     0.051 H 
ATOM     13  C   LIG d   1       8.783   2.271  -6.734  0.00  0.00     0.015 C 
ATOM     14  H   LIG d   1       9.110   6.907  -5.752  0.00  0.00     0.056 H 
ATOM     15  H   LIG d   1      10.860   6.912  -6.031  0.00  0.00     0.056 H 
ATOM     16  H   LIG d   1       9.976   2.833  -3.854  0.00  0.00     0.083 H 
ATOM     17  H   LIG d   1       8.241   3.233  -3.682  0.00  0.00     0.083 H 
ATOM     18  H   LIG d   1       7.808   2.568  -7.120  0.00  0.00     0.034 H 
ATOM     19  H   LIG d   1       9.238   1.513  -7.372  0.00  0.00     0.034 H 
ATOM     20  H   LIG d   1       8.296   4.519  -5.507  0.00  0.00     0.204 HD
ENDROOT
BRANCH   1  21
ATOM     21  C   LIG d   1       9.812   5.719  -3.586  0.00  0.00     0.000 C 
ATOM     22  H   LIG d   1       9.705   4.888  -2.889  0.00  0.00     0.033 H 
ATOM     23  H   LIG d   1       8.881   6.285  -3.623  0.00  0.00     0.033 H 
BRANCH  21  24
ATOM     24  C   LIG d   1      10.946   6.634  -3.119  0.00  0.00     0.029 C 
ATOM     25  H   LIG d   1      11.618   6.833  -3.952  0.00  0.00     0.036 H 
ATOM     26  H   LIG d   1      11.497   6.147  -2.314  0.00  0.00     0.036 H 
BRANCH  24  27
ATOM     27  C   LIG d   1      10.369   7.932  -2.616  0.00  0.00     0.216 C 
ATOM     28  N   LIG d   1      10.355   8.197  -1.295  0.00  0.00    -0.299 N 
ATOM     29  C   LIG d   1       9.797   9.458  -0.784  0.00  0.00     0.028 C 
ATOM     30  C   LIG d   1      10.895   7.232  -0.326  0.00  0.00     0.028 C 
ATOM     31  C   LIG d   1      10.826  10.102   0.151  0.00  0.00     0.015 C 
ATOM     32  H   LIG d   1       8.879   9.256  -0.233  0.00  0.00     0.048 H 
ATOM     33  H   LIG d   1       9.588  10.131  -1.616  0.00  0.00     0.048 H 
ATOM     34  N   LIG d   1      11.220   9.133   1.183  0.00  0.00    -0.302 N 
ATOM     35  H   LIG d   1      10.388  10.981   0.625  0.00  0.00     0.044 H 
ATOM     36  H   LIG d   1      11.705  10.398  -0.423  0.00  0.00     0.044 H 
ATOM     37  C   LIG d   1      11.882   7.963   0.590  0.00  0.00     0.015 C 
ATOM     38  H   LIG d   1      12.745   8.289   0.010  0.00  0.00     0.044 H 
ATOM     39  H   LIG d   1      12.210   7.291   1.384  0.00  0.00     0.044 H 
ATOM     40  H   LIG d   1      10.082   6.815   0.269  0.00  0.00     0.048 H 
ATOM     41  H   LIG d   1      11.413   6.432  -0.856  0.00  0.00     0.048 H 
ATOM     42  O   LIG d   1       9.918   8.740  -3.401  0.00  0.00    -0.276 OA
BRANCH  34  43
ATOM     43  C   LIG d   1      12.073   9.763   2.199  0.00  0.00    -0.013 C 
ATOM     44  H   LIG d   1      12.072   9.154   3.103  0.00  0.00     0.039 H 
ATOM     45  H   LIG d   1      13.091   9.847   1.819  0.00  0.00     0.039 H 
ATOM     46  H   LIG d   1      11.689  10.757   2.430  0.00  0.00     0.039 H 
ENDBRANCH  34  43
ENDBRANCH  24  27
ENDBRANCH  21  24
ENDBRANCH   1  21
BRANCH  11  47
ATOM     47  N   LIG d   1       7.305   1.338  -4.952  0.00  0.00    -0.304 N 
ATOM     48  H   LIG d   1       6.631   1.847  -5.504  0.00  0.00     0.123 HD
BRANCH  47  49
ATOM     49  C   LIG d   1       7.012   1.465  -3.518  0.00  0.00     0.022 C 
ATOM     50  H   LIG d   1       7.941   1.397  -2.951  0.00  0.00     0.047 H 
ATOM     51  H   LIG d   1       6.540   2.428  -3.327  0.00  0.00     0.047 H 
BRANCH  49  52
ATOM     52  C   LIG d   1       6.083   0.356  -3.094  0.00  0.00    -0.033 A 
ATOM     53  C   LIG d   1       6.341  -0.946  -3.479  0.00  0.00    -0.055 A 
ATOM     54  C   LIG d   1       5.492  -1.964  -3.086  0.00  0.00    -0.026 A 
ATOM     55  H   LIG d   1       7.208  -1.169  -4.083  0.00  0.00     0.062 H 
ATOM     56  C   LIG d   1       4.377  -1.677  -2.317  0.00  0.00     0.123 A 
ATOM     57  H   LIG d   1       5.695  -2.981  -3.384  0.00  0.00     0.065 H 
ATOM     58  C   LIG d   1       4.117  -0.371  -1.937  0.00  0.00    -0.026 A 
ATOM     59  F   LIG d   1       3.543  -2.669  -1.937  0.00  0.00    -0.205 F 
ATOM     60  C   LIG d   1       4.971   0.644  -2.326  0.00  0.00    -0.055 A 
ATOM     61  H   LIG d   1       3.248  -0.145  -1.336  0.00  0.00     0.065 H 
ATOM     62  H   LIG d   1       4.768   1.663  -2.029  0.00  0.00     0.062 H 
ENDBRANCH  49  52
ENDBRANCH  47  49
ENDBRANCH  11  47
TORSDOF 7
ENDMDL
MODEL 5
REMARK VINA RESULT:      -6.8      7.669     12.577
REMARK  7 active torsions:
REMARK  status: ('A' for Active; 'I' for Inactive)
REMARK    1  A    between atoms: C_1  and  N_2 
REMARK       I    between atoms: N_5  and  C_8 
REMARK    2  A    between atoms: C_8  and  C_10 
REMARK    3  A    between atoms: C_10  and  C_11 
REMARK    4  A    between atoms: C_11  and  C_12 
REMARK    5  A    between atoms: C_22  and  N_25 
REMARK    6  A    between atoms: N_25  and  C_26 
REMARK    7  A    between atoms: C_26  and  C_27 
ROOT
ATOM      1  C   LIG d   1       3.596  -0.688 -10.527  0.00  0.00     0.000 C 
ATOM      2  H   LIG d   1       2.558  -1.019 -10.491  0.00  0.00     0.087 H 
ATOM      3  C   LIG d   1       3.669   0.747 -11.073  0.00  0.00     0.082 C 
ATOM      4  N   LIG d   1       3.369   1.740 -10.050  0.00  0.00    -0.292 NA
ATOM      5  C   LIG d   1       3.163   1.490  -8.803  0.00  0.00     0.008 C 
ATOM      6  O   LIG d   1       2.924   2.498  -7.938  0.00  0.00    -0.860 OA
ATOM      7  C   LIG d   1       3.192   0.078  -8.323  0.00  0.00     0.010 C 
ATOM      8  H   LIG d   1       2.199  -0.366  -8.396  0.00  0.00     0.091 H 
ATOM      9  N   LIG d   1       4.154  -0.663  -9.185  0.00  0.00     0.245 N 
ATOM     10  C   LIG d   1       4.362  -1.940  -8.508  0.00  0.00    -0.015 C 
ATOM     11  C   LIG d   1       4.211  -1.637  -6.994  0.00  0.00     0.054 C 
ATOM     12  H   LIG d   1       3.439  -2.271  -6.556  0.00  0.00     0.051 H 
ATOM     13  C   LIG d   1       3.771  -0.137  -6.918  0.00  0.00     0.015 C 
ATOM     14  H   LIG d   1       4.672   0.929 -11.459  0.00  0.00     0.056 H 
ATOM     15  H   LIG d   1       2.953   0.852 -11.888  0.00  0.00     0.056 H 
ATOM     16  H   LIG d   1       3.609  -2.661  -8.825  0.00  0.00     0.083 H 
ATOM     17  H   LIG d   1       5.361  -2.319  -8.717  0.00  0.00     0.083 H 
ATOM     18  H   LIG d   1       4.628   0.513  -6.745  0.00  0.00     0.034 H 
ATOM     19  H   LIG d   1       3.008   0.017  -6.155  0.00  0.00     0.034 H 
ATOM     20  H   LIG d   1       5.031  -0.164  -9.200  0.00  0.00     0.204 HD
ENDROOT
BRANCH   1  21
ATOM     21  C   LIG d   1       4.413  -1.627 -11.415  0.00  0.00     0.000 C 
ATOM     22  H   LIG d   1       5.112  -2.193 -10.800  0.00  0.00     0.033 H 
ATOM     23  H   LIG d   1       4.966  -1.041 -12.149  0.00  0.00     0.033 H 
BRANCH  21  24
ATOM     24  C   LIG d   1       3.472  -2.592 -12.138  0.00  0.00     0.029 C 
ATOM     25  H   LIG d   1       3.828  -2.754 -13.155  0.00  0.00     0.036 H 
ATOM     26  H   LIG d   1       2.468  -2.168 -12.168  0.00  0.00     0.036 H 
BRANCH  24  27
ATOM     27  C   LIG d   1       3.439  -3.907 -11.402  0.00  0.00     0.216 C 
ATOM     28  N   LIG d   1       2.339  -4.266 -10.712  0.00  0.00    -0.299 N 
ATOM     29  C   LIG d   1       2.286  -5.544  -9.987  0.00  0.00     0.028 C 
ATOM     30  C   LIG d   1       1.160  -3.388 -10.662  0.00  0.00     0.028 C 
ATOM     31  C   LIG d   1       1.006  -6.282 -10.395  0.00  0.00     0.015 C 
ATOM     32  H   LIG d   1       2.273  -5.356  -8.914  0.00  0.00     0.048 H 
ATOM     33  H   LIG d   1       3.155  -6.149 -10.246  0.00  0.00     0.048 H 
ATOM     34  N   LIG d   1      -0.151  -5.401 -10.187  0.00  0.00    -0.302 N 
ATOM     35  H   LIG d   1       0.895  -7.180  -9.787  0.00  0.00     0.044 H 
ATOM     36  H   LIG d   1       1.067  -6.560 -11.447  0.00  0.00     0.044 H 
ATOM     37  C   LIG d   1      -0.075  -4.211 -11.044  0.00  0.00     0.015 C 
ATOM     38  H   LIG d   1       0.000  -4.518 -12.088  0.00  0.00     0.044 H 
ATOM     39  H   LIG d   1      -0.973  -3.606 -10.907  0.00  0.00     0.044 H 
ATOM     40  H   LIG d   1       1.039  -2.993  -9.654  0.00  0.00     0.048 H 
ATOM     41  H   LIG d   1       1.285  -2.567 -11.368  0.00  0.00     0.048 H 
ATOM     42  O   LIG d   1       4.403  -4.643 -11.432  0.00  0.00    -0.276 OA
BRANCH  34  43
ATOM     43  C   LIG d   1      -1.410  -6.126 -10.402  0.00  0.00    -0.013 C 
ATOM     44  H   LIG d   1      -1.715  -6.025 -11.444  0.00  0.00     0.039 H 
ATOM     45  H   LIG d   1      -1.268  -7.181 -10.166  0.00  0.00     0.039 H 
ATOM     46  H   LIG d   1      -2.184  -5.711  -9.756  0.00  0.00     0.039 H 
ENDBRANCH  34  43
ENDBRANCH  24  27
ENDBRANCH  21  24
ENDBRANCH   1  21
BRANCH  11  47
ATOM     47  N   LIG d   1       5.490  -1.839  -6.302  0.00  0.00    -0.304 N 
ATOM     48  H   LIG d   1       6.138  -2.351  -6.882  0.00  0.00     0.123 HD
BRANCH  47  49
ATOM     49  C   LIG d   1       5.291  -2.515  -5.013  0.00  0.00     0.022 C 
ATOM     50  H   LIG d   1       4.397  -3.138  -5.064  0.00  0.00     0.047 H 
ATOM     51  H   LIG d   1       6.157  -3.139  -4.794  0.00  0.00     0.047 H 
BRANCH  49  52
ATOM     52  C   LIG d   1       5.123  -1.485  -3.926  0.00  0.00    -0.033 A 
ATOM     53  C   LIG d   1       4.173  -1.670  -2.939  0.00  0.00    -0.055 A 
ATOM     54  C   LIG d   1       4.022  -0.728  -1.939  0.00  0.00    -0.026 A 
ATOM     55  H   LIG d   1       3.550  -2.552  -2.949  0.00  0.00     0.062 H 
ATOM     56  C   LIG d   1       4.817   0.405  -1.931  0.00  0.00     0.123 A 
ATOM     57  H   LIG d   1       3.282  -0.875  -1.167  0.00  0.00     0.065 H 
ATOM     58  C   LIG d   1       5.765   0.592  -2.923  0.00  0.00    -0.026 A 
ATOM     59  F   LIG d   1       4.667   1.329  -0.957  0.00  0.00    -0.205 F 
ATOM     60  C   LIG d   1       5.918  -0.354  -3.919  0.00  0.00    -0.055 A 
ATOM     61  H   LIG d   1       6.386   1.476  -2.918  0.00  0.00     0.065 H 
ATOM     62  H   LIG d   1       6.658  -0.208  -4.692  0.00  0.00     0.062 H 
ENDBRANCH  49  52
ENDBRANCH  47  49
ENDBRANCH  11  47
TORSDOF 7
ENDMDL
MODEL 6
REMARK VINA RESULT:      -6.8      7.550     10.934
REMARK  7 active torsions:
REMARK  status: ('A' for Active; 'I' for Inactive)
REMARK    1  A    between atoms: C_1  and  N_2 
REMARK       I    between atoms: N_5  and  C_8 
REMARK    2  A    between atoms: C_8  and  C_10 
REMARK    3  A    between atoms: C_10  and  C_11 
REMARK    4  A    between atoms: C_11  and  C_12 
REMARK    5  A    between atoms: C_22  and  N_25 
REMARK    6  A    between atoms: N_25  and  C_26 
REMARK    7  A    between atoms: C_26  and  C_27 
ROOT
ATOM      1  C   LIG d   1       3.396  -4.398  -9.256  0.00  0.00     0.000 C 
ATOM      2  H   LIG d   1       4.343  -4.381  -9.796  0.00  0.00     0.087 H 
ATOM      3  C   LIG d   1       2.563  -5.611  -9.698  0.00  0.00     0.082 C 
ATOM      4  N   LIG d   1       2.984  -6.837  -9.033  0.00  0.00    -0.292 NA
ATOM      5  C   LIG d   1       3.874  -6.916  -8.105  0.00  0.00     0.008 C 
ATOM      6  O   LIG d   1       4.161  -8.107  -7.538  0.00  0.00    -0.860 OA
ATOM      7  C   LIG d   1       4.585  -5.682  -7.662  0.00  0.00     0.010 C 
ATOM      8  H   LIG d   1       5.479  -5.524  -8.265  0.00  0.00     0.091 H 
ATOM      9  N   LIG d   1       3.640  -4.543  -7.831  0.00  0.00     0.245 N 
ATOM     10  C   LIG d   1       4.266  -3.427  -7.128  0.00  0.00    -0.015 C 
ATOM     11  C   LIG d   1       5.061  -4.064  -5.958  0.00  0.00     0.054 C 
ATOM     12  H   LIG d   1       6.110  -3.773  -6.009  0.00  0.00     0.051 H 
ATOM     13  C   LIG d   1       4.929  -5.610  -6.169  0.00  0.00     0.015 C 
ATOM     14  H   LIG d   1       1.515  -5.425  -9.466  0.00  0.00     0.056 H 
ATOM     15  H   LIG d   1       2.669  -5.740 -10.775  0.00  0.00     0.056 H 
ATOM     16  H   LIG d   1       4.942  -2.892  -7.795  0.00  0.00     0.083 H 
ATOM     17  H   LIG d   1       3.504  -2.751  -6.740  0.00  0.00     0.083 H 
ATOM     18  H   LIG d   1       4.121  -6.018  -5.562  0.00  0.00     0.034 H 
ATOM     19  H   LIG d   1       5.868  -6.122  -5.959  0.00  0.00     0.034 H 
ATOM     20  H   LIG d   1       2.773  -4.766  -7.367  0.00  0.00     0.204 HD
ENDROOT
BRANCH   1  21
ATOM     21  C   LIG d   1       2.620  -3.107  -9.524  0.00  0.00     0.000 C 
ATOM     22  H   LIG d   1       2.356  -2.638  -8.576  0.00  0.00     0.033 H 
ATOM     23  H   LIG d   1       1.711  -3.339 -10.080  0.00  0.00     0.033 H 
BRANCH  21  24
ATOM     24  C   LIG d   1       3.488  -2.150 -10.342  0.00  0.00     0.029 C 
ATOM     25  H   LIG d   1       3.232  -2.238 -11.397  0.00  0.00     0.036 H 
ATOM     26  H   LIG d   1       4.539  -2.402 -10.200  0.00  0.00     0.036 H 
BRANCH  24  27
ATOM     27  C   LIG d   1       3.246  -0.735  -9.883  0.00  0.00     0.216 C 
ATOM     28  N   LIG d   1       4.197  -0.078  -9.191  0.00  0.00    -0.299 N 
ATOM     29  C   LIG d   1       3.982   1.302  -8.734  0.00  0.00     0.028 C 
ATOM     30  C   LIG d   1       5.479  -0.724  -8.871  0.00  0.00     0.028 C 
ATOM     31  C   LIG d   1       5.177   2.154  -9.175  0.00  0.00     0.015 C 
ATOM     32  H   LIG d   1       3.901   1.320  -7.647  0.00  0.00     0.048 H 
ATOM     33  H   LIG d   1       3.067   1.697  -9.178  0.00  0.00     0.048 H 
ATOM     34  N   LIG d   1       6.420   1.530  -8.702  0.00  0.00    -0.302 N 
ATOM     35  H   LIG d   1       5.087   3.154  -8.751  0.00  0.00     0.044 H 
ATOM     36  H   LIG d   1       5.194   2.220 -10.263  0.00  0.00     0.044 H 
ATOM     37  C   LIG d   1       6.615   0.206  -9.307  0.00  0.00     0.015 C 
ATOM     38  H   LIG d   1       6.613   0.299 -10.394  0.00  0.00     0.044 H 
ATOM     39  H   LIG d   1       7.570  -0.206  -8.979  0.00  0.00     0.044 H 
ATOM     40  H   LIG d   1       5.542  -0.902  -7.797  0.00  0.00     0.048 H 
ATOM     41  H   LIG d   1       5.555  -1.671  -9.407  0.00  0.00     0.048 H 
ATOM     42  O   LIG d   1       2.194  -0.186 -10.137  0.00  0.00    -0.276 OA
BRANCH  34  43
ATOM     43  C   LIG d   1       7.575   2.401  -8.954  0.00  0.00    -0.013 C 
ATOM     44  H   LIG d   1       8.311   1.865  -9.553  0.00  0.00     0.039 H 
ATOM     45  H   LIG d   1       7.249   3.292  -9.491  0.00  0.00     0.039 H 
ATOM     46  H   LIG d   1       8.024   2.693  -8.004  0.00  0.00     0.039 H 
ENDBRANCH  34  43
ENDBRANCH  24  27
ENDBRANCH  21  24
ENDBRANCH   1  21
BRANCH  11  47
ATOM     47  N   LIG d   1       4.482  -3.664  -4.669  0.00  0.00    -0.304 N 
ATOM     48  H   LIG d   1       3.650  -3.111  -4.803  0.00  0.00     0.123 HD
BRANCH  47  49
ATOM     49  C   LIG d   1       5.467  -2.944  -3.851  0.00  0.00     0.022 C 
ATOM     50  H   LIG d   1       5.764  -3.567  -3.007  0.00  0.00     0.047 H 
ATOM     51  H   LIG d   1       6.343  -2.712  -4.458  0.00  0.00     0.047 H 
BRANCH  49  52
ATOM     52  C   LIG d   1       4.856  -1.664  -3.340  0.00  0.00    -0.033 A 
ATOM     53  C   LIG d   1       5.670  -0.614  -2.958  0.00  0.00    -0.055 A 
ATOM     54  C   LIG d   1       5.110   0.561  -2.494  0.00  0.00    -0.026 A 
ATOM     55  H   LIG d   1       6.743  -0.712  -3.026  0.00  0.00     0.062 H 
ATOM     56  C   LIG d   1       3.734   0.683  -2.402  0.00  0.00     0.123 A 
ATOM     57  H   LIG d   1       5.746   1.382  -2.199  0.00  0.00     0.065 H 
ATOM     58  C   LIG d   1       2.920  -0.372  -2.780  0.00  0.00    -0.026 A 
ATOM     59  F   LIG d   1       3.185   1.829  -1.944  0.00  0.00    -0.205 F 
ATOM     60  C   LIG d   1       3.482  -1.544  -3.249  0.00  0.00    -0.055 A 
ATOM     61  H   LIG d   1       1.846  -0.278  -2.710  0.00  0.00     0.065 H 
ATOM     62  H   LIG d   1       2.847  -2.366  -3.545  0.00  0.00     0.062 H 
ENDBRANCH  49  52
ENDBRANCH  47  49
ENDBRANCH  11  47
TORSDOF 7
ENDMDL
MODEL 7
REMARK VINA RESULT:      -6.7      9.289     13.182
REMARK  7 active torsions:
REMARK  status: ('A' for Active; 'I' for Inactive)
REMARK    1  A    between atoms: C_1  and  N_2 
REMARK       I    between atoms: N_5  and  C_8 
REMARK    2  A    between atoms: C_8  and  C_10 
REMARK    3  A    between atoms: C_10  and  C_11 
REMARK    4  A    between atoms: C_11  and  C_12 
REMARK    5  A    between atoms: C_22  and  N_25 
REMARK    6  A    between atoms: N_25  and  C_26 
REMARK    7  A    between atoms: C_26  and  C_27 
ROOT
ATOM      1  C   LIG d   1       5.134  -2.649  -5.242  0.00  0.00     0.000 C 
ATOM      2  H   LIG d   1       6.014  -2.037  -5.049  0.00  0.00     0.087 H 
ATOM      3  C   LIG d   1       4.604  -3.235  -3.924  0.00  0.00     0.082 C 
ATOM      4  N   LIG d   1       3.795  -2.277  -3.183  0.00  0.00    -0.292 NA
ATOM      5  C   LIG d   1       3.458  -1.104  -3.598  0.00  0.00     0.008 C 
ATOM      6  O   LIG d   1       2.678  -0.311  -2.834  0.00  0.00    -0.860 OA
ATOM      7  C   LIG d   1       3.938  -0.630  -4.929  0.00  0.00     0.010 C 
ATOM      8  H   LIG d   1       4.899  -0.127  -4.826  0.00  0.00     0.091 H 
ATOM      9  N   LIG d   1       4.073  -1.829  -5.802  0.00  0.00     0.245 N 
ATOM     10  C   LIG d   1       4.261  -1.295  -7.148  0.00  0.00    -0.015 C 
ATOM     11  C   LIG d   1       3.467   0.038  -7.182  0.00  0.00     0.054 C 
ATOM     12  H   LIG d   1       4.122   0.862  -7.466  0.00  0.00     0.051 H 
ATOM     13  C   LIG d   1       2.957   0.247  -5.717  0.00  0.00     0.015 C 
ATOM     14  H   LIG d   1       3.997  -4.113  -4.145  0.00  0.00     0.056 H 
ATOM     15  H   LIG d   1       5.449  -3.538  -3.306  0.00  0.00     0.056 H 
ATOM     16  H   LIG d   1       5.318  -1.109  -7.336  0.00  0.00     0.083 H 
ATOM     17  H   LIG d   1       3.862  -1.988  -7.888  0.00  0.00     0.083 H 
ATOM     18  H   LIG d   1       1.935  -0.112  -5.605  0.00  0.00     0.034 H 
ATOM     19  H   LIG d   1       3.036   1.291  -5.412  0.00  0.00     0.034 H 
ATOM     20  H   LIG d   1       3.208  -2.346  -5.783  0.00  0.00     0.204 HD
ENDROOT
BRANCH   1  21
ATOM     21  C   LIG d   1       5.486  -3.780  -6.211  0.00  0.00     0.000 C 
ATOM     22  H   LIG d   1       6.333  -3.478  -6.828  0.00  0.00     0.033 H 
ATOM     23  H   LIG d   1       4.628  -3.991  -6.849  0.00  0.00     0.033 H 
BRANCH  21  24
ATOM     24  C   LIG d   1       5.854  -5.035  -5.418  0.00  0.00     0.029 C 
ATOM     25  H   LIG d   1       5.676  -4.860  -4.358  0.00  0.00     0.036 H 
ATOM     26  H   LIG d   1       6.907  -5.269  -5.577  0.00  0.00     0.036 H 
BRANCH  24  27
ATOM     27  C   LIG d   1       5.008  -6.191  -5.886  0.00  0.00     0.216 C 
ATOM     28  N   LIG d   1       5.502  -7.444  -5.855  0.00  0.00    -0.299 N 
ATOM     29  C   LIG d   1       4.693  -8.586  -6.307  0.00  0.00     0.028 C 
ATOM     30  C   LIG d   1       6.866  -7.706  -5.370  0.00  0.00     0.028 C 
ATOM     31  C   LIG d   1       4.715  -9.660  -5.215  0.00  0.00     0.015 C 
ATOM     32  H   LIG d   1       5.113  -8.991  -7.227  0.00  0.00     0.048 H 
ATOM     33  H   LIG d   1       3.666  -8.262  -6.481  0.00  0.00     0.048 H 
ATOM     34  N   LIG d   1       6.108  -9.981  -4.875  0.00  0.00    -0.302 N 
ATOM     35  H   LIG d   1       4.212 -10.558  -5.576  0.00  0.00     0.044 H 
ATOM     36  H   LIG d   1       4.202  -9.288  -4.328  0.00  0.00     0.044 H 
ATOM     37  C   LIG d   1       6.802  -8.814  -4.315  0.00  0.00     0.015 C 
ATOM     38  H   LIG d   1       6.259  -8.454  -3.440  0.00  0.00     0.044 H 
ATOM     39  H   LIG d   1       7.814  -9.099  -4.023  0.00  0.00     0.044 H 
ATOM     40  H   LIG d   1       7.495  -8.026  -6.201  0.00  0.00     0.048 H 
ATOM     41  H   LIG d   1       7.276  -6.799  -4.925  0.00  0.00     0.048 H 
ATOM     42  O   LIG d   1       3.881  -5.993  -6.290  0.00  0.00    -0.276 OA
BRANCH  34  43
ATOM     43  C   LIG d   1       6.176 -11.126  -3.958  0.00  0.00    -0.013 C 
ATOM     44  H   LIG d   1       5.220 -11.651  -3.960  0.00  0.00     0.039 H 
ATOM     45  H   LIG d   1       6.964 -11.806  -4.282  0.00  0.00     0.039 H 
ATOM     46  H   LIG d   1       6.393 -10.772  -2.950  0.00  0.00     0.039 H 
ENDBRANCH  34  43
ENDBRANCH  24  27
ENDBRANCH  21  24
ENDBRANCH   1  21
BRANCH  11  47
ATOM     47  N   LIG d   1       2.339  -0.063  -8.115  0.00  0.00    -0.304 N 
ATOM     48  H   LIG d   1       2.159  -1.024  -8.363  0.00  0.00     0.123 HD
BRANCH  47  49
ATOM     49  C   LIG d   1       2.573   0.754  -9.314  0.00  0.00     0.022 C 
ATOM     50  H   LIG d   1       1.825   1.545  -9.366  0.00  0.00     0.047 H 
ATOM     51  H   LIG d   1       3.568   1.196  -9.263  0.00  0.00     0.047 H 
BRANCH  49  52
ATOM     52  C   LIG d   1       2.470  -0.115 -10.541  0.00  0.00    -0.033 A 
ATOM     53  C   LIG d   1       1.339  -0.880 -10.754  0.00  0.00    -0.055 A 
ATOM     54  C   LIG d   1       1.242  -1.673 -11.882  0.00  0.00    -0.026 A 
ATOM     55  H   LIG d   1       0.529  -0.855 -10.040  0.00  0.00     0.062 H 
ATOM     56  C   LIG d   1       2.284  -1.709 -12.794  0.00  0.00     0.123 A 
ATOM     57  H   LIG d   1       0.357  -2.267 -12.049  0.00  0.00     0.065 H 
ATOM     58  C   LIG d   1       3.419  -0.946 -12.577  0.00  0.00    -0.026 A 
ATOM     59  F   LIG d   1       2.193  -2.487 -13.894  0.00  0.00    -0.205 F 
ATOM     60  C   LIG d   1       3.511  -0.149 -11.451  0.00  0.00    -0.055 A 
ATOM     61  H   LIG d   1       4.232  -0.972 -13.287  0.00  0.00     0.065 H 
ATOM     62  H   LIG d   1       4.396   0.446 -11.282  0.00  0.00     0.062 H 
ENDBRANCH  49  52
ENDBRANCH  47  49
ENDBRANCH  11  47
TORSDOF 7
ENDMDL
MODEL 8
REMARK VINA RESULT:      -6.7      6.911      9.439
REMARK  7 active torsions:
REMARK  status: ('A' for Active; 'I' for Inactive)
REMARK    1  A    between atoms: C_1  and  N_2 
REMARK       I    between atoms: N_5  and  C_8 
REMARK    2  A    between atoms: C_8  and  C_10 
REMARK    3  A    between atoms: C_10  and  C_11 
REMARK    4  A    between atoms: C_11  and  C_12 
REMARK    5  A    between atoms: C_22  and  N_25 
REMARK    6  A    between atoms: N_25  and  C_26 
REMARK    7  A    between atoms: C_26  and  C_27 
ROOT
ATOM      1  C   LIG d   1       3.981  -0.721 -10.648  0.00  0.00     0.000 C 
ATOM      2  H   LIG d   1       2.964  -1.108 -10.706  0.00  0.00     0.087 H 
ATOM      3  C   LIG d   1       4.013   0.741 -11.122  0.00  0.00     0.082 C 
ATOM      4  N   LIG d   1       3.583   1.666 -10.082  0.00  0.00    -0.292 NA
ATOM      5  C   LIG d   1       3.300   1.344  -8.867  0.00  0.00     0.008 C 
ATOM      6  O   LIG d   1       2.940   2.295  -7.979  0.00  0.00    -0.860 OA
ATOM      7  C   LIG d   1       3.373  -0.086  -8.450  0.00  0.00     0.010 C 
ATOM      8  H   LIG d   1       2.414  -0.578  -8.619  0.00  0.00     0.091 H 
ATOM      9  N   LIG d   1       4.436  -0.732  -9.267  0.00  0.00     0.245 N 
ATOM     10  C   LIG d   1       4.665  -2.027  -8.634  0.00  0.00    -0.015 C 
ATOM     11  C   LIG d   1       4.385  -1.808  -7.124  0.00  0.00     0.054 C 
ATOM     12  H   LIG d   1       3.620  -2.502  -6.775  0.00  0.00     0.051 H 
ATOM     13  C   LIG d   1       3.856  -0.338  -7.016  0.00  0.00     0.015 C 
ATOM     14  H   LIG d   1       5.030   0.994 -11.421  0.00  0.00     0.056 H 
ATOM     15  H   LIG d   1       3.355   0.847 -11.984  0.00  0.00     0.056 H 
ATOM     16  H   LIG d   1       3.980  -2.771  -9.040  0.00  0.00     0.083 H 
ATOM     17  H   LIG d   1       5.697  -2.343  -8.782  0.00  0.00     0.083 H 
ATOM     18  H   LIG d   1       4.661   0.347  -6.749  0.00  0.00     0.034 H 
ATOM     19  H   LIG d   1       3.032  -0.262  -6.307  0.00  0.00     0.034 H 
ATOM     20  H   LIG d   1       5.282  -0.187  -9.192  0.00  0.00     0.204 HD
ENDROOT
BRANCH   1  21
ATOM     21  C   LIG d   1       4.914  -1.571 -11.512  0.00  0.00     0.000 C 
ATOM     22  H   LIG d   1       4.410  -1.830 -12.444  0.00  0.00     0.033 H 
ATOM     23  H   LIG d   1       5.177  -2.482 -10.975  0.00  0.00     0.033 H 
BRANCH  21  24
ATOM     24  C   LIG d   1       6.185  -0.778 -11.823  0.00  0.00     0.029 C 
ATOM     25  H   LIG d   1       6.037   0.267 -11.551  0.00  0.00     0.036 H 
ATOM     26  H   LIG d   1       6.406  -0.849 -12.888  0.00  0.00     0.036 H 
BRANCH  24  27
ATOM     27  C   LIG d   1       7.336  -1.344 -11.033  0.00  0.00     0.216 C 
ATOM     28  N   LIG d   1       7.965  -0.583 -10.117  0.00  0.00    -0.299 N 
ATOM     29  C   LIG d   1       9.091  -1.116  -9.336  0.00  0.00     0.028 C 
ATOM     30  C   LIG d   1       7.544   0.805  -9.872  0.00  0.00     0.028 C 
ATOM     31  C   LIG d   1       8.820  -0.854  -7.850  0.00  0.00     0.015 C 
ATOM     32  H   LIG d   1      10.012  -0.616  -9.633  0.00  0.00     0.048 H 
ATOM     33  H   LIG d   1       9.181  -2.189  -9.508  0.00  0.00     0.048 H 
ATOM     34  N   LIG d   1       8.547   0.575  -7.650  0.00  0.00    -0.302 N 
ATOM     35  H   LIG d   1       9.693  -1.144  -7.265  0.00  0.00     0.044 H 
ATOM     36  H   LIG d   1       7.957  -1.438  -7.530  0.00  0.00     0.044 H 
ATOM     37  C   LIG d   1       7.334   0.991  -8.366  0.00  0.00     0.015 C 
ATOM     38  H   LIG d   1       6.491   0.382  -8.038  0.00  0.00     0.044 H 
ATOM     39  H   LIG d   1       7.128   2.041  -8.153  0.00  0.00     0.044 H 
ATOM     40  H   LIG d   1       8.317   1.490 -10.221  0.00  0.00     0.048 H 
ATOM     41  H   LIG d   1       6.610   1.003 -10.399  0.00  0.00     0.048 H 
ATOM     42  O   LIG d   1       7.697  -2.487 -11.223  0.00  0.00    -0.276 OA
BRANCH  34  43
ATOM     43  C   LIG d   1       8.452   0.897  -6.220  0.00  0.00    -0.013 C 
ATOM     44  H   LIG d   1       8.868   1.890  -6.043  0.00  0.00     0.039 H 
ATOM     45  H   LIG d   1       7.407   0.881  -5.911  0.00  0.00     0.039 H 
ATOM     46  H   LIG d   1       9.014   0.161  -5.644  0.00  0.00     0.039 H 
ENDBRANCH  34  43
ENDBRANCH  24  27
ENDBRANCH  21  24
ENDBRANCH   1  21
BRANCH  11  47
ATOM     47  N   LIG d   1       5.618  -1.975  -6.346  0.00  0.00    -0.304 N 
ATOM     48  H   LIG d   1       6.320  -2.463  -6.881  0.00  0.00     0.123 HD
BRANCH  47  49
ATOM     49  C   LIG d   1       5.351  -2.664  -5.076  0.00  0.00     0.022 C 
ATOM     50  H   LIG d   1       4.447  -3.265  -5.173  0.00  0.00     0.047 H 
ATOM     51  H   LIG d   1       6.194  -3.310  -4.830  0.00  0.00     0.047 H 
BRANCH  49  52
ATOM     52  C   LIG d   1       5.162  -1.645  -3.982  0.00  0.00    -0.033 A 
ATOM     53  C   LIG d   1       4.246  -1.878  -2.972  0.00  0.00    -0.055 A 
ATOM     54  C   LIG d   1       4.076  -0.947  -1.965  0.00  0.00    -0.026 A 
ATOM     55  H   LIG d   1       3.667  -2.790  -2.969  0.00  0.00     0.062 H 
ATOM     56  C   LIG d   1       4.814   0.224  -1.974  0.00  0.00     0.123 A 
ATOM     57  H   LIG d   1       3.363  -1.131  -1.176  0.00  0.00     0.065 H 
ATOM     58  C   LIG d   1       5.727   0.459  -2.989  0.00  0.00    -0.026 A 
ATOM     59  F   LIG d   1       4.644   1.138  -0.994  0.00  0.00    -0.205 F 
ATOM     60  C   LIG d   1       5.900  -0.476  -3.991  0.00  0.00    -0.055 A 
ATOM     61  H   LIG d   1       6.304   1.372  -2.997  0.00  0.00     0.065 H 
ATOM     62  H   LIG d   1       6.612  -0.294  -4.783  0.00  0.00     0.062 H 
ENDBRANCH  49  52
ENDBRANCH  47  49
ENDBRANCH  11  47
TORSDOF 7
ENDMDL
MODEL 9
REMARK VINA RESULT:      -6.5      6.638      9.673
REMARK  7 active torsions:
REMARK  status: ('A' for Active; 'I' for Inactive)
REMARK    1  A    between atoms: C_1  and  N_2 
REMARK       I    between atoms: N_5  and  C_8 
REMARK    2  A    between atoms: C_8  and  C_10 
REMARK    3  A    between atoms: C_10  and  C_11 
REMARK    4  A    between atoms: C_11  and  C_12 
REMARK    5  A    between atoms: C_22  and  N_25 
REMARK    6  A    between atoms: N_25  and  C_26 
REMARK    7  A    between atoms: C_26  and  C_27 
ROOT
ATOM      1  C   LIG d   1       8.101   0.554  -8.305  0.00  0.00     0.000 C 
ATOM      2  H   LIG d   1       9.112   0.914  -8.493  0.00  0.00     0.087 H 
ATOM      3  C   LIG d   1       7.775  -0.612  -9.251  0.00  0.00     0.082 C 
ATOM      4  N   LIG d   1       8.328  -1.874  -8.778  0.00  0.00    -0.292 NA
ATOM      5  C   LIG d   1       8.937  -2.049  -7.656  0.00  0.00     0.008 C 
ATOM      6  O   LIG d   1       9.383  -3.275  -7.309  0.00  0.00    -0.860 OA
ATOM      7  C   LIG d   1       9.145  -0.887  -6.744  0.00  0.00     0.010 C 
ATOM      8  H   LIG d   1      10.085  -0.388  -6.976  0.00  0.00     0.091 H 
ATOM      9  N   LIG d   1       8.001   0.044  -6.947  0.00  0.00     0.245 N 
ATOM     10  C   LIG d   1       8.095   1.002  -5.849  0.00  0.00    -0.015 C 
ATOM     11  C   LIG d   1       8.706   0.214  -4.661  0.00  0.00     0.054 C 
ATOM     12  H   LIG d   1       9.612   0.706  -4.305  0.00  0.00     0.051 H 
ATOM     13  C   LIG d   1       9.060  -1.195  -5.243  0.00  0.00     0.015 C 
ATOM     14  H   LIG d   1       6.692  -0.710  -9.332  0.00  0.00     0.056 H 
ATOM     15  H   LIG d   1       8.184  -0.393 -10.236  0.00  0.00     0.056 H 
ATOM     16  H   LIG d   1       8.747   1.831  -6.126  0.00  0.00     0.083 H 
ATOM     17  H   LIG d   1       7.105   1.372  -5.585  0.00  0.00     0.083 H 
ATOM     18  H   LIG d   1       8.267  -1.913  -5.035  0.00  0.00     0.034 H 
ATOM     19  H   LIG d   1      10.017  -1.554  -4.864  0.00  0.00     0.034 H 
ATOM     20  H   LIG d   1       7.139  -0.470  -6.848  0.00  0.00     0.204 HD
ENDROOT
BRANCH   1  21
ATOM     21  C   LIG d   1       7.097   1.690  -8.511  0.00  0.00     0.000 C 
ATOM     22  H   LIG d   1       7.627   2.592  -8.819  0.00  0.00     0.033 H 
ATOM     23  H   LIG d   1       6.567   1.880  -7.578  0.00  0.00     0.033 H 
BRANCH  21  24
ATOM     24  C   LIG d   1       6.094   1.293  -9.595  0.00  0.00     0.029 C 
ATOM     25  H   LIG d   1       6.433   0.383 -10.089  0.00  0.00     0.036 H 
ATOM     26  H   LIG d   1       6.014   2.097 -10.329  0.00  0.00     0.036 H 
BRANCH  24  27
ATOM     27  C   LIG d   1       4.745   1.051  -8.968  0.00  0.00     0.216 C 
ATOM     28  N   LIG d   1       3.679   0.781  -9.746  0.00  0.00    -0.299 N 
ATOM     29  C   LIG d   1       2.353   0.543  -9.155  0.00  0.00     0.028 C 
ATOM     30  C   LIG d   1       3.808   0.719 -11.210  0.00  0.00     0.028 C 
ATOM     31  C   LIG d   1       1.796  -0.767  -9.723  0.00  0.00     0.015 C 
ATOM     32  H   LIG d   1       1.686   1.365  -9.408  0.00  0.00     0.048 H 
ATOM     33  H   LIG d   1       2.445   0.461  -8.071  0.00  0.00     0.048 H 
ATOM     34  N   LIG d   1       1.820  -0.710 -11.191  0.00  0.00    -0.302 N 
ATOM     35  H   LIG d   1       0.770  -0.904  -9.380  0.00  0.00     0.044 H 
ATOM     36  H   LIG d   1       2.408  -1.602  -9.382  0.00  0.00     0.044 H 
ATOM     37  C   LIG d   1       3.194  -0.597 -11.697  0.00  0.00     0.015 C 
ATOM     38  H   LIG d   1       3.787  -1.435 -11.328  0.00  0.00     0.044 H 
ATOM     39  H   LIG d   1       3.181  -0.612 -12.788  0.00  0.00     0.044 H 
ATOM     40  H   LIG d   1       3.280   1.559 -11.661  0.00  0.00     0.048 H 
ATOM     41  H   LIG d   1       4.862   0.754 -11.486  0.00  0.00     0.048 H 
ATOM     42  O   LIG d   1       4.619   1.100  -7.763  0.00  0.00    -0.276 OA
BRANCH  34  43
ATOM     43  C   LIG d   1       1.136  -1.871 -11.774  0.00  0.00    -0.013 C 
ATOM     44  H   LIG d   1       1.714  -2.248 -12.618  0.00  0.00     0.039 H 
ATOM     45  H   LIG d   1       1.041  -2.654 -11.021  0.00  0.00     0.039 H 
ATOM     46  H   LIG d   1       0.144  -1.575 -12.117  0.00  0.00     0.039 H 
ENDBRANCH  34  43
ENDBRANCH  24  27
ENDBRANCH  21  24
ENDBRANCH   1  21
BRANCH  11  47
ATOM     47  N   LIG d   1       7.729   0.096  -3.571  0.00  0.00    -0.304 N 
ATOM     48  H   LIG d   1       8.155   0.306  -2.680  0.00  0.00     0.123 HD
BRANCH  47  49
ATOM     49  C   LIG d   1       7.114  -1.238  -3.558  0.00  0.00     0.022 C 
ATOM     50  H   LIG d   1       7.419  -1.787  -4.449  0.00  0.00     0.047 H 
ATOM     51  H   LIG d   1       7.440  -1.779  -2.669  0.00  0.00     0.047 H 
BRANCH  49  52
ATOM     52  C   LIG d   1       5.614  -1.100  -3.541  0.00  0.00    -0.033 A 
ATOM     53  C   LIG d   1       4.979  -0.346  -4.511  0.00  0.00    -0.055 A 
ATOM     54  C   LIG d   1       3.602  -0.223  -4.499  0.00  0.00    -0.026 A 
ATOM     55  H   LIG d   1       5.559   0.143  -5.279  0.00  0.00     0.062 H 
ATOM     56  C   LIG d   1       2.860  -0.845  -3.510  0.00  0.00     0.123 A 
ATOM     57  H   LIG d   1       3.107   0.363  -5.258  0.00  0.00     0.065 H 
ATOM     58  C   LIG d   1       3.498  -1.596  -2.536  0.00  0.00    -0.026 A 
ATOM     59  F   LIG d   1       1.515  -0.721  -3.494  0.00  0.00    -0.205 F 
ATOM     60  C   LIG d   1       4.874  -1.722  -2.553  0.00  0.00    -0.055 A 
ATOM     61  H   LIG d   1       2.920  -2.082  -1.764  0.00  0.00     0.065 H 
ATOM     62  H   LIG d   1       5.371  -2.308  -1.794  0.00  0.00     0.062 H 
ENDBRANCH  49  52
ENDBRANCH  47  49
ENDBRANCH  11  47
TORSDOF 7
ENDMDL
