MODEL 1
REMARK VINA RESULT:      -5.9      0.000      0.000
REMARK  11 active torsions:
REMARK  status: ('A' for Active; 'I' for Inactive)
REMARK    1  A    between atoms: C_1  and  C_2 
REMARK    2  A    between atoms: C_2  and  C_3 
REMARK    3  A    between atoms: C_5  and  C_11 
REMARK    4  A    between atoms: C_6  and  O_10 
REMARK    5  A    between atoms: C_8  and  O_9 
REMARK    6  A    between atoms: C_11  and  C_13 
REMARK    7  A    between atoms: C_13  and  C_14 
REMARK    8  A    between atoms: C_17  and  C_19 
REMARK    9  A    between atoms: C_19  and  O_21 
REMARK   10  A    between atoms: O_21  and  C_22 
REMARK   11  A    between atoms: C_22  and  C_23 
ROOT
ATOM      1  C   LIG d   1      10.004   2.372  -4.655  0.00  0.00     0.174 C 
ATOM      2  O   LIG d   1      10.981   1.689  -4.426  0.00  0.00    -0.291 OA
ENDROOT
BRANCH   1   3
ATOM      3  C   LIG d   1       9.915   3.728  -4.109  0.00  0.00     0.060 A 
ATOM      4  C   LIG d   1       9.504   4.790  -4.925  0.00  0.00    -0.041 A 
ATOM      5  C   LIG d   1       9.417   6.052  -4.413  0.00  0.00    -0.005 A 
ATOM      6  H   LIG d   1       9.253   4.610  -5.960  0.00  0.00     0.063 H 
ATOM      7  C   LIG d   1       9.745   6.297  -3.082  0.00  0.00     0.123 A 
ATOM      8  C   LIG d   1      10.159   5.259  -2.260  0.00  0.00     0.022 A 
ATOM      9  C   LIG d   1      10.247   3.972  -2.763  0.00  0.00     0.131 A 
ATOM     10  H   LIG d   1      10.412   5.453  -1.228  0.00  0.00     0.069 H 
BRANCH   5  11
ATOM     11  C   LIG d   1       8.968   7.189  -5.294  0.00  0.00    -0.027 C 
ATOM     12  H   LIG d   1       7.893   7.119  -5.460  0.00  0.00     0.031 H 
ATOM     13  H   LIG d   1       9.200   8.138  -4.810  0.00  0.00     0.031 H 
BRANCH  11  14
ATOM     14  C   LIG d   1       9.697   7.112  -6.638  0.00  0.00    -0.061 C 
ATOM     15  H   LIG d   1      10.763   7.282  -6.483  0.00  0.00     0.023 H 
ATOM     16  H   LIG d   1       9.546   6.126  -7.077  0.00  0.00     0.023 H 
ATOM     17  H   LIG d   1       9.302   7.873  -7.309  0.00  0.00     0.023 H 
ENDBRANCH  11  14
ENDBRANCH   5  11
BRANCH   7  18
ATOM     18  O   LIG d   1       9.659   7.557  -2.586  0.00  0.00    -0.506 OA
ATOM     19  H   LIG d   1       9.363   7.598  -1.667  0.00  0.00     0.292 HD
ENDBRANCH   7  18
BRANCH   9  20
ATOM     20  O   LIG d   1      10.650   2.954  -1.965  0.00  0.00    -0.506 OA
ATOM     21  H   LIG d   1      11.422   2.475  -2.297  0.00  0.00     0.292 HD
ENDBRANCH   9  20
ENDBRANCH   1   3
BRANCH   1  22
ATOM     22  C   LIG d   1       8.883   1.824  -5.499  0.00  0.00     0.069 C 
ATOM     23  H   LIG d   1       9.246   1.140  -6.132  0.00  0.00     0.042 H 
ATOM     24  H   LIG d   1       8.425   2.635  -6.065  0.00  0.00     0.042 H 
BRANCH  22  25
ATOM     25  C   LIG d   1       7.848   1.186  -4.608  0.00  0.00     0.114 A 
ATOM     26  O   LIG d   1       6.806   1.816  -4.051  0.00  0.00    -0.453 OA
ATOM     27  C   LIG d   1       6.088   0.934  -3.322  0.00  0.00     0.212 A 
ATOM     28  C   LIG d   1       6.699  -0.284  -3.413  0.00  0.00    -0.009 A 
ATOM     29  C   LIG d   1       7.821  -0.113  -4.240  0.00  0.00    -0.019 A 
ATOM     30  H   LIG d   1       6.379  -1.203  -2.943  0.00  0.00     0.066 H 
ATOM     31  H   LIG d   1       8.527  -0.878  -4.527  0.00  0.00     0.065 H 
BRANCH  27  32
ATOM     32  C   LIG d   1       4.871   1.233  -2.564  0.00  0.00     0.375 C 
ATOM     33  O   LIG d   1       4.891   1.209  -1.348  0.00  0.00    -0.241 OA
BRANCH  32  34
ATOM     34  O   LIG d   1       3.729   1.536  -3.215  0.00  0.00    -0.459 OA
BRANCH  34  35
ATOM     35  C   LIG d   1       3.145   0.493  -4.040  0.00  0.00     0.090 C 
ATOM     36  H   LIG d   1       2.283   0.893  -4.575  0.00  0.00     0.070 H 
ATOM     37  H   LIG d   1       3.886   0.138  -4.756  0.00  0.00     0.070 H 
BRANCH  35  38
ATOM     38  C   LIG d   1       2.698  -0.670  -3.151  0.00  0.00    -0.031 C 
ATOM     39  H   LIG d   1       2.677  -0.343  -2.110  0.00  0.00     0.026 H 
ATOM     40  H   LIG d   1       1.701  -0.993  -3.450  0.00  0.00     0.026 H 
ATOM     41  H   LIG d   1       3.397  -1.498  -3.257  0.00  0.00     0.026 H 
ENDBRANCH  35  38
ENDBRANCH  34  35
ENDBRANCH  32  34
ENDBRANCH  27  32
ENDBRANCH  22  25
ENDBRANCH   1  22
TORSDOF 11
ENDMDL
MODEL 2
REMARK VINA RESULT:      -5.6      4.446      6.702
REMARK  11 active torsions:
REMARK  status: ('A' for Active; 'I' for Inactive)
REMARK    1  A    between atoms: C_1  and  C_2 
REMARK    2  A    between atoms: C_2  and  C_3 
REMARK    3  A    between atoms: C_5  and  C_11 
REMARK    4  A    between atoms: C_6  and  O_10 
REMARK    5  A    between atoms: C_8  and  O_9 
REMARK    6  A    between atoms: C_11  and  C_13 
REMARK    7  A    between atoms: C_13  and  C_14 
REMARK    8  A    between atoms: C_17  and  C_19 
REMARK    9  A    between atoms: C_19  and  O_21 
REMARK   10  A    between atoms: O_21  and  C_22 
REMARK   11  A    between atoms: C_22  and  C_23 
ROOT
ATOM      1  C   LIG d   1       7.029  -3.345  -4.801  0.00  0.00     0.174 C 
ATOM      2  O   LIG d   1       7.977  -3.981  -4.389  0.00  0.00    -0.291 OA
ENDROOT
BRANCH   1   3
ATOM      3  C   LIG d   1       6.633  -2.104  -4.132  0.00  0.00     0.060 A 
ATOM      4  C   LIG d   1       5.394  -2.017  -3.484  0.00  0.00    -0.041 A 
ATOM      5  C   LIG d   1       5.029  -0.862  -2.857  0.00  0.00    -0.005 A 
ATOM      6  H   LIG d   1       4.727  -2.867  -3.479  0.00  0.00     0.063 H 
ATOM      7  C   LIG d   1       5.878   0.241  -2.864  0.00  0.00     0.123 A 
ATOM      8  C   LIG d   1       7.107   0.176  -3.505  0.00  0.00     0.022 A 
ATOM      9  C   LIG d   1       7.494  -0.990  -4.141  0.00  0.00     0.131 A 
ATOM     10  H   LIG d   1       7.762   1.035  -3.507  0.00  0.00     0.069 H 
BRANCH   5  11
ATOM     11  C   LIG d   1       3.697  -0.777  -2.157  0.00  0.00    -0.027 C 
ATOM     12  H   LIG d   1       3.551  -1.668  -1.546  0.00  0.00     0.031 H 
ATOM     13  H   LIG d   1       3.677   0.108  -1.520  0.00  0.00     0.031 H 
BRANCH  11  14
ATOM     14  C   LIG d   1       2.579  -0.682  -3.197  0.00  0.00    -0.061 C 
ATOM     15  H   LIG d   1       2.360  -1.676  -3.587  0.00  0.00     0.023 H 
ATOM     16  H   LIG d   1       1.684  -0.269  -2.732  0.00  0.00     0.023 H 
ATOM     17  H   LIG d   1       2.897  -0.033  -4.013  0.00  0.00     0.023 H 
ENDBRANCH  11  14
ENDBRANCH   5  11
BRANCH   7  18
ATOM     18  O   LIG d   1       5.502   1.387  -2.241  0.00  0.00    -0.506 OA
ATOM     19  H   LIG d   1       5.416   1.303  -1.282  0.00  0.00     0.292 HD
ENDBRANCH   7  18
BRANCH   9  20
ATOM     20  O   LIG d   1       8.693  -1.061  -4.767  0.00  0.00    -0.506 OA
ATOM     21  H   LIG d   1       9.452  -1.031  -4.168  0.00  0.00     0.292 HD
ENDBRANCH   9  20
ENDBRANCH   1   3
BRANCH   1  22
ATOM     22  C   LIG d   1       6.258  -3.834  -6.001  0.00  0.00     0.069 C 
ATOM     23  H   LIG d   1       5.469  -4.367  -5.694  0.00  0.00     0.042 H 
ATOM     24  H   LIG d   1       6.903  -4.463  -6.615  0.00  0.00     0.042 H 
BRANCH  22  25
ATOM     25  C   LIG d   1       5.787  -2.654  -6.810  0.00  0.00     0.114 A 
ATOM     26  O   LIG d   1       4.553  -2.132  -6.781  0.00  0.00    -0.453 OA
ATOM     27  C   LIG d   1       4.492  -1.082  -7.628  0.00  0.00     0.212 A 
ATOM     28  C   LIG d   1       5.716  -0.942  -8.215  0.00  0.00    -0.009 A 
ATOM     29  C   LIG d   1       6.538  -1.949  -7.684  0.00  0.00    -0.019 A 
ATOM     30  H   LIG d   1       6.000  -0.198  -8.945  0.00  0.00     0.066 H 
ATOM     31  H   LIG d   1       7.575  -2.125  -7.927  0.00  0.00     0.065 H 
BRANCH  27  32
ATOM     32  C   LIG d   1       3.316  -0.244  -7.874  0.00  0.00     0.375 C 
ATOM     33  O   LIG d   1       2.351  -0.707  -8.454  0.00  0.00    -0.241 OA
BRANCH  32  34
ATOM     34  O   LIG d   1       3.303   1.039  -7.460  0.00  0.00    -0.459 OA
BRANCH  34  35
ATOM     35  C   LIG d   1       2.900   2.041  -8.431  0.00  0.00     0.090 C 
ATOM     36  H   LIG d   1       2.063   1.663  -9.017  0.00  0.00     0.070 H 
ATOM     37  H   LIG d   1       2.599   2.950  -7.911  0.00  0.00     0.070 H 
BRANCH  35  38
ATOM     38  C   LIG d   1       4.076   2.351  -9.360  0.00  0.00    -0.031 C 
ATOM     39  H   LIG d   1       5.001   2.360  -8.784  0.00  0.00     0.026 H 
ATOM     40  H   LIG d   1       4.138   1.585 -10.134  0.00  0.00     0.026 H 
ATOM     41  H   LIG d   1       3.926   3.325  -9.824  0.00  0.00     0.026 H 
ENDBRANCH  35  38
ENDBRANCH  34  35
ENDBRANCH  32  34
ENDBRANCH  27  32
ENDBRANCH  22  25
ENDBRANCH   1  22
TORSDOF 11
ENDMDL
MODEL 3
REMARK VINA RESULT:      -5.6      4.071      6.881
REMARK  11 active torsions:
REMARK  status: ('A' for Active; 'I' for Inactive)
REMARK    1  A    between atoms: C_1  and  C_2 
REMARK    2  A    between atoms: C_2  and  C_3 
REMARK    3  A    between atoms: C_5  and  C_11 
REMARK    4  A    between atoms: C_6  and  O_10 
REMARK    5  A    between atoms: C_8  and  O_9 
REMARK    6  A    between atoms: C_11  and  C_13 
REMARK    7  A    between atoms: C_13  and  C_14 
REMARK    8  A    between atoms: C_17  and  C_19 
REMARK    9  A    between atoms: C_19  and  O_21 
REMARK   10  A    between atoms: O_21  and  C_22 
REMARK   11  A    between atoms: C_22  and  C_23 
ROOT
ATOM      1  C   LIG d   1       4.590  -0.626  -2.475  0.00  0.00     0.174 C 
ATOM      2  O   LIG d   1       4.494  -0.117  -1.378  0.00  0.00    -0.291 OA
ENDROOT
BRANCH   1   3
ATOM      3  C   LIG d   1       5.895  -0.698  -3.137  0.00  0.00     0.060 A 
ATOM      4  C   LIG d   1       6.471  -1.943  -3.424  0.00  0.00    -0.041 A 
ATOM      5  C   LIG d   1       7.685  -2.008  -4.045  0.00  0.00    -0.005 A 
ATOM      6  H   LIG d   1       5.953  -2.852  -3.156  0.00  0.00     0.063 H 
ATOM      7  C   LIG d   1       8.364  -0.842  -4.388  0.00  0.00     0.123 A 
ATOM      8  C   LIG d   1       7.811   0.399  -4.107  0.00  0.00     0.022 A 
ATOM      9  C   LIG d   1       6.579   0.482  -3.482  0.00  0.00     0.131 A 
ATOM     10  H   LIG d   1       8.342   1.301  -4.375  0.00  0.00     0.069 H 
BRANCH   5  11
ATOM     11  C   LIG d   1       8.296  -3.349  -4.356  0.00  0.00    -0.027 C 
ATOM     12  H   LIG d   1       7.506  -4.061  -4.597  0.00  0.00     0.031 H 
ATOM     13  H   LIG d   1       8.971  -3.253  -5.208  0.00  0.00     0.031 H 
BRANCH  11  14
ATOM     14  C   LIG d   1       9.079  -3.848  -3.140  0.00  0.00    -0.061 C 
ATOM     15  H   LIG d   1       9.314  -3.007  -2.488  0.00  0.00     0.023 H 
ATOM     16  H   LIG d   1       8.478  -4.575  -2.594  0.00  0.00     0.023 H 
ATOM     17  H   LIG d   1      10.004  -4.319  -3.473  0.00  0.00     0.023 H 
ENDBRANCH  11  14
ENDBRANCH   5  11
BRANCH   7  18
ATOM     18  O   LIG d   1       9.572  -0.920  -5.001  0.00  0.00    -0.506 OA
ATOM     19  H   LIG d   1      10.309  -1.090  -4.398  0.00  0.00     0.292 HD
ENDBRANCH   7  18
BRANCH   9  20
ATOM     20  O   LIG d   1       6.034   1.692  -3.206  0.00  0.00    -0.506 OA
ATOM     21  H   LIG d   1       6.672   2.349  -2.893  0.00  0.00     0.292 HD
ENDBRANCH   9  20
ENDBRANCH   1   3
BRANCH   1  22
ATOM     22  C   LIG d   1       3.367  -1.183  -3.157  0.00  0.00     0.069 C 
ATOM     23  H   LIG d   1       2.558  -0.980  -2.606  0.00  0.00     0.042 H 
ATOM     24  H   LIG d   1       3.471  -2.262  -3.265  0.00  0.00     0.042 H 
BRANCH  22  25
ATOM     25  C   LIG d   1       3.221  -0.552  -4.518  0.00  0.00     0.114 A 
ATOM     26  O   LIG d   1       3.868  -0.934  -5.627  0.00  0.00    -0.453 OA
ATOM     27  C   LIG d   1       3.488  -0.151  -6.659  0.00  0.00     0.212 A 
ATOM     28  C   LIG d   1       2.582   0.757  -6.188  0.00  0.00    -0.009 A 
ATOM     29  C   LIG d   1       2.416   0.490  -4.820  0.00  0.00    -0.019 A 
ATOM     30  H   LIG d   1       2.087   1.529  -6.758  0.00  0.00     0.066 H 
ATOM     31  H   LIG d   1       1.766   1.018  -4.138  0.00  0.00     0.065 H 
BRANCH  27  32
ATOM     32  C   LIG d   1       3.965  -0.255  -8.039  0.00  0.00     0.375 C 
ATOM     33  O   LIG d   1       4.996  -0.854  -8.282  0.00  0.00    -0.241 OA
BRANCH  32  34
ATOM     34  O   LIG d   1       3.264   0.313  -9.040  0.00  0.00    -0.459 OA
BRANCH  34  35
ATOM     35  C   LIG d   1       3.974   1.248  -9.896  0.00  0.00     0.090 C 
ATOM     36  H   LIG d   1       5.006   0.918 -10.017  0.00  0.00     0.070 H 
ATOM     37  H   LIG d   1       3.489   1.289 -10.871  0.00  0.00     0.070 H 
BRANCH  35  38
ATOM     38  C   LIG d   1       3.955   2.638  -9.257  0.00  0.00    -0.031 C 
ATOM     39  H   LIG d   1       2.928   2.910  -9.011  0.00  0.00     0.026 H 
ATOM     40  H   LIG d   1       4.555   2.628  -8.347  0.00  0.00     0.026 H 
ATOM     41  H   LIG d   1       4.366   3.365  -9.956  0.00  0.00     0.026 H 
ENDBRANCH  35  38
ENDBRANCH  34  35
ENDBRANCH  32  34
ENDBRANCH  27  32
ENDBRANCH  22  25
ENDBRANCH   1  22
TORSDOF 11
ENDMDL
MODEL 4
REMARK VINA RESULT:      -5.5      5.122      8.132
REMARK  11 active torsions:
REMARK  status: ('A' for Active; 'I' for Inactive)
REMARK    1  A    between atoms: C_1  and  C_2 
REMARK    2  A    between atoms: C_2  and  C_3 
REMARK    3  A    between atoms: C_5  and  C_11 
REMARK    4  A    between atoms: C_6  and  O_10 
REMARK    5  A    between atoms: C_8  and  O_9 
REMARK    6  A    between atoms: C_11  and  C_13 
REMARK    7  A    between atoms: C_13  and  C_14 
REMARK    8  A    between atoms: C_17  and  C_19 
REMARK    9  A    between atoms: C_19  and  O_21 
REMARK   10  A    between atoms: O_21  and  C_22 
REMARK   11  A    between atoms: C_22  and  C_23 
ROOT
ATOM      1  C   LIG d   1       5.147   1.800  -9.367  0.00  0.00     0.174 C 
ATOM      2  O   LIG d   1       4.968   2.995  -9.259  0.00  0.00    -0.291 OA
ENDROOT
BRANCH   1   3
ATOM      3  C   LIG d   1       4.008   0.908  -9.602  0.00  0.00     0.060 A 
ATOM      4  C   LIG d   1       3.838   0.297 -10.851  0.00  0.00    -0.041 A 
ATOM      5  C   LIG d   1       2.779  -0.537 -11.066  0.00  0.00    -0.005 A 
ATOM      6  H   LIG d   1       4.546   0.484 -11.645  0.00  0.00     0.063 H 
ATOM      7  C   LIG d   1       1.856  -0.779 -10.052  0.00  0.00     0.123 A 
ATOM      8  C   LIG d   1       2.006  -0.179  -8.810  0.00  0.00     0.022 A 
ATOM      9  C   LIG d   1       3.077   0.666  -8.575  0.00  0.00     0.131 A 
ATOM     10  H   LIG d   1       1.287  -0.370  -8.027  0.00  0.00     0.069 H 
BRANCH   5  11
ATOM     11  C   LIG d   1       2.605  -1.195 -12.410  0.00  0.00    -0.027 C 
ATOM     12  H   LIG d   1       2.477  -2.269 -12.275  0.00  0.00     0.031 H 
ATOM     13  H   LIG d   1       1.725  -0.784 -12.905  0.00  0.00     0.031 H 
BRANCH  11  14
ATOM     14  C   LIG d   1       3.842  -0.934 -13.271  0.00  0.00    -0.061 C 
ATOM     15  H   LIG d   1       3.866   0.116 -13.564  0.00  0.00     0.023 H 
ATOM     16  H   LIG d   1       4.740  -1.172 -12.700  0.00  0.00     0.023 H 
ATOM     17  H   LIG d   1       3.803  -1.559 -14.163  0.00  0.00     0.023 H 
ENDBRANCH  11  14
ENDBRANCH   5  11
BRANCH   7  18
ATOM     18  O   LIG d   1       0.805  -1.606 -10.280  0.00  0.00    -0.506 OA
ATOM     19  H   LIG d   1       0.007  -1.153 -10.585  0.00  0.00     0.292 HD
ENDBRANCH   7  18
BRANCH   9  20
ATOM     20  O   LIG d   1       3.229   1.254  -7.364  0.00  0.00    -0.506 OA
ATOM     21  H   LIG d   1       3.361   2.211  -7.405  0.00  0.00     0.292 HD
ENDBRANCH   9  20
ENDBRANCH   1   3
BRANCH   1  22
ATOM     22  C   LIG d   1       6.539   1.232  -9.260  0.00  0.00     0.069 C 
ATOM     23  H   LIG d   1       7.203   1.980  -9.250  0.00  0.00     0.042 H 
ATOM     24  H   LIG d   1       6.734   0.585 -10.115  0.00  0.00     0.042 H 
BRANCH  22  25
ATOM     25  C   LIG d   1       6.659   0.435  -7.987  0.00  0.00     0.114 A 
ATOM     26  O   LIG d   1       6.137   0.777  -6.801  0.00  0.00    -0.453 OA
ATOM     27  C   LIG d   1       6.438  -0.173  -5.890  0.00  0.00     0.212 A 
ATOM     28  C   LIG d   1       7.179  -1.136  -6.513  0.00  0.00    -0.009 A 
ATOM     29  C   LIG d   1       7.311  -0.740  -7.853  0.00  0.00    -0.019 A 
ATOM     30  H   LIG d   1       7.581  -2.032  -6.063  0.00  0.00     0.066 H 
ATOM     31  H   LIG d   1       7.836  -1.276  -8.631  0.00  0.00     0.065 H 
BRANCH  27  32
ATOM     32  C   LIG d   1       6.042  -0.167  -4.480  0.00  0.00     0.375 C 
ATOM     33  O   LIG d   1       5.946  -1.217  -3.872  0.00  0.00    -0.241 OA
BRANCH  32  34
ATOM     34  O   LIG d   1       5.783   1.000  -3.856  0.00  0.00    -0.459 OA
BRANCH  34  35
ATOM     35  C   LIG d   1       5.272   0.922  -2.498  0.00  0.00     0.090 C 
ATOM     36  H   LIG d   1       5.401  -0.092  -2.119  0.00  0.00     0.070 H 
ATOM     37  H   LIG d   1       5.819   1.620  -1.865  0.00  0.00     0.070 H 
BRANCH  35  38
ATOM     38  C   LIG d   1       3.786   1.285  -2.492  0.00  0.00    -0.031 C 
ATOM     39  H   LIG d   1       3.220   0.489  -2.007  0.00  0.00     0.026 H 
ATOM     40  H   LIG d   1       3.642   2.217  -1.945  0.00  0.00     0.026 H 
ATOM     41  H   LIG d   1       3.437   1.407  -3.517  0.00  0.00     0.026 H 
ENDBRANCH  35  38
ENDBRANCH  34  35
ENDBRANCH  32  34
ENDBRANCH  27  32
ENDBRANCH  22  25
ENDBRANCH   1  22
TORSDOF 11
ENDMDL
MODEL 5
REMARK VINA RESULT:      -5.5      4.662      6.898
REMARK  11 active torsions:
REMARK  status: ('A' for Active; 'I' for Inactive)
REMARK    1  A    between atoms: C_1  and  C_2 
REMARK    2  A    between atoms: C_2  and  C_3 
REMARK    3  A    between atoms: C_5  and  C_11 
REMARK    4  A    between atoms: C_6  and  O_10 
REMARK    5  A    between atoms: C_8  and  O_9 
REMARK    6  A    between atoms: C_11  and  C_13 
REMARK    7  A    between atoms: C_13  and  C_14 
REMARK    8  A    between atoms: C_17  and  C_19 
REMARK    9  A    between atoms: C_19  and  O_21 
REMARK   10  A    between atoms: O_21  and  C_22 
REMARK   11  A    between atoms: C_22  and  C_23 
ROOT
ATOM      1  C   LIG d   1       8.027  -0.907  -5.061  0.00  0.00     0.174 C 
ATOM      2  O   LIG d   1       9.046  -1.544  -4.893  0.00  0.00    -0.291 OA
ENDROOT
BRANCH   1   3
ATOM      3  C   LIG d   1       6.803  -1.284  -4.351  0.00  0.00     0.060 A 
ATOM      4  C   LIG d   1       6.257  -0.430  -3.384  0.00  0.00    -0.041 A 
ATOM      5  C   LIG d   1       5.113  -0.782  -2.728  0.00  0.00    -0.005 A 
ATOM      6  H   LIG d   1       6.740   0.510  -3.160  0.00  0.00     0.063 H 
ATOM      7  C   LIG d   1       4.487  -1.993  -3.004  0.00  0.00     0.123 A 
ATOM      8  C   LIG d   1       5.016  -2.855  -3.954  0.00  0.00     0.022 A 
ATOM      9  C   LIG d   1       6.172  -2.511  -4.632  0.00  0.00     0.131 A 
ATOM     10  H   LIG d   1       4.526  -3.795  -4.165  0.00  0.00     0.069 H 
BRANCH   5  11
ATOM     11  C   LIG d   1       4.528   0.145  -1.694  0.00  0.00    -0.027 C 
ATOM     12  H   LIG d   1       3.888  -0.422  -1.018  0.00  0.00     0.031 H 
ATOM     13  H   LIG d   1       5.334   0.610  -1.124  0.00  0.00     0.031 H 
BRANCH  11  14
ATOM     14  C   LIG d   1       3.704   1.231  -2.388  0.00  0.00    -0.061 C 
ATOM     15  H   LIG d   1       3.917   2.197  -1.932  0.00  0.00     0.023 H 
ATOM     16  H   LIG d   1       3.963   1.263  -3.446  0.00  0.00     0.023 H 
ATOM     17  H   LIG d   1       2.643   1.004  -2.282  0.00  0.00     0.023 H 
ENDBRANCH  11  14
ENDBRANCH   5  11
BRANCH   7  18
ATOM     18  O   LIG d   1       3.353  -2.335  -2.340  0.00  0.00    -0.506 OA
ATOM     19  H   LIG d   1       3.341  -2.057  -1.414  0.00  0.00     0.292 HD
ENDBRANCH   7  18
BRANCH   9  20
ATOM     20  O   LIG d   1       6.693  -3.348  -5.562  0.00  0.00    -0.506 OA
ATOM     21  H   LIG d   1       6.040  -3.705  -6.180  0.00  0.00     0.292 HD
ENDBRANCH   9  20
ENDBRANCH   1   3
BRANCH   1  22
ATOM     22  C   LIG d   1       8.021   0.272  -6.000  0.00  0.00     0.069 C 
ATOM     23  H   LIG d   1       8.905   0.332  -6.464  0.00  0.00     0.042 H 
ATOM     24  H   LIG d   1       7.846   1.187  -5.434  0.00  0.00     0.042 H 
BRANCH  22  25
ATOM     25  C   LIG d   1       6.927   0.095  -7.021  0.00  0.00     0.114 A 
ATOM     26  O   LIG d   1       5.774   0.776  -7.053  0.00  0.00    -0.453 OA
ATOM     27  C   LIG d   1       5.038   0.360  -8.106  0.00  0.00     0.212 A 
ATOM     28  C   LIG d   1       5.739  -0.618  -8.751  0.00  0.00    -0.009 A 
ATOM     29  C   LIG d   1       6.946  -0.778  -8.052  0.00  0.00    -0.019 A 
ATOM     30  H   LIG d   1       5.428  -1.161  -9.631  0.00  0.00     0.066 H 
ATOM     31  H   LIG d   1       7.740  -1.469  -8.294  0.00  0.00     0.065 H 
BRANCH  27  32
ATOM     32  C   LIG d   1       3.718   0.867  -8.486  0.00  0.00     0.375 C 
ATOM     33  O   LIG d   1       3.156   1.687  -7.783  0.00  0.00    -0.241 OA
BRANCH  32  34
ATOM     34  O   LIG d   1       3.125   0.426  -9.614  0.00  0.00    -0.459 OA
BRANCH  34  35
ATOM     35  C   LIG d   1       1.916  -0.364  -9.457  0.00  0.00     0.090 C 
ATOM     36  H   LIG d   1       1.521  -0.229  -8.450  0.00  0.00     0.070 H 
ATOM     37  H   LIG d   1       1.173  -0.039 -10.185  0.00  0.00     0.070 H 
BRANCH  35  38
ATOM     38  C   LIG d   1       2.241  -1.842  -9.684  0.00  0.00    -0.031 C 
ATOM     39  H   LIG d   1       3.293  -2.020  -9.462  0.00  0.00     0.026 H 
ATOM     40  H   LIG d   1       1.622  -2.454  -9.028  0.00  0.00     0.026 H 
ATOM     41  H   LIG d   1       2.039  -2.103 -10.722  0.00  0.00     0.026 H 
ENDBRANCH  35  38
ENDBRANCH  34  35
ENDBRANCH  32  34
ENDBRANCH  27  32
ENDBRANCH  22  25
ENDBRANCH   1  22
TORSDOF 11
ENDMDL
MODEL 6
REMARK VINA RESULT:      -5.4      5.438      7.893
REMARK  11 active torsions:
REMARK  status: ('A' for Active; 'I' for Inactive)
REMARK    1  A    between atoms: C_1  and  C_2 
REMARK    2  A    between atoms: C_2  and  C_3 
REMARK    3  A    between atoms: C_5  and  C_11 
REMARK    4  A    between atoms: C_6  and  O_10 
REMARK    5  A    between atoms: C_8  and  O_9 
REMARK    6  A    between atoms: C_11  and  C_13 
REMARK    7  A    between atoms: C_13  and  C_14 
REMARK    8  A    between atoms: C_17  and  C_19 
REMARK    9  A    between atoms: C_19  and  O_21 
REMARK   10  A    between atoms: O_21  and  C_22 
REMARK   11  A    between atoms: C_22  and  C_23 
ROOT
ATOM      1  C   LIG d   1       6.455  -1.510  -3.430  0.00  0.00     0.174 C 
ATOM      2  O   LIG d   1       6.849  -0.364  -3.356  0.00  0.00    -0.291 OA
ENDROOT
BRANCH   1   3
ATOM      3  C   LIG d   1       7.356  -2.563  -3.905  0.00  0.00     0.060 A 
ATOM      4  C   LIG d   1       8.353  -3.070  -3.062  0.00  0.00    -0.041 A 
ATOM      5  C   LIG d   1       9.188  -4.055  -3.505  0.00  0.00    -0.005 A 
ATOM      6  H   LIG d   1       8.461  -2.683  -2.059  0.00  0.00     0.063 H 
ATOM      7  C   LIG d   1       9.062  -4.556  -4.797  0.00  0.00     0.123 A 
ATOM      8  C   LIG d   1       8.083  -4.063  -5.648  0.00  0.00     0.022 A 
ATOM      9  C   LIG d   1       7.226  -3.068  -5.213  0.00  0.00     0.131 A 
ATOM     10  H   LIG d   1       7.990  -4.455  -6.651  0.00  0.00     0.069 H 
BRANCH   5  11
ATOM     11  C   LIG d   1      10.255  -4.599  -2.591  0.00  0.00    -0.027 C 
ATOM     12  H   LIG d   1      11.040  -5.066  -3.187  0.00  0.00     0.031 H 
ATOM     13  H   LIG d   1      10.681  -3.785  -2.004  0.00  0.00     0.031 H 
BRANCH  11  14
ATOM     14  C   LIG d   1       9.641  -5.639  -1.651  0.00  0.00    -0.061 C 
ATOM     15  H   LIG d   1      10.033  -6.626  -1.895  0.00  0.00     0.023 H 
ATOM     16  H   LIG d   1       9.895  -5.392  -0.620  0.00  0.00     0.023 H 
ATOM     17  H   LIG d   1       8.558  -5.639  -1.768  0.00  0.00     0.023 H 
ENDBRANCH  11  14
ENDBRANCH   5  11
BRANCH   7  18
ATOM     18  O   LIG d   1       9.901  -5.532  -5.228  0.00  0.00    -0.506 OA
ATOM     19  H   LIG d   1       9.768  -5.785  -6.152  0.00  0.00     0.292 HD
ENDBRANCH   7  18
BRANCH   9  20
ATOM     20  O   LIG d   1       6.267  -2.583  -6.039  0.00  0.00    -0.506 OA
ATOM     21  H   LIG d   1       6.028  -3.183  -6.759  0.00  0.00     0.292 HD
ENDBRANCH   9  20
ENDBRANCH   1   3
BRANCH   1  22
ATOM     22  C   LIG d   1       5.041  -1.848  -3.035  0.00  0.00     0.069 C 
ATOM     23  H   LIG d   1       4.903  -1.626  -2.070  0.00  0.00     0.042 H 
ATOM     24  H   LIG d   1       4.865  -2.913  -3.191  0.00  0.00     0.042 H 
BRANCH  22  25
ATOM     25  C   LIG d   1       4.080  -1.051  -3.879  0.00  0.00     0.114 A 
ATOM     26  O   LIG d   1       4.185  -0.849  -5.199  0.00  0.00    -0.453 OA
ATOM     27  C   LIG d   1       3.147  -0.095  -5.620  0.00  0.00     0.212 A 
ATOM     28  C   LIG d   1       2.369   0.195  -4.535  0.00  0.00    -0.009 A 
ATOM     29  C   LIG d   1       2.972  -0.423  -3.428  0.00  0.00    -0.019 A 
ATOM     30  H   LIG d   1       1.463   0.783  -4.530  0.00  0.00     0.066 H 
ATOM     31  H   LIG d   1       2.615  -0.401  -2.409  0.00  0.00     0.065 H 
BRANCH  27  32
ATOM     32  C   LIG d   1       2.901   0.337  -6.997  0.00  0.00     0.375 C 
ATOM     33  O   LIG d   1       2.500  -0.462  -7.822  0.00  0.00    -0.241 OA
BRANCH  32  34
ATOM     34  O   LIG d   1       3.119   1.620  -7.351  0.00  0.00    -0.459 OA
BRANCH  34  35
ATOM     35  C   LIG d   1       2.830   1.983  -8.727  0.00  0.00     0.090 C 
ATOM     36  H   LIG d   1       2.625   1.081  -9.305  0.00  0.00     0.070 H 
ATOM     37  H   LIG d   1       1.960   2.638  -8.755  0.00  0.00     0.070 H 
BRANCH  35  38
ATOM     38  C   LIG d   1       4.036   2.709  -9.326  0.00  0.00    -0.031 C 
ATOM     39  H   LIG d   1       3.948   3.779  -9.132  0.00  0.00     0.026 H 
ATOM     40  H   LIG d   1       4.951   2.332  -8.869  0.00  0.00     0.026 H 
ATOM     41  H   LIG d   1       4.068   2.537 -10.401  0.00  0.00     0.026 H 
ENDBRANCH  35  38
ENDBRANCH  34  35
ENDBRANCH  32  34
ENDBRANCH  27  32
ENDBRANCH  22  25
ENDBRANCH   1  22
TORSDOF 11
ENDMDL
MODEL 7
REMARK VINA RESULT:      -5.3      5.930      8.106
REMARK  11 active torsions:
REMARK  status: ('A' for Active; 'I' for Inactive)
REMARK    1  A    between atoms: C_1  and  C_2 
REMARK    2  A    between atoms: C_2  and  C_3 
REMARK    3  A    between atoms: C_5  and  C_11 
REMARK    4  A    between atoms: C_6  and  O_10 
REMARK    5  A    between atoms: C_8  and  O_9 
REMARK    6  A    between atoms: C_11  and  C_13 
REMARK    7  A    between atoms: C_13  and  C_14 
REMARK    8  A    between atoms: C_17  and  C_19 
REMARK    9  A    between atoms: C_19  and  O_21 
REMARK   10  A    between atoms: O_21  and  C_22 
REMARK   11  A    between atoms: C_22  and  C_23 
ROOT
ATOM      1  C   LIG d   1       7.783  -3.347  -4.648  0.00  0.00     0.174 C 
ATOM      2  O   LIG d   1       8.593  -3.973  -3.995  0.00  0.00    -0.291 OA
ENDROOT
BRANCH   1   3
ATOM      3  C   LIG d   1       7.269  -2.070  -4.147  0.00  0.00     0.060 A 
ATOM      4  C   LIG d   1       6.040  -2.020  -3.477  0.00  0.00    -0.041 A 
ATOM      5  C   LIG d   1       5.566  -0.830  -3.007  0.00  0.00    -0.005 A 
ATOM      6  H   LIG d   1       5.467  -2.924  -3.331  0.00  0.00     0.063 H 
ATOM      7  C   LIG d   1       6.292   0.342  -3.196  0.00  0.00     0.123 A 
ATOM      8  C   LIG d   1       7.509   0.313  -3.862  0.00  0.00     0.022 A 
ATOM      9  C   LIG d   1       8.006  -0.887  -4.340  0.00  0.00     0.131 A 
ATOM     10  H   LIG d   1       8.069   1.225  -4.006  0.00  0.00     0.069 H 
BRANCH   5  11
ATOM     11  C   LIG d   1       4.245  -0.784  -2.282  0.00  0.00    -0.027 C 
ATOM     12  H   LIG d   1       4.406  -0.462  -1.253  0.00  0.00     0.031 H 
ATOM     13  H   LIG d   1       3.580  -0.079  -2.783  0.00  0.00     0.031 H 
BRANCH  11  14
ATOM     14  C   LIG d   1       3.610  -2.176  -2.289  0.00  0.00    -0.061 C 
ATOM     15  H   LIG d   1       4.233  -2.857  -2.868  0.00  0.00     0.023 H 
ATOM     16  H   LIG d   1       3.525  -2.541  -1.265  0.00  0.00     0.023 H 
ATOM     17  H   LIG d   1       2.618  -2.120  -2.737  0.00  0.00     0.023 H 
ENDBRANCH  11  14
ENDBRANCH   5  11
BRANCH   7  18
ATOM     18  O   LIG d   1       5.807   1.521  -2.728  0.00  0.00    -0.506 OA
ATOM     19  H   LIG d   1       4.871   1.493  -2.489  0.00  0.00     0.292 HD
ENDBRANCH   7  18
BRANCH   9  20
ATOM     20  O   LIG d   1       9.195  -0.922  -4.990  0.00  0.00    -0.506 OA
ATOM     21  H   LIG d   1       9.708  -1.727  -4.828  0.00  0.00     0.292 HD
ENDBRANCH   9  20
ENDBRANCH   1   3
BRANCH   1  22
ATOM     22  C   LIG d   1       7.306  -3.884  -5.972  0.00  0.00     0.069 C 
ATOM     23  H   LIG d   1       8.087  -4.228  -6.493  0.00  0.00     0.042 H 
ATOM     24  H   LIG d   1       6.819  -3.086  -6.534  0.00  0.00     0.042 H 
BRANCH  22  25
ATOM     25  C   LIG d   1       6.325  -5.004  -5.736  0.00  0.00     0.114 A 
ATOM     26  O   LIG d   1       6.636  -6.303  -5.632  0.00  0.00    -0.453 OA
ATOM     27  C   LIG d   1       5.511  -7.016  -5.417  0.00  0.00     0.212 A 
ATOM     28  C   LIG d   1       4.457  -6.147  -5.395  0.00  0.00    -0.009 A 
ATOM     29  C   LIG d   1       4.989  -4.863  -5.596  0.00  0.00    -0.019 A 
ATOM     30  H   LIG d   1       3.417  -6.397  -5.247  0.00  0.00     0.066 H 
ATOM     31  H   LIG d   1       4.433  -3.938  -5.632  0.00  0.00     0.065 H 
BRANCH  27  32
ATOM     32  C   LIG d   1       5.433  -8.468  -5.243  0.00  0.00     0.375 C 
ATOM     33  O   LIG d   1       6.432  -9.150  -5.374  0.00  0.00    -0.241 OA
BRANCH  32  34
ATOM     34  O   LIG d   1       4.255  -9.049  -4.938  0.00  0.00    -0.459 OA
BRANCH  34  35
ATOM     35  C   LIG d   1       4.159  -9.707  -3.646  0.00  0.00     0.090 C 
ATOM     36  H   LIG d   1       5.151 -10.029  -3.328  0.00  0.00     0.070 H 
ATOM     37  H   LIG d   1       3.751  -9.011  -2.913  0.00  0.00     0.070 H 
BRANCH  35  38
ATOM     38  C   LIG d   1       3.239 -10.923  -3.761  0.00  0.00    -0.031 C 
ATOM     39  H   LIG d   1       3.776 -11.817  -3.441  0.00  0.00     0.026 H 
ATOM     40  H   LIG d   1       2.365 -10.779  -3.125  0.00  0.00     0.026 H 
ATOM     41  H   LIG d   1       2.921 -11.042  -4.796  0.00  0.00     0.026 H 
ENDBRANCH  35  38
ENDBRANCH  34  35
ENDBRANCH  32  34
ENDBRANCH  27  32
ENDBRANCH  22  25
ENDBRANCH   1  22
TORSDOF 11
ENDMDL
MODEL 8
REMARK VINA RESULT:      -5.3      5.973      8.082
REMARK  11 active torsions:
REMARK  status: ('A' for Active; 'I' for Inactive)
REMARK    1  A    between atoms: C_1  and  C_2 
REMARK    2  A    between atoms: C_2  and  C_3 
REMARK    3  A    between atoms: C_5  and  C_11 
REMARK    4  A    between atoms: C_6  and  O_10 
REMARK    5  A    between atoms: C_8  and  O_9 
REMARK    6  A    between atoms: C_11  and  C_13 
REMARK    7  A    between atoms: C_13  and  C_14 
REMARK    8  A    between atoms: C_17  and  C_19 
REMARK    9  A    between atoms: C_19  and  O_21 
REMARK   10  A    between atoms: O_21  and  C_22 
REMARK   11  A    between atoms: C_22  and  C_23 
ROOT
ATOM      1  C   LIG d   1       4.877  -1.810  -3.031  0.00  0.00     0.174 C 
ATOM      2  O   LIG d   1       4.118  -2.321  -2.234  0.00  0.00    -0.291 OA
ENDROOT
BRANCH   1   3
ATOM      3  C   LIG d   1       5.808  -2.646  -3.793  0.00  0.00     0.060 A 
ATOM      4  C   LIG d   1       7.175  -2.640  -3.484  0.00  0.00    -0.041 A 
ATOM      5  C   LIG d   1       8.040  -3.423  -4.192  0.00  0.00    -0.005 A 
ATOM      6  H   LIG d   1       7.544  -2.017  -2.682  0.00  0.00     0.063 H 
ATOM      7  C   LIG d   1       7.576  -4.223  -5.231  0.00  0.00     0.123 A 
ATOM      8  C   LIG d   1       6.227  -4.238  -5.556  0.00  0.00     0.022 A 
ATOM      9  C   LIG d   1       5.336  -3.454  -4.844  0.00  0.00     0.131 A 
ATOM     10  H   LIG d   1       5.871  -4.862  -6.363  0.00  0.00     0.069 H 
BRANCH   5  11
ATOM     11  C   LIG d   1       9.507  -3.416  -3.850  0.00  0.00    -0.027 C 
ATOM     12  H   LIG d   1      10.077  -3.823  -4.685  0.00  0.00     0.031 H 
ATOM     13  H   LIG d   1       9.830  -2.393  -3.654  0.00  0.00     0.031 H 
BRANCH  11  14
ATOM     14  C   LIG d   1       9.746  -4.272  -2.604  0.00  0.00    -0.061 C 
ATOM     15  H   LIG d   1      10.647  -4.870  -2.741  0.00  0.00     0.023 H 
ATOM     16  H   LIG d   1       9.867  -3.625  -1.736  0.00  0.00     0.023 H 
ATOM     17  H   LIG d   1       8.893  -4.932  -2.449  0.00  0.00     0.023 H 
ENDBRANCH  11  14
ENDBRANCH   5  11
BRANCH   7  18
ATOM     18  O   LIG d   1       8.447  -4.994  -5.932  0.00  0.00    -0.506 OA
ATOM     19  H   LIG d   1       9.123  -5.417  -5.386  0.00  0.00     0.292 HD
ENDBRANCH   7  18
BRANCH   9  20
ATOM     20  O   LIG d   1       4.017  -3.466  -5.155  0.00  0.00    -0.506 OA
ATOM     21  H   LIG d   1       3.836  -3.434  -6.105  0.00  0.00     0.292 HD
ENDBRANCH   9  20
ENDBRANCH   1   3
BRANCH   1  22
ATOM     22  C   LIG d   1       4.863  -0.318  -3.235  0.00  0.00     0.069 C 
ATOM     23  H   LIG d   1       5.785  -0.004  -3.463  0.00  0.00     0.042 H 
ATOM     24  H   LIG d   1       4.531   0.172  -2.319  0.00  0.00     0.042 H 
BRANCH  22  25
ATOM     25  C   LIG d   1       3.921   0.027  -4.359  0.00  0.00     0.114 A 
ATOM     26  O   LIG d   1       4.273   0.233  -5.635  0.00  0.00    -0.453 OA
ATOM     27  C   LIG d   1       3.171   0.514  -6.363  0.00  0.00     0.212 A 
ATOM     28  C   LIG d   1       2.094   0.494  -5.523  0.00  0.00    -0.009 A 
ATOM     29  C   LIG d   1       2.583   0.179  -4.246  0.00  0.00    -0.019 A 
ATOM     30  H   LIG d   1       1.064   0.681  -5.791  0.00  0.00     0.066 H 
ATOM     31  H   LIG d   1       1.999   0.077  -3.343  0.00  0.00     0.065 H 
BRANCH  27  32
ATOM     32  C   LIG d   1       3.138   0.793  -7.800  0.00  0.00     0.375 C 
ATOM     33  O   LIG d   1       3.113   1.944  -8.195  0.00  0.00    -0.241 OA
BRANCH  32  34
ATOM     34  O   LIG d   1       3.136  -0.224  -8.686  0.00  0.00    -0.459 OA
BRANCH  34  35
ATOM     35  C   LIG d   1       1.860  -0.569  -9.289  0.00  0.00     0.090 C 
ATOM     36  H   LIG d   1       1.493  -1.499  -8.855  0.00  0.00     0.070 H 
ATOM     37  H   LIG d   1       1.142   0.228  -9.101  0.00  0.00     0.070 H 
BRANCH  35  38
ATOM     38  C   LIG d   1       2.042  -0.747 -10.798  0.00  0.00    -0.031 C 
ATOM     39  H   LIG d   1       3.104  -0.850 -11.026  0.00  0.00     0.026 H 
ATOM     40  H   LIG d   1       1.512  -1.642 -11.125  0.00  0.00     0.026 H 
ATOM     41  H   LIG d   1       1.642   0.123 -11.317  0.00  0.00     0.026 H 
ENDBRANCH  35  38
ENDBRANCH  34  35
ENDBRANCH  32  34
ENDBRANCH  27  32
ENDBRANCH  22  25
ENDBRANCH   1  22
TORSDOF 11
ENDMDL
MODEL 9
REMARK VINA RESULT:      -5.2      6.282      9.028
REMARK  11 active torsions:
REMARK  status: ('A' for Active; 'I' for Inactive)
REMARK    1  A    between atoms: C_1  and  C_2 
REMARK    2  A    between atoms: C_2  and  C_3 
REMARK    3  A    between atoms: C_5  and  C_11 
REMARK    4  A    between atoms: C_6  and  O_10 
REMARK    5  A    between atoms: C_8  and  O_9 
REMARK    6  A    between atoms: C_11  and  C_13 
REMARK    7  A    between atoms: C_13  and  C_14 
REMARK    8  A    between atoms: C_17  and  C_19 
REMARK    9  A    between atoms: C_19  and  O_21 
REMARK   10  A    between atoms: O_21  and  C_22 
REMARK   11  A    between atoms: C_22  and  C_23 
ROOT
ATOM      1  C   LIG d   1       3.975   0.313  -7.574  0.00  0.00     0.174 C 
ATOM      2  O   LIG d   1       4.999   0.798  -8.009  0.00  0.00    -0.291 OA
ENDROOT
BRANCH   1   3
ATOM      3  C   LIG d   1       4.010  -0.497  -6.354  0.00  0.00     0.060 A 
ATOM      4  C   LIG d   1       3.474   0.005  -5.161  0.00  0.00    -0.041 A 
ATOM      5  C   LIG d   1       3.502  -0.753  -4.026  0.00  0.00    -0.005 A 
ATOM      6  H   LIG d   1       3.034   0.992  -5.139  0.00  0.00     0.063 H 
ATOM      7  C   LIG d   1       4.072  -2.022  -4.041  0.00  0.00     0.123 A 
ATOM      8  C   LIG d   1       4.613  -2.534  -5.212  0.00  0.00     0.022 A 
ATOM      9  C   LIG d   1       4.587  -1.780  -6.372  0.00  0.00     0.131 A 
ATOM     10  H   LIG d   1       5.054  -3.520  -5.219  0.00  0.00     0.069 H 
BRANCH   5  11
ATOM     11  C   LIG d   1       2.918  -0.210  -2.748  0.00  0.00    -0.027 C 
ATOM     12  H   LIG d   1       1.894   0.118  -2.926  0.00  0.00     0.031 H 
ATOM     13  H   LIG d   1       2.922  -0.990  -1.985  0.00  0.00     0.031 H 
BRANCH  11  14
ATOM     14  C   LIG d   1       3.757   0.976  -2.266  0.00  0.00    -0.061 C 
ATOM     15  H   LIG d   1       3.434   1.882  -2.780  0.00  0.00     0.023 H 
ATOM     16  H   LIG d   1       3.626   1.101  -1.191  0.00  0.00     0.023 H 
ATOM     17  H   LIG d   1       4.808   0.790  -2.485  0.00  0.00     0.023 H 
ENDBRANCH  11  14
ENDBRANCH   5  11
BRANCH   7  18
ATOM     18  O   LIG d   1       4.099  -2.765  -2.905  0.00  0.00    -0.506 OA
ATOM     19  H   LIG d   1       3.230  -2.903  -2.505  0.00  0.00     0.292 HD
ENDBRANCH   7  18
BRANCH   9  20
ATOM     20  O   LIG d   1       5.113  -2.275  -7.520  0.00  0.00    -0.506 OA
ATOM     21  H   LIG d   1       5.334  -3.215  -7.478  0.00  0.00     0.292 HD
ENDBRANCH   9  20
ENDBRANCH   1   3
BRANCH   1  22
ATOM     22  C   LIG d   1       2.669   0.542  -8.290  0.00  0.00     0.069 C 
ATOM     23  H   LIG d   1       2.705   1.415  -8.777  0.00  0.00     0.042 H 
ATOM     24  H   LIG d   1       1.856   0.566  -7.564  0.00  0.00     0.042 H 
BRANCH  22  25
ATOM     25  C   LIG d   1       2.433  -0.575  -9.273  0.00  0.00     0.114 A 
ATOM     26  O   LIG d   1       2.433  -1.882  -8.982  0.00  0.00    -0.453 OA
ATOM     27  C   LIG d   1       2.182  -2.590 -10.104  0.00  0.00     0.212 A 
ATOM     28  C   LIG d   1       2.028  -1.708 -11.135  0.00  0.00    -0.009 A 
ATOM     29  C   LIG d   1       2.186  -0.422 -10.593  0.00  0.00    -0.019 A 
ATOM     30  H   LIG d   1       1.820  -1.951 -12.166  0.00  0.00     0.066 H 
ATOM     31  H   LIG d   1       2.123   0.512 -11.131  0.00  0.00     0.065 H 
BRANCH  27  32
ATOM     32  C   LIG d   1       2.094  -4.049 -10.198  0.00  0.00     0.375 C 
ATOM     33  O   LIG d   1       2.768  -4.747  -9.464  0.00  0.00    -0.241 OA
BRANCH  32  34
ATOM     34  O   LIG d   1       1.267  -4.618 -11.098  0.00  0.00    -0.459 OA
BRANCH  34  35
ATOM     35  C   LIG d   1      -0.136  -4.714 -10.736  0.00  0.00     0.090 C 
ATOM     36  H   LIG d   1      -0.375  -5.746 -10.476  0.00  0.00     0.070 H 
ATOM     37  H   LIG d   1      -0.335  -4.069  -9.880  0.00  0.00     0.070 H 
BRANCH  35  38
ATOM     38  C   LIG d   1      -0.999  -4.273 -11.919  0.00  0.00    -0.031 C 
ATOM     39  H   LIG d   1      -1.903  -3.787 -11.549  0.00  0.00     0.026 H 
ATOM     40  H   LIG d   1      -0.438  -3.571 -12.536  0.00  0.00     0.026 H 
ATOM     41  H   LIG d   1      -1.272  -5.143 -12.515  0.00  0.00     0.026 H 
ENDBRANCH  35  38
ENDBRANCH  34  35
ENDBRANCH  32  34
ENDBRANCH  27  32
ENDBRANCH  22  25
ENDBRANCH   1  22
TORSDOF 11
ENDMDL
MODEL 10
REMARK VINA RESULT:      -5.2      1.842      2.678
REMARK  11 active torsions:
REMARK  status: ('A' for Active; 'I' for Inactive)
REMARK    1  A    between atoms: C_1  and  C_2 
REMARK    2  A    between atoms: C_2  and  C_3 
REMARK    3  A    between atoms: C_5  and  C_11 
REMARK    4  A    between atoms: C_6  and  O_10 
REMARK    5  A    between atoms: C_8  and  O_9 
REMARK    6  A    between atoms: C_11  and  C_13 
REMARK    7  A    between atoms: C_13  and  C_14 
REMARK    8  A    between atoms: C_17  and  C_19 
REMARK    9  A    between atoms: C_19  and  O_21 
REMARK   10  A    between atoms: O_21  and  C_22 
REMARK   11  A    between atoms: C_22  and  C_23 
ROOT
ATOM      1  C   LIG d   1      10.717   4.737  -4.757  0.00  0.00     0.174 C 
ATOM      2  O   LIG d   1      11.781   4.688  -5.338  0.00  0.00    -0.291 OA
ENDROOT
BRANCH   1   3
ATOM      3  C   LIG d   1      10.665   5.175  -3.360  0.00  0.00     0.060 A 
ATOM      4  C   LIG d   1       9.903   6.294  -3.001  0.00  0.00    -0.041 A 
ATOM      5  C   LIG d   1       9.852   6.697  -1.698  0.00  0.00    -0.005 A 
ATOM      6  H   LIG d   1       9.354   6.838  -3.755  0.00  0.00     0.063 H 
ATOM      7  C   LIG d   1      10.563   6.008  -0.719  0.00  0.00     0.123 A 
ATOM      8  C   LIG d   1      11.326   4.899  -1.057  0.00  0.00     0.022 A 
ATOM      9  C   LIG d   1      11.384   4.475  -2.373  0.00  0.00     0.131 A 
ATOM     10  H   LIG d   1      11.876   4.368  -0.294  0.00  0.00     0.069 H 
BRANCH   5  11
ATOM     11  C   LIG d   1       9.027   7.899  -1.317  0.00  0.00    -0.027 C 
ATOM     12  H   LIG d   1       8.104   7.904  -1.896  0.00  0.00     0.031 H 
ATOM     13  H   LIG d   1       8.788   7.854  -0.254  0.00  0.00     0.031 H 
BRANCH  11  14
ATOM     14  C   LIG d   1       9.819   9.175  -1.607  0.00  0.00    -0.061 C 
ATOM     15  H   LIG d   1      10.815   9.092  -1.174  0.00  0.00     0.023 H 
ATOM     16  H   LIG d   1       9.902   9.314  -2.685  0.00  0.00     0.023 H 
ATOM     17  H   LIG d   1       9.303  10.030  -1.170  0.00  0.00     0.023 H 
ENDBRANCH  11  14
ENDBRANCH   5  11
BRANCH   7  18
ATOM     18  O   LIG d   1      10.508   6.421   0.573  0.00  0.00    -0.506 OA
ATOM     19  H   LIG d   1      10.447   5.700   1.214  0.00  0.00     0.292 HD
ENDBRANCH   7  18
BRANCH   9  20
ATOM     20  O   LIG d   1      12.127   3.393  -2.709  0.00  0.00    -0.506 OA
ATOM     21  H   LIG d   1      11.606   2.638  -3.016  0.00  0.00     0.292 HD
ENDBRANCH   9  20
ENDBRANCH   1   3
BRANCH   1  22
ATOM     22  C   LIG d   1       9.449   4.347  -5.473  0.00  0.00     0.069 C 
ATOM     23  H   LIG d   1       9.638   4.236  -6.449  0.00  0.00     0.042 H 
ATOM     24  H   LIG d   1       8.700   5.127  -5.335  0.00  0.00     0.042 H 
BRANCH  22  25
ATOM     25  C   LIG d   1       8.933   3.049  -4.908  0.00  0.00     0.114 A 
ATOM     26  O   LIG d   1       7.740   2.873  -4.325  0.00  0.00    -0.453 OA
ATOM     27  C   LIG d   1       7.614   1.583  -3.945  0.00  0.00     0.212 A 
ATOM     28  C   LIG d   1       8.762   0.928  -4.288  0.00  0.00    -0.009 A 
ATOM     29  C   LIG d   1       9.597   1.873  -4.906  0.00  0.00    -0.019 A 
ATOM     30  H   LIG d   1       8.984  -0.116  -4.120  0.00  0.00     0.066 H 
ATOM     31  H   LIG d   1      10.584   1.692  -5.304  0.00  0.00     0.065 H 
BRANCH  27  32
ATOM     32  C   LIG d   1       6.451   0.993  -3.279  0.00  0.00     0.375 C 
ATOM     33  O   LIG d   1       5.531   1.703  -2.919  0.00  0.00    -0.241 OA
BRANCH  32  34
ATOM     34  O   LIG d   1       6.400  -0.337  -3.064  0.00  0.00    -0.459 OA
BRANCH  34  35
ATOM     35  C   LIG d   1       5.155  -1.011  -3.391  0.00  0.00     0.090 C 
ATOM     36  H   LIG d   1       4.486  -0.313  -3.894  0.00  0.00     0.070 H 
ATOM     37  H   LIG d   1       5.360  -1.855  -4.048  0.00  0.00     0.070 H 
BRANCH  35  38
ATOM     38  C   LIG d   1       4.495  -1.513  -2.105  0.00  0.00    -0.031 C 
ATOM     39  H   LIG d   1       3.514  -1.927  -2.338  0.00  0.00     0.026 H 
ATOM     40  H   LIG d   1       5.118  -2.287  -1.656  0.00  0.00     0.026 H 
ATOM     41  H   LIG d   1       4.384  -0.685  -1.406  0.00  0.00     0.026 H 
ENDBRANCH  35  38
ENDBRANCH  34  35
ENDBRANCH  32  34
ENDBRANCH  27  32
ENDBRANCH  22  25
ENDBRANCH   1  22
TORSDOF 11
ENDMDL
