MODEL 1
REMARK VINA RESULT:      -6.4      0.000      0.000
REMARK  4 active torsions:
REMARK  status: ('A' for Active; 'I' for Inactive)
REMARK    1  A    between atoms: CZ_3  and  OH_19 
REMARK    2  A    between atoms: CG_6  and  CB_7 
REMARK    3  A    between atoms: CB_7  and  CA_8 
REMARK       I    between atoms: CA_8  and  C_10 
REMARK       I    between atoms: CA_8  and  N_12 
REMARK       I    between atoms: N_12  and  C_13 
REMARK    4  A    between atoms: C_13  and  C_15 
ROOT
ATOM      1  CB  TYR d   1       4.876  -1.158  -6.635  0.00  0.00    -0.004 C 
ATOM      2  HB1 TYR d   1       5.404  -0.205  -6.613  0.00  0.00     0.034 H 
ATOM      3  HB2 TYR d   1       5.582  -1.960  -6.852  0.00  0.00     0.034 H 
ENDROOT
BRANCH   1   4
ATOM      4  CG  TYR d   1       3.815  -1.119  -7.704  0.00  0.00    -0.045 A 
ATOM      5  CD1 TYR d   1       3.576  -2.238  -8.480  0.00  0.00    -0.055 A 
ATOM      6  CE1 TYR d   1       2.600  -2.207  -9.458  0.00  0.00    -0.020 A 
ATOM      7  HD1 TYR d   1       4.151  -3.138  -8.320  0.00  0.00     0.062 H 
ATOM      8  CZ  TYR d   1       1.867  -1.049  -9.667  0.00  0.00     0.117 A 
ATOM      9  HE1 TYR d   1       2.411  -3.084 -10.060  0.00  0.00     0.065 H 
ATOM     10  CE2 TYR d   1       2.112   0.074  -8.891  0.00  0.00    -0.020 A 
ATOM     11  CD2 TYR d   1       3.085   0.037  -7.912  0.00  0.00    -0.055 A 
ATOM     12  HE2 TYR d   1       1.542   0.978  -9.051  0.00  0.00     0.065 H 
ATOM     13  HD2 TYR d   1       3.277   0.912  -7.307  0.00  0.00     0.062 H 
BRANCH   8  14
ATOM     14  OH  TYR d   1       0.910  -1.014 -10.632  0.00  0.00    -0.507 OA
ATOM     15  HH  TYR d   1       0.839  -1.829 -11.145  0.00  0.00     0.292 HD
ENDBRANCH   8  14
ENDBRANCH   1   4
BRANCH   1  16
ATOM     16  CA  TYR d   1       4.221  -1.408  -5.275  0.00  0.00     0.067 C 
ATOM     17  HA  TYR d   1       3.137  -1.392  -5.385  0.00  0.00     0.056 H 
ATOM     18  C   TYR d   1       4.652  -2.753  -4.750  0.00  0.00     0.062 C 
ATOM     19  O   TYR d   1       5.242  -2.830  -3.698  0.00  0.00    -0.548 OA
ATOM     20  OXT TYR d   1       4.381  -3.865  -5.450  0.00  0.00    -0.548 OA
ATOM     21  N   TYR d   1       4.632  -0.361  -4.335  0.00  0.00    -0.300 N 
ATOM     22  C   UNK d   0       3.849  -0.058  -3.281  0.00  0.00     0.318 C 
ATOM     23  H   TYR d   1       5.468   0.111  -4.471  0.00  0.00     0.150 HD
ATOM     24  O   UNK d   0       2.804  -0.649  -3.111  0.00  0.00    -0.266 OA
BRANCH  22  25
ATOM     25  C   UNK d   0       4.271   1.019  -2.315  0.00  0.00     0.469 C 
ATOM     26  F   UNK d   0       3.202   1.894  -2.096  0.00  0.00    -0.162 F 
ATOM     27  F   UNK d   0       4.650   0.434  -1.102  0.00  0.00    -0.162 F 
ATOM     28  F   UNK d   0       5.352   1.728  -2.848  0.00  0.00    -0.162 F 
ENDBRANCH  22  25
ENDBRANCH   1  16
TORSDOF 6
ENDMDL
MODEL 2
REMARK VINA RESULT:      -6.4      2.035      2.518
REMARK  4 active torsions:
REMARK  status: ('A' for Active; 'I' for Inactive)
REMARK    1  A    between atoms: CZ_3  and  OH_19 
REMARK    2  A    between atoms: CG_6  and  CB_7 
REMARK    3  A    between atoms: CB_7  and  CA_8 
REMARK       I    between atoms: CA_8  and  C_10 
REMARK       I    between atoms: CA_8  and  N_12 
REMARK       I    between atoms: N_12  and  C_13 
REMARK    4  A    between atoms: C_13  and  C_15 
ROOT
ATOM      1  CB  TYR d   1       3.196   0.092  -7.282  0.00  0.00    -0.004 C 
ATOM      2  HB1 TYR d   1       2.328   0.412  -6.706  0.00  0.00     0.034 H 
ATOM      3  HB2 TYR d   1       3.727   0.968  -7.654  0.00  0.00     0.034 H 
ENDROOT
BRANCH   1   4
ATOM      4  CG  TYR d   1       2.743  -0.753  -8.444  0.00  0.00    -0.045 A 
ATOM      5  CD1 TYR d   1       3.218  -2.044  -8.585  0.00  0.00    -0.055 A 
ATOM      6  CE1 TYR d   1       2.799  -2.823  -9.647  0.00  0.00    -0.020 A 
ATOM      7  HD1 TYR d   1       3.913  -2.445  -7.863  0.00  0.00     0.062 H 
ATOM      8  CZ  TYR d   1       1.910  -2.306 -10.577  0.00  0.00     0.117 A 
ATOM      9  HE1 TYR d   1       3.168  -3.833  -9.753  0.00  0.00     0.065 H 
ATOM     10  CE2 TYR d   1       1.440  -1.009 -10.436  0.00  0.00    -0.020 A 
ATOM     11  CD2 TYR d   1       1.856  -0.235  -9.371  0.00  0.00    -0.055 A 
ATOM     12  HE2 TYR d   1       0.747  -0.603 -11.159  0.00  0.00     0.065 H 
ATOM     13  HD2 TYR d   1       1.490   0.775  -9.261  0.00  0.00     0.062 H 
BRANCH   8  14
ATOM     14  OH  TYR d   1       1.502  -3.068 -11.626  0.00  0.00    -0.507 OA
ATOM     15  HH  TYR d   1       1.168  -2.559 -12.376  0.00  0.00     0.292 HD
ENDBRANCH   8  14
ENDBRANCH   1   4
BRANCH   1  16
ATOM     16  CA  TYR d   1       4.127  -0.728  -6.387  0.00  0.00     0.067 C 
ATOM     17  HA  TYR d   1       4.110  -1.771  -6.703  0.00  0.00     0.056 H 
ATOM     18  C   TYR d   1       5.531  -0.193  -6.498  0.00  0.00     0.062 C 
ATOM     19  O   TYR d   1       6.098   0.226  -5.516  0.00  0.00    -0.548 OA
ATOM     20  OXT TYR d   1       6.153  -0.181  -7.687  0.00  0.00    -0.548 OA
ATOM     21  N   TYR d   1       3.676  -0.633  -4.996  0.00  0.00    -0.300 N 
ATOM     22  C   UNK d   0       3.981  -1.611  -4.120  0.00  0.00     0.318 C 
ATOM     23  H   TYR d   1       3.159   0.135  -4.705  0.00  0.00     0.150 HD
ATOM     24  O   UNK d   0       4.627  -2.571  -4.483  0.00  0.00    -0.266 OA
BRANCH  22  25
ATOM     25  C   UNK d   0       3.516  -1.514  -2.690  0.00  0.00     0.469 C 
ATOM     26  F   UNK d   0       2.212  -1.010  -2.657  0.00  0.00    -0.162 F 
ATOM     27  F   UNK d   0       3.541  -2.784  -2.104  0.00  0.00    -0.162 F 
ATOM     28  F   UNK d   0       4.365  -0.658  -1.981  0.00  0.00    -0.162 F 
ENDBRANCH  22  25
ENDBRANCH   1  16
TORSDOF 6
ENDMDL
MODEL 3
REMARK VINA RESULT:      -6.2      2.967      5.614
REMARK  4 active torsions:
REMARK  status: ('A' for Active; 'I' for Inactive)
REMARK    1  A    between atoms: CZ_3  and  OH_19 
REMARK    2  A    between atoms: CG_6  and  CB_7 
REMARK    3  A    between atoms: CB_7  and  CA_8 
REMARK       I    between atoms: CA_8  and  C_10 
REMARK       I    between atoms: CA_8  and  N_12 
REMARK       I    between atoms: N_12  and  C_13 
REMARK    4  A    between atoms: C_13  and  C_15 
ROOT
ATOM      1  CB  TYR d   1       5.138  -3.401  -4.664  0.00  0.00    -0.004 C 
ATOM      2  HB1 TYR d   1       4.321  -4.084  -4.432  0.00  0.00     0.034 H 
ATOM      3  HB2 TYR d   1       6.091  -3.906  -4.503  0.00  0.00     0.034 H 
ENDROOT
BRANCH   1   4
ATOM      4  CG  TYR d   1       5.051  -2.193  -3.768  0.00  0.00    -0.045 A 
ATOM      5  CD1 TYR d   1       4.025  -2.089  -2.846  0.00  0.00    -0.055 A 
ATOM      6  CE1 TYR d   1       3.947  -0.986  -2.019  0.00  0.00    -0.020 A 
ATOM      7  HD1 TYR d   1       3.287  -2.874  -2.771  0.00  0.00     0.062 H 
ATOM      8  CZ  TYR d   1       4.893   0.024  -2.120  0.00  0.00     0.117 A 
ATOM      9  HE1 TYR d   1       3.148  -0.909  -1.297  0.00  0.00     0.065 H 
ATOM     10  CE2 TYR d   1       5.917  -0.080  -3.049  0.00  0.00    -0.020 A 
ATOM     11  CD2 TYR d   1       5.995  -1.188  -3.870  0.00  0.00    -0.055 A 
ATOM     12  HE2 TYR d   1       6.655   0.705  -3.130  0.00  0.00     0.065 H 
ATOM     13  HD2 TYR d   1       6.793  -1.268  -4.594  0.00  0.00     0.062 H 
BRANCH   8  14
ATOM     14  OH  TYR d   1       4.814   1.114  -1.311  0.00  0.00    -0.507 OA
ATOM     15  HH  TYR d   1       4.737   1.951  -1.787  0.00  0.00     0.292 HD
ENDBRANCH   8  14
ENDBRANCH   1   4
BRANCH   1  16
ATOM     16  CA  TYR d   1       5.034  -2.961  -6.126  0.00  0.00     0.067 C 
ATOM     17  HA  TYR d   1       5.985  -2.535  -6.445  0.00  0.00     0.056 H 
ATOM     18  C   TYR d   1       4.702  -4.153  -6.987  0.00  0.00     0.062 C 
ATOM     19  O   TYR d   1       3.688  -4.160  -7.644  0.00  0.00    -0.548 OA
ATOM     20  OXT TYR d   1       5.533  -5.206  -7.024  0.00  0.00    -0.548 OA
ATOM     21  N   TYR d   1       3.978  -1.953  -6.258  0.00  0.00    -0.300 N 
ATOM     22  C   UNK d   0       4.016  -1.068  -7.274  0.00  0.00     0.318 C 
ATOM     23  H   TYR d   1       3.252  -1.924  -5.616  0.00  0.00     0.150 HD
ATOM     24  O   UNK d   0       4.924  -1.104  -8.077  0.00  0.00    -0.266 OA
BRANCH  22  25
ATOM     25  C   UNK d   0       2.931  -0.031  -7.410  0.00  0.00     0.469 C 
ATOM     26  F   UNK d   0       2.347   0.199  -6.160  0.00  0.00    -0.162 F 
ATOM     27  F   UNK d   0       3.483   1.160  -7.893  0.00  0.00    -0.162 F 
ATOM     28  F   UNK d   0       1.957  -0.489  -8.303  0.00  0.00    -0.162 F 
ENDBRANCH  22  25
ENDBRANCH   1  16
TORSDOF 6
ENDMDL
MODEL 4
REMARK VINA RESULT:      -6.2      1.814      2.523
REMARK  4 active torsions:
REMARK  status: ('A' for Active; 'I' for Inactive)
REMARK    1  A    between atoms: CZ_3  and  OH_19 
REMARK    2  A    between atoms: CG_6  and  CB_7 
REMARK    3  A    between atoms: CB_7  and  CA_8 
REMARK       I    between atoms: CA_8  and  C_10 
REMARK       I    between atoms: CA_8  and  N_12 
REMARK       I    between atoms: N_12  and  C_13 
REMARK    4  A    between atoms: C_13  and  C_15 
ROOT
ATOM      1  CB  TYR d   1       5.215  -0.165  -6.917  0.00  0.00    -0.004 C 
ATOM      2  HB1 TYR d   1       5.076   0.729  -6.309  0.00  0.00     0.034 H 
ATOM      3  HB2 TYR d   1       6.131  -0.070  -7.500  0.00  0.00     0.034 H 
ENDROOT
BRANCH   1   4
ATOM      4  CG  TYR d   1       4.041  -0.325  -7.847  0.00  0.00    -0.045 A 
ATOM      5  CD1 TYR d   1       3.351   0.790  -8.287  0.00  0.00    -0.055 A 
ATOM      6  CE1 TYR d   1       2.278   0.647  -9.145  0.00  0.00    -0.020 A 
ATOM      7  HD1 TYR d   1       3.654   1.775  -7.961  0.00  0.00     0.062 H 
ATOM      8  CZ  TYR d   1       1.886  -0.618  -9.558  0.00  0.00     0.117 A 
ATOM      9  HE1 TYR d   1       1.743   1.520  -9.491  0.00  0.00     0.065 H 
ATOM     10  CE2 TYR d   1       2.576  -1.735  -9.112  0.00  0.00    -0.020 A 
ATOM     11  CD2 TYR d   1       3.651  -1.586  -8.258  0.00  0.00    -0.055 A 
ATOM     12  HE2 TYR d   1       2.273  -2.721  -9.432  0.00  0.00     0.065 H 
ATOM     13  HD2 TYR d   1       4.189  -2.457  -7.910  0.00  0.00     0.062 H 
BRANCH   8  14
ATOM     14  OH  TYR d   1       0.827  -0.762 -10.398  0.00  0.00    -0.507 OA
ATOM     15  HH  TYR d   1       1.056  -1.132 -11.260  0.00  0.00     0.292 HD
ENDBRANCH   8  14
ENDBRANCH   1   4
BRANCH   1  16
ATOM     16  CA  TYR d   1       5.315  -1.390  -6.005  0.00  0.00     0.067 C 
ATOM     17  HA  TYR d   1       4.763  -2.219  -6.449  0.00  0.00     0.056 H 
ATOM     18  C   TYR d   1       6.762  -1.779  -5.843  0.00  0.00     0.062 C 
ATOM     19  O   TYR d   1       7.265  -1.788  -4.745  0.00  0.00    -0.548 OA
ATOM     20  OXT TYR d   1       7.490  -2.115  -6.918  0.00  0.00    -0.548 OA
ATOM     21  N   TYR d   1       4.744  -1.070  -4.694  0.00  0.00    -0.300 N 
ATOM     22  C   UNK d   0       4.259  -2.055  -3.912  0.00  0.00     0.318 C 
ATOM     23  H   TYR d   1       4.717  -0.150  -4.388  0.00  0.00     0.150 HD
ATOM     24  O   UNK d   0       4.292  -3.206  -4.294  0.00  0.00    -0.266 OA
BRANCH  22  25
ATOM     25  C   UNK d   0       3.672  -1.727  -2.564  0.00  0.00     0.469 C 
ATOM     26  F   UNK d   0       3.459  -2.909  -1.847  0.00  0.00    -0.162 F 
ATOM     27  F   UNK d   0       4.558  -0.906  -1.857  0.00  0.00    -0.162 F 
ATOM     28  F   UNK d   0       2.454  -1.060  -2.734  0.00  0.00    -0.162 F 
ENDBRANCH  22  25
ENDBRANCH   1  16
TORSDOF 6
ENDMDL
MODEL 5
REMARK VINA RESULT:      -6.2      3.431      5.481
REMARK  4 active torsions:
REMARK  status: ('A' for Active; 'I' for Inactive)
REMARK    1  A    between atoms: CZ_3  and  OH_19 
REMARK    2  A    between atoms: CG_6  and  CB_7 
REMARK    3  A    between atoms: CB_7  and  CA_8 
REMARK       I    between atoms: CA_8  and  C_10 
REMARK       I    between atoms: CA_8  and  N_12 
REMARK       I    between atoms: N_12  and  C_13 
REMARK    4  A    between atoms: C_13  and  C_15 
ROOT
ATOM      1  CB  TYR d   1       3.884  -1.446  -2.590  0.00  0.00    -0.004 C 
ATOM      2  HB1 TYR d   1       4.196  -1.300  -1.556  0.00  0.00     0.034 H 
ATOM      3  HB2 TYR d   1       2.980  -2.055  -2.614  0.00  0.00     0.034 H 
ENDROOT
BRANCH   1   4
ATOM      4  CG  TYR d   1       4.981  -2.144  -3.351  0.00  0.00    -0.045 A 
ATOM      5  CD1 TYR d   1       6.302  -1.795  -3.133  0.00  0.00    -0.055 A 
ATOM      6  CE1 TYR d   1       7.310  -2.438  -3.825  0.00  0.00    -0.020 A 
ATOM      7  HD1 TYR d   1       6.545  -1.021  -2.419  0.00  0.00     0.062 H 
ATOM      8  CZ  TYR d   1       6.997  -3.426  -4.745  0.00  0.00     0.117 A 
ATOM      9  HE1 TYR d   1       8.342  -2.166  -3.650  0.00  0.00     0.065 H 
ATOM     10  CE2 TYR d   1       5.672  -3.771  -4.966  0.00  0.00    -0.020 A 
ATOM     11  CD2 TYR d   1       4.668  -3.129  -4.268  0.00  0.00    -0.055 A 
ATOM     12  HE2 TYR d   1       5.425  -4.540  -5.682  0.00  0.00     0.065 H 
ATOM     13  HD2 TYR d   1       3.635  -3.397  -4.440  0.00  0.00     0.062 H 
BRANCH   8  14
ATOM     14  OH  TYR d   1       7.988  -4.056  -5.432  0.00  0.00    -0.507 OA
ATOM     15  HH  TYR d   1       7.996  -5.016  -5.318  0.00  0.00     0.292 HD
ENDBRANCH   8  14
ENDBRANCH   1   4
BRANCH   1  16
ATOM     16  CA  TYR d   1       3.601  -0.087  -3.233  0.00  0.00     0.067 C 
ATOM     17  HA  TYR d   1       2.599   0.243  -2.959  0.00  0.00     0.056 H 
ATOM     18  C   TYR d   1       4.612   0.919  -2.748  0.00  0.00     0.062 C 
ATOM     19  O   TYR d   1       5.336   1.478  -3.538  0.00  0.00    -0.548 OA
ATOM     20  OXT TYR d   1       4.709   1.195  -1.438  0.00  0.00    -0.548 OA
ATOM     21  N   TYR d   1       3.692  -0.208  -4.691  0.00  0.00    -0.300 N 
ATOM     22  C   UNK d   0       3.023   0.654  -5.481  0.00  0.00     0.318 C 
ATOM     23  H   TYR d   1       4.235  -0.908  -5.086  0.00  0.00     0.150 HD
ATOM     24  O   UNK d   0       2.345   1.529  -4.988  0.00  0.00    -0.266 OA
BRANCH  22  25
ATOM     25  C   UNK d   0       3.117   0.529  -6.980  0.00  0.00     0.469 C 
ATOM     26  F   UNK d   0       4.411   0.135  -7.336  0.00  0.00    -0.162 F 
ATOM     27  F   UNK d   0       2.199  -0.428  -7.426  0.00  0.00    -0.162 F 
ATOM     28  F   UNK d   0       2.827   1.763  -7.571  0.00  0.00    -0.162 F 
ENDBRANCH  22  25
ENDBRANCH   1  16
TORSDOF 6
ENDMDL
MODEL 6
REMARK VINA RESULT:      -6.0      3.914      6.137
REMARK  4 active torsions:
REMARK  status: ('A' for Active; 'I' for Inactive)
REMARK    1  A    between atoms: CZ_3  and  OH_19 
REMARK    2  A    between atoms: CG_6  and  CB_7 
REMARK    3  A    between atoms: CB_7  and  CA_8 
REMARK       I    between atoms: CA_8  and  C_10 
REMARK       I    between atoms: CA_8  and  N_12 
REMARK       I    between atoms: N_12  and  C_13 
REMARK    4  A    between atoms: C_13  and  C_15 
ROOT
ATOM      1  CB  TYR d   1       4.242  -1.289  -6.116  0.00  0.00    -0.004 C 
ATOM      2  HB1 TYR d   1       3.190  -1.295  -6.401  0.00  0.00     0.034 H 
ATOM      3  HB2 TYR d   1       4.603  -2.315  -6.039  0.00  0.00     0.034 H 
ENDROOT
BRANCH   1   4
ATOM      4  CG  TYR d   1       4.396  -0.601  -4.784  0.00  0.00    -0.045 A 
ATOM      5  CD1 TYR d   1       3.290  -0.399  -3.979  0.00  0.00    -0.055 A 
ATOM      6  CE1 TYR d   1       3.430   0.226  -2.755  0.00  0.00    -0.020 A 
ATOM      7  HD1 TYR d   1       2.317  -0.734  -4.306  0.00  0.00     0.062 H 
ATOM      8  CZ  TYR d   1       4.680   0.661  -2.339  0.00  0.00     0.117 A 
ATOM      9  HE1 TYR d   1       2.566   0.379  -2.125  0.00  0.00     0.065 H 
ATOM     10  CE2 TYR d   1       5.786   0.463  -3.151  0.00  0.00    -0.020 A 
ATOM     11  CD2 TYR d   1       5.643  -0.168  -4.371  0.00  0.00    -0.055 A 
ATOM     12  HE2 TYR d   1       6.761   0.800  -2.829  0.00  0.00     0.065 H 
ATOM     13  HD2 TYR d   1       6.504  -0.322  -5.003  0.00  0.00     0.062 H 
BRANCH   8  14
ATOM     14  OH  TYR d   1       4.819   1.282  -1.137  0.00  0.00    -0.507 OA
ATOM     15  HH  TYR d   1       5.737   1.400  -0.860  0.00  0.00     0.292 HD
ENDBRANCH   8  14
ENDBRANCH   1   4
BRANCH   1  16
ATOM     16  CA  TYR d   1       5.052  -0.540  -7.175  0.00  0.00     0.067 C 
ATOM     17  HA  TYR d   1       5.819   0.061  -6.688  0.00  0.00     0.056 H 
ATOM     18  C   TYR d   1       5.705  -1.532  -8.103  0.00  0.00     0.062 C 
ATOM     19  O   TYR d   1       5.453  -1.511  -9.284  0.00  0.00    -0.548 OA
ATOM     20  OXT TYR d   1       6.567  -2.438  -7.617  0.00  0.00    -0.548 OA
ATOM     21  N   TYR d   1       4.161   0.335  -7.943  0.00  0.00    -0.300 N 
ATOM     22  C   UNK d   0       4.656   1.428  -8.557  0.00  0.00     0.318 C 
ATOM     23  H   TYR d   1       3.217   0.126  -8.010  0.00  0.00     0.150 HD
ATOM     24  O   UNK d   0       5.837   1.690  -8.472  0.00  0.00    -0.266 OA
BRANCH  22  25
ATOM     25  C   UNK d   0       3.740   2.328  -9.346  0.00  0.00     0.469 C 
ATOM     26  F   UNK d   0       2.425   2.164  -8.897  0.00  0.00    -0.162 F 
ATOM     27  F   UNK d   0       4.130   3.660  -9.169  0.00  0.00    -0.162 F 
ATOM     28  F   UNK d   0       3.815   1.996 -10.702  0.00  0.00    -0.162 F 
ENDBRANCH  22  25
ENDBRANCH   1  16
TORSDOF 6
ENDMDL
MODEL 7
REMARK VINA RESULT:      -5.9      2.924      5.443
REMARK  4 active torsions:
REMARK  status: ('A' for Active; 'I' for Inactive)
REMARK    1  A    between atoms: CZ_3  and  OH_19 
REMARK    2  A    between atoms: CG_6  and  CB_7 
REMARK    3  A    between atoms: CB_7  and  CA_8 
REMARK       I    between atoms: CA_8  and  C_10 
REMARK       I    between atoms: CA_8  and  N_12 
REMARK       I    between atoms: N_12  and  C_13 
REMARK    4  A    between atoms: C_13  and  C_15 
ROOT
ATOM      1  CB  TYR d   1       5.327  -2.750  -5.256  0.00  0.00    -0.004 C 
ATOM      2  HB1 TYR d   1       4.506  -3.077  -4.618  0.00  0.00     0.034 H 
ATOM      3  HB2 TYR d   1       5.102  -2.997  -6.293  0.00  0.00     0.034 H 
ENDROOT
BRANCH   1   4
ATOM      4  CG  TYR d   1       6.595  -3.446  -4.837  0.00  0.00    -0.045 A 
ATOM      5  CD1 TYR d   1       6.877  -4.713  -5.314  0.00  0.00    -0.055 A 
ATOM      6  CE1 TYR d   1       8.043  -5.352  -4.937  0.00  0.00    -0.020 A 
ATOM      7  HD1 TYR d   1       6.187  -5.202  -5.986  0.00  0.00     0.062 H 
ATOM      8  CZ  TYR d   1       8.925  -4.725  -4.070  0.00  0.00     0.117 A 
ATOM      9  HE1 TYR d   1       8.263  -6.340  -5.314  0.00  0.00     0.065 H 
ATOM     10  CE2 TYR d   1       8.638  -3.457  -3.588  0.00  0.00    -0.020 A 
ATOM     11  CD2 TYR d   1       7.474  -2.820  -3.973  0.00  0.00    -0.055 A 
ATOM     12  HE2 TYR d   1       9.324  -2.966  -2.913  0.00  0.00     0.065 H 
ATOM     13  HD2 TYR d   1       7.250  -1.832  -3.598  0.00  0.00     0.062 H 
BRANCH   8  14
ATOM     14  OH  TYR d   1      10.070  -5.354  -3.692  0.00  0.00    -0.507 OA
ATOM     15  HH  TYR d   1      10.668  -5.556  -4.425  0.00  0.00     0.292 HD
ENDBRANCH   8  14
ENDBRANCH   1   4
BRANCH   1  16
ATOM     16  CA  TYR d   1       5.506  -1.236  -5.119  0.00  0.00     0.067 C 
ATOM     17  HA  TYR d   1       6.528  -1.018  -4.810  0.00  0.00     0.056 H 
ATOM     18  C   TYR d   1       5.230  -0.576  -6.445  0.00  0.00     0.062 C 
ATOM     19  O   TYR d   1       4.344   0.240  -6.541  0.00  0.00    -0.548 OA
ATOM     20  OXT TYR d   1       5.969  -0.893  -7.520  0.00  0.00    -0.548 OA
ATOM     21  N   TYR d   1       4.572  -0.723  -4.113  0.00  0.00    -0.300 N 
ATOM     22  C   UNK d   0       4.851   0.420  -3.457  0.00  0.00     0.318 C 
ATOM     23  H   TYR d   1       3.753  -1.206  -3.922  0.00  0.00     0.150 HD
ATOM     24  O   UNK d   0       5.875   1.024  -3.696  0.00  0.00    -0.266 OA
BRANCH  22  25
ATOM     25  C   UNK d   0       3.891   0.948  -2.422  0.00  0.00     0.469 C 
ATOM     26  F   UNK d   0       4.541   1.040  -1.187  0.00  0.00    -0.162 F 
ATOM     27  F   UNK d   0       3.441   2.216  -2.807  0.00  0.00    -0.162 F 
ATOM     28  F   UNK d   0       2.799   0.081  -2.312  0.00  0.00    -0.162 F 
ENDBRANCH  22  25
ENDBRANCH   1  16
TORSDOF 6
ENDMDL
MODEL 8
REMARK VINA RESULT:      -5.8      2.749      4.637
REMARK  4 active torsions:
REMARK  status: ('A' for Active; 'I' for Inactive)
REMARK    1  A    between atoms: CZ_3  and  OH_19 
REMARK    2  A    between atoms: CG_6  and  CB_7 
REMARK    3  A    between atoms: CB_7  and  CA_8 
REMARK       I    between atoms: CA_8  and  C_10 
REMARK       I    between atoms: CA_8  and  N_12 
REMARK       I    between atoms: N_12  and  C_13 
REMARK    4  A    between atoms: C_13  and  C_15 
ROOT
ATOM      1  CB  TYR d   1       4.342  -2.333  -7.324  0.00  0.00    -0.004 C 
ATOM      2  HB1 TYR d   1       3.271  -2.438  -7.496  0.00  0.00     0.034 H 
ATOM      3  HB2 TYR d   1       4.839  -2.092  -8.264  0.00  0.00     0.034 H 
ENDROOT
BRANCH   1   4
ATOM      4  CG  TYR d   1       4.892  -3.627  -6.783  0.00  0.00    -0.045 A 
ATOM      5  CD1 TYR d   1       6.228  -3.718  -6.437  0.00  0.00    -0.055 A 
ATOM      6  CE1 TYR d   1       6.734  -4.902  -5.934  0.00  0.00    -0.020 A 
ATOM      7  HD1 TYR d   1       6.875  -2.862  -6.555  0.00  0.00     0.062 H 
ATOM      8  CZ  TYR d   1       5.903  -6.002  -5.788  0.00  0.00     0.117 A 
ATOM      9  HE1 TYR d   1       7.776  -4.969  -5.660  0.00  0.00     0.065 H 
ATOM     10  CE2 TYR d   1       4.565  -5.910  -6.141  0.00  0.00    -0.020 A 
ATOM     11  CD2 TYR d   1       4.063  -4.724  -6.638  0.00  0.00    -0.055 A 
ATOM     12  HE2 TYR d   1       3.916  -6.766  -6.028  0.00  0.00     0.065 H 
ATOM     13  HD2 TYR d   1       3.021  -4.652  -6.913  0.00  0.00     0.062 H 
BRANCH   8  14
ATOM     14  OH  TYR d   1       6.400  -7.170  -5.299  0.00  0.00    -0.507 OA
ATOM     15  HH  TYR d   1       7.070  -7.578  -5.863  0.00  0.00     0.292 HD
ENDBRANCH   8  14
ENDBRANCH   1   4
BRANCH   1  16
ATOM     16  CA  TYR d   1       4.588  -1.211  -6.314  0.00  0.00     0.067 C 
ATOM     17  HA  TYR d   1       5.659  -1.109  -6.138  0.00  0.00     0.056 H 
ATOM     18  C   TYR d   1       4.043   0.084  -6.857  0.00  0.00     0.062 C 
ATOM     19  O   TYR d   1       3.180   0.677  -6.254  0.00  0.00    -0.548 OA
ATOM     20  OXT TYR d   1       4.515   0.579  -8.012  0.00  0.00    -0.548 OA
ATOM     21  N   TYR d   1       3.916  -1.534  -5.052  0.00  0.00    -0.300 N 
ATOM     22  C   UNK d   0       4.365  -1.008  -3.896  0.00  0.00     0.318 C 
ATOM     23  H   TYR d   1       3.147  -2.125  -5.050  0.00  0.00     0.150 HD
ATOM     24  O   UNK d   0       5.327  -0.269  -3.898  0.00  0.00    -0.266 OA
BRANCH  22  25
ATOM     25  C   UNK d   0       3.675  -1.340  -2.598  0.00  0.00     0.469 C 
ATOM     26  F   UNK d   0       4.286  -0.641  -1.552  0.00  0.00    -0.162 F 
ATOM     27  F   UNK d   0       2.327  -0.971  -2.680  0.00  0.00    -0.162 F 
ATOM     28  F   UNK d   0       3.767  -2.715  -2.358  0.00  0.00    -0.162 F 
ENDBRANCH  22  25
ENDBRANCH   1  16
TORSDOF 6
ENDMDL
MODEL 9
REMARK VINA RESULT:      -5.7      3.232      3.944
REMARK  4 active torsions:
REMARK  status: ('A' for Active; 'I' for Inactive)
REMARK    1  A    between atoms: CZ_3  and  OH_19 
REMARK    2  A    between atoms: CG_6  and  CB_7 
REMARK    3  A    between atoms: CB_7  and  CA_8 
REMARK       I    between atoms: CA_8  and  C_10 
REMARK       I    between atoms: CA_8  and  N_12 
REMARK       I    between atoms: N_12  and  C_13 
REMARK    4  A    between atoms: C_13  and  C_15 
ROOT
ATOM      1  CB  TYR d   1       7.539  -2.106  -4.993  0.00  0.00    -0.004 C 
ATOM      2  HB1 TYR d   1       8.278  -2.068  -5.793  0.00  0.00     0.034 H 
ATOM      3  HB2 TYR d   1       7.989  -2.545  -4.103  0.00  0.00     0.034 H 
ENDROOT
BRANCH   1   4
ATOM      4  CG  TYR d   1       6.368  -2.946  -5.432  0.00  0.00    -0.045 A 
ATOM      5  CD1 TYR d   1       6.083  -3.084  -6.778  0.00  0.00    -0.055 A 
ATOM      6  CE1 TYR d   1       5.014  -3.860  -7.184  0.00  0.00    -0.020 A 
ATOM      7  HD1 TYR d   1       6.700  -2.588  -7.514  0.00  0.00     0.062 H 
ATOM      8  CZ  TYR d   1       4.220  -4.491  -6.239  0.00  0.00     0.117 A 
ATOM      9  HE1 TYR d   1       4.796  -3.970  -8.236  0.00  0.00     0.065 H 
ATOM     10  CE2 TYR d   1       4.504  -4.347  -4.889  0.00  0.00    -0.020 A 
ATOM     11  CD2 TYR d   1       5.577  -3.575  -4.489  0.00  0.00    -0.055 A 
ATOM     12  HE2 TYR d   1       3.887  -4.838  -4.151  0.00  0.00     0.065 H 
ATOM     13  HD2 TYR d   1       5.798  -3.463  -3.437  0.00  0.00     0.062 H 
BRANCH   8  14
ATOM     14  OH  TYR d   1       3.163  -5.250  -6.635  0.00  0.00    -0.507 OA
ATOM     15  HH  TYR d   1       2.307  -4.812  -6.538  0.00  0.00     0.292 HD
ENDBRANCH   8  14
ENDBRANCH   1   4
BRANCH   1  16
ATOM     16  CA  TYR d   1       7.060  -0.688  -4.676  0.00  0.00     0.067 C 
ATOM     17  HA  TYR d   1       7.873  -0.122  -4.222  0.00  0.00     0.056 H 
ATOM     18  C   TYR d   1       6.624  -0.008  -5.949  0.00  0.00     0.062 C 
ATOM     19  O   TYR d   1       5.487   0.384  -6.066  0.00  0.00    -0.548 OA
ATOM     20  OXT TYR d   1       7.500   0.163  -6.951  0.00  0.00    -0.548 OA
ATOM     21  N   TYR d   1       5.930  -0.751  -3.745  0.00  0.00    -0.300 N 
ATOM     22  C   UNK d   0       5.660   0.297  -2.941  0.00  0.00     0.318 C 
ATOM     23  H   TYR d   1       5.376  -1.547  -3.707  0.00  0.00     0.150 HD
ATOM     24  O   UNK d   0       6.352   1.291  -2.987  0.00  0.00    -0.266 OA
BRANCH  22  25
ATOM     25  C   UNK d   0       4.499   0.231  -1.983  0.00  0.00     0.469 C 
ATOM     26  F   UNK d   0       4.442  -1.041  -1.405  0.00  0.00    -0.162 F 
ATOM     27  F   UNK d   0       4.669   1.191  -0.979  0.00  0.00    -0.162 F 
ATOM     28  F   UNK d   0       3.309   0.485  -2.672  0.00  0.00    -0.162 F 
ENDBRANCH  22  25
ENDBRANCH   1  16
TORSDOF 6
ENDMDL
