MODEL 1
REMARK VINA RESULT:      -6.9      0.000      0.000
REMARK  10 active torsions:
REMARK  status: ('A' for Active; 'I' for Inactive)
REMARK    1  A    between atoms: C_5  and  O_7 
REMARK    2  A    between atoms: O_7  and  C_8 
REMARK    3  A    between atoms: C_8  and  C_10 
REMARK    4  A    between atoms: C_10  and  C_11 
REMARK    5  A    between atoms: C_11  and  C_12 
REMARK    6  A    between atoms: C_12  and  C_13 
REMARK    7  A    between atoms: C_13  and  C_14 
REMARK    8  A    between atoms: C_14  and  C_15 
REMARK    9  A    between atoms: C_15  and  C_16 
REMARK   10  A    between atoms: C_16  and  C_17 
ROOT
ATOM      1  C   LIG d   1       5.254  -5.498  -5.900  0.00  0.00     0.389 C 
ATOM      2  F   LIG d   1       4.045  -5.888  -5.316  0.00  0.00    -0.192 F 
ATOM      3  F   LIG d   1       6.318  -5.911  -5.091  0.00  0.00    -0.192 F 
ENDROOT
BRANCH   1   4
ATOM      4  C   LIG d   1       5.385  -6.140  -7.282  0.00  0.00     0.410 C 
ATOM      5  F   LIG d   1       6.735  -6.198  -7.645  0.00  0.00    -0.186 F 
ATOM      6  F   LIG d   1       4.683  -5.376  -8.220  0.00  0.00    -0.186 F 
BRANCH   4   7
ATOM      7  C   LIG d   1       4.816  -7.535  -7.243  0.00  0.00     0.390 C 
ATOM      8  O   LIG d   1       3.706  -7.747  -7.671  0.00  0.00    -0.243 OA
BRANCH   7   9
ATOM      9  O   LIG d   1       5.542  -8.543  -6.732  0.00  0.00    -0.403 OA
BRANCH   9  10
ATOM     10  C   LIG d   1       4.929  -9.403  -5.879  0.00  0.00     0.224 A 
ATOM     11  N   LIG d   1       4.562 -10.598  -6.307  0.00  0.00    -0.221 NA
ATOM     12  C   LIG d   1       3.964 -11.465  -5.512  0.00  0.00     0.031 A 
ATOM     13  C   LIG d   1       3.698 -11.150  -4.194  0.00  0.00    -0.043 A 
ATOM     14  H   LIG d   1       3.679 -12.434  -5.896  0.00  0.00     0.083 H 
ATOM     15  C   LIG d   1       4.068  -9.904  -3.706  0.00  0.00    -0.055 A 
ATOM     16  H   LIG d   1       3.209 -11.865  -3.550  0.00  0.00     0.063 H 
ATOM     17  C   LIG d   1       4.694  -9.018  -4.566  0.00  0.00     0.001 A 
ATOM     18  H   LIG d   1       3.868  -9.631  -2.681  0.00  0.00     0.062 H 
ATOM     19  H   LIG d   1       4.995  -8.041  -4.220  0.00  0.00     0.067 H 
ENDBRANCH   9  10
ENDBRANCH   7   9
ENDBRANCH   4   7
ENDBRANCH   1   4
BRANCH   1  20
ATOM     20  C   LIG d   1       5.285  -3.974  -6.041  0.00  0.00     0.384 C 
ATOM     21  F   LIG d   1       6.422  -3.594  -6.762  0.00  0.00    -0.192 F 
ATOM     22  F   LIG d   1       4.139  -3.545  -6.720  0.00  0.00    -0.192 F 
BRANCH  20  23
ATOM     23  C   LIG d   1       5.324  -3.334  -4.652  0.00  0.00     0.384 C 
ATOM     24  F   LIG d   1       4.448  -4.015  -3.800  0.00  0.00    -0.192 F 
ATOM     25  F   LIG d   1       6.624  -3.408  -4.140  0.00  0.00    -0.192 F 
BRANCH  23  26
ATOM     26  C   LIG d   1       4.899  -1.868  -4.754  0.00  0.00     0.384 C 
ATOM     27  F   LIG d   1       5.773  -1.188  -5.608  0.00  0.00    -0.192 F 
ATOM     28  F   LIG d   1       3.597  -1.794  -5.262  0.00  0.00    -0.192 F 
BRANCH  26  29
ATOM     29  C   LIG d   1       4.941  -1.227  -3.366  0.00  0.00     0.387 C 
ATOM     30  F   LIG d   1       4.662  -2.195  -2.396  0.00  0.00    -0.192 F 
ATOM     31  F   LIG d   1       6.214  -0.693  -3.137  0.00  0.00    -0.192 F 
BRANCH  29  32
ATOM     32  C   LIG d   1       3.899  -0.110  -3.286  0.00  0.00     0.409 C 
ATOM     33  F   LIG d   1       3.804   0.529  -4.528  0.00  0.00    -0.189 F 
ATOM     34  F   LIG d   1       2.655  -0.656  -2.949  0.00  0.00    -0.189 F 
BRANCH  32  35
ATOM     35  C   LIG d   1       4.317   0.904  -2.221  0.00  0.00     0.460 C 
ATOM     36  F   LIG d   1       3.251   1.771  -1.957  0.00  0.00    -0.165 F 
ATOM     37  F   LIG d   1       4.671   0.229  -1.047  0.00  0.00    -0.165 F 
ATOM     38  F   LIG d   1       5.413   1.641  -2.683  0.00  0.00    -0.165 F 
ENDBRANCH  32  35
ENDBRANCH  29  32
ENDBRANCH  26  29
ENDBRANCH  23  26
ENDBRANCH  20  23
ENDBRANCH   1  20
TORSDOF 10
ENDMDL
MODEL 2
REMARK VINA RESULT:      -6.8      4.648      6.402
REMARK  10 active torsions:
REMARK  status: ('A' for Active; 'I' for Inactive)
REMARK    1  A    between atoms: C_5  and  O_7 
REMARK    2  A    between atoms: O_7  and  C_8 
REMARK    3  A    between atoms: C_8  and  C_10 
REMARK    4  A    between atoms: C_10  and  C_11 
REMARK    5  A    between atoms: C_11  and  C_12 
REMARK    6  A    between atoms: C_12  and  C_13 
REMARK    7  A    between atoms: C_13  and  C_14 
REMARK    8  A    between atoms: C_14  and  C_15 
REMARK    9  A    between atoms: C_15  and  C_16 
REMARK   10  A    between atoms: C_16  and  C_17 
ROOT
ATOM      1  C   LIG d   1       5.194  -2.591  -8.523  0.00  0.00     0.389 C 
ATOM      2  F   LIG d   1       3.831  -2.335  -8.703  0.00  0.00    -0.192 F 
ATOM      3  F   LIG d   1       5.383  -3.955  -8.273  0.00  0.00    -0.192 F 
ENDROOT
BRANCH   1   4
ATOM      4  C   LIG d   1       5.959  -2.192  -9.785  0.00  0.00     0.410 C 
ATOM      5  F   LIG d   1       6.670  -3.297 -10.270  0.00  0.00    -0.186 F 
ATOM      6  F   LIG d   1       6.853  -1.160  -9.483  0.00  0.00    -0.186 F 
BRANCH   4   7
ATOM      7  C   LIG d   1       4.986  -1.723 -10.835  0.00  0.00     0.390 C 
ATOM      8  O   LIG d   1       4.195  -2.500 -11.317  0.00  0.00    -0.243 OA
BRANCH   7   9
ATOM      9  O   LIG d   1       4.995  -0.440 -11.236  0.00  0.00    -0.403 OA
BRANCH   9  10
ATOM     10  C   LIG d   1       4.429   0.486 -10.421  0.00  0.00     0.224 A 
ATOM     11  N   LIG d   1       5.132   1.539 -10.040  0.00  0.00    -0.221 NA
ATOM     12  C   LIG d   1       4.621   2.464  -9.249  0.00  0.00     0.031 A 
ATOM     13  C   LIG d   1       3.324   2.362  -8.789  0.00  0.00    -0.043 A 
ATOM     14  H   LIG d   1       5.225   3.311  -8.959  0.00  0.00     0.083 H 
ATOM     15  C   LIG d   1       2.552   1.271  -9.166  0.00  0.00    -0.055 A 
ATOM     16  H   LIG d   1       2.913   3.124  -8.142  0.00  0.00     0.063 H 
ATOM     17  C   LIG d   1       3.118   0.319  -9.996  0.00  0.00     0.001 A 
ATOM     18  H   LIG d   1       1.537   1.166  -8.816  0.00  0.00     0.062 H 
ATOM     19  H   LIG d   1       2.547  -0.542 -10.309  0.00  0.00     0.067 H 
ENDBRANCH   9  10
ENDBRANCH   7   9
ENDBRANCH   4   7
ENDBRANCH   1   4
BRANCH   1  20
ATOM     20  C   LIG d   1       5.714  -1.779  -7.334  0.00  0.00     0.384 C 
ATOM     21  F   LIG d   1       6.942  -2.301  -6.913  0.00  0.00    -0.192 F 
ATOM     22  F   LIG d   1       5.882  -0.444  -7.718  0.00  0.00    -0.192 F 
BRANCH  20  23
ATOM     23  C   LIG d   1       4.706  -1.855  -6.185  0.00  0.00     0.384 C 
ATOM     24  F   LIG d   1       3.607  -1.039  -6.474  0.00  0.00    -0.192 F 
ATOM     25  F   LIG d   1       4.276  -3.178  -6.028  0.00  0.00    -0.192 F 
BRANCH  23  26
ATOM     26  C   LIG d   1       5.370  -1.378  -4.892  0.00  0.00     0.384 C 
ATOM     27  F   LIG d   1       5.977  -2.462  -4.252  0.00  0.00    -0.192 F 
ATOM     28  F   LIG d   1       6.337  -0.412  -5.193  0.00  0.00    -0.192 F 
BRANCH  26  29
ATOM     29  C   LIG d   1       4.312  -0.769  -3.970  0.00  0.00     0.387 C 
ATOM     30  F   LIG d   1       3.808   0.401  -4.547  0.00  0.00    -0.192 F 
ATOM     31  F   LIG d   1       3.269  -1.684  -3.788  0.00  0.00    -0.192 F 
BRANCH  29  32
ATOM     32  C   LIG d   1       4.942  -0.439  -2.616  0.00  0.00     0.409 C 
ATOM     33  F   LIG d   1       4.636  -1.452  -1.700  0.00  0.00    -0.189 F 
ATOM     34  F   LIG d   1       6.331  -0.346  -2.759  0.00  0.00    -0.189 F 
BRANCH  32  35
ATOM     35  C   LIG d   1       4.391   0.893  -2.107  0.00  0.00     0.460 C 
ATOM     36  F   LIG d   1       4.789   1.087  -0.779  0.00  0.00    -0.165 F 
ATOM     37  F   LIG d   1       4.886   1.936  -2.899  0.00  0.00    -0.165 F 
ATOM     38  F   LIG d   1       2.994   0.877  -2.177  0.00  0.00    -0.165 F 
ENDBRANCH  32  35
ENDBRANCH  29  32
ENDBRANCH  26  29
ENDBRANCH  23  26
ENDBRANCH  20  23
ENDBRANCH   1  20
TORSDOF 10
ENDMDL
MODEL 3
REMARK VINA RESULT:      -6.7      1.153      2.116
REMARK  10 active torsions:
REMARK  status: ('A' for Active; 'I' for Inactive)
REMARK    1  A    between atoms: C_5  and  O_7 
REMARK    2  A    between atoms: O_7  and  C_8 
REMARK    3  A    between atoms: C_8  and  C_10 
REMARK    4  A    between atoms: C_10  and  C_11 
REMARK    5  A    between atoms: C_11  and  C_12 
REMARK    6  A    between atoms: C_12  and  C_13 
REMARK    7  A    between atoms: C_13  and  C_14 
REMARK    8  A    between atoms: C_14  and  C_15 
REMARK    9  A    between atoms: C_15  and  C_16 
REMARK   10  A    between atoms: C_16  and  C_17 
ROOT
ATOM      1  C   LIG d   1       5.074  -4.600  -6.805  0.00  0.00     0.389 C 
ATOM      2  F   LIG d   1       5.214  -3.832  -7.966  0.00  0.00    -0.192 F 
ATOM      3  F   LIG d   1       3.717  -4.722  -6.489  0.00  0.00    -0.192 F 
ENDROOT
BRANCH   1   4
ATOM      4  C   LIG d   1       5.672  -5.988  -7.036  0.00  0.00     0.410 C 
ATOM      5  F   LIG d   1       6.851  -6.118  -6.293  0.00  0.00    -0.186 F 
ATOM      6  F   LIG d   1       5.958  -6.152  -8.395  0.00  0.00    -0.186 F 
BRANCH   4   7
ATOM      7  C   LIG d   1       4.685  -7.039  -6.599  0.00  0.00     0.390 C 
ATOM      8  O   LIG d   1       3.970  -7.573  -7.414  0.00  0.00    -0.243 OA
BRANCH   7   9
ATOM      9  O   LIG d   1       4.601  -7.384  -5.303  0.00  0.00    -0.403 OA
BRANCH   9  10
ATOM     10  C   LIG d   1       4.879  -8.669  -4.966  0.00  0.00     0.224 A 
ATOM     11  N   LIG d   1       3.914  -9.449  -4.510  0.00  0.00    -0.221 NA
ATOM     12  C   LIG d   1       4.141 -10.705  -4.171  0.00  0.00     0.031 A 
ATOM     13  C   LIG d   1       5.405 -11.250  -4.282  0.00  0.00    -0.043 A 
ATOM     14  H   LIG d   1       3.328 -11.313  -3.804  0.00  0.00     0.083 H 
ATOM     15  C   LIG d   1       6.445 -10.463  -4.756  0.00  0.00    -0.055 A 
ATOM     16  H   LIG d   1       5.582 -12.278  -4.003  0.00  0.00     0.063 H 
ATOM     17  C   LIG d   1       6.174  -9.151  -5.103  0.00  0.00     0.001 A 
ATOM     18  H   LIG d   1       7.443 -10.863  -4.848  0.00  0.00     0.062 H 
ATOM     19  H   LIG d   1       6.959  -8.510  -5.475  0.00  0.00     0.067 H 
ENDBRANCH   9  10
ENDBRANCH   7   9
ENDBRANCH   4   7
ENDBRANCH   1   4
BRANCH   1  20
ATOM     20  C   LIG d   1       5.806  -3.915  -5.648  0.00  0.00     0.384 C 
ATOM     21  F   LIG d   1       5.608  -4.646  -4.472  0.00  0.00    -0.192 F 
ATOM     22  F   LIG d   1       7.175  -3.853  -5.934  0.00  0.00    -0.192 F 
BRANCH  20  23
ATOM     23  C   LIG d   1       5.259  -2.497  -5.467  0.00  0.00     0.384 C 
ATOM     24  F   LIG d   1       6.110  -1.584  -6.099  0.00  0.00    -0.192 F 
ATOM     25  F   LIG d   1       3.982  -2.414  -6.032  0.00  0.00    -0.192 F 
BRANCH  23  26
ATOM     26  C   LIG d   1       5.179  -2.170  -3.975  0.00  0.00     0.384 C 
ATOM     27  F   LIG d   1       4.110  -2.866  -3.401  0.00  0.00    -0.192 F 
ATOM     28  F   LIG d   1       6.372  -2.548  -3.349  0.00  0.00    -0.192 F 
BRANCH  26  29
ATOM     29  C   LIG d   1       4.963  -0.666  -3.793  0.00  0.00     0.387 C 
ATOM     30  F   LIG d   1       6.201  -0.029  -3.660  0.00  0.00    -0.192 F 
ATOM     31  F   LIG d   1       4.294  -0.152  -4.910  0.00  0.00    -0.192 F 
BRANCH  29  32
ATOM     32  C   LIG d   1       4.125  -0.417  -2.538  0.00  0.00     0.409 C 
ATOM     33  F   LIG d   1       2.780  -0.690  -2.814  0.00  0.00    -0.189 F 
ATOM     34  F   LIG d   1       4.567  -1.255  -1.509  0.00  0.00    -0.189 F 
BRANCH  32  35
ATOM     35  C   LIG d   1       4.272   1.043  -2.107  0.00  0.00     0.460 C 
ATOM     36  F   LIG d   1       3.008   1.640  -2.040  0.00  0.00    -0.165 F 
ATOM     37  F   LIG d   1       4.881   1.098  -0.848  0.00  0.00    -0.165 F 
ATOM     38  F   LIG d   1       5.061   1.726  -3.038  0.00  0.00    -0.165 F 
ENDBRANCH  32  35
ENDBRANCH  29  32
ENDBRANCH  26  29
ENDBRANCH  23  26
ENDBRANCH  20  23
ENDBRANCH   1  20
TORSDOF 10
ENDMDL
MODEL 4
REMARK VINA RESULT:      -6.7      4.863      6.502
REMARK  10 active torsions:
REMARK  status: ('A' for Active; 'I' for Inactive)
REMARK    1  A    between atoms: C_5  and  O_7 
REMARK    2  A    between atoms: O_7  and  C_8 
REMARK    3  A    between atoms: C_8  and  C_10 
REMARK    4  A    between atoms: C_10  and  C_11 
REMARK    5  A    between atoms: C_11  and  C_12 
REMARK    6  A    between atoms: C_12  and  C_13 
REMARK    7  A    between atoms: C_13  and  C_14 
REMARK    8  A    between atoms: C_14  and  C_15 
REMARK    9  A    between atoms: C_15  and  C_16 
REMARK   10  A    between atoms: C_16  and  C_17 
ROOT
ATOM      1  C   LIG d   1       7.117  -0.933  -7.360  0.00  0.00     0.389 C 
ATOM      2  F   LIG d   1       8.396  -0.826  -6.804  0.00  0.00    -0.192 F 
ATOM      3  F   LIG d   1       6.484   0.313  -7.317  0.00  0.00    -0.192 F 
ENDROOT
BRANCH   1   4
ATOM      4  C   LIG d   1       7.230  -1.399  -8.813  0.00  0.00     0.410 C 
ATOM      5  F   LIG d   1       6.193  -2.295  -9.098  0.00  0.00    -0.186 F 
ATOM      6  F   LIG d   1       8.461  -2.035  -9.004  0.00  0.00    -0.186 F 
BRANCH   4   7
ATOM      7  C   LIG d   1       7.131  -0.208  -9.730  0.00  0.00     0.390 C 
ATOM      8  O   LIG d   1       8.048   0.576  -9.805  0.00  0.00    -0.243 OA
BRANCH   7   9
ATOM      9  O   LIG d   1       6.024  -0.017 -10.467  0.00  0.00    -0.403 OA
BRANCH   9  10
ATOM     10  C   LIG d   1       5.000   0.678  -9.910  0.00  0.00     0.224 A 
ATOM     11  N   LIG d   1       5.106   1.987  -9.756  0.00  0.00    -0.221 NA
ATOM     12  C   LIG d   1       4.134   2.702  -9.219  0.00  0.00     0.031 A 
ATOM     13  C   LIG d   1       2.964   2.102  -8.798  0.00  0.00    -0.043 A 
ATOM     14  H   LIG d   1       4.256   3.770  -9.110  0.00  0.00     0.083 H 
ATOM     15  C   LIG d   1       2.814   0.730  -8.943  0.00  0.00    -0.055 A 
ATOM     16  H   LIG d   1       2.174   2.694  -8.361  0.00  0.00     0.063 H 
ATOM     17  C   LIG d   1       3.851   0.009  -9.510  0.00  0.00     0.001 A 
ATOM     18  H   LIG d   1       1.911   0.235  -8.619  0.00  0.00     0.062 H 
ATOM     19  H   LIG d   1       3.769  -1.060  -9.637  0.00  0.00     0.067 H 
ENDBRANCH   9  10
ENDBRANCH   7   9
ENDBRANCH   4   7
ENDBRANCH   1   4
BRANCH   1  20
ATOM     20  C   LIG d   1       6.296  -1.949  -6.562  0.00  0.00     0.384 C 
ATOM     21  F   LIG d   1       4.982  -1.967  -7.041  0.00  0.00    -0.192 F 
ATOM     22  F   LIG d   1       6.862  -3.221  -6.704  0.00  0.00    -0.192 F 
BRANCH  20  23
ATOM     23  C   LIG d   1       6.295  -1.554  -5.084  0.00  0.00     0.384 C 
ATOM     24  F   LIG d   1       7.340  -2.211  -4.424  0.00  0.00    -0.192 F 
ATOM     25  F   LIG d   1       6.469  -0.170  -4.970  0.00  0.00    -0.192 F 
BRANCH  23  26
ATOM     26  C   LIG d   1       4.961  -1.954  -4.451  0.00  0.00     0.384 C 
ATOM     27  F   LIG d   1       3.911  -1.544  -5.277  0.00  0.00    -0.192 F 
ATOM     28  F   LIG d   1       4.917  -3.344  -4.295  0.00  0.00    -0.192 F 
BRANCH  26  29
ATOM     29  C   LIG d   1       4.824  -1.284  -3.082  0.00  0.00     0.387 C 
ATOM     30  F   LIG d   1       4.345  -2.213  -2.153  0.00  0.00    -0.192 F 
ATOM     31  F   LIG d   1       6.074  -0.812  -2.666  0.00  0.00    -0.192 F 
BRANCH  29  32
ATOM     32  C   LIG d   1       3.845  -0.112  -3.182  0.00  0.00     0.409 C 
ATOM     33  F   LIG d   1       3.871   0.406  -4.481  0.00  0.00    -0.189 F 
ATOM     34  F   LIG d   1       2.553  -0.558  -2.884  0.00  0.00    -0.189 F 
BRANCH  32  35
ATOM     35  C   LIG d   1       4.251   0.978  -2.189  0.00  0.00     0.460 C 
ATOM     36  F   LIG d   1       3.173   1.847  -1.984  0.00  0.00    -0.165 F 
ATOM     37  F   LIG d   1       4.613   0.389  -0.972  0.00  0.00    -0.165 F 
ATOM     38  F   LIG d   1       5.337   1.695  -2.702  0.00  0.00    -0.165 F 
ENDBRANCH  32  35
ENDBRANCH  29  32
ENDBRANCH  26  29
ENDBRANCH  23  26
ENDBRANCH  20  23
ENDBRANCH   1  20
TORSDOF 10
ENDMDL
MODEL 5
REMARK VINA RESULT:      -6.5      5.513      6.911
REMARK  10 active torsions:
REMARK  status: ('A' for Active; 'I' for Inactive)
REMARK    1  A    between atoms: C_5  and  O_7 
REMARK    2  A    between atoms: O_7  and  C_8 
REMARK    3  A    between atoms: C_8  and  C_10 
REMARK    4  A    between atoms: C_10  and  C_11 
REMARK    5  A    between atoms: C_11  and  C_12 
REMARK    6  A    between atoms: C_12  and  C_13 
REMARK    7  A    between atoms: C_13  and  C_14 
REMARK    8  A    between atoms: C_14  and  C_15 
REMARK    9  A    between atoms: C_15  and  C_16 
REMARK   10  A    between atoms: C_16  and  C_17 
ROOT
ATOM      1  C   LIG d   1       3.233   0.403  -9.470  0.00  0.00     0.389 C 
ATOM      2  F   LIG d   1       2.458   1.567  -9.449  0.00  0.00    -0.192 F 
ATOM      3  F   LIG d   1       2.397  -0.711  -9.601  0.00  0.00    -0.192 F 
ENDROOT
BRANCH   1   4
ATOM      4  C   LIG d   1       4.201   0.457 -10.652  0.00  0.00     0.410 C 
ATOM      5  F   LIG d   1       5.516   0.519 -10.176  0.00  0.00    -0.186 F 
ATOM      6  F   LIG d   1       3.932   1.590 -11.425  0.00  0.00    -0.186 F 
BRANCH   4   7
ATOM      7  C   LIG d   1       4.032  -0.780 -11.496  0.00  0.00     0.390 C 
ATOM      8  O   LIG d   1       4.510  -1.829 -11.135  0.00  0.00    -0.243 OA
BRANCH   7   9
ATOM      9  O   LIG d   1       3.349  -0.717 -12.652  0.00  0.00    -0.403 OA
BRANCH   9  10
ATOM     10  C   LIG d   1       2.423  -1.678 -12.898  0.00  0.00     0.224 A 
ATOM     11  N   LIG d   1       2.707  -2.660 -13.737  0.00  0.00    -0.221 NA
ATOM     12  C   LIG d   1       1.836  -3.615 -14.005  0.00  0.00     0.031 A 
ATOM     13  C   LIG d   1       0.589  -3.622 -13.413  0.00  0.00    -0.043 A 
ATOM     14  H   LIG d   1       2.103  -4.402 -14.696  0.00  0.00     0.083 H 
ATOM     15  C   LIG d   1       0.253  -2.609 -12.526  0.00  0.00    -0.055 A 
ATOM     16  H   LIG d   1      -0.117  -4.408 -13.637  0.00  0.00     0.063 H 
ATOM     17  C   LIG d   1       1.188  -1.622 -12.266  0.00  0.00     0.001 A 
ATOM     18  H   LIG d   1      -0.717  -2.588 -12.053  0.00  0.00     0.062 H 
ATOM     19  H   LIG d   1       0.960  -0.819 -11.582  0.00  0.00     0.067 H 
ENDBRANCH   9  10
ENDBRANCH   7   9
ENDBRANCH   4   7
ENDBRANCH   1   4
BRANCH   1  20
ATOM     20  C   LIG d   1       4.026   0.294  -8.165  0.00  0.00     0.384 C 
ATOM     21  F   LIG d   1       4.698  -0.932  -8.128  0.00  0.00    -0.192 F 
ATOM     22  F   LIG d   1       4.956   1.337  -8.097  0.00  0.00    -0.192 F 
BRANCH  20  23
ATOM     23  C   LIG d   1       3.067   0.387  -6.977  0.00  0.00     0.384 C 
ATOM     24  F   LIG d   1       2.752   1.729  -6.735  0.00  0.00    -0.192 F 
ATOM     25  F   LIG d   1       1.895  -0.322  -7.265  0.00  0.00    -0.192 F 
BRANCH  23  26
ATOM     26  C   LIG d   1       3.733  -0.211  -5.737  0.00  0.00     0.384 C 
ATOM     27  F   LIG d   1       3.712  -1.607  -5.823  0.00  0.00    -0.192 F 
ATOM     28  F   LIG d   1       5.058   0.232  -5.659  0.00  0.00    -0.192 F 
BRANCH  26  29
ATOM     29  C   LIG d   1       2.974   0.233  -4.485  0.00  0.00     0.387 C 
ATOM     30  F   LIG d   1       3.093   1.618  -4.333  0.00  0.00    -0.192 F 
ATOM     31  F   LIG d   1       1.622  -0.106  -4.614  0.00  0.00    -0.192 F 
BRANCH  29  32
ATOM     32  C   LIG d   1       3.559  -0.467  -3.256  0.00  0.00     0.409 C 
ATOM     33  F   LIG d   1       2.549  -1.179  -2.600  0.00  0.00    -0.189 F 
ATOM     34  F   LIG d   1       4.566  -1.351  -3.660  0.00  0.00    -0.189 F 
BRANCH  32  35
ATOM     35  C   LIG d   1       4.147   0.577  -2.306  0.00  0.00     0.460 C 
ATOM     36  F   LIG d   1       3.164   1.518  -1.980  0.00  0.00    -0.165 F 
ATOM     37  F   LIG d   1       4.595  -0.053  -1.140  0.00  0.00    -0.165 F 
ATOM     38  F   LIG d   1       5.221   1.222  -2.929  0.00  0.00    -0.165 F 
ENDBRANCH  32  35
ENDBRANCH  29  32
ENDBRANCH  26  29
ENDBRANCH  23  26
ENDBRANCH  20  23
ENDBRANCH   1  20
TORSDOF 10
ENDMDL
MODEL 6
REMARK VINA RESULT:      -6.5      1.059      2.073
REMARK  10 active torsions:
REMARK  status: ('A' for Active; 'I' for Inactive)
REMARK    1  A    between atoms: C_5  and  O_7 
REMARK    2  A    between atoms: O_7  and  C_8 
REMARK    3  A    between atoms: C_8  and  C_10 
REMARK    4  A    between atoms: C_10  and  C_11 
REMARK    5  A    between atoms: C_11  and  C_12 
REMARK    6  A    between atoms: C_12  and  C_13 
REMARK    7  A    between atoms: C_13  and  C_14 
REMARK    8  A    between atoms: C_14  and  C_15 
REMARK    9  A    between atoms: C_15  and  C_16 
REMARK   10  A    between atoms: C_16  and  C_17 
ROOT
ATOM      1  C   LIG d   1       5.541  -5.463  -6.025  0.00  0.00     0.389 C 
ATOM      2  F   LIG d   1       5.110  -5.155  -7.320  0.00  0.00    -0.192 F 
ATOM      3  F   LIG d   1       4.444  -5.862  -5.253  0.00  0.00    -0.192 F 
ENDROOT
BRANCH   1   4
ATOM      4  C   LIG d   1       6.564  -6.597  -6.084  0.00  0.00     0.410 C 
ATOM      5  F   LIG d   1       6.790  -7.089  -4.793  0.00  0.00    -0.186 F 
ATOM      6  F   LIG d   1       7.765  -6.115  -6.615  0.00  0.00    -0.186 F 
BRANCH   4   7
ATOM      7  C   LIG d   1       6.037  -7.705  -6.958  0.00  0.00     0.390 C 
ATOM      8  O   LIG d   1       6.720  -8.150  -7.850  0.00  0.00    -0.243 OA
BRANCH   7   9
ATOM      9  O   LIG d   1       4.805  -8.200  -6.746  0.00  0.00    -0.403 OA
BRANCH   9  10
ATOM     10  C   LIG d   1       4.673  -9.229  -5.870  0.00  0.00     0.224 A 
ATOM     11  N   LIG d   1       4.266  -8.989  -4.636  0.00  0.00    -0.221 NA
ATOM     12  C   LIG d   1       4.124  -9.960  -3.752  0.00  0.00     0.031 A 
ATOM     13  C   LIG d   1       4.399 -11.270  -4.091  0.00  0.00    -0.043 A 
ATOM     14  H   LIG d   1       3.788  -9.727  -2.753  0.00  0.00     0.083 H 
ATOM     15  C   LIG d   1       4.829 -11.563  -5.378  0.00  0.00    -0.055 A 
ATOM     16  H   LIG d   1       4.279 -12.058  -3.363  0.00  0.00     0.063 H 
ATOM     17  C   LIG d   1       4.968 -10.522  -6.280  0.00  0.00     0.001 A 
ATOM     18  H   LIG d   1       5.055 -12.578  -5.667  0.00  0.00     0.062 H 
ATOM     19  H   LIG d   1       5.300 -10.714  -7.289  0.00  0.00     0.067 H 
ENDBRANCH   9  10
ENDBRANCH   7   9
ENDBRANCH   4   7
ENDBRANCH   1   4
BRANCH   1  20
ATOM     20  C   LIG d   1       6.185  -4.226  -5.394  0.00  0.00     0.384 C 
ATOM     21  F   LIG d   1       7.106  -4.626  -4.420  0.00  0.00    -0.192 F 
ATOM     22  F   LIG d   1       6.843  -3.487  -6.383  0.00  0.00    -0.192 F 
BRANCH  20  23
ATOM     23  C   LIG d   1       5.101  -3.361  -4.747  0.00  0.00     0.384 C 
ATOM     24  F   LIG d   1       4.163  -2.987  -5.716  0.00  0.00    -0.192 F 
ATOM     25  F   LIG d   1       4.463  -4.089  -3.737  0.00  0.00    -0.192 F 
BRANCH  23  26
ATOM     26  C   LIG d   1       5.741  -2.108  -4.147  0.00  0.00     0.384 C 
ATOM     27  F   LIG d   1       6.849  -2.474  -3.376  0.00  0.00    -0.192 F 
ATOM     28  F   LIG d   1       6.150  -1.253  -5.176  0.00  0.00    -0.192 F 
BRANCH  26  29
ATOM     29  C   LIG d   1       4.721  -1.388  -3.263  0.00  0.00     0.387 C 
ATOM     30  F   LIG d   1       3.427  -1.696  -3.697  0.00  0.00    -0.192 F 
ATOM     31  F   LIG d   1       4.877  -1.803  -1.936  0.00  0.00    -0.192 F 
BRANCH  29  32
ATOM     32  C   LIG d   1       4.942   0.123  -3.353  0.00  0.00     0.409 C 
ATOM     33  F   LIG d   1       6.262   0.423  -2.996  0.00  0.00    -0.189 F 
ATOM     34  F   LIG d   1       4.706   0.552  -4.664  0.00  0.00    -0.189 F 
BRANCH  32  35
ATOM     35  C   LIG d   1       3.981   0.838  -2.401  0.00  0.00     0.460 C 
ATOM     36  F   LIG d   1       3.696   2.115  -2.898  0.00  0.00    -0.165 F 
ATOM     37  F   LIG d   1       2.795   0.102  -2.297  0.00  0.00    -0.165 F 
ATOM     38  F   LIG d   1       4.573   0.950  -1.138  0.00  0.00    -0.165 F 
ENDBRANCH  32  35
ENDBRANCH  29  32
ENDBRANCH  26  29
ENDBRANCH  23  26
ENDBRANCH  20  23
ENDBRANCH   1  20
TORSDOF 10
ENDMDL
MODEL 7
REMARK VINA RESULT:      -6.5      1.219      2.001
REMARK  10 active torsions:
REMARK  status: ('A' for Active; 'I' for Inactive)
REMARK    1  A    between atoms: C_5  and  O_7 
REMARK    2  A    between atoms: O_7  and  C_8 
REMARK    3  A    between atoms: C_8  and  C_10 
REMARK    4  A    between atoms: C_10  and  C_11 
REMARK    5  A    between atoms: C_11  and  C_12 
REMARK    6  A    between atoms: C_12  and  C_13 
REMARK    7  A    between atoms: C_13  and  C_14 
REMARK    8  A    between atoms: C_14  and  C_15 
REMARK    9  A    between atoms: C_15  and  C_16 
REMARK   10  A    between atoms: C_16  and  C_17 
ROOT
ATOM      1  C   LIG d   1       6.187  -5.125  -6.095  0.00  0.00     0.389 C 
ATOM      2  F   LIG d   1       6.759  -5.860  -5.052  0.00  0.00    -0.192 F 
ATOM      3  F   LIG d   1       7.171  -4.337  -6.702  0.00  0.00    -0.192 F 
ENDROOT
BRANCH   1   4
ATOM      4  C   LIG d   1       5.591  -6.082  -7.127  0.00  0.00     0.410 C 
ATOM      5  F   LIG d   1       5.547  -5.454  -8.377  0.00  0.00    -0.186 F 
ATOM      6  F   LIG d   1       4.295  -6.438  -6.739  0.00  0.00    -0.186 F 
BRANCH   4   7
ATOM      7  C   LIG d   1       6.446  -7.320  -7.217  0.00  0.00     0.390 C 
ATOM      8  O   LIG d   1       7.617  -7.226  -7.498  0.00  0.00    -0.243 OA
BRANCH   7   9
ATOM      9  O   LIG d   1       5.906  -8.528  -6.985  0.00  0.00    -0.403 OA
BRANCH   9  10
ATOM     10  C   LIG d   1       5.880  -8.980  -5.705  0.00  0.00     0.224 A 
ATOM     11  N   LIG d   1       7.009  -9.080  -5.024  0.00  0.00    -0.221 NA
ATOM     12  C   LIG d   1       7.030  -9.514  -3.777  0.00  0.00     0.031 A 
ATOM     13  C   LIG d   1       5.862  -9.881  -3.137  0.00  0.00    -0.043 A 
ATOM     14  H   LIG d   1       7.971  -9.581  -3.252  0.00  0.00     0.083 H 
ATOM     15  C   LIG d   1       4.656  -9.790  -3.818  0.00  0.00    -0.055 A 
ATOM     16  H   LIG d   1       5.888 -10.234  -2.117  0.00  0.00     0.063 H 
ATOM     17  C   LIG d   1       4.669  -9.331  -5.124  0.00  0.00     0.001 A 
ATOM     18  H   LIG d   1       3.730 -10.075  -3.342  0.00  0.00     0.062 H 
ATOM     19  H   LIG d   1       3.750  -9.248  -5.684  0.00  0.00     0.067 H 
ENDBRANCH   9  10
ENDBRANCH   7   9
ENDBRANCH   4   7
ENDBRANCH   1   4
BRANCH   1  20
ATOM     20  C   LIG d   1       5.084  -4.222  -5.538  0.00  0.00     0.384 C 
ATOM     21  F   LIG d   1       4.274  -3.774  -6.587  0.00  0.00    -0.192 F 
ATOM     22  F   LIG d   1       4.307  -4.944  -4.626  0.00  0.00    -0.192 F 
BRANCH  20  23
ATOM     23  C   LIG d   1       5.716  -3.021  -4.832  0.00  0.00     0.384 C 
ATOM     24  F   LIG d   1       6.739  -3.462  -3.987  0.00  0.00    -0.192 F 
ATOM     25  F   LIG d   1       6.244  -2.143  -5.785  0.00  0.00    -0.192 F 
BRANCH  23  26
ATOM     26  C   LIG d   1       4.650  -2.297  -4.007  0.00  0.00     0.384 C 
ATOM     27  F   LIG d   1       3.520  -2.071  -4.800  0.00  0.00    -0.192 F 
ATOM     28  F   LIG d   1       4.298  -3.084  -2.905  0.00  0.00    -0.192 F 
BRANCH  26  29
ATOM     29  C   LIG d   1       5.206  -0.957  -3.519  0.00  0.00     0.387 C 
ATOM     30  F   LIG d   1       6.520  -1.132  -3.072  0.00  0.00    -0.192 F 
ATOM     31  F   LIG d   1       5.191  -0.035  -4.571  0.00  0.00    -0.192 F 
BRANCH  29  32
ATOM     32  C   LIG d   1       4.342  -0.434  -2.370  0.00  0.00     0.409 C 
ATOM     33  F   LIG d   1       2.991  -0.643  -2.669  0.00  0.00    -0.189 F 
ATOM     34  F   LIG d   1       4.669  -1.117  -1.193  0.00  0.00    -0.189 F 
BRANCH  32  35
ATOM     35  C   LIG d   1       4.597   1.062  -2.179  0.00  0.00     0.460 C 
ATOM     36  F   LIG d   1       3.552   1.791  -2.757  0.00  0.00    -0.165 F 
ATOM     37  F   LIG d   1       4.670   1.353  -0.813  0.00  0.00    -0.165 F 
ATOM     38  F   LIG d   1       5.804   1.411  -2.795  0.00  0.00    -0.165 F 
ENDBRANCH  32  35
ENDBRANCH  29  32
ENDBRANCH  26  29
ENDBRANCH  23  26
ENDBRANCH  20  23
ENDBRANCH   1  20
TORSDOF 10
ENDMDL
MODEL 8
REMARK VINA RESULT:      -6.5      3.876      5.446
REMARK  10 active torsions:
REMARK  status: ('A' for Active; 'I' for Inactive)
REMARK    1  A    between atoms: C_5  and  O_7 
REMARK    2  A    between atoms: O_7  and  C_8 
REMARK    3  A    between atoms: C_8  and  C_10 
REMARK    4  A    between atoms: C_10  and  C_11 
REMARK    5  A    between atoms: C_11  and  C_12 
REMARK    6  A    between atoms: C_12  and  C_13 
REMARK    7  A    between atoms: C_13  and  C_14 
REMARK    8  A    between atoms: C_14  and  C_15 
REMARK    9  A    between atoms: C_15  and  C_16 
REMARK   10  A    between atoms: C_16  and  C_17 
ROOT
ATOM      1  C   LIG d   1       6.427  -2.843  -6.677  0.00  0.00     0.389 C 
ATOM      2  F   LIG d   1       7.802  -2.859  -6.933  0.00  0.00    -0.192 F 
ATOM      3  F   LIG d   1       5.970  -1.521  -6.669  0.00  0.00    -0.192 F 
ENDROOT
BRANCH   1   4
ATOM      4  C   LIG d   1       5.697  -3.629  -7.766  0.00  0.00     0.410 C 
ATOM      5  F   LIG d   1       4.376  -3.866  -7.366  0.00  0.00    -0.186 F 
ATOM      6  F   LIG d   1       6.346  -4.851  -7.975  0.00  0.00    -0.186 F 
BRANCH   4   7
ATOM      7  C   LIG d   1       5.698  -2.834  -9.046  0.00  0.00     0.390 C 
ATOM      8  O   LIG d   1       6.736  -2.625  -9.627  0.00  0.00    -0.243 OA
BRANCH   7   9
ATOM      9  O   LIG d   1       4.543  -2.357  -9.542  0.00  0.00    -0.403 OA
BRANCH   9  10
ATOM     10  C   LIG d   1       4.177  -1.095  -9.203  0.00  0.00     0.224 A 
ATOM     11  N   LIG d   1       4.795  -0.064  -9.752  0.00  0.00    -0.221 NA
ATOM     12  C   LIG d   1       4.471   1.179  -9.451  0.00  0.00     0.031 A 
ATOM     13  C   LIG d   1       3.464   1.447  -8.545  0.00  0.00    -0.043 A 
ATOM     14  H   LIG d   1       4.998   1.997  -9.921  0.00  0.00     0.083 H 
ATOM     15  C   LIG d   1       2.790   0.392  -7.946  0.00  0.00    -0.055 A 
ATOM     16  H   LIG d   1       3.204   2.468  -8.304  0.00  0.00     0.063 H 
ATOM     17  C   LIG d   1       3.155  -0.900  -8.283  0.00  0.00     0.001 A 
ATOM     18  H   LIG d   1       2.003   0.574  -7.230  0.00  0.00     0.062 H 
ATOM     19  H   LIG d   1       2.652  -1.744  -7.837  0.00  0.00     0.067 H 
ENDBRANCH   9  10
ENDBRANCH   7   9
ENDBRANCH   4   7
ENDBRANCH   1   4
BRANCH   1  20
ATOM     20  C   LIG d   1       6.154  -3.484  -5.315  0.00  0.00     0.384 C 
ATOM     21  F   LIG d   1       4.900  -4.105  -5.334  0.00  0.00    -0.192 F 
ATOM     22  F   LIG d   1       7.141  -4.437  -5.041  0.00  0.00    -0.192 F 
BRANCH  20  23
ATOM     23  C   LIG d   1       6.172  -2.405  -4.230  0.00  0.00     0.384 C 
ATOM     24  F   LIG d   1       6.998  -2.815  -3.178  0.00  0.00    -0.192 F 
ATOM     25  F   LIG d   1       6.661  -1.210  -4.769  0.00  0.00    -0.192 F 
BRANCH  23  26
ATOM     26  C   LIG d   1       4.752  -2.185  -3.707  0.00  0.00     0.384 C 
ATOM     27  F   LIG d   1       3.902  -1.880  -4.775  0.00  0.00    -0.192 F 
ATOM     28  F   LIG d   1       4.303  -3.348  -3.070  0.00  0.00    -0.192 F 
BRANCH  26  29
ATOM     29  C   LIG d   1       4.750  -1.025  -2.708  0.00  0.00     0.387 C 
ATOM     30  F   LIG d   1       4.294  -1.480  -1.466  0.00  0.00    -0.192 F 
ATOM     31  F   LIG d   1       6.049  -0.524  -2.572  0.00  0.00    -0.192 F 
BRANCH  29  32
ATOM     32  C   LIG d   1       3.826   0.084  -3.215  0.00  0.00     0.409 C 
ATOM     33  F   LIG d   1       3.935   0.182  -4.607  0.00  0.00    -0.189 F 
ATOM     34  F   LIG d   1       2.504  -0.218  -2.872  0.00  0.00    -0.189 F 
BRANCH  32  35
ATOM     35  C   LIG d   1       4.229   1.414  -2.577  0.00  0.00     0.460 C 
ATOM     36  F   LIG d   1       3.281   2.392  -2.898  0.00  0.00    -0.165 F 
ATOM     37  F   LIG d   1       4.292   1.265  -1.187  0.00  0.00    -0.165 F 
ATOM     38  F   LIG d   1       5.482   1.803  -3.061  0.00  0.00    -0.165 F 
ENDBRANCH  32  35
ENDBRANCH  29  32
ENDBRANCH  26  29
ENDBRANCH  23  26
ENDBRANCH  20  23
ENDBRANCH   1  20
TORSDOF 10
ENDMDL
MODEL 9
REMARK VINA RESULT:      -6.4      4.648      6.201
REMARK  10 active torsions:
REMARK  status: ('A' for Active; 'I' for Inactive)
REMARK    1  A    between atoms: C_5  and  O_7 
REMARK    2  A    between atoms: O_7  and  C_8 
REMARK    3  A    between atoms: C_8  and  C_10 
REMARK    4  A    between atoms: C_10  and  C_11 
REMARK    5  A    between atoms: C_11  and  C_12 
REMARK    6  A    between atoms: C_12  and  C_13 
REMARK    7  A    between atoms: C_13  and  C_14 
REMARK    8  A    between atoms: C_14  and  C_15 
REMARK    9  A    between atoms: C_15  and  C_16 
REMARK   10  A    between atoms: C_16  and  C_17 
ROOT
ATOM      1  C   LIG d   1       3.359   0.049  -9.530  0.00  0.00     0.389 C 
ATOM      2  F   LIG d   1       2.196   0.826  -9.559  0.00  0.00    -0.192 F 
ATOM      3  F   LIG d   1       3.017  -1.305  -9.615  0.00  0.00    -0.192 F 
ENDROOT
BRANCH   1   4
ATOM      4  C   LIG d   1       4.252   0.425 -10.713  0.00  0.00     0.410 C 
ATOM      5  F   LIG d   1       5.590   0.443 -10.300  0.00  0.00    -0.186 F 
ATOM      6  F   LIG d   1       3.894   1.692 -11.184  0.00  0.00    -0.186 F 
BRANCH   4   7
ATOM      7  C   LIG d   1       4.081  -0.588 -11.814  0.00  0.00     0.390 C 
ATOM      8  O   LIG d   1       3.041  -0.645 -12.428  0.00  0.00    -0.243 OA
BRANCH   7   9
ATOM      9  O   LIG d   1       5.084  -1.430 -12.115  0.00  0.00    -0.403 OA
BRANCH   9  10
ATOM     10  C   LIG d   1       5.133  -2.622 -11.467  0.00  0.00     0.224 A 
ATOM     11  N   LIG d   1       5.898  -2.754 -10.397  0.00  0.00    -0.221 NA
ATOM     12  C   LIG d   1       5.975  -3.894  -9.736  0.00  0.00     0.031 A 
ATOM     13  C   LIG d   1       5.252  -4.997 -10.144  0.00  0.00    -0.043 A 
ATOM     14  H   LIG d   1       6.610  -3.964  -8.866  0.00  0.00     0.083 H 
ATOM     15  C   LIG d   1       4.437  -4.900 -11.264  0.00  0.00    -0.055 A 
ATOM     16  H   LIG d   1       5.320  -5.926  -9.598  0.00  0.00     0.063 H 
ATOM     17  C   LIG d   1       4.379  -3.690 -11.934  0.00  0.00     0.001 A 
ATOM     18  H   LIG d   1       3.865  -5.748 -11.606  0.00  0.00     0.062 H 
ATOM     19  H   LIG d   1       3.755  -3.578 -12.808  0.00  0.00     0.067 H 
ENDBRANCH   9  10
ENDBRANCH   7   9
ENDBRANCH   4   7
ENDBRANCH   1   4
BRANCH   1  20
ATOM     20  C   LIG d   1       4.111   0.303  -8.222  0.00  0.00     0.384 C 
ATOM     21  F   LIG d   1       5.022  -0.735  -7.998  0.00  0.00    -0.192 F 
ATOM     22  F   LIG d   1       4.800   1.518  -8.308  0.00  0.00    -0.192 F 
BRANCH  20  23
ATOM     23  C   LIG d   1       3.113   0.364  -7.064  0.00  0.00     0.384 C 
ATOM     24  F   LIG d   1       2.734   1.693  -6.844  0.00  0.00    -0.192 F 
ATOM     25  F   LIG d   1       1.982  -0.396  -7.382  0.00  0.00    -0.192 F 
BRANCH  23  26
ATOM     26  C   LIG d   1       3.765  -0.196  -5.799  0.00  0.00     0.384 C 
ATOM     27  F   LIG d   1       3.781  -1.593  -5.861  0.00  0.00    -0.192 F 
ATOM     28  F   LIG d   1       5.077   0.282  -5.699  0.00  0.00    -0.192 F 
BRANCH  26  29
ATOM     29  C   LIG d   1       2.966   0.250  -4.572  0.00  0.00     0.387 C 
ATOM     30  F   LIG d   1       3.087   1.634  -4.414  0.00  0.00    -0.192 F 
ATOM     31  F   LIG d   1       1.618  -0.082  -4.748  0.00  0.00    -0.192 F 
BRANCH  29  32
ATOM     32  C   LIG d   1       3.506  -0.455  -3.326  0.00  0.00     0.409 C 
ATOM     33  F   LIG d   1       2.464  -1.138  -2.689  0.00  0.00    -0.189 F 
ATOM     34  F   LIG d   1       4.499  -1.366  -3.700  0.00  0.00    -0.189 F 
BRANCH  32  35
ATOM     35  C   LIG d   1       4.097   0.582  -2.370  0.00  0.00     0.460 C 
ATOM     36  F   LIG d   1       5.165   1.237  -2.993  0.00  0.00    -0.165 F 
ATOM     37  F   LIG d   1       3.113   1.515  -2.026  0.00  0.00    -0.165 F 
ATOM     38  F   LIG d   1       4.556  -0.060  -1.213  0.00  0.00    -0.165 F 
ENDBRANCH  32  35
ENDBRANCH  29  32
ENDBRANCH  26  29
ENDBRANCH  23  26
ENDBRANCH  20  23
ENDBRANCH   1  20
TORSDOF 10
ENDMDL
