MODEL 1
REMARK VINA RESULT:      -7.5      0.000      0.000
REMARK  4 active torsions:
REMARK  status: ('A' for Active; 'I' for Inactive)
REMARK    1  A    between atoms: C_4  and  C_7 
REMARK    2  A    between atoms: C_7  and  N_8 
REMARK    3  A    between atoms: C_12  and  C_14 
REMARK    4  A    between atoms: C_14  and  C_16 
ROOT
ATOM      1  N   LIG d   1       3.282   0.089  -6.231  0.00  0.00    -0.199 N 
ATOM      2  C   LIG d   1       4.375  -0.628  -6.049  0.00  0.00     0.172 A 
ATOM      3  C   LIG d   1       5.217  -0.929  -7.105  0.00  0.00     0.003 A 
ATOM      4  C   LIG d   1       4.907  -0.467  -8.372  0.00  0.00    -0.040 A 
ATOM      5  C   LIG d   1       3.741   0.292  -8.534  0.00  0.00     0.086 A 
ATOM      6  C   LIG d   1       2.946   0.556  -7.416  0.00  0.00     0.182 A 
ATOM      7  H   LIG d   1       4.615  -0.988  -5.060  0.00  0.00     0.138 H 
ATOM      8  H   LIG d   1       6.107  -1.518  -6.942  0.00  0.00     0.068 H 
ATOM      9  H   LIG d   1       5.546  -0.688  -9.213  0.00  0.00     0.063 H 
ATOM     10  H   LIG d   1       2.047   1.144  -7.524  0.00  0.00     0.138 H 
ENDROOT
BRANCH   1  11
ATOM     11  C   LIG d   1       2.423   0.381  -5.082  0.00  0.00     0.176 C 
ATOM     12  H   LIG d   1       2.151   1.436  -5.091  0.00  0.00     0.108 H 
ATOM     13  H   LIG d   1       1.520  -0.227  -5.141  0.00  0.00     0.108 H 
BRANCH  11  14
ATOM     14  C   LIG d   1       3.161   0.062  -3.808  0.00  0.00     0.017 A 
ATOM     15  C   LIG d   1       3.246  -1.245  -3.366  0.00  0.00    -0.053 A 
ATOM     16  C   LIG d   1       3.923  -1.537  -2.198  0.00  0.00    -0.061 A 
ATOM     17  H   LIG d   1       2.782  -2.038  -3.935  0.00  0.00     0.062 H 
ATOM     18  C   LIG d   1       4.516  -0.523  -1.470  0.00  0.00    -0.062 A 
ATOM     19  H   LIG d   1       3.989  -2.558  -1.852  0.00  0.00     0.062 H 
ATOM     20  C   LIG d   1       4.432   0.785  -1.912  0.00  0.00    -0.061 A 
ATOM     21  H   LIG d   1       5.046  -0.751  -0.558  0.00  0.00     0.062 H 
ATOM     22  C   LIG d   1       3.760   1.077  -3.083  0.00  0.00    -0.053 A 
ATOM     23  H   LIG d   1       4.897   1.577  -1.344  0.00  0.00     0.062 H 
ATOM     24  H   LIG d   1       3.697   2.097  -3.431  0.00  0.00     0.062 H 
ENDBRANCH  11  14
ENDBRANCH   1  11
BRANCH   5  25
ATOM     25  C   LIG d   1       3.360   0.810  -9.865  0.00  0.00     0.199 C 
ATOM     26  O   LIG d   1       3.470   1.996 -10.108  0.00  0.00    -0.286 OA
BRANCH  25  27
ATOM     27  C   LIG d   1       2.848  -0.112 -10.898  0.00  0.00     0.022 A 
ATOM     28  C   LIG d   1       3.629  -0.416 -12.016  0.00  0.00    -0.051 A 
ATOM     29  C   LIG d   1       3.145  -1.279 -12.977  0.00  0.00    -0.061 A 
ATOM     30  H   LIG d   1       4.609   0.023 -12.127  0.00  0.00     0.062 H 
ATOM     31  C   LIG d   1       1.889  -1.844 -12.836  0.00  0.00    -0.062 A 
ATOM     32  H   LIG d   1       3.747  -1.515 -13.841  0.00  0.00     0.062 H 
ATOM     33  C   LIG d   1       1.112  -1.550 -11.728  0.00  0.00    -0.061 A 
ATOM     34  H   LIG d   1       1.514  -2.518 -13.591  0.00  0.00     0.062 H 
ATOM     35  C   LIG d   1       1.582  -0.685 -10.762  0.00  0.00    -0.051 A 
ATOM     36  H   LIG d   1       0.135  -1.997 -11.622  0.00  0.00     0.062 H 
ATOM     37  H   LIG d   1       0.973  -0.455  -9.901  0.00  0.00     0.062 H 
ENDBRANCH  25  27
ENDBRANCH   5  25
TORSDOF 4
ENDMDL
MODEL 2
REMARK VINA RESULT:      -7.5      2.895      3.879
REMARK  4 active torsions:
REMARK  status: ('A' for Active; 'I' for Inactive)
REMARK    1  A    between atoms: C_4  and  C_7 
REMARK    2  A    between atoms: C_7  and  N_8 
REMARK    3  A    between atoms: C_12  and  C_14 
REMARK    4  A    between atoms: C_14  and  C_16 
ROOT
ATOM      1  N   LIG d   1       7.461   0.100  -4.529  0.00  0.00    -0.199 N 
ATOM      2  C   LIG d   1       8.333   1.079  -4.377  0.00  0.00     0.172 A 
ATOM      3  C   LIG d   1       8.689   1.890  -5.441  0.00  0.00     0.003 A 
ATOM      4  C   LIG d   1       8.120   1.669  -6.682  0.00  0.00    -0.040 A 
ATOM      5  C   LIG d   1       7.198   0.622  -6.812  0.00  0.00     0.086 A 
ATOM      6  C   LIG d   1       6.888  -0.148  -5.688  0.00  0.00     0.182 A 
ATOM      7  H   LIG d   1       8.777   1.250  -3.407  0.00  0.00     0.138 H 
ATOM      8  H   LIG d   1       9.405   2.687  -5.303  0.00  0.00     0.068 H 
ATOM      9  H   LIG d   1       8.381   2.286  -7.529  0.00  0.00     0.063 H 
ATOM     10  H   LIG d   1       6.175  -0.955  -5.771  0.00  0.00     0.138 H 
ENDROOT
BRANCH   1  11
ATOM     11  C   LIG d   1       7.116  -0.731  -3.373  0.00  0.00     0.176 C 
ATOM     12  H   LIG d   1       7.315  -1.777  -3.606  0.00  0.00     0.108 H 
ATOM     13  H   LIG d   1       7.719  -0.429  -2.516  0.00  0.00     0.108 H 
BRANCH  11  14
ATOM     14  C   LIG d   1       5.655  -0.557  -3.047  0.00  0.00     0.017 A 
ATOM     15  C   LIG d   1       4.795  -1.636  -3.132  0.00  0.00    -0.053 A 
ATOM     16  C   LIG d   1       3.456  -1.477  -2.832  0.00  0.00    -0.061 A 
ATOM     17  H   LIG d   1       5.172  -2.604  -3.431  0.00  0.00     0.062 H 
ATOM     18  C   LIG d   1       2.975  -0.240  -2.449  0.00  0.00    -0.062 A 
ATOM     19  H   LIG d   1       2.784  -2.320  -2.899  0.00  0.00     0.062 H 
ATOM     20  C   LIG d   1       3.835   0.839  -2.364  0.00  0.00    -0.061 A 
ATOM     21  H   LIG d   1       1.929  -0.116  -2.215  0.00  0.00     0.062 H 
ATOM     22  C   LIG d   1       5.176   0.680  -2.658  0.00  0.00    -0.053 A 
ATOM     23  H   LIG d   1       3.460   1.806  -2.063  0.00  0.00     0.062 H 
ATOM     24  H   LIG d   1       5.849   1.522  -2.588  0.00  0.00     0.062 H 
ENDBRANCH  11  14
ENDBRANCH   1  11
BRANCH   5  25
ATOM     25  C   LIG d   1       6.560   0.340  -8.114  0.00  0.00     0.199 C 
ATOM     26  O   LIG d   1       7.127  -0.360  -8.930  0.00  0.00    -0.286 OA
BRANCH  25  27
ATOM     27  C   LIG d   1       5.232   0.908  -8.424  0.00  0.00     0.022 A 
ATOM     28  C   LIG d   1       5.129   2.107  -9.132  0.00  0.00    -0.051 A 
ATOM     29  C   LIG d   1       3.886   2.631  -9.419  0.00  0.00    -0.061 A 
ATOM     30  H   LIG d   1       6.021   2.623  -9.455  0.00  0.00     0.062 H 
ATOM     31  C   LIG d   1       2.741   1.971  -9.007  0.00  0.00    -0.062 A 
ATOM     32  H   LIG d   1       3.805   3.557  -9.967  0.00  0.00     0.062 H 
ATOM     33  C   LIG d   1       2.835   0.778  -8.309  0.00  0.00    -0.061 A 
ATOM     34  H   LIG d   1       1.770   2.385  -9.233  0.00  0.00     0.062 H 
ATOM     35  C   LIG d   1       4.073   0.246  -8.011  0.00  0.00    -0.051 A 
ATOM     36  H   LIG d   1       1.939   0.267  -7.994  0.00  0.00     0.062 H 
ATOM     37  H   LIG d   1       4.144  -0.681  -7.463  0.00  0.00     0.062 H 
ENDBRANCH  25  27
ENDBRANCH   5  25
TORSDOF 4
ENDMDL
MODEL 3
REMARK VINA RESULT:      -7.4      2.310      3.301
REMARK  4 active torsions:
REMARK  status: ('A' for Active; 'I' for Inactive)
REMARK    1  A    between atoms: C_4  and  C_7 
REMARK    2  A    between atoms: C_7  and  N_8 
REMARK    3  A    between atoms: C_12  and  C_14 
REMARK    4  A    between atoms: C_14  and  C_16 
ROOT
ATOM      1  N   LIG d   1       5.585  -2.442  -5.316  0.00  0.00    -0.199 N 
ATOM      2  C   LIG d   1       6.828  -2.615  -5.725  0.00  0.00     0.172 A 
ATOM      3  C   LIG d   1       7.170  -2.458  -7.056  0.00  0.00     0.003 A 
ATOM      4  C   LIG d   1       6.193  -2.113  -7.972  0.00  0.00    -0.040 A 
ATOM      5  C   LIG d   1       4.883  -1.936  -7.508  0.00  0.00     0.086 A 
ATOM      6  C   LIG d   1       4.620  -2.108  -6.147  0.00  0.00     0.182 A 
ATOM      7  H   LIG d   1       7.590  -2.885  -5.009  0.00  0.00     0.138 H 
ATOM      8  H   LIG d   1       8.192  -2.604  -7.377  0.00  0.00     0.068 H 
ATOM      9  H   LIG d   1       6.433  -1.985  -9.017  0.00  0.00     0.063 H 
ATOM     10  H   LIG d   1       3.616  -1.970  -5.773  0.00  0.00     0.138 H 
ENDROOT
BRANCH   1  11
ATOM     11  C   LIG d   1       5.272  -2.620  -3.896  0.00  0.00     0.176 C 
ATOM     12  H   LIG d   1       4.465  -3.344  -3.791  0.00  0.00     0.108 H 
ATOM     13  H   LIG d   1       6.156  -2.982  -3.372  0.00  0.00     0.108 H 
BRANCH  11  14
ATOM     14  C   LIG d   1       4.844  -1.301  -3.307  0.00  0.00     0.017 A 
ATOM     15  C   LIG d   1       3.518  -1.089  -2.977  0.00  0.00    -0.053 A 
ATOM     16  C   LIG d   1       3.125   0.121  -2.437  0.00  0.00    -0.061 A 
ATOM     17  H   LIG d   1       2.789  -1.870  -3.142  0.00  0.00     0.062 H 
ATOM     18  C   LIG d   1       4.057   1.119  -2.226  0.00  0.00    -0.062 A 
ATOM     19  H   LIG d   1       2.089   0.286  -2.179  0.00  0.00     0.062 H 
ATOM     20  C   LIG d   1       5.383   0.907  -2.555  0.00  0.00    -0.061 A 
ATOM     21  H   LIG d   1       3.750   2.064  -1.803  0.00  0.00     0.062 H 
ATOM     22  C   LIG d   1       5.777  -0.304  -3.091  0.00  0.00    -0.053 A 
ATOM     23  H   LIG d   1       6.111   1.687  -2.390  0.00  0.00     0.062 H 
ATOM     24  H   LIG d   1       6.814  -0.471  -3.345  0.00  0.00     0.062 H 
ENDBRANCH  11  14
ENDBRANCH   1  11
BRANCH   5  25
ATOM     25  C   LIG d   1       3.799  -1.567  -8.441  0.00  0.00     0.199 C 
ATOM     26  O   LIG d   1       3.010  -2.411  -8.821  0.00  0.00    -0.286 OA
BRANCH  25  27
ATOM     27  C   LIG d   1       3.671  -0.173  -8.912  0.00  0.00     0.022 A 
ATOM     28  C   LIG d   1       3.085   0.794  -8.092  0.00  0.00    -0.051 A 
ATOM     29  C   LIG d   1       2.971   2.094  -8.537  0.00  0.00    -0.061 A 
ATOM     30  H   LIG d   1       2.723   0.524  -7.110  0.00  0.00     0.062 H 
ATOM     31  C   LIG d   1       3.435   2.443  -9.793  0.00  0.00    -0.062 A 
ATOM     32  H   LIG d   1       2.519   2.842  -7.904  0.00  0.00     0.062 H 
ATOM     33  C   LIG d   1       4.022   1.491 -10.610  0.00  0.00    -0.061 A 
ATOM     34  H   LIG d   1       3.343   3.462 -10.138  0.00  0.00     0.062 H 
ATOM     35  C   LIG d   1       4.138   0.185 -10.179  0.00  0.00    -0.051 A 
ATOM     36  H   LIG d   1       4.386   1.770 -11.587  0.00  0.00     0.062 H 
ATOM     37  H   LIG d   1       4.593  -0.556 -10.818  0.00  0.00     0.062 H 
ENDBRANCH  25  27
ENDBRANCH   5  25
TORSDOF 4
ENDMDL
MODEL 4
REMARK VINA RESULT:      -7.4      2.824      7.039
REMARK  4 active torsions:
REMARK  status: ('A' for Active; 'I' for Inactive)
REMARK    1  A    between atoms: C_4  and  C_7 
REMARK    2  A    between atoms: C_7  and  N_8 
REMARK    3  A    between atoms: C_12  and  C_14 
REMARK    4  A    between atoms: C_14  and  C_16 
ROOT
ATOM      1  N   LIG d   1       5.262  -1.971  -7.867  0.00  0.00    -0.199 N 
ATOM      2  C   LIG d   1       6.539  -2.293  -7.942  0.00  0.00     0.172 A 
ATOM      3  C   LIG d   1       7.255  -2.644  -6.812  0.00  0.00     0.003 A 
ATOM      4  C   LIG d   1       6.619  -2.658  -5.583  0.00  0.00    -0.040 A 
ATOM      5  C   LIG d   1       5.263  -2.311  -5.535  0.00  0.00     0.086 A 
ATOM      6  C   LIG d   1       4.610  -1.974  -6.723  0.00  0.00     0.182 A 
ATOM      7  H   LIG d   1       7.035  -2.281  -8.902  0.00  0.00     0.138 H 
ATOM      8  H   LIG d   1       8.301  -2.904  -6.888  0.00  0.00     0.068 H 
ATOM      9  H   LIG d   1       7.155  -2.927  -4.686  0.00  0.00     0.063 H 
ATOM     10  H   LIG d   1       3.563  -1.710  -6.703  0.00  0.00     0.138 H 
ENDROOT
BRANCH   1  11
ATOM     11  C   LIG d   1       4.547  -1.606  -9.092  0.00  0.00     0.176 C 
ATOM     12  H   LIG d   1       5.158  -1.857  -9.958  0.00  0.00     0.108 H 
ATOM     13  H   LIG d   1       3.606  -2.155  -9.140  0.00  0.00     0.108 H 
BRANCH  11  14
ATOM     14  C   LIG d   1       4.265  -0.126  -9.088  0.00  0.00     0.017 A 
ATOM     15  C   LIG d   1       5.308   0.776  -9.190  0.00  0.00    -0.053 A 
ATOM     16  C   LIG d   1       5.050   2.134  -9.186  0.00  0.00    -0.061 A 
ATOM     17  H   LIG d   1       6.325   0.419  -9.273  0.00  0.00     0.062 H 
ATOM     18  C   LIG d   1       3.750   2.590  -9.081  0.00  0.00    -0.062 A 
ATOM     19  H   LIG d   1       5.865   2.839  -9.265  0.00  0.00     0.062 H 
ATOM     20  C   LIG d   1       2.707   1.688  -8.979  0.00  0.00    -0.061 A 
ATOM     21  H   LIG d   1       3.548   3.651  -9.078  0.00  0.00     0.062 H 
ATOM     22  C   LIG d   1       2.964   0.331  -8.988  0.00  0.00    -0.053 A 
ATOM     23  H   LIG d   1       1.691   2.045  -8.897  0.00  0.00     0.062 H 
ATOM     24  H   LIG d   1       2.149  -0.374  -8.913  0.00  0.00     0.062 H 
ENDBRANCH  11  14
ENDBRANCH   1  11
BRANCH   5  25
ATOM     25  C   LIG d   1       4.533  -2.309  -4.250  0.00  0.00     0.199 C 
ATOM     26  O   LIG d   1       4.162  -3.358  -3.761  0.00  0.00    -0.286 OA
BRANCH  25  27
ATOM     27  C   LIG d   1       4.256  -1.033  -3.560  0.00  0.00     0.022 A 
ATOM     28  C   LIG d   1       3.403  -0.092  -4.142  0.00  0.00    -0.051 A 
ATOM     29  C   LIG d   1       3.148   1.098  -3.491  0.00  0.00    -0.061 A 
ATOM     30  H   LIG d   1       2.944  -0.295  -5.098  0.00  0.00     0.062 H 
ATOM     31  C   LIG d   1       3.734   1.359  -2.265  0.00  0.00    -0.062 A 
ATOM     32  H   LIG d   1       2.489   1.825  -3.939  0.00  0.00     0.062 H 
ATOM     33  C   LIG d   1       4.576   0.429  -1.680  0.00  0.00    -0.061 A 
ATOM     34  H   LIG d   1       3.531   2.292  -1.760  0.00  0.00     0.062 H 
ATOM     35  C   LIG d   1       4.844  -0.762  -2.323  0.00  0.00    -0.051 A 
ATOM     36  H   LIG d   1       5.027   0.638  -0.722  0.00  0.00     0.062 H 
ATOM     37  H   LIG d   1       5.505  -1.485  -1.867  0.00  0.00     0.062 H 
ENDBRANCH  25  27
ENDBRANCH   5  25
TORSDOF 4
ENDMDL
MODEL 5
REMARK VINA RESULT:      -7.3      4.815      7.732
REMARK  4 active torsions:
REMARK  status: ('A' for Active; 'I' for Inactive)
REMARK    1  A    between atoms: C_4  and  C_7 
REMARK    2  A    between atoms: C_7  and  N_8 
REMARK    3  A    between atoms: C_12  and  C_14 
REMARK    4  A    between atoms: C_14  and  C_16 
ROOT
ATOM      1  N   LIG d   1       7.903  -3.106  -5.021  0.00  0.00    -0.199 N 
ATOM      2  C   LIG d   1       7.655  -3.214  -6.313  0.00  0.00     0.172 A 
ATOM      3  C   LIG d   1       6.371  -3.071  -6.808  0.00  0.00     0.003 A 
ATOM      4  C   LIG d   1       5.332  -2.809  -5.934  0.00  0.00    -0.040 A 
ATOM      5  C   LIG d   1       5.626  -2.699  -4.569  0.00  0.00     0.086 A 
ATOM      6  C   LIG d   1       6.949  -2.852  -4.149  0.00  0.00     0.182 A 
ATOM      7  H   LIG d   1       8.468  -3.420  -6.994  0.00  0.00     0.138 H 
ATOM      8  H   LIG d   1       6.183  -3.163  -7.868  0.00  0.00     0.068 H 
ATOM      9  H   LIG d   1       4.321  -2.693  -6.294  0.00  0.00     0.063 H 
ATOM     10  H   LIG d   1       7.193  -2.765  -3.100  0.00  0.00     0.138 H 
ENDROOT
BRANCH   1  11
ATOM     11  C   LIG d   1       9.278  -3.266  -4.544  0.00  0.00     0.176 C 
ATOM     12  H   LIG d   1       9.948  -3.370  -5.397  0.00  0.00     0.108 H 
ATOM     13  H   LIG d   1       9.565  -2.390  -3.962  0.00  0.00     0.108 H 
BRANCH  11  14
ATOM     14  C   LIG d   1       9.371  -4.496  -3.679  0.00  0.00     0.017 A 
ATOM     15  C   LIG d   1       9.657  -4.374  -2.332  0.00  0.00    -0.053 A 
ATOM     16  C   LIG d   1       9.742  -5.502  -1.539  0.00  0.00    -0.061 A 
ATOM     17  H   LIG d   1       9.814  -3.396  -1.900  0.00  0.00     0.062 H 
ATOM     18  C   LIG d   1       9.540  -6.752  -2.091  0.00  0.00    -0.062 A 
ATOM     19  H   LIG d   1       9.966  -5.406  -0.486  0.00  0.00     0.062 H 
ATOM     20  C   LIG d   1       9.254  -6.875  -3.438  0.00  0.00    -0.061 A 
ATOM     21  H   LIG d   1       9.606  -7.634  -1.471  0.00  0.00     0.062 H 
ATOM     22  C   LIG d   1       9.164  -5.747  -4.231  0.00  0.00    -0.053 A 
ATOM     23  H   LIG d   1       9.095  -7.852  -3.869  0.00  0.00     0.062 H 
ATOM     24  H   LIG d   1       8.935  -5.842  -5.282  0.00  0.00     0.062 H 
ENDBRANCH  11  14
ENDBRANCH   1  11
BRANCH   5  25
ATOM     25  C   LIG d   1       4.555  -2.420  -3.589  0.00  0.00     0.199 C 
ATOM     26  O   LIG d   1       3.929  -3.338  -3.095  0.00  0.00    -0.286 OA
BRANCH  25  27
ATOM     27  C   LIG d   1       4.246  -1.027  -3.210  0.00  0.00     0.022 A 
ATOM     28  C   LIG d   1       3.421  -0.245  -4.022  0.00  0.00    -0.051 A 
ATOM     29  C   LIG d   1       3.135   1.055  -3.661  0.00  0.00    -0.061 A 
ATOM     30  H   LIG d   1       3.007  -0.658  -4.930  0.00  0.00     0.062 H 
ATOM     31  C   LIG d   1       3.663   1.586  -2.497  0.00  0.00    -0.062 A 
ATOM     32  H   LIG d   1       2.498   1.660  -4.287  0.00  0.00     0.062 H 
ATOM     33  C   LIG d   1       4.478   0.815  -1.685  0.00  0.00    -0.061 A 
ATOM     34  H   LIG d   1       3.438   2.605  -2.219  0.00  0.00     0.062 H 
ATOM     35  C   LIG d   1       4.776  -0.485  -2.037  0.00  0.00    -0.051 A 
ATOM     36  H   LIG d   1       4.884   1.234  -0.776  0.00  0.00     0.062 H 
ATOM     37  H   LIG d   1       5.414  -1.083  -1.404  0.00  0.00     0.062 H 
ENDBRANCH  25  27
ENDBRANCH   5  25
TORSDOF 4
ENDMDL
MODEL 6
REMARK VINA RESULT:      -7.2      3.191      7.465
REMARK  4 active torsions:
REMARK  status: ('A' for Active; 'I' for Inactive)
REMARK    1  A    between atoms: C_4  and  C_7 
REMARK    2  A    between atoms: C_7  and  N_8 
REMARK    3  A    between atoms: C_12  and  C_14 
REMARK    4  A    between atoms: C_14  and  C_16 
ROOT
ATOM      1  N   LIG d   1       7.273   0.737  -7.797  0.00  0.00    -0.199 N 
ATOM      2  C   LIG d   1       8.067   1.785  -7.680  0.00  0.00     0.172 A 
ATOM      3  C   LIG d   1       8.702   2.069  -6.484  0.00  0.00     0.003 A 
ATOM      4  C   LIG d   1       8.501   1.240  -5.395  0.00  0.00    -0.040 A 
ATOM      5  C   LIG d   1       7.652   0.137  -5.550  0.00  0.00     0.086 A 
ATOM      6  C   LIG d   1       7.053  -0.085  -6.792  0.00  0.00     0.182 A 
ATOM      7  H   LIG d   1       8.223   2.431  -8.531  0.00  0.00     0.138 H 
ATOM      8  H   LIG d   1       9.349   2.930  -6.402  0.00  0.00     0.068 H 
ATOM      9  H   LIG d   1       8.984   1.440  -4.451  0.00  0.00     0.063 H 
ATOM     10  H   LIG d   1       6.400  -0.934  -6.928  0.00  0.00     0.138 H 
ENDROOT
BRANCH   1  11
ATOM     11  C   LIG d   1       6.622   0.478  -9.083  0.00  0.00     0.176 C 
ATOM     12  H   LIG d   1       7.169   0.988  -9.876  0.00  0.00     0.108 H 
ATOM     13  H   LIG d   1       6.617  -0.595  -9.278  0.00  0.00     0.108 H 
BRANCH  11  14
ATOM     14  C   LIG d   1       5.205   0.988  -9.042  0.00  0.00     0.017 A 
ATOM     15  C   LIG d   1       4.948   2.333  -9.227  0.00  0.00    -0.053 A 
ATOM     16  C   LIG d   1       3.648   2.801  -9.190  0.00  0.00    -0.061 A 
ATOM     17  H   LIG d   1       5.765   3.019  -9.403  0.00  0.00     0.062 H 
ATOM     18  C   LIG d   1       2.605   1.923  -8.966  0.00  0.00    -0.062 A 
ATOM     19  H   LIG d   1       3.448   3.852  -9.334  0.00  0.00     0.062 H 
ATOM     20  C   LIG d   1       2.861   0.578  -8.780  0.00  0.00    -0.061 A 
ATOM     21  H   LIG d   1       1.589   2.288  -8.936  0.00  0.00     0.062 H 
ATOM     22  C   LIG d   1       4.160   0.109  -8.823  0.00  0.00    -0.053 A 
ATOM     23  H   LIG d   1       2.045  -0.108  -8.606  0.00  0.00     0.062 H 
ATOM     24  H   LIG d   1       4.360  -0.943  -8.682  0.00  0.00     0.062 H 
ENDBRANCH  11  14
ENDBRANCH   1  11
BRANCH   5  25
ATOM     25  C   LIG d   1       7.401  -0.782  -4.421  0.00  0.00     0.199 C 
ATOM     26  O   LIG d   1       8.113  -1.754  -4.258  0.00  0.00    -0.286 OA
BRANCH  25  27
ATOM     27  C   LIG d   1       6.286  -0.520  -3.488  0.00  0.00     0.022 A 
ATOM     28  C   LIG d   1       5.983   0.790  -3.108  0.00  0.00    -0.051 A 
ATOM     29  C   LIG d   1       4.939   1.028  -2.238  0.00  0.00    -0.061 A 
ATOM     30  H   LIG d   1       6.563   1.614  -3.496  0.00  0.00     0.062 H 
ATOM     31  C   LIG d   1       4.193  -0.026  -1.742  0.00  0.00    -0.062 A 
ATOM     32  H   LIG d   1       4.703   2.039  -1.944  0.00  0.00     0.062 H 
ATOM     33  C   LIG d   1       4.485  -1.327  -2.118  0.00  0.00    -0.061 A 
ATOM     34  H   LIG d   1       3.377   0.165  -1.060  0.00  0.00     0.062 H 
ATOM     35  C   LIG d   1       5.529  -1.580  -2.984  0.00  0.00    -0.051 A 
ATOM     36  H   LIG d   1       3.896  -2.145  -1.730  0.00  0.00     0.062 H 
ATOM     37  H   LIG d   1       5.757  -2.594  -3.273  0.00  0.00     0.062 H 
ENDBRANCH  25  27
ENDBRANCH   5  25
TORSDOF 4
ENDMDL
MODEL 7
REMARK VINA RESULT:      -7.2      1.385      2.000
REMARK  4 active torsions:
REMARK  status: ('A' for Active; 'I' for Inactive)
REMARK    1  A    between atoms: C_4  and  C_7 
REMARK    2  A    between atoms: C_7  and  N_8 
REMARK    3  A    between atoms: C_12  and  C_14 
REMARK    4  A    between atoms: C_14  and  C_16 
ROOT
ATOM      1  N   LIG d   1       5.536  -0.353  -6.561  0.00  0.00    -0.199 N 
ATOM      2  C   LIG d   1       6.710   0.147  -6.897  0.00  0.00     0.172 A 
ATOM      3  C   LIG d   1       6.843   0.990  -7.986  0.00  0.00     0.003 A 
ATOM      4  C   LIG d   1       5.724   1.315  -8.732  0.00  0.00    -0.040 A 
ATOM      5  C   LIG d   1       4.492   0.768  -8.352  0.00  0.00     0.086 A 
ATOM      6  C   LIG d   1       4.441  -0.071  -7.236  0.00  0.00     0.182 A 
ATOM      7  H   LIG d   1       7.582  -0.108  -6.313  0.00  0.00     0.138 H 
ATOM      8  H   LIG d   1       7.810   1.392  -8.250  0.00  0.00     0.068 H 
ATOM      9  H   LIG d   1       5.800   1.970  -9.587  0.00  0.00     0.063 H 
ATOM     10  H   LIG d   1       3.497  -0.495  -6.927  0.00  0.00     0.138 H 
ENDROOT
BRANCH   1  11
ATOM     11  C   LIG d   1       5.446  -1.242  -5.401  0.00  0.00     0.176 C 
ATOM     12  H   LIG d   1       4.773  -2.069  -5.627  0.00  0.00     0.108 H 
ATOM     13  H   LIG d   1       6.436  -1.634  -5.166  0.00  0.00     0.108 H 
BRANCH  11  14
ATOM     14  C   LIG d   1       4.917  -0.473  -4.218  0.00  0.00     0.017 A 
ATOM     15  C   LIG d   1       3.608  -0.647  -3.810  0.00  0.00    -0.053 A 
ATOM     16  C   LIG d   1       3.123   0.058  -2.725  0.00  0.00    -0.061 A 
ATOM     17  H   LIG d   1       2.965  -1.335  -4.339  0.00  0.00     0.062 H 
ATOM     18  C   LIG d   1       3.946   0.938  -2.048  0.00  0.00    -0.062 A 
ATOM     19  H   LIG d   1       2.100  -0.077  -2.406  0.00  0.00     0.062 H 
ATOM     20  C   LIG d   1       5.255   1.112  -2.456  0.00  0.00    -0.061 A 
ATOM     21  H   LIG d   1       3.567   1.489  -1.200  0.00  0.00     0.062 H 
ATOM     22  C   LIG d   1       5.743   0.403  -3.537  0.00  0.00    -0.053 A 
ATOM     23  H   LIG d   1       5.899   1.799  -1.926  0.00  0.00     0.062 H 
ATOM     24  H   LIG d   1       6.767   0.536  -3.854  0.00  0.00     0.062 H 
ENDBRANCH  11  14
ENDBRANCH   1  11
BRANCH   5  25
ATOM     25  C   LIG d   1       3.264   1.081  -9.112  0.00  0.00     0.199 C 
ATOM     26  O   LIG d   1       2.620   2.076  -8.845  0.00  0.00    -0.286 OA
BRANCH  25  27
ATOM     27  C   LIG d   1       2.820   0.183 -10.199  0.00  0.00     0.022 A 
ATOM     28  C   LIG d   1       1.611  -0.507 -10.088  0.00  0.00    -0.051 A 
ATOM     29  C   LIG d   1       1.201  -1.342 -11.106  0.00  0.00    -0.061 A 
ATOM     30  H   LIG d   1       0.997  -0.386  -9.207  0.00  0.00     0.062 H 
ATOM     31  C   LIG d   1       1.985  -1.497 -12.237  0.00  0.00    -0.062 A 
ATOM     32  H   LIG d   1       0.267  -1.875 -11.023  0.00  0.00     0.062 H 
ATOM     33  C   LIG d   1       3.183  -0.812 -12.355  0.00  0.00    -0.061 A 
ATOM     34  H   LIG d   1       1.661  -2.152 -13.031  0.00  0.00     0.062 H 
ATOM     35  C   LIG d   1       3.607   0.023 -11.341  0.00  0.00    -0.051 A 
ATOM     36  H   LIG d   1       3.788  -0.934 -13.240  0.00  0.00     0.062 H 
ATOM     37  H   LIG d   1       4.542   0.553 -11.434  0.00  0.00     0.062 H 
ENDBRANCH  25  27
ENDBRANCH   5  25
TORSDOF 4
ENDMDL
MODEL 8
REMARK VINA RESULT:      -7.1      2.301      3.237
REMARK  4 active torsions:
REMARK  status: ('A' for Active; 'I' for Inactive)
REMARK    1  A    between atoms: C_4  and  C_7 
REMARK    2  A    between atoms: C_7  and  N_8 
REMARK    3  A    between atoms: C_12  and  C_14 
REMARK    4  A    between atoms: C_14  and  C_16 
ROOT
ATOM      1  N   LIG d   1       5.175  -2.692  -6.614  0.00  0.00    -0.199 N 
ATOM      2  C   LIG d   1       5.184  -4.007  -6.722  0.00  0.00     0.172 A 
ATOM      3  C   LIG d   1       4.381  -4.654  -7.645  0.00  0.00     0.003 A 
ATOM      4  C   LIG d   1       3.558  -3.907  -8.469  0.00  0.00    -0.040 A 
ATOM      5  C   LIG d   1       3.570  -2.513  -8.331  0.00  0.00     0.086 A 
ATOM      6  C   LIG d   1       4.413  -1.936  -7.378  0.00  0.00     0.182 A 
ATOM      7  H   LIG d   1       5.827  -4.589  -6.078  0.00  0.00     0.138 H 
ATOM      8  H   LIG d   1       4.398  -5.731  -7.722  0.00  0.00     0.068 H 
ATOM      9  H   LIG d   1       2.921  -4.387  -9.197  0.00  0.00     0.063 H 
ATOM     10  H   LIG d   1       4.437  -0.863  -7.263  0.00  0.00     0.138 H 
ENDROOT
BRANCH   1  11
ATOM     11  C   LIG d   1       6.042  -2.054  -5.621  0.00  0.00     0.176 C 
ATOM     12  H   LIG d   1       6.794  -2.766  -5.285  0.00  0.00     0.108 H 
ATOM     13  H   LIG d   1       6.534  -1.191  -6.071  0.00  0.00     0.108 H 
BRANCH  11  14
ATOM     14  C   LIG d   1       5.213  -1.604  -4.445  0.00  0.00     0.017 A 
ATOM     15  C   LIG d   1       4.630  -2.541  -3.612  0.00  0.00    -0.053 A 
ATOM     16  C   LIG d   1       3.871  -2.128  -2.534  0.00  0.00    -0.061 A 
ATOM     17  H   LIG d   1       4.769  -3.595  -3.804  0.00  0.00     0.062 H 
ATOM     18  C   LIG d   1       3.694  -0.780  -2.288  0.00  0.00    -0.062 A 
ATOM     19  H   LIG d   1       3.415  -2.860  -1.883  0.00  0.00     0.062 H 
ATOM     20  C   LIG d   1       4.277   0.156  -3.121  0.00  0.00    -0.061 A 
ATOM     21  H   LIG d   1       3.101  -0.458  -1.445  0.00  0.00     0.062 H 
ATOM     22  C   LIG d   1       5.041  -0.255  -4.196  0.00  0.00    -0.053 A 
ATOM     23  H   LIG d   1       4.139   1.210  -2.928  0.00  0.00     0.062 H 
ATOM     24  H   LIG d   1       5.500   0.477  -4.845  0.00  0.00     0.062 H 
ENDBRANCH  11  14
ENDBRANCH   1  11
BRANCH   5  25
ATOM     25  C   LIG d   1       2.710  -1.666  -9.183  0.00  0.00     0.199 C 
ATOM     26  O   LIG d   1       1.740  -2.147  -9.736  0.00  0.00    -0.286 OA
BRANCH  25  27
ATOM     27  C   LIG d   1       3.030  -0.235  -9.364  0.00  0.00     0.022 A 
ATOM     28  C   LIG d   1       3.706   0.194 -10.509  0.00  0.00    -0.051 A 
ATOM     29  C   LIG d   1       4.000   1.531 -10.671  0.00  0.00    -0.061 A 
ATOM     30  H   LIG d   1       3.997  -0.520 -11.265  0.00  0.00     0.062 H 
ATOM     31  C   LIG d   1       3.626   2.448  -9.704  0.00  0.00    -0.062 A 
ATOM     32  H   LIG d   1       4.522   1.864 -11.555  0.00  0.00     0.062 H 
ATOM     33  C   LIG d   1       2.951   2.031  -8.569  0.00  0.00    -0.061 A 
ATOM     34  H   LIG d   1       3.859   3.494  -9.836  0.00  0.00     0.062 H 
ATOM     35  C   LIG d   1       2.656   0.695  -8.392  0.00  0.00    -0.051 A 
ATOM     36  H   LIG d   1       2.660   2.751  -7.820  0.00  0.00     0.062 H 
ATOM     37  H   LIG d   1       2.133   0.371  -7.504  0.00  0.00     0.062 H 
ENDBRANCH  25  27
ENDBRANCH   5  25
TORSDOF 4
ENDMDL
MODEL 9
REMARK VINA RESULT:      -6.9      2.331      6.154
REMARK  4 active torsions:
REMARK  status: ('A' for Active; 'I' for Inactive)
REMARK    1  A    between atoms: C_4  and  C_7 
REMARK    2  A    between atoms: C_7  and  N_8 
REMARK    3  A    between atoms: C_12  and  C_14 
REMARK    4  A    between atoms: C_14  and  C_16 
ROOT
ATOM      1  N   LIG d   1       4.684  -1.351  -7.739  0.00  0.00    -0.199 N 
ATOM      2  C   LIG d   1       3.958  -1.123  -8.818  0.00  0.00     0.172 A 
ATOM      3  C   LIG d   1       2.843  -0.306  -8.769  0.00  0.00     0.003 A 
ATOM      4  C   LIG d   1       2.485   0.282  -7.569  0.00  0.00    -0.040 A 
ATOM      5  C   LIG d   1       3.275   0.022  -6.441  0.00  0.00     0.086 A 
ATOM      6  C   LIG d   1       4.388  -0.811  -6.575  0.00  0.00     0.182 A 
ATOM      7  H   LIG d   1       4.238  -1.584  -9.754  0.00  0.00     0.138 H 
ATOM      8  H   LIG d   1       2.257  -0.129  -9.659  0.00  0.00     0.068 H 
ATOM      9  H   LIG d   1       1.619   0.924  -7.503  0.00  0.00     0.063 H 
ATOM     10  H   LIG d   1       5.010  -1.017  -5.716  0.00  0.00     0.138 H 
ENDROOT
BRANCH   1  11
ATOM     11  C   LIG d   1       5.855  -2.224  -7.841  0.00  0.00     0.176 C 
ATOM     12  H   LIG d   1       5.550  -3.199  -8.221  0.00  0.00     0.108 H 
ATOM     13  H   LIG d   1       6.581  -1.780  -8.524  0.00  0.00     0.108 H 
BRANCH  11  14
ATOM     14  C   LIG d   1       6.480  -2.388  -6.480  0.00  0.00     0.017 A 
ATOM     15  C   LIG d   1       6.409  -3.605  -5.829  0.00  0.00    -0.053 A 
ATOM     16  C   LIG d   1       6.983  -3.755  -4.580  0.00  0.00    -0.061 A 
ATOM     17  H   LIG d   1       5.906  -4.439  -6.296  0.00  0.00     0.062 H 
ATOM     18  C   LIG d   1       7.627  -2.689  -3.983  0.00  0.00    -0.062 A 
ATOM     19  H   LIG d   1       6.926  -4.707  -4.071  0.00  0.00     0.062 H 
ATOM     20  C   LIG d   1       7.698  -1.472  -4.634  0.00  0.00    -0.061 A 
ATOM     21  H   LIG d   1       8.075  -2.807  -3.007  0.00  0.00     0.062 H 
ATOM     22  C   LIG d   1       7.130  -1.322  -5.885  0.00  0.00    -0.053 A 
ATOM     23  H   LIG d   1       8.203  -0.639  -4.167  0.00  0.00     0.062 H 
ATOM     24  H   LIG d   1       7.189  -0.373  -6.395  0.00  0.00     0.062 H 
ENDBRANCH  11  14
ENDBRANCH   1  11
BRANCH   5  25
ATOM     25  C   LIG d   1       2.940   0.623  -5.134  0.00  0.00     0.199 C 
ATOM     26  O   LIG d   1       2.215   1.598  -5.081  0.00  0.00    -0.286 OA
BRANCH  25  27
ATOM     27  C   LIG d   1       3.485   0.040  -3.891  0.00  0.00     0.022 A 
ATOM     28  C   LIG d   1       4.119   0.856  -2.952  0.00  0.00    -0.051 A 
ATOM     29  C   LIG d   1       4.625   0.305  -1.794  0.00  0.00    -0.061 A 
ATOM     30  H   LIG d   1       4.214   1.917  -3.133  0.00  0.00     0.062 H 
ATOM     31  C   LIG d   1       4.504  -1.054  -1.559  0.00  0.00    -0.062 A 
ATOM     32  H   LIG d   1       5.115   0.934  -1.067  0.00  0.00     0.062 H 
ATOM     33  C   LIG d   1       3.871  -1.868  -2.483  0.00  0.00    -0.061 A 
ATOM     34  H   LIG d   1       4.901  -1.481  -0.651  0.00  0.00     0.062 H 
ATOM     35  C   LIG d   1       3.366  -1.331  -3.649  0.00  0.00    -0.051 A 
ATOM     36  H   LIG d   1       3.776  -2.927  -2.293  0.00  0.00     0.062 H 
ATOM     37  H   LIG d   1       2.876  -1.968  -4.370  0.00  0.00     0.062 H 
ENDBRANCH  25  27
ENDBRANCH   5  25
TORSDOF 4
ENDMDL
MODEL 10
REMARK VINA RESULT:      -6.8      2.801      6.670
REMARK  4 active torsions:
REMARK  status: ('A' for Active; 'I' for Inactive)
REMARK    1  A    between atoms: C_4  and  C_7 
REMARK    2  A    between atoms: C_7  and  N_8 
REMARK    3  A    between atoms: C_12  and  C_14 
REMARK    4  A    between atoms: C_14  and  C_16 
ROOT
ATOM      1  N   LIG d   1       4.597  -1.671  -7.697  0.00  0.00    -0.199 N 
ATOM      2  C   LIG d   1       3.838  -1.512  -8.765  0.00  0.00     0.172 A 
ATOM      3  C   LIG d   1       2.753  -0.654  -8.748  0.00  0.00     0.003 A 
ATOM      4  C   LIG d   1       2.462   0.049  -7.593  0.00  0.00    -0.040 A 
ATOM      5  C   LIG d   1       3.286  -0.141  -6.476  0.00  0.00     0.086 A 
ATOM      6  C   LIG d   1       4.365  -1.022  -6.575  0.00  0.00     0.182 A 
ATOM      7  H   LIG d   1       4.067  -2.062  -9.666  0.00  0.00     0.138 H 
ATOM      8  H   LIG d   1       2.140  -0.533  -9.630  0.00  0.00     0.068 H 
ATOM      9  H   LIG d   1       1.621   0.725  -7.553  0.00  0.00     0.063 H 
ATOM     10  H   LIG d   1       5.013  -1.175  -5.725  0.00  0.00     0.138 H 
ENDROOT
BRANCH   1  11
ATOM     11  C   LIG d   1       5.735  -2.592  -7.764  0.00  0.00     0.176 C 
ATOM     12  H   LIG d   1       6.062  -2.691  -8.799  0.00  0.00     0.108 H 
ATOM     13  H   LIG d   1       6.554  -2.201  -7.160  0.00  0.00     0.108 H 
BRANCH  11  14
ATOM     14  C   LIG d   1       5.321  -3.941  -7.236  0.00  0.00     0.017 A 
ATOM     15  C   LIG d   1       5.092  -4.986  -8.113  0.00  0.00    -0.053 A 
ATOM     16  C   LIG d   1       4.712  -6.223  -7.629  0.00  0.00    -0.061 A 
ATOM     17  H   LIG d   1       5.210  -4.834  -9.176  0.00  0.00     0.062 H 
ATOM     18  C   LIG d   1       4.561  -6.417  -6.269  0.00  0.00    -0.062 A 
ATOM     19  H   LIG d   1       4.533  -7.039  -8.314  0.00  0.00     0.062 H 
ATOM     20  C   LIG d   1       4.790  -5.373  -5.393  0.00  0.00    -0.061 A 
ATOM     21  H   LIG d   1       4.265  -7.384  -5.891  0.00  0.00     0.062 H 
ATOM     22  C   LIG d   1       5.175  -4.137  -5.875  0.00  0.00    -0.053 A 
ATOM     23  H   LIG d   1       4.673  -5.525  -4.330  0.00  0.00     0.062 H 
ATOM     24  H   LIG d   1       5.358  -3.322  -5.190  0.00  0.00     0.062 H 
ENDBRANCH  11  14
ENDBRANCH   1  11
BRANCH   5  25
ATOM     25  C   LIG d   1       3.022   0.583  -5.216  0.00  0.00     0.199 C 
ATOM     26  O   LIG d   1       2.391   1.622  -5.232  0.00  0.00    -0.286 OA
BRANCH  25  27
ATOM     27  C   LIG d   1       3.524   0.045  -3.935  0.00  0.00     0.022 A 
ATOM     28  C   LIG d   1       3.373  -1.311  -3.637  0.00  0.00    -0.051 A 
ATOM     29  C   LIG d   1       3.844  -1.808  -2.440  0.00  0.00    -0.061 A 
ATOM     30  H   LIG d   1       2.888  -1.970  -4.342  0.00  0.00     0.062 H 
ATOM     31  C   LIG d   1       4.467  -0.966  -1.535  0.00  0.00    -0.062 A 
ATOM     32  H   LIG d   1       3.729  -2.855  -2.208  0.00  0.00     0.062 H 
ATOM     33  C   LIG d   1       4.625   0.379  -1.826  0.00  0.00    -0.061 A 
ATOM     34  H   LIG d   1       4.834  -1.359  -0.598  0.00  0.00     0.062 H 
ATOM     35  C   LIG d   1       4.153   0.889  -3.017  0.00  0.00    -0.051 A 
ATOM     36  H   LIG d   1       5.115   1.029  -1.117  0.00  0.00     0.062 H 
ATOM     37  H   LIG d   1       4.274   1.939  -3.241  0.00  0.00     0.062 H 
ENDBRANCH  25  27
ENDBRANCH   5  25
TORSDOF 4
ENDMDL
