MODEL 1
REMARK VINA RESULT:      -4.9      0.000      0.000
REMARK  7 active torsions:
REMARK  status: ('A' for Active; 'I' for Inactive)
REMARK    1  A    between atoms: C3_3  and  O5_17 
REMARK    2  A    between atoms: C4_4  and  O4_16 
REMARK    3  A    between atoms: C6_6  and  C7_7 
REMARK    4  A    between atoms: C7_7  and  C8_9 
REMARK    5  A    between atoms: C7_7  and  O3_15 
REMARK    6  A    between atoms: C8_9  and  C9_11 
REMARK    7  A    between atoms: C8_9  and  N1_14 
ROOT
ATOM      1  C1  <1> d           4.333  -1.936  -3.176  0.00  0.00    -0.052 A 
ATOM      2  C2  <1> d           4.214  -1.036  -2.132  0.00  0.00    -0.016 A 
ATOM      3  C3  <1> d           4.889   0.173  -2.181  0.00  0.00     0.158 A 
ATOM      4  C4  <1> d           5.686   0.478  -3.280  0.00  0.00     0.159 A 
ATOM      5  C5  <1> d           5.801  -0.428  -4.321  0.00  0.00    -0.011 A 
ATOM      6  C6  <1> d           5.124  -1.632  -4.268  0.00  0.00    -0.010 A 
ATOM      7  H3  <1> d           3.809  -2.880  -3.135  0.00  0.00     0.062 H 
ATOM      8  H4  <1> d           3.595  -1.275  -1.281  0.00  0.00     0.066 H 
ATOM      9  H5  <1> d           6.418  -0.193  -5.176  0.00  0.00     0.066 H 
ENDROOT
BRANCH   6  10
ATOM     10  C7  <1> d           5.250  -2.617  -5.402  0.00  0.00     0.128 C 
ATOM     11  H1  <1> d           6.011  -2.270  -6.101  0.00  0.00     0.070 H 
BRANCH  10  12
ATOM     12  C8  <1> d           5.652  -3.985  -4.847  0.00  0.00     0.047 C 
ATOM     13  H2  <1> d           5.406  -4.034  -3.787  0.00  0.00     0.094 H 
BRANCH  12  14
ATOM     14  C9  <1> d           4.905  -5.065  -5.587  0.00  0.00     0.092 C 
ATOM     15  O1  <1> d           5.254  -5.390  -6.709  0.00  0.00    -0.544 OA
ATOM     16  O2  <1> d           3.951  -5.615  -5.062  0.00  0.00    -0.544 OA
ENDBRANCH  12  14
BRANCH  12  17
ATOM     17  N1  <1> d           7.097  -4.179  -5.025  0.00  0.00     0.227 N 
ATOM     18  H6  <1> d           7.344  -4.009  -5.988  0.00  0.00     0.200 HD
ATOM     19  H7  <1> d           7.598  -3.536  -4.430  0.00  0.00     0.200 HD
ATOM     20  H11 <1> d           7.343  -5.127  -4.777  0.00  0.00     0.200 HD
ENDBRANCH  12  17
ENDBRANCH  10  12
BRANCH  10  21
ATOM     21  O3  <1> d           3.996  -2.727  -6.078  0.00  0.00    -0.381 OA
ATOM     22  H8  <1> d           3.478  -3.502  -5.824  0.00  0.00     0.210 HD
ENDBRANCH  10  21
ENDBRANCH   6  10
BRANCH   4  23
ATOM     23  O4  <1> d           6.351   1.664  -3.332  0.00  0.00    -0.503 OA
ATOM     24  H9  <1> d           7.301   1.576  -3.489  0.00  0.00     0.292 HD
ENDBRANCH   4  23
BRANCH   3  25
ATOM     25  O5  <1> d           4.773   1.059  -1.155  0.00  0.00    -0.503 OA
ATOM     26  H10 <1> d           5.601   1.498  -0.919  0.00  0.00     0.292 HD
ENDBRANCH   3  25
TORSDOF 7
ENDMDL
MODEL 2
REMARK VINA RESULT:      -4.8      1.668      2.016
REMARK  7 active torsions:
REMARK  status: ('A' for Active; 'I' for Inactive)
REMARK    1  A    between atoms: C3_3  and  O5_17 
REMARK    2  A    between atoms: C4_4  and  O4_16 
REMARK    3  A    between atoms: C6_6  and  C7_7 
REMARK    4  A    between atoms: C7_7  and  C8_9 
REMARK    5  A    between atoms: C7_7  and  O3_15 
REMARK    6  A    between atoms: C8_9  and  C9_11 
REMARK    7  A    between atoms: C8_9  and  N1_14 
ROOT
ATOM      1  C1  <1> d           4.327  -2.038  -2.714  0.00  0.00    -0.052 A 
ATOM      2  C2  <1> d           4.111  -0.921  -1.927  0.00  0.00    -0.016 A 
ATOM      3  C3  <1> d           4.902   0.204  -2.091  0.00  0.00     0.158 A 
ATOM      4  C4  <1> d           5.912   0.208  -3.047  0.00  0.00     0.159 A 
ATOM      5  C5  <1> d           6.123  -0.913  -3.833  0.00  0.00    -0.011 A 
ATOM      6  C6  <1> d           5.330  -2.034  -3.665  0.00  0.00    -0.010 A 
ATOM      7  H3  <1> d           3.713  -2.917  -2.583  0.00  0.00     0.062 H 
ATOM      8  H4  <1> d           3.327  -0.928  -1.185  0.00  0.00     0.066 H 
ATOM      9  H5  <1> d           6.907  -0.912  -4.576  0.00  0.00     0.066 H 
ENDROOT
BRANCH   6  10
ATOM     10  C7  <1> d           5.561  -3.253  -4.521  0.00  0.00     0.128 C 
ATOM     11  H1  <1> d           5.193  -4.137  -4.000  0.00  0.00     0.070 H 
BRANCH  10  12
ATOM     12  C8  <1> d           4.814  -3.094  -5.847  0.00  0.00     0.047 C 
ATOM     13  H2  <1> d           4.275  -2.146  -5.848  0.00  0.00     0.094 H 
BRANCH  12  14
ATOM     14  C9  <1> d           5.802  -3.113  -6.984  0.00  0.00     0.092 C 
ATOM     15  O1  <1> d           6.077  -4.165  -7.536  0.00  0.00    -0.544 OA
ATOM     16  O2  <1> d           6.325  -2.076  -7.354  0.00  0.00    -0.544 OA
ENDBRANCH  12  14
BRANCH  12  17
ATOM     17  N1  <1> d           3.861  -4.200  -6.007  0.00  0.00     0.227 N 
ATOM     18  H6  <1> d           4.309  -5.069  -5.762  0.00  0.00     0.200 HD
ATOM     19  H7  <1> d           3.067  -4.049  -5.402  0.00  0.00     0.200 HD
ATOM     20  H11 <1> d           3.549  -4.240  -6.966  0.00  0.00     0.200 HD
ENDBRANCH  12  17
ENDBRANCH  10  12
BRANCH  10  21
ATOM     21  O3  <1> d           6.959  -3.397  -4.777  0.00  0.00    -0.381 OA
ATOM     22  H8  <1> d           7.496  -2.660  -4.457  0.00  0.00     0.210 HD
ENDBRANCH  10  21
ENDBRANCH   6  10
BRANCH   4  23
ATOM     23  O4  <1> d           6.691   1.311  -3.212  0.00  0.00    -0.503 OA
ATOM     24  H9  <1> d           6.669   1.679  -4.106  0.00  0.00     0.292 HD
ENDBRANCH   4  23
BRANCH   3  25
ATOM     25  O5  <1> d           4.691   1.303  -1.317  0.00  0.00    -0.503 OA
ATOM     26  H10 <1> d           4.844   1.155  -0.374  0.00  0.00     0.292 HD
ENDBRANCH   3  25
TORSDOF 7
ENDMDL
MODEL 3
REMARK VINA RESULT:      -4.7      2.963      5.684
REMARK  7 active torsions:
REMARK  status: ('A' for Active; 'I' for Inactive)
REMARK    1  A    between atoms: C3_3  and  O5_17 
REMARK    2  A    between atoms: C4_4  and  O4_16 
REMARK    3  A    between atoms: C6_6  and  C7_7 
REMARK    4  A    between atoms: C7_7  and  C8_9 
REMARK    5  A    between atoms: C7_7  and  O3_15 
REMARK    6  A    between atoms: C8_9  and  C9_11 
REMARK    7  A    between atoms: C8_9  and  N1_14 
ROOT
ATOM      1  C1  <1> d           4.506  -1.302  -5.669  0.00  0.00    -0.052 A 
ATOM      2  C2  <1> d           4.703  -1.719  -6.974  0.00  0.00    -0.016 A 
ATOM      3  C3  <1> d           3.972  -1.145  -8.001  0.00  0.00     0.158 A 
ATOM      4  C4  <1> d           3.043  -0.149  -7.719  0.00  0.00     0.159 A 
ATOM      5  C5  <1> d           2.851   0.264  -6.410  0.00  0.00    -0.011 A 
ATOM      6  C6  <1> d           3.583  -0.312  -5.389  0.00  0.00    -0.010 A 
ATOM      7  H3  <1> d           5.073  -1.753  -4.868  0.00  0.00     0.062 H 
ATOM      8  H4  <1> d           5.425  -2.491  -7.190  0.00  0.00     0.066 H 
ATOM      9  H5  <1> d           2.130   1.037  -6.188  0.00  0.00     0.066 H 
ENDROOT
BRANCH   6  10
ATOM     10  C7  <1> d           3.373   0.139  -3.966  0.00  0.00     0.128 C 
ATOM     11  H1  <1> d           2.469  -0.321  -3.568  0.00  0.00     0.070 H 
BRANCH  10  12
ATOM     12  C8  <1> d           4.575  -0.280  -3.116  0.00  0.00     0.047 C 
ATOM     13  H2  <1> d           5.313  -0.773  -3.748  0.00  0.00     0.094 H 
BRANCH  12  14
ATOM     14  C9  <1> d           5.190   0.940  -2.481  0.00  0.00     0.092 C 
ATOM     15  O1  <1> d           6.036   1.580  -3.082  0.00  0.00    -0.544 OA
ATOM     16  O2  <1> d           4.842   1.289  -1.366  0.00  0.00    -0.544 OA
ENDBRANCH  12  14
BRANCH  12  17
ATOM     17  N1  <1> d           4.131  -1.207  -2.066  0.00  0.00     0.227 N 
ATOM     18  H6  <1> d           3.552  -1.925  -2.473  0.00  0.00     0.200 HD
ATOM     19  H7  <1> d           4.937  -1.631  -1.631  0.00  0.00     0.200 HD
ATOM     20  H11 <1> d           3.602  -0.700  -1.371  0.00  0.00     0.200 HD
ENDBRANCH  12  17
ENDBRANCH  10  12
BRANCH  10  21
ATOM     21  O3  <1> d           3.240   1.561  -3.933  0.00  0.00    -0.381 OA
ATOM     22  H8  <1> d           3.916   2.032  -4.438  0.00  0.00     0.210 HD
ENDBRANCH  10  21
ENDBRANCH   6  10
BRANCH   4  23
ATOM     23  O4  <1> d           2.324   0.418  -8.724  0.00  0.00    -0.503 OA
ATOM     24  H9  <1> d           1.952  -0.219  -9.350  0.00  0.00     0.292 HD
ENDBRANCH   4  23
BRANCH   3  25
ATOM     25  O5  <1> d           4.165  -1.554  -9.284  0.00  0.00    -0.503 OA
ATOM     26  H10 <1> d           4.384  -2.492  -9.369  0.00  0.00     0.292 HD
ENDBRANCH   3  25
TORSDOF 7
ENDMDL
MODEL 4
REMARK VINA RESULT:      -4.6     10.659     13.114
REMARK  7 active torsions:
REMARK  status: ('A' for Active; 'I' for Inactive)
REMARK    1  A    between atoms: C3_3  and  O5_17 
REMARK    2  A    between atoms: C4_4  and  O4_16 
REMARK    3  A    between atoms: C6_6  and  C7_7 
REMARK    4  A    between atoms: C7_7  and  C8_9 
REMARK    5  A    between atoms: C7_7  and  O3_15 
REMARK    6  A    between atoms: C8_9  and  C9_11 
REMARK    7  A    between atoms: C8_9  and  N1_14 
ROOT
ATOM      1  C1  <1> d           9.611   7.523  -1.990  0.00  0.00    -0.052 A 
ATOM      2  C2  <1> d          10.015   6.209  -1.828  0.00  0.00    -0.016 A 
ATOM      3  C3  <1> d          10.729   5.839  -0.701  0.00  0.00     0.158 A 
ATOM      4  C4  <1> d          11.038   6.788   0.268  0.00  0.00     0.159 A 
ATOM      5  C5  <1> d          10.631   8.102   0.100  0.00  0.00    -0.011 A 
ATOM      6  C6  <1> d           9.918   8.466  -1.027  0.00  0.00    -0.010 A 
ATOM      7  H3  <1> d           9.058   7.812  -2.871  0.00  0.00     0.062 H 
ATOM      8  H4  <1> d           9.774   5.475  -2.581  0.00  0.00     0.066 H 
ATOM      9  H5  <1> d          10.869   8.841   0.851  0.00  0.00     0.066 H 
ENDROOT
BRANCH   6  10
ATOM     10  C7  <1> d           9.475   9.896  -1.207  0.00  0.00     0.128 C 
ATOM     11  H1  <1> d           9.835  10.496  -0.372  0.00  0.00     0.070 H 
BRANCH  10  12
ATOM     12  C8  <1> d          10.048  10.446  -2.515  0.00  0.00     0.047 C 
ATOM     13  H2  <1> d          10.111   9.643  -3.250  0.00  0.00     0.094 H 
BRANCH  12  14
ATOM     14  C9  <1> d           9.149  11.536  -3.038  0.00  0.00     0.092 C 
ATOM     15  O1  <1> d           9.181  12.647  -2.536  0.00  0.00    -0.544 OA
ATOM     16  O2  <1> d           8.388  11.308  -3.963  0.00  0.00    -0.544 OA
ENDBRANCH  12  14
BRANCH  12  17
ATOM     17  N1  <1> d          11.389  10.993  -2.269  0.00  0.00     0.227 N 
ATOM     18  H6  <1> d          11.903  11.026  -3.136  0.00  0.00     0.200 HD
ATOM     19  H7  <1> d          11.307  11.924  -1.890  0.00  0.00     0.200 HD
ATOM     20  H11 <1> d          11.877  10.404  -1.610  0.00  0.00     0.200 HD
ENDBRANCH  12  17
ENDBRANCH  10  12
BRANCH  10  21
ATOM     21  O3  <1> d           8.048   9.949  -1.253  0.00  0.00    -0.381 OA
ATOM     22  H8  <1> d           7.694  10.322  -2.072  0.00  0.00     0.210 HD
ENDBRANCH  10  21
ENDBRANCH   6  10
BRANCH   4  23
ATOM     23  O4  <1> d          11.739   6.429   1.377  0.00  0.00    -0.503 OA
ATOM     24  H9  <1> d          12.622   6.082   1.189  0.00  0.00     0.292 HD
ENDBRANCH   4  23
BRANCH   3  25
ATOM     25  O5  <1> d          11.127   4.547  -0.541  0.00  0.00    -0.503 OA
ATOM     26  H10 <1> d          12.066   4.448  -0.332  0.00  0.00     0.292 HD
ENDBRANCH   3  25
TORSDOF 7
ENDMDL
MODEL 5
REMARK VINA RESULT:      -4.6      4.026      6.202
REMARK  7 active torsions:
REMARK  status: ('A' for Active; 'I' for Inactive)
REMARK    1  A    between atoms: C3_3  and  O5_17 
REMARK    2  A    between atoms: C4_4  and  O4_16 
REMARK    3  A    between atoms: C6_6  and  C7_7 
REMARK    4  A    between atoms: C7_7  and  C8_9 
REMARK    5  A    between atoms: C7_7  and  O3_15 
REMARK    6  A    between atoms: C8_9  and  C9_11 
REMARK    7  A    between atoms: C8_9  and  N1_14 
ROOT
ATOM      1  C1  <1> d           2.793   1.658  -7.613  0.00  0.00    -0.052 A 
ATOM      2  C2  <1> d           3.164   1.704  -8.945  0.00  0.00    -0.016 A 
ATOM      3  C3  <1> d           3.731   0.591  -9.544  0.00  0.00     0.158 A 
ATOM      4  C4  <1> d           3.926  -0.571  -8.805  0.00  0.00     0.159 A 
ATOM      5  C5  <1> d           3.553  -0.611  -7.472  0.00  0.00    -0.011 A 
ATOM      6  C6  <1> d           2.987   0.503  -6.879  0.00  0.00    -0.010 A 
ATOM      7  H3  <1> d           2.355   2.527  -7.145  0.00  0.00     0.062 H 
ATOM      8  H4  <1> d           3.011   2.607  -9.516  0.00  0.00     0.066 H 
ATOM      9  H5  <1> d           3.703  -1.512  -6.895  0.00  0.00     0.066 H 
ENDROOT
BRANCH   6  10
ATOM     10  C7  <1> d           2.580   0.457  -5.428  0.00  0.00     0.128 C 
ATOM     11  H1  <1> d           1.639  -0.084  -5.331  0.00  0.00     0.070 H 
BRANCH  10  12
ATOM     12  C8  <1> d           3.665  -0.256  -4.617  0.00  0.00     0.047 C 
ATOM     13  H2  <1> d           4.553  -0.388  -5.235  0.00  0.00     0.094 H 
BRANCH  12  14
ATOM     14  C9  <1> d           4.013   0.572  -3.407  0.00  0.00     0.092 C 
ATOM     15  O1  <1> d           4.971   1.324  -3.437  0.00  0.00    -0.544 OA
ATOM     16  O2  <1> d           3.334   0.490  -2.397  0.00  0.00    -0.544 OA
ENDBRANCH  12  14
BRANCH  12  17
ATOM     17  N1  <1> d           3.168  -1.570  -4.185  0.00  0.00     0.227 N 
ATOM     18  H6  <1> d           3.514  -1.773  -3.260  0.00  0.00     0.200 HD
ATOM     19  H7  <1> d           2.159  -1.559  -4.173  0.00  0.00     0.200 HD
ATOM     20  H11 <1> d           3.489  -2.279  -4.828  0.00  0.00     0.200 HD
ENDBRANCH  12  17
ENDBRANCH  10  12
BRANCH  10  21
ATOM     21  O3  <1> d           2.418   1.789  -4.937  0.00  0.00    -0.381 OA
ATOM     22  H8  <1> d           1.725   2.292  -5.385  0.00  0.00     0.210 HD
ENDBRANCH  10  21
ENDBRANCH   6  10
BRANCH   4  23
ATOM     23  O4  <1> d           4.483  -1.666  -9.390  0.00  0.00    -0.503 OA
ATOM     24  H9  <1> d           5.443  -1.721  -9.288  0.00  0.00     0.292 HD
ENDBRANCH   4  23
BRANCH   3  25
ATOM     25  O5  <1> d           4.096   0.636 -10.854  0.00  0.00    -0.503 OA
ATOM     26  H10 <1> d           3.925  -0.184 -11.338  0.00  0.00     0.292 HD
ENDBRANCH   3  25
TORSDOF 7
ENDMDL
MODEL 6
REMARK VINA RESULT:      -4.5      3.796      4.880
REMARK  7 active torsions:
REMARK  status: ('A' for Active; 'I' for Inactive)
REMARK    1  A    between atoms: C3_3  and  O5_17 
REMARK    2  A    between atoms: C4_4  and  O4_16 
REMARK    3  A    between atoms: C6_6  and  C7_7 
REMARK    4  A    between atoms: C7_7  and  C8_9 
REMARK    5  A    between atoms: C7_7  and  O3_15 
REMARK    6  A    between atoms: C8_9  and  C9_11 
REMARK    7  A    between atoms: C8_9  and  N1_14 
ROOT
ATOM      1  C1  <1> d           4.711  -2.160  -5.640  0.00  0.00    -0.052 A 
ATOM      2  C2  <1> d           4.623  -2.625  -4.339  0.00  0.00    -0.016 A 
ATOM      3  C3  <1> d           3.990  -1.861  -3.373  0.00  0.00     0.158 A 
ATOM      4  C4  <1> d           3.443  -0.628  -3.712  0.00  0.00     0.159 A 
ATOM      5  C5  <1> d           3.534  -0.168  -5.015  0.00  0.00    -0.011 A 
ATOM      6  C6  <1> d           4.167  -0.935  -5.976  0.00  0.00    -0.010 A 
ATOM      7  H3  <1> d           5.209  -2.754  -6.392  0.00  0.00     0.062 H 
ATOM      8  H4  <1> d           5.049  -3.582  -4.080  0.00  0.00     0.066 H 
ATOM      9  H5  <1> d           3.110   0.789  -5.281  0.00  0.00     0.066 H 
ENDROOT
BRANCH   6  10
ATOM     10  C7  <1> d           4.265  -0.433  -7.394  0.00  0.00     0.128 C 
ATOM     11  H1  <1> d           4.616  -1.237  -8.041  0.00  0.00     0.070 H 
BRANCH  10  12
ATOM     12  C8  <1> d           2.887   0.036  -7.865  0.00  0.00     0.047 C 
ATOM     13  H2  <1> d           2.209   0.086  -7.013  0.00  0.00     0.094 H 
BRANCH  12  14
ATOM     14  C9  <1> d           3.008   1.401  -8.492  0.00  0.00     0.092 C 
ATOM     15  O1  <1> d           3.325   1.508  -9.664  0.00  0.00    -0.544 OA
ATOM     16  O2  <1> d           2.788   2.399  -7.826  0.00  0.00    -0.544 OA
ENDBRANCH  12  14
BRANCH  12  17
ATOM     17  N1  <1> d           2.359  -0.912  -8.855  0.00  0.00     0.227 N 
ATOM     18  H6  <1> d           2.685  -1.842  -8.638  0.00  0.00     0.200 HD
ATOM     19  H7  <1> d           1.351  -0.895  -8.833  0.00  0.00     0.200 HD
ATOM     20  H11 <1> d           2.679  -0.650  -9.776  0.00  0.00     0.200 HD
ENDBRANCH  12  17
ENDBRANCH  10  12
BRANCH  10  21
ATOM     21  O3  <1> d           5.184   0.660  -7.450  0.00  0.00    -0.381 OA
ATOM     22  H8  <1> d           5.024   1.273  -8.180  0.00  0.00     0.210 HD
ENDBRANCH  10  21
ENDBRANCH   6  10
BRANCH   4  23
ATOM     23  O4  <1> d           2.820   0.125  -2.766  0.00  0.00    -0.503 OA
ATOM     24  H9  <1> d           3.394   0.393  -2.035  0.00  0.00     0.292 HD
ENDBRANCH   4  23
BRANCH   3  25
ATOM     25  O5  <1> d           3.903  -2.318  -2.094  0.00  0.00    -0.503 OA
ATOM     26  H10 <1> d           4.530  -3.023  -1.885  0.00  0.00     0.292 HD
ENDBRANCH   3  25
TORSDOF 7
ENDMDL
MODEL 7
REMARK VINA RESULT:      -4.5     10.376     13.016
REMARK  7 active torsions:
REMARK  status: ('A' for Active; 'I' for Inactive)
REMARK    1  A    between atoms: C3_3  and  O5_17 
REMARK    2  A    between atoms: C4_4  and  O4_16 
REMARK    3  A    between atoms: C6_6  and  C7_7 
REMARK    4  A    between atoms: C7_7  and  C8_9 
REMARK    5  A    between atoms: C7_7  and  O3_15 
REMARK    6  A    between atoms: C8_9  and  C9_11 
REMARK    7  A    between atoms: C8_9  and  N1_14 
ROOT
ATOM      1  C1  <1> d          10.715   8.188   0.194  0.00  0.00    -0.052 A 
ATOM      2  C2  <1> d          11.195   6.908   0.410  0.00  0.00    -0.016 A 
ATOM      3  C3  <1> d          10.889   5.895  -0.483  0.00  0.00     0.158 A 
ATOM      4  C4  <1> d          10.100   6.167  -1.596  0.00  0.00     0.159 A 
ATOM      5  C5  <1> d           9.623   7.450  -1.807  0.00  0.00    -0.011 A 
ATOM      6  C6  <1> d           9.931   8.458  -0.912  0.00  0.00    -0.010 A 
ATOM      7  H3  <1> d          10.951   8.977   0.894  0.00  0.00     0.062 H 
ATOM      8  H4  <1> d          11.807   6.701   1.274  0.00  0.00     0.066 H 
ATOM      9  H5  <1> d           9.010   7.664  -2.670  0.00  0.00     0.066 H 
ENDROOT
BRANCH   6  10
ATOM     10  C7  <1> d           9.412   9.854  -1.142  0.00  0.00     0.128 C 
ATOM     11  H1  <1> d           9.803  10.519  -0.373  0.00  0.00     0.070 H 
BRANCH  10  12
ATOM     12  C8  <1> d           9.864  10.345  -2.519  0.00  0.00     0.047 C 
ATOM     13  H2  <1> d           9.661   9.576  -3.264  0.00  0.00     0.094 H 
BRANCH  12  14
ATOM     14  C9  <1> d           9.114  11.602  -2.875  0.00  0.00     0.092 C 
ATOM     15  O1  <1> d           9.544  12.689  -2.528  0.00  0.00    -0.544 OA
ATOM     16  O2  <1> d           8.076  11.533  -3.511  0.00  0.00    -0.544 OA
ENDBRANCH  12  14
BRANCH  12  17
ATOM     17  N1  <1> d          11.306  10.627  -2.488  0.00  0.00     0.227 N 
ATOM     18  H6  <1> d          11.475  11.459  -1.943  0.00  0.00     0.200 HD
ATOM     19  H7  <1> d          11.791   9.848  -2.069  0.00  0.00     0.200 HD
ATOM     20  H11 <1> d          11.643  10.766  -3.429  0.00  0.00     0.200 HD
ENDBRANCH  12  17
ENDBRANCH  10  12
BRANCH  10  21
ATOM     21  O3  <1> d           7.984   9.846  -1.086  0.00  0.00    -0.381 OA
ATOM     22  H8  <1> d           7.624   9.967  -0.198  0.00  0.00     0.210 HD
ENDBRANCH  10  21
ENDBRANCH   6  10
BRANCH   4  23
ATOM     23  O4  <1> d           9.797   5.175  -2.477  0.00  0.00    -0.503 OA
ATOM     24  H9  <1> d          10.163   4.312  -2.238  0.00  0.00     0.292 HD
ENDBRANCH   4  23
BRANCH   3  25
ATOM     25  O5  <1> d          11.360   4.636  -0.273  0.00  0.00    -0.503 OA
ATOM     26  H10 <1> d          11.293   4.057  -1.044  0.00  0.00     0.292 HD
ENDBRANCH   3  25
TORSDOF 7
ENDMDL
MODEL 8
REMARK VINA RESULT:      -4.4      1.791      2.014
REMARK  7 active torsions:
REMARK  status: ('A' for Active; 'I' for Inactive)
REMARK    1  A    between atoms: C3_3  and  O5_17 
REMARK    2  A    between atoms: C4_4  and  O4_16 
REMARK    3  A    between atoms: C6_6  and  C7_7 
REMARK    4  A    between atoms: C7_7  and  C8_9 
REMARK    5  A    between atoms: C7_7  and  O3_15 
REMARK    6  A    between atoms: C8_9  and  C9_11 
REMARK    7  A    between atoms: C8_9  and  N1_14 
ROOT
ATOM      1  C1  <1> d           4.717  -1.879  -2.750  0.00  0.00    -0.052 A 
ATOM      2  C2  <1> d           4.310  -0.785  -2.008  0.00  0.00    -0.016 A 
ATOM      3  C3  <1> d           3.711   0.294  -2.637  0.00  0.00     0.158 A 
ATOM      4  C4  <1> d           3.521   0.276  -4.014  0.00  0.00     0.159 A 
ATOM      5  C5  <1> d           3.931  -0.823  -4.753  0.00  0.00    -0.011 A 
ATOM      6  C6  <1> d           4.528  -1.897  -4.119  0.00  0.00    -0.010 A 
ATOM      7  H3  <1> d           5.187  -2.718  -2.260  0.00  0.00     0.062 H 
ATOM      8  H4  <1> d           4.459  -0.774  -0.939  0.00  0.00     0.066 H 
ATOM      9  H5  <1> d           3.785  -0.839  -5.823  0.00  0.00     0.066 H 
ENDROOT
BRANCH   6  10
ATOM     10  C7  <1> d           4.973  -3.092  -4.924  0.00  0.00     0.128 C 
ATOM     11  H1  <1> d           4.725  -2.935  -5.974  0.00  0.00     0.070 H 
BRANCH  10  12
ATOM     12  C8  <1> d           6.486  -3.269  -4.778  0.00  0.00     0.047 C 
ATOM     13  H2  <1> d           6.754  -3.249  -3.722  0.00  0.00     0.094 H 
BRANCH  12  14
ATOM     14  C9  <1> d           6.896  -4.590  -5.376  0.00  0.00     0.092 C 
ATOM     15  O1  <1> d           7.780  -5.248  -4.855  0.00  0.00    -0.544 OA
ATOM     16  O2  <1> d           6.342  -5.001  -6.382  0.00  0.00    -0.544 OA
ENDBRANCH  12  14
BRANCH  12  17
ATOM     17  N1  <1> d           7.176  -2.178  -5.481  0.00  0.00     0.227 N 
ATOM     18  H6  <1> d           7.624  -2.541  -6.308  0.00  0.00     0.200 HD
ATOM     19  H7  <1> d           6.505  -1.472  -5.744  0.00  0.00     0.200 HD
ATOM     20  H11 <1> d           7.871  -1.772  -4.871  0.00  0.00     0.200 HD
ENDBRANCH  12  17
ENDBRANCH  10  12
BRANCH  10  21
ATOM     21  O3  <1> d           4.308  -4.262  -4.446  0.00  0.00    -0.381 OA
ATOM     22  H8  <1> d           3.539  -4.079  -3.890  0.00  0.00     0.210 HD
ENDBRANCH  10  21
ENDBRANCH   6  10
BRANCH   4  23
ATOM     23  O4  <1> d           2.934   1.333  -4.636  0.00  0.00    -0.503 OA
ATOM     24  H9  <1> d           2.247   1.086  -5.271  0.00  0.00     0.292 HD
ENDBRANCH   4  23
BRANCH   3  25
ATOM     25  O5  <1> d           3.310   1.371  -1.907  0.00  0.00    -0.503 OA
ATOM     26  H10 <1> d           4.033   1.952  -1.634  0.00  0.00     0.292 HD
ENDBRANCH   3  25
TORSDOF 7
ENDMDL
MODEL 9
REMARK VINA RESULT:      -4.4      2.723      5.363
REMARK  7 active torsions:
REMARK  status: ('A' for Active; 'I' for Inactive)
REMARK    1  A    between atoms: C3_3  and  O5_17 
REMARK    2  A    between atoms: C4_4  and  O4_16 
REMARK    3  A    between atoms: C6_6  and  C7_7 
REMARK    4  A    between atoms: C7_7  and  C8_9 
REMARK    5  A    between atoms: C7_7  and  O3_15 
REMARK    6  A    between atoms: C8_9  and  C9_11 
REMARK    7  A    between atoms: C8_9  and  N1_14 
ROOT
ATOM      1  C1  <1> d           5.573  -3.242  -5.033  0.00  0.00    -0.052 A 
ATOM      2  C2  <1> d           6.459  -4.284  -5.246  0.00  0.00    -0.016 A 
ATOM      3  C3  <1> d           7.724  -4.243  -4.682  0.00  0.00     0.158 A 
ATOM      4  C4  <1> d           8.100  -3.154  -3.902  0.00  0.00     0.159 A 
ATOM      5  C5  <1> d           7.209  -2.114  -3.693  0.00  0.00    -0.011 A 
ATOM      6  C6  <1> d           5.948  -2.161  -4.258  0.00  0.00    -0.010 A 
ATOM      7  H3  <1> d           4.589  -3.273  -5.477  0.00  0.00     0.062 H 
ATOM      8  H4  <1> d           6.164  -5.127  -5.851  0.00  0.00     0.066 H 
ATOM      9  H5  <1> d           7.498  -1.268  -3.088  0.00  0.00     0.066 H 
ENDROOT
BRANCH   6  10
ATOM     10  C7  <1> d           4.979  -1.029  -4.029  0.00  0.00     0.128 C 
ATOM     11  H1  <1> d           3.968  -1.428  -3.940  0.00  0.00     0.070 H 
BRANCH  10  12
ATOM     12  C8  <1> d           5.351  -0.292  -2.740  0.00  0.00     0.047 C 
ATOM     13  H2  <1> d           6.309  -0.662  -2.375  0.00  0.00     0.094 H 
BRANCH  12  14
ATOM     14  C9  <1> d           5.455   1.185  -3.019  0.00  0.00     0.092 C 
ATOM     15  O1  <1> d           4.454   1.880  -3.004  0.00  0.00    -0.544 OA
ATOM     16  O2  <1> d           6.541   1.685  -3.258  0.00  0.00    -0.544 OA
ENDBRANCH  12  14
BRANCH  12  17
ATOM     17  N1  <1> d           4.315  -0.528  -1.726  0.00  0.00     0.227 N 
ATOM     18  H6  <1> d           4.577  -0.072  -0.865  0.00  0.00     0.200 HD
ATOM     19  H7  <1> d           3.436  -0.155  -2.051  0.00  0.00     0.200 HD
ATOM     20  H11 <1> d           4.221  -1.520  -1.566  0.00  0.00     0.200 HD
ENDBRANCH  12  17
ENDBRANCH  10  12
BRANCH  10  21
ATOM     21  O3  <1> d           5.039  -0.121  -5.130  0.00  0.00    -0.381 OA
ATOM     22  H8  <1> d           4.202   0.325  -5.319  0.00  0.00     0.210 HD
ENDBRANCH  10  21
ENDBRANCH   6  10
BRANCH   4  23
ATOM     23  O4  <1> d           9.341  -3.110  -3.346  0.00  0.00    -0.503 OA
ATOM     24  H9  <1> d           9.628  -2.221  -3.095  0.00  0.00     0.292 HD
ENDBRANCH   4  23
BRANCH   3  25
ATOM     25  O5  <1> d           8.595  -5.266  -4.890  0.00  0.00    -0.503 OA
ATOM     26  H10 <1> d           9.112  -5.183  -5.703  0.00  0.00     0.292 HD
ENDBRANCH   3  25
TORSDOF 7
ENDMDL
MODEL 10
REMARK VINA RESULT:      -4.3      8.924     11.829
REMARK  7 active torsions:
REMARK  status: ('A' for Active; 'I' for Inactive)
REMARK    1  A    between atoms: C3_3  and  O5_17 
REMARK    2  A    between atoms: C4_4  and  O4_16 
REMARK    3  A    between atoms: C6_6  and  C7_7 
REMARK    4  A    between atoms: C7_7  and  C8_9 
REMARK    5  A    between atoms: C7_7  and  O3_15 
REMARK    6  A    between atoms: C8_9  and  C9_11 
REMARK    7  A    between atoms: C8_9  and  N1_14 
ROOT
ATOM      1  C1  <1> d           9.402   6.670  -3.368  0.00  0.00    -0.052 A 
ATOM      2  C2  <1> d           9.567   5.602  -4.232  0.00  0.00    -0.016 A 
ATOM      3  C3  <1> d          10.109   4.414  -3.768  0.00  0.00     0.158 A 
ATOM      4  C4  <1> d          10.484   4.298  -2.433  0.00  0.00     0.159 A 
ATOM      5  C5  <1> d          10.316   5.372  -1.574  0.00  0.00    -0.011 A 
ATOM      6  C6  <1> d           9.775   6.555  -2.042  0.00  0.00    -0.010 A 
ATOM      7  H3  <1> d           8.984   7.597  -3.732  0.00  0.00     0.062 H 
ATOM      8  H4  <1> d           9.275   5.695  -5.266  0.00  0.00     0.066 H 
ATOM      9  H5  <1> d          10.607   5.284  -0.537  0.00  0.00     0.066 H 
ENDROOT
BRANCH   6  10
ATOM     10  C7  <1> d           9.592   7.721  -1.105  0.00  0.00     0.128 C 
ATOM     11  H1  <1> d           9.993   7.465  -0.125  0.00  0.00     0.070 H 
BRANCH  10  12
ATOM     12  C8  <1> d          10.335   8.940  -1.658  0.00  0.00     0.047 C 
ATOM     13  H2  <1> d          10.389   8.870  -2.744  0.00  0.00     0.094 H 
BRANCH  12  14
ATOM     14  C9  <1> d           9.599  10.195  -1.269  0.00  0.00     0.092 C 
ATOM     15  O1  <1> d           9.670  10.616  -0.127  0.00  0.00    -0.544 OA
ATOM     16  O2  <1> d           8.931  10.791  -2.098  0.00  0.00    -0.544 OA
ENDBRANCH  12  14
BRANCH  12  17
ATOM     17  N1  <1> d          11.694   8.977  -1.101  0.00  0.00     0.227 N 
ATOM     18  H6  <1> d          12.347   9.242  -1.822  0.00  0.00     0.200 HD
ATOM     19  H7  <1> d          11.731   9.651  -0.350  0.00  0.00     0.200 HD
ATOM     20  H11 <1> d          11.938   8.064  -0.745  0.00  0.00     0.200 HD
ENDBRANCH  12  17
ENDBRANCH  10  12
BRANCH  10  21
ATOM     21  O3  <1> d           8.201   8.025  -0.989  0.00  0.00    -0.381 OA
ATOM     22  H8  <1> d           7.977   8.557  -0.214  0.00  0.00     0.210 HD
ENDBRANCH  10  21
ENDBRANCH   6  10
BRANCH   4  23
ATOM     23  O4  <1> d          11.016   3.134  -1.973  0.00  0.00    -0.503 OA
ATOM     24  H9  <1> d          11.685   2.749  -2.556  0.00  0.00     0.292 HD
ENDBRANCH   4  23
BRANCH   3  25
ATOM     25  O5  <1> d          10.272   3.363  -4.616  0.00  0.00    -0.503 OA
ATOM     26  H10 <1> d          10.585   2.556  -4.186  0.00  0.00     0.292 HD
ENDBRANCH   3  25
TORSDOF 7
ENDMDL
