MODEL 1
REMARK VINA RESULT:      -4.5      0.000      0.000
REMARK  5 active torsions:
REMARK  status: ('A' for Active; 'I' for Inactive)
REMARK    1  A    between atoms: C_1  and  C_2 
REMARK    2  A    between atoms: C_1  and  C_7 
REMARK    3  A    between atoms: C_2  and  C_4 
REMARK    4  A    between atoms: C_2  and  O_6 
REMARK    5  A    between atoms: C_7  and  C_9 
ROOT
ATOM      1  C   LIG d   1       3.964  -1.550  -2.243  0.00  0.00     0.043 C 
ATOM      2  H   LIG d   1       3.253  -2.118  -1.830  0.00  0.00     0.037 H 
ATOM      3  H   LIG d   1       4.702  -1.285  -1.487  0.00  0.00     0.037 H 
ENDROOT
BRANCH   1   4
ATOM      4  C   LIG d   1       4.646  -2.327  -3.372  0.00  0.00     0.101 C 
ATOM      5  H   LIG d   1       4.964  -3.302  -3.002  0.00  0.00     0.066 H 
BRANCH   4   6
ATOM      6  C   LIG d   1       5.847  -1.557  -3.858  0.00  0.00     0.070 C 
ATOM      7  O   LIG d   1       6.765  -1.334  -3.106  0.00  0.00    -0.547 OA
ATOM      8  O   LIG d   1       5.898  -1.127  -5.128  0.00  0.00    -0.547 OA
ENDBRANCH   4   6
BRANCH   4   9
ATOM      9  O   LIG d   1       3.725  -2.504  -4.451  0.00  0.00    -0.386 OA
ATOM     10  H   LIG d   1       4.128  -2.848  -5.260  0.00  0.00     0.210 HD
ENDBRANCH   4   9
ENDBRANCH   1   4
BRANCH   1  11
ATOM     11  C   LIG d   1       3.344  -0.295  -2.802  0.00  0.00     0.181 C 
ATOM     12  O   LIG d   1       2.363  -0.365  -3.501  0.00  0.00    -0.291 OA
BRANCH  11  13
ATOM     13  C   LIG d   1       3.944   1.034  -2.489  0.00  0.00     0.107 C 
ATOM     14  O   LIG d   1       3.698   1.991  -3.193  0.00  0.00    -0.542 OA
ATOM     15  O   LIG d   1       4.757   1.172  -1.425  0.00  0.00    -0.542 OA
ENDBRANCH  11  13
ENDBRANCH   1  11
TORSDOF 5
ENDMDL
MODEL 2
REMARK VINA RESULT:      -4.5      1.357      2.126
REMARK  5 active torsions:
REMARK  status: ('A' for Active; 'I' for Inactive)
REMARK    1  A    between atoms: C_1  and  C_2 
REMARK    2  A    between atoms: C_1  and  C_7 
REMARK    3  A    between atoms: C_2  and  C_4 
REMARK    4  A    between atoms: C_2  and  O_6 
REMARK    5  A    between atoms: C_7  and  C_9 
ROOT
ATOM      1  C   LIG d   1       4.444  -1.137  -1.901  0.00  0.00     0.043 C 
ATOM      2  H   LIG d   1       4.071  -1.227  -0.978  0.00  0.00     0.037 H 
ATOM      3  H   LIG d   1       5.509  -1.370  -1.888  0.00  0.00     0.037 H 
ENDROOT
BRANCH   1   4
ATOM      4  C   LIG d   1       3.722  -2.108  -2.839  0.00  0.00     0.101 C 
ATOM      5  H   LIG d   1       3.166  -2.837  -2.250  0.00  0.00     0.066 H 
BRANCH   4   6
ATOM      6  C   LIG d   1       4.733  -2.821  -3.700  0.00  0.00     0.070 C 
ATOM      7  O   LIG d   1       4.374  -3.690  -4.459  0.00  0.00    -0.547 OA
ATOM      8  O   LIG d   1       6.031  -2.485  -3.628  0.00  0.00    -0.547 OA
ENDBRANCH   4   6
BRANCH   4   9
ATOM      9  O   LIG d   1       2.817  -1.379  -3.672  0.00  0.00    -0.386 OA
ATOM     10  H   LIG d   1       3.226  -0.646  -4.152  0.00  0.00     0.210 HD
ENDBRANCH   4   9
ENDBRANCH   1   4
BRANCH   1  11
ATOM     11  C   LIG d   1       4.245   0.275  -2.390  0.00  0.00     0.181 C 
ATOM     12  O   LIG d   1       3.309   0.925  -1.991  0.00  0.00    -0.291 OA
BRANCH  11  13
ATOM     13  C   LIG d   1       5.204   0.868  -3.365  0.00  0.00     0.107 C 
ATOM     14  O   LIG d   1       6.048   1.651  -2.984  0.00  0.00    -0.542 OA
ATOM     15  O   LIG d   1       5.132   0.534  -4.667  0.00  0.00    -0.542 OA
ENDBRANCH  11  13
ENDBRANCH   1  11
TORSDOF 5
ENDMDL
MODEL 3
REMARK VINA RESULT:      -4.4      1.494      3.887
REMARK  5 active torsions:
REMARK  status: ('A' for Active; 'I' for Inactive)
REMARK    1  A    between atoms: C_1  and  C_2 
REMARK    2  A    between atoms: C_1  and  C_7 
REMARK    3  A    between atoms: C_2  and  C_4 
REMARK    4  A    between atoms: C_2  and  O_6 
REMARK    5  A    between atoms: C_7  and  C_9 
ROOT
ATOM      1  C   LIG d   1       4.786   0.584  -1.898  0.00  0.00     0.043 C 
ATOM      2  H   LIG d   1       5.008   1.192  -1.136  0.00  0.00     0.037 H 
ATOM      3  H   LIG d   1       4.721  -0.442  -1.538  0.00  0.00     0.037 H 
ENDROOT
BRANCH   1   4
ATOM      4  C   LIG d   1       3.443   0.998  -2.505  0.00  0.00     0.101 C 
ATOM      5  H   LIG d   1       2.754   1.276  -1.708  0.00  0.00     0.066 H 
BRANCH   4   6
ATOM      6  C   LIG d   1       2.869  -0.154  -3.288  0.00  0.00     0.070 C 
ATOM      7  O   LIG d   1       2.325   0.047  -4.348  0.00  0.00    -0.547 OA
ATOM      8  O   LIG d   1       2.968  -1.404  -2.811  0.00  0.00    -0.547 OA
ENDBRANCH   4   6
BRANCH   4   9
ATOM      9  O   LIG d   1       3.639   2.115  -3.376  0.00  0.00    -0.386 OA
ATOM     10  H   LIG d   1       4.393   2.021  -3.975  0.00  0.00     0.210 HD
ENDBRANCH   4   9
ENDBRANCH   1   4
BRANCH   1  11
ATOM     11  C   LIG d   1       5.862   0.681  -2.949  0.00  0.00     0.181 C 
ATOM     12  O   LIG d   1       6.350   1.752  -3.218  0.00  0.00    -0.291 OA
BRANCH  11  13
ATOM     13  C   LIG d   1       6.325  -0.548  -3.656  0.00  0.00     0.107 C 
ATOM     14  O   LIG d   1       6.531  -1.566  -3.029  0.00  0.00    -0.542 OA
ATOM     15  O   LIG d   1       6.515  -0.526  -4.988  0.00  0.00    -0.542 OA
ENDBRANCH  11  13
ENDBRANCH   1  11
TORSDOF 5
ENDMDL
MODEL 4
REMARK VINA RESULT:      -4.3      2.682      3.298
REMARK  5 active torsions:
REMARK  status: ('A' for Active; 'I' for Inactive)
REMARK    1  A    between atoms: C_1  and  C_2 
REMARK    2  A    between atoms: C_1  and  C_7 
REMARK    3  A    between atoms: C_2  and  C_4 
REMARK    4  A    between atoms: C_2  and  O_6 
REMARK    5  A    between atoms: C_7  and  C_9 
ROOT
ATOM      1  C   LIG d   1       2.436   0.361  -4.819  0.00  0.00     0.043 C 
ATOM      2  H   LIG d   1       2.245   1.340  -4.884  0.00  0.00     0.037 H 
ATOM      3  H   LIG d   1       1.516  -0.200  -4.976  0.00  0.00     0.037 H 
ENDROOT
BRANCH   1   4
ATOM      4  C   LIG d   1       3.461  -0.031  -5.886  0.00  0.00     0.101 C 
ATOM      5  H   LIG d   1       4.406   0.475  -5.687  0.00  0.00     0.066 H 
BRANCH   4   6
ATOM      6  C   LIG d   1       2.951   0.374  -7.245  0.00  0.00     0.070 C 
ATOM      7  O   LIG d   1       2.431  -0.446  -7.964  0.00  0.00    -0.547 OA
ATOM      8  O   LIG d   1       3.069   1.647  -7.654  0.00  0.00    -0.547 OA
ENDBRANCH   4   6
BRANCH   4   9
ATOM      9  O   LIG d   1       3.663  -1.446  -5.855  0.00  0.00    -0.386 OA
ATOM     10  H   LIG d   1       4.239  -1.777  -6.558  0.00  0.00     0.210 HD
ENDBRANCH   4   9
ENDBRANCH   1   4
BRANCH   1  11
ATOM     11  C   LIG d   1       2.990   0.047  -3.453  0.00  0.00     0.181 C 
ATOM     12  O   LIG d   1       2.765  -1.024  -2.941  0.00  0.00    -0.291 OA
BRANCH  11  13
ATOM     13  C   LIG d   1       3.817   1.058  -2.734  0.00  0.00     0.107 C 
ATOM     14  O   LIG d   1       3.953   2.170  -3.198  0.00  0.00    -0.542 OA
ATOM     15  O   LIG d   1       4.414   0.735  -1.571  0.00  0.00    -0.542 OA
ENDBRANCH  11  13
ENDBRANCH   1  11
TORSDOF 5
ENDMDL
MODEL 5
REMARK VINA RESULT:      -4.2      2.728      3.615
REMARK  5 active torsions:
REMARK  status: ('A' for Active; 'I' for Inactive)
REMARK    1  A    between atoms: C_1  and  C_2 
REMARK    2  A    between atoms: C_1  and  C_7 
REMARK    3  A    between atoms: C_2  and  C_4 
REMARK    4  A    between atoms: C_2  and  O_6 
REMARK    5  A    between atoms: C_7  and  C_9 
ROOT
ATOM      1  C   LIG d   1       2.556   0.431  -4.781  0.00  0.00     0.043 C 
ATOM      2  H   LIG d   1       2.068   1.242  -5.103  0.00  0.00     0.037 H 
ATOM      3  H   LIG d   1       1.842  -0.365  -4.577  0.00  0.00     0.037 H 
ENDROOT
BRANCH   1   4
ATOM      4  C   LIG d   1       3.542  -0.031  -5.856  0.00  0.00     0.101 C 
ATOM      5  H   LIG d   1       4.515   0.426  -5.678  0.00  0.00     0.066 H 
BRANCH   4   6
ATOM      6  C   LIG d   1       3.034   0.380  -7.214  0.00  0.00     0.070 C 
ATOM      7  O   LIG d   1       2.288  -0.346  -7.826  0.00  0.00    -0.547 OA
ATOM      8  O   LIG d   1       3.406   1.558  -7.741  0.00  0.00    -0.547 OA
ENDBRANCH   4   6
BRANCH   4   9
ATOM      9  O   LIG d   1       3.668  -1.454  -5.806  0.00  0.00    -0.386 OA
ATOM     10  H   LIG d   1       3.291  -1.855  -5.012  0.00  0.00     0.210 HD
ENDBRANCH   4   9
ENDBRANCH   1   4
BRANCH   1  11
ATOM     11  C   LIG d   1       3.310   0.766  -3.520  0.00  0.00     0.181 C 
ATOM     12  O   LIG d   1       3.642   1.906  -3.299  0.00  0.00    -0.291 OA
BRANCH  11  13
ATOM     13  C   LIG d   1       3.644  -0.311  -2.544  0.00  0.00     0.107 C 
ATOM     14  O   LIG d   1       4.386  -0.077  -1.614  0.00  0.00    -0.542 OA
ATOM     15  O   LIG d   1       3.123  -1.543  -2.697  0.00  0.00    -0.542 OA
ENDBRANCH  11  13
ENDBRANCH   1  11
TORSDOF 5
ENDMDL
MODEL 6
REMARK VINA RESULT:      -4.0      1.530      4.123
REMARK  5 active torsions:
REMARK  status: ('A' for Active; 'I' for Inactive)
REMARK    1  A    between atoms: C_1  and  C_2 
REMARK    2  A    between atoms: C_1  and  C_7 
REMARK    3  A    between atoms: C_2  and  C_4 
REMARK    4  A    between atoms: C_2  and  O_6 
REMARK    5  A    between atoms: C_7  and  C_9 
ROOT
ATOM      1  C   LIG d   1       4.860  -0.857  -3.653  0.00  0.00     0.043 C 
ATOM      2  H   LIG d   1       5.595  -0.730  -4.318  0.00  0.00     0.037 H 
ATOM      3  H   LIG d   1       5.213  -0.574  -2.662  0.00  0.00     0.037 H 
ENDROOT
BRANCH   1   4
ATOM      4  C   LIG d   1       3.667   0.022  -4.039  0.00  0.00     0.101 C 
ATOM      5  H   LIG d   1       3.787   0.368  -5.065  0.00  0.00     0.066 H 
BRANCH   4   6
ATOM      6  C   LIG d   1       3.596   1.208  -3.112  0.00  0.00     0.070 C 
ATOM      7  O   LIG d   1       3.463   2.321  -3.565  0.00  0.00    -0.547 OA
ATOM      8  O   LIG d   1       3.674   1.028  -1.785  0.00  0.00    -0.547 OA
ENDBRANCH   4   6
BRANCH   4   9
ATOM      9  O   LIG d   1       2.461  -0.739  -3.931  0.00  0.00    -0.386 OA
ATOM     10  H   LIG d   1       1.655  -0.209  -3.984  0.00  0.00     0.210 HD
ENDBRANCH   4   9
ENDBRANCH   1   4
BRANCH   1  11
ATOM     11  C   LIG d   1       4.434  -2.303  -3.642  0.00  0.00     0.181 C 
ATOM     12  O   LIG d   1       3.820  -2.744  -2.701  0.00  0.00    -0.291 OA
BRANCH  11  13
ATOM     13  C   LIG d   1       4.773  -3.187  -4.793  0.00  0.00     0.107 C 
ATOM     14  O   LIG d   1       5.396  -2.745  -5.735  0.00  0.00    -0.542 OA
ATOM     15  O   LIG d   1       4.385  -4.476  -4.788  0.00  0.00    -0.542 OA
ENDBRANCH  11  13
ENDBRANCH   1  11
TORSDOF 5
ENDMDL
MODEL 7
REMARK VINA RESULT:      -3.9      2.440      3.302
REMARK  5 active torsions:
REMARK  status: ('A' for Active; 'I' for Inactive)
REMARK    1  A    between atoms: C_1  and  C_2 
REMARK    2  A    between atoms: C_1  and  C_7 
REMARK    3  A    between atoms: C_2  and  C_4 
REMARK    4  A    between atoms: C_2  and  O_6 
REMARK    5  A    between atoms: C_7  and  C_9 
ROOT
ATOM      1  C   LIG d   1       4.383  -0.646  -4.486  0.00  0.00     0.043 C 
ATOM      2  H   LIG d   1       4.092  -1.478  -4.013  0.00  0.00     0.037 H 
ATOM      3  H   LIG d   1       5.133  -0.899  -5.236  0.00  0.00     0.037 H 
ENDROOT
BRANCH   1   4
ATOM      4  C   LIG d   1       3.176   0.001  -5.169  0.00  0.00     0.101 C 
ATOM      5  H   LIG d   1       2.287  -0.604  -4.987  0.00  0.00     0.066 H 
BRANCH   4   6
ATOM      6  C   LIG d   1       3.427   0.091  -6.653  0.00  0.00     0.070 C 
ATOM      7  O   LIG d   1       4.519   0.405  -7.063  0.00  0.00    -0.547 OA
ATOM      8  O   LIG d   1       2.438  -0.184  -7.518  0.00  0.00    -0.547 OA
ENDBRANCH   4   6
BRANCH   4   9
ATOM      9  O   LIG d   1       2.977   1.313  -4.639  0.00  0.00    -0.386 OA
ATOM     10  H   LIG d   1       2.734   1.327  -3.703  0.00  0.00     0.210 HD
ENDBRANCH   4   9
ENDBRANCH   1   4
BRANCH   1  11
ATOM     11  C   LIG d   1       4.973   0.319  -3.491  0.00  0.00     0.181 C 
ATOM     12  O   LIG d   1       5.680   1.222  -3.870  0.00  0.00    -0.291 OA
BRANCH  11  13
ATOM     13  C   LIG d   1       4.683   0.159  -2.037  0.00  0.00     0.107 C 
ATOM     14  O   LIG d   1       4.753   1.118  -1.296  0.00  0.00    -0.542 OA
ATOM     15  O   LIG d   1       4.344  -1.048  -1.547  0.00  0.00    -0.542 OA
ENDBRANCH  11  13
ENDBRANCH   1  11
TORSDOF 5
ENDMDL
MODEL 8
REMARK VINA RESULT:      -3.8     12.431     14.335
REMARK  5 active torsions:
REMARK  status: ('A' for Active; 'I' for Inactive)
REMARK    1  A    between atoms: C_1  and  C_2 
REMARK    2  A    between atoms: C_1  and  C_7 
REMARK    3  A    between atoms: C_2  and  C_4 
REMARK    4  A    between atoms: C_2  and  O_6 
REMARK    5  A    between atoms: C_7  and  C_9 
ROOT
ATOM      1  C   LIG d   1      10.328   6.667   6.850  0.00  0.00     0.043 C 
ATOM      2  H   LIG d   1       9.589   6.017   6.670  0.00  0.00     0.037 H 
ATOM      3  H   LIG d   1       9.961   7.683   6.709  0.00  0.00     0.037 H 
ENDROOT
BRANCH   1   4
ATOM      4  C   LIG d   1      10.817   6.496   8.290  0.00  0.00     0.101 C 
ATOM      5  H   LIG d   1      11.906   6.450   8.301  0.00  0.00     0.066 H 
BRANCH   4   6
ATOM      6  C   LIG d   1      10.255   5.221   8.864  0.00  0.00     0.070 C 
ATOM      7  O   LIG d   1      10.951   4.238   8.950  0.00  0.00    -0.547 OA
ATOM      8  O   LIG d   1       8.981   5.181   9.287  0.00  0.00    -0.547 OA
ENDBRANCH   4   6
BRANCH   4   9
ATOM      9  O   LIG d   1      10.379   7.606   9.076  0.00  0.00    -0.386 OA
ATOM     10  H   LIG d   1      11.083   8.030   9.586  0.00  0.00     0.210 HD
ENDBRANCH   4   9
ENDBRANCH   1   4
BRANCH   1  11
ATOM     11  C   LIG d   1      11.468   6.407   5.899  0.00  0.00     0.181 C 
ATOM     12  O   LIG d   1      12.400   5.721   6.245  0.00  0.00    -0.291 OA
BRANCH  11  13
ATOM     13  C   LIG d   1      11.444   6.997   4.530  0.00  0.00     0.107 C 
ATOM     14  O   LIG d   1      11.796   8.145   4.358  0.00  0.00    -0.542 OA
ATOM     15  O   LIG d   1      11.031   6.255   3.485  0.00  0.00    -0.542 OA
ENDBRANCH  11  13
ENDBRANCH   1  11
TORSDOF 5
ENDMDL
MODEL 9
REMARK VINA RESULT:      -3.7      1.402      2.560
REMARK  5 active torsions:
REMARK  status: ('A' for Active; 'I' for Inactive)
REMARK    1  A    between atoms: C_1  and  C_2 
REMARK    2  A    between atoms: C_1  and  C_7 
REMARK    3  A    between atoms: C_2  and  C_4 
REMARK    4  A    between atoms: C_2  and  O_6 
REMARK    5  A    between atoms: C_7  and  C_9 
ROOT
ATOM      1  C   LIG d   1       5.269  -0.489  -4.562  0.00  0.00     0.043 C 
ATOM      2  H   LIG d   1       5.707  -0.149  -5.393  0.00  0.00     0.037 H 
ATOM      3  H   LIG d   1       4.193  -0.550  -4.716  0.00  0.00     0.037 H 
ENDROOT
BRANCH   1   4
ATOM      4  C   LIG d   1       5.816  -1.880  -4.230  0.00  0.00     0.101 C 
ATOM      5  H   LIG d   1       6.419  -2.242  -5.063  0.00  0.00     0.066 H 
BRANCH   4   6
ATOM      6  C   LIG d   1       4.669  -2.827  -3.990  0.00  0.00     0.070 C 
ATOM      7  O   LIG d   1       3.999  -2.723  -2.991  0.00  0.00    -0.547 OA
ATOM      8  O   LIG d   1       4.389  -3.782  -4.891  0.00  0.00    -0.547 OA
ENDBRANCH   4   6
BRANCH   4   9
ATOM      9  O   LIG d   1       6.626  -1.805  -3.054  0.00  0.00    -0.386 OA
ATOM     10  H   LIG d   1       7.459  -2.291  -3.118  0.00  0.00     0.210 HD
ENDBRANCH   4   9
ENDBRANCH   1   4
BRANCH   1  11
ATOM     11  C   LIG d   1       5.561   0.450  -3.419  0.00  0.00     0.181 C 
ATOM     12  O   LIG d   1       6.657   0.945  -3.309  0.00  0.00    -0.291 OA
BRANCH  11  13
ATOM     13  C   LIG d   1       4.495   0.768  -2.426  0.00  0.00     0.107 C 
ATOM     14  O   LIG d   1       3.328   0.618  -2.721  0.00  0.00    -0.542 OA
ATOM     15  O   LIG d   1       4.828   1.222  -1.204  0.00  0.00    -0.542 OA
ENDBRANCH  11  13
ENDBRANCH   1  11
TORSDOF 5
ENDMDL
MODEL 10
REMARK VINA RESULT:      -3.5     10.038     11.870
REMARK  5 active torsions:
REMARK  status: ('A' for Active; 'I' for Inactive)
REMARK    1  A    between atoms: C_1  and  C_2 
REMARK    2  A    between atoms: C_1  and  C_7 
REMARK    3  A    between atoms: C_2  and  C_4 
REMARK    4  A    between atoms: C_2  and  O_6 
REMARK    5  A    between atoms: C_7  and  C_9 
ROOT
ATOM      1  C   LIG d   1       9.913   8.909  -2.236  0.00  0.00     0.043 C 
ATOM      2  H   LIG d   1       9.444   8.652  -3.080  0.00  0.00     0.037 H 
ATOM      3  H   LIG d   1      10.990   8.888  -2.396  0.00  0.00     0.037 H 
ENDROOT
BRANCH   1   4
ATOM      4  C   LIG d   1       9.486  10.321  -1.827  0.00  0.00     0.101 C 
ATOM      5  H   LIG d   1       9.669  11.010  -2.652  0.00  0.00     0.066 H 
BRANCH   4   6
ATOM      6  C   LIG d   1      10.280  10.757  -0.622  0.00  0.00     0.070 C 
ATOM      7  O   LIG d   1      11.466  10.965  -0.723  0.00  0.00    -0.547 OA
ATOM      8  O   LIG d   1       9.667  10.920   0.561  0.00  0.00    -0.547 OA
ENDBRANCH   4   6
BRANCH   4   9
ATOM      9  O   LIG d   1       8.093  10.323  -1.505  0.00  0.00    -0.386 OA
ATOM     10  H   LIG d   1       7.675  11.193  -1.569  0.00  0.00     0.210 HD
ENDBRANCH   4   9
ENDBRANCH   1   4
BRANCH   1  11
ATOM     11  C   LIG d   1       9.548   7.939  -1.142  0.00  0.00     0.181 C 
ATOM     12  O   LIG d   1       8.387   7.721  -0.889  0.00  0.00    -0.291 OA
BRANCH  11  13
ATOM     13  C   LIG d   1      10.621   7.247  -0.372  0.00  0.00     0.107 C 
ATOM     14  O   LIG d   1      10.337   6.345   0.388  0.00  0.00    -0.542 OA
ATOM     15  O   LIG d   1      11.905   7.623  -0.521  0.00  0.00    -0.542 OA
ENDBRANCH  11  13
ENDBRANCH   1  11
TORSDOF 5
ENDMDL
