MODEL 1
REMARK VINA RESULT:      -5.2      0.000      0.000
REMARK  9 active torsions:
REMARK  status: ('A' for Active; 'I' for Inactive)
REMARK    1  A    between atoms: C_1  and  C_2 
REMARK    2  A    between atoms: C_2  and  C_8 
REMARK    3  A    between atoms: N_3  and  N_4 
REMARK       I    between atoms: N_4  and  C_5 
REMARK       I    between atoms: C_5  and  N_7 
REMARK    4  A    between atoms: C_8  and  C_20 
REMARK    5  A    between atoms: C_11  and  C_16 
REMARK    6  A    between atoms: C_13  and  C_14 
REMARK    7  A    between atoms: C_13  and  C_15 
REMARK    8  A    between atoms: C_16  and  O_18 
REMARK    9  A    between atoms: O_18  and  C_19 
ROOT
ATOM      1  C   LIG d   1       4.078  -0.430  -3.587  0.00  0.00     0.013 C 
ATOM      2  C   LIG d   1       4.055   0.637  -2.473  0.00  0.00    -0.041 C 
ATOM      3  C   LIG d   1       5.356   1.448  -2.696  0.00  0.00    -0.039 C 
ATOM      4  C   LIG d   1       6.371   0.356  -3.112  0.00  0.00     0.062 C 
ATOM      5  H   LIG d   1       6.755  -0.163  -2.233  0.00  0.00     0.042 H 
ATOM      6  C   LIG d   1       5.551  -0.610  -3.993  0.00  0.00    -0.011 C 
ATOM      7  H   LIG d   1       3.181   1.281  -2.579  0.00  0.00     0.027 H 
ATOM      8  H   LIG d   1       4.065   0.164  -1.491  0.00  0.00     0.027 H 
ATOM      9  H   LIG d   1       5.223   2.178  -3.495  0.00  0.00     0.027 H 
ATOM     10  H   LIG d   1       5.668   1.939  -1.775  0.00  0.00     0.027 H 
ENDROOT
BRANCH   1  11
ATOM     11  C   LIG d   1       3.270   0.040  -4.768  0.00  0.00     0.040 C 
ATOM     12  N   LIG d   1       3.241  -0.657  -5.842  0.00  0.00    -0.188 NA
BRANCH  11  13
ATOM     13  C   LIG d   1       2.489   1.326  -4.684  0.00  0.00    -0.024 C 
ATOM     14  H   LIG d   1       1.461   1.147  -4.996  0.00  0.00     0.029 H 
ATOM     15  H   LIG d   1       2.499   1.692  -3.657  0.00  0.00     0.029 H 
ATOM     16  H   LIG d   1       2.943   2.070  -5.339  0.00  0.00     0.029 H 
ENDBRANCH  11  13
BRANCH  12  17
ATOM     17  N   LIG d   1       2.486  -0.222  -6.939  0.00  0.00    -0.191 N 
ATOM     18  C   LIG d   1       2.780  -0.666  -8.178  0.00  0.00     0.317 C 
ATOM     19  O   LIG d   1       2.124  -0.290  -9.130  0.00  0.00    -0.251 OA
ATOM     20  N   LIG d   1       3.801  -1.527  -8.361  0.00  0.00    -0.312 N 
ATOM     21  H   LIG d   1       4.324  -1.827  -7.601  0.00  0.00     0.146 HD
ATOM     22  H   LIG d   1       4.013  -1.845  -9.252  0.00  0.00     0.146 HD
ATOM     23  H   LIG d   1       1.751   0.397  -6.807  0.00  0.00     0.179 HD
ENDBRANCH  12  17
ENDBRANCH   1  11
BRANCH   1  24
ATOM     24  C   LIG d   1       3.515  -1.750  -3.059  0.00  0.00    -0.054 C 
ATOM     25  H   LIG d   1       3.272  -2.403  -3.897  0.00  0.00     0.024 H 
ATOM     26  H   LIG d   1       4.257  -2.235  -2.424  0.00  0.00     0.024 H 
ATOM     27  H   LIG d   1       2.613  -1.555  -2.479  0.00  0.00     0.024 H 
ENDBRANCH   1  24
BRANCH   6  28
ATOM     28  C   LIG d   1       5.991  -2.054  -3.741  0.00  0.00    -0.058 C 
ATOM     29  H   LIG d   1       7.054  -2.153  -3.962  0.00  0.00     0.024 H 
ATOM     30  H   LIG d   1       5.811  -2.312  -2.697  0.00  0.00     0.024 H 
ATOM     31  H   LIG d   1       5.422  -2.724  -4.384  0.00  0.00     0.024 H 
ENDBRANCH   6  28
BRANCH   6  32
ATOM     32  C   LIG d   1       5.734  -0.256  -5.471  0.00  0.00    -0.058 C 
ATOM     33  H   LIG d   1       4.821   0.203  -5.850  0.00  0.00     0.024 H 
ATOM     34  H   LIG d   1       6.563   0.444  -5.577  0.00  0.00     0.024 H 
ATOM     35  H   LIG d   1       5.948  -1.161  -6.038  0.00  0.00     0.024 H 
ENDBRANCH   6  32
BRANCH   4  36
ATOM     36  C   LIG d   1       7.503   0.962  -3.901  0.00  0.00     0.310 C 
ATOM     37  O   LIG d   1       8.484   0.302  -4.155  0.00  0.00    -0.251 OA
BRANCH  36  38
ATOM     38  O   LIG d   1       7.422   2.233  -4.325  0.00  0.00    -0.468 OA
BRANCH  38  39
ATOM     39  C   LIG d   1       8.655   2.862  -4.761  0.00  0.00     0.082 C 
ATOM     40  H   LIG d   1       9.437   2.682  -4.022  0.00  0.00     0.066 H 
ATOM     41  H   LIG d   1       8.958   2.443  -5.721  0.00  0.00     0.066 H 
ATOM     42  H   LIG d   1       8.498   3.937  -4.867  0.00  0.00     0.066 H 
ENDBRANCH  38  39
ENDBRANCH  36  38
ENDBRANCH   4  36
TORSDOF 9
ENDMDL
MODEL 2
REMARK VINA RESULT:      -5.1      1.876      2.640
REMARK  9 active torsions:
REMARK  status: ('A' for Active; 'I' for Inactive)
REMARK    1  A    between atoms: C_1  and  C_2 
REMARK    2  A    between atoms: C_2  and  C_8 
REMARK    3  A    between atoms: N_3  and  N_4 
REMARK       I    between atoms: N_4  and  C_5 
REMARK       I    between atoms: C_5  and  N_7 
REMARK    4  A    between atoms: C_8  and  C_20 
REMARK    5  A    between atoms: C_11  and  C_16 
REMARK    6  A    between atoms: C_13  and  C_14 
REMARK    7  A    between atoms: C_13  and  C_15 
REMARK    8  A    between atoms: C_16  and  O_18 
REMARK    9  A    between atoms: O_18  and  C_19 
ROOT
ATOM      1  C   LIG d   1       4.468   0.260  -3.412  0.00  0.00     0.013 C 
ATOM      2  C   LIG d   1       5.643   1.251  -3.539  0.00  0.00    -0.041 C 
ATOM      3  C   LIG d   1       6.841   0.367  -3.968  0.00  0.00    -0.039 C 
ATOM      4  C   LIG d   1       6.617  -0.930  -3.152  0.00  0.00     0.062 C 
ATOM      5  H   LIG d   1       6.976  -0.805  -2.130  0.00  0.00     0.042 H 
ATOM      6  C   LIG d   1       5.086  -1.127  -3.165  0.00  0.00    -0.011 C 
ATOM      7  H   LIG d   1       5.430   2.000  -4.302  0.00  0.00     0.027 H 
ATOM      8  H   LIG d   1       5.845   1.727  -2.580  0.00  0.00     0.027 H 
ATOM      9  H   LIG d   1       6.806   0.162  -5.038  0.00  0.00     0.027 H 
ATOM     10  H   LIG d   1       7.786   0.838  -3.697  0.00  0.00     0.027 H 
ENDROOT
BRANCH   1  11
ATOM     11  C   LIG d   1       3.664   0.247  -4.687  0.00  0.00     0.040 C 
ATOM     12  N   LIG d   1       4.257   0.324  -5.819  0.00  0.00    -0.188 NA
BRANCH  11  13
ATOM     13  C   LIG d   1       2.162   0.135  -4.629  0.00  0.00    -0.024 C 
ATOM     14  H   LIG d   1       1.878  -0.915  -4.580  0.00  0.00     0.029 H 
ATOM     15  H   LIG d   1       1.792   0.654  -3.744  0.00  0.00     0.029 H 
ATOM     16  H   LIG d   1       1.730   0.587  -5.522  0.00  0.00     0.029 H 
ENDBRANCH  11  13
BRANCH  12  17
ATOM     17  N   LIG d   1       3.509   0.307  -7.003  0.00  0.00    -0.191 N 
ATOM     18  C   LIG d   1       4.077   0.690  -8.164  0.00  0.00     0.317 C 
ATOM     19  O   LIG d   1       3.430   0.674  -9.193  0.00  0.00    -0.251 OA
ATOM     20  N   LIG d   1       5.365   1.090  -8.184  0.00  0.00    -0.312 N 
ATOM     21  H   LIG d   1       5.882   1.102  -7.364  0.00  0.00     0.146 HD
ATOM     22  H   LIG d   1       5.774   1.366  -9.019  0.00  0.00     0.146 HD
ATOM     23  H   LIG d   1       2.583   0.019  -6.989  0.00  0.00     0.179 HD
ENDBRANCH  12  17
ENDBRANCH   1  11
BRANCH   1  24
ATOM     24  C   LIG d   1       3.576   0.653  -2.234  0.00  0.00    -0.054 C 
ATOM     25  H   LIG d   1       4.082   0.413  -1.299  0.00  0.00     0.024 H 
ATOM     26  H   LIG d   1       3.373   1.724  -2.273  0.00  0.00     0.024 H 
ATOM     27  H   LIG d   1       2.636   0.103  -2.289  0.00  0.00     0.024 H 
ENDBRANCH   1  24
BRANCH   6  28
ATOM     28  C   LIG d   1       4.615  -1.678  -1.818  0.00  0.00    -0.058 C 
ATOM     29  H   LIG d   1       4.491  -2.759  -1.890  0.00  0.00     0.024 H 
ATOM     30  H   LIG d   1       5.357  -1.448  -1.052  0.00  0.00     0.024 H 
ATOM     31  H   LIG d   1       3.664  -1.220  -1.550  0.00  0.00     0.024 H 
ENDBRANCH   6  28
BRANCH   6  32
ATOM     32  C   LIG d   1       4.690  -2.086  -4.291  0.00  0.00    -0.058 C 
ATOM     33  H   LIG d   1       3.705  -2.502  -4.084  0.00  0.00     0.024 H 
ATOM     34  H   LIG d   1       4.665  -1.544  -5.237  0.00  0.00     0.024 H 
ATOM     35  H   LIG d   1       5.420  -2.893  -4.354  0.00  0.00     0.024 H 
ENDBRANCH   6  32
BRANCH   4  36
ATOM     36  C   LIG d   1       7.307  -2.095  -3.814  0.00  0.00     0.310 C 
ATOM     37  O   LIG d   1       7.689  -3.028  -3.148  0.00  0.00    -0.251 OA
BRANCH  36  38
ATOM     38  O   LIG d   1       7.497  -2.097  -5.143  0.00  0.00    -0.468 OA
BRANCH  38  39
ATOM     39  C   LIG d   1       7.979  -3.330  -5.738  0.00  0.00     0.082 C 
ATOM     40  H   LIG d   1       8.110  -3.189  -6.811  0.00  0.00     0.066 H 
ATOM     41  H   LIG d   1       8.933  -3.603  -5.288  0.00  0.00     0.066 H 
ATOM     42  H   LIG d   1       7.254  -4.126  -5.563  0.00  0.00     0.066 H 
ENDBRANCH  38  39
ENDBRANCH  36  38
ENDBRANCH   4  36
TORSDOF 9
ENDMDL
MODEL 3
REMARK VINA RESULT:      -4.9      2.654      3.557
REMARK  9 active torsions:
REMARK  status: ('A' for Active; 'I' for Inactive)
REMARK    1  A    between atoms: C_1  and  C_2 
REMARK    2  A    between atoms: C_2  and  C_8 
REMARK    3  A    between atoms: N_3  and  N_4 
REMARK       I    between atoms: N_4  and  C_5 
REMARK       I    between atoms: C_5  and  N_7 
REMARK    4  A    between atoms: C_8  and  C_20 
REMARK    5  A    between atoms: C_11  and  C_16 
REMARK    6  A    between atoms: C_13  and  C_14 
REMARK    7  A    between atoms: C_13  and  C_15 
REMARK    8  A    between atoms: C_16  and  O_18 
REMARK    9  A    between atoms: O_18  and  C_19 
ROOT
ATOM      1  C   LIG d   1       4.531  -0.493  -4.409  0.00  0.00     0.013 C 
ATOM      2  C   LIG d   1       4.656  -0.306  -5.935  0.00  0.00    -0.041 C 
ATOM      3  C   LIG d   1       6.181  -0.177  -6.178  0.00  0.00    -0.039 C 
ATOM      4  C   LIG d   1       6.653   0.648  -4.956  0.00  0.00     0.062 C 
ATOM      5  H   LIG d   1       6.461   1.709  -5.114  0.00  0.00     0.042 H 
ATOM      6  C   LIG d   1       5.800   0.114  -3.786  0.00  0.00    -0.011 C 
ATOM      7  H   LIG d   1       4.258  -1.175  -6.460  0.00  0.00     0.027 H 
ATOM      8  H   LIG d   1       4.142   0.602  -6.251  0.00  0.00     0.027 H 
ATOM      9  H   LIG d   1       6.654  -1.159  -6.189  0.00  0.00     0.027 H 
ATOM     10  H   LIG d   1       6.380   0.356  -7.108  0.00  0.00     0.027 H 
ENDROOT
BRANCH   1  11
ATOM     11  C   LIG d   1       4.442  -1.960  -4.074  0.00  0.00     0.040 C 
ATOM     12  N   LIG d   1       4.812  -2.835  -4.932  0.00  0.00    -0.188 NA
BRANCH  11  13
ATOM     13  C   LIG d   1       3.926  -2.396  -2.728  0.00  0.00    -0.024 C 
ATOM     14  H   LIG d   1       3.920  -3.484  -2.677  0.00  0.00     0.029 H 
ATOM     15  H   LIG d   1       4.571  -1.999  -1.944  0.00  0.00     0.029 H 
ATOM     16  H   LIG d   1       2.912  -2.020  -2.589  0.00  0.00     0.029 H 
ENDBRANCH  11  13
BRANCH  12  17
ATOM     17  N   LIG d   1       4.734  -4.199  -4.619  0.00  0.00    -0.191 N 
ATOM     18  C   LIG d   1       4.135  -5.053  -5.474  0.00  0.00     0.317 C 
ATOM     19  O   LIG d   1       4.069  -6.236  -5.203  0.00  0.00    -0.251 OA
ATOM     20  N   LIG d   1       3.612  -4.594  -6.629  0.00  0.00    -0.312 N 
ATOM     21  H   LIG d   1       3.666  -3.651  -6.844  0.00  0.00     0.146 HD
ATOM     22  H   LIG d   1       3.181  -5.209  -7.243  0.00  0.00     0.146 HD
ATOM     23  H   LIG d   1       5.110  -4.528  -3.789  0.00  0.00     0.179 HD
ENDBRANCH  12  17
ENDBRANCH   1  11
BRANCH   1  24
ATOM     24  C   LIG d   1       3.292   0.238  -3.891  0.00  0.00    -0.054 C 
ATOM     25  H   LIG d   1       3.359   0.346  -2.808  0.00  0.00     0.024 H 
ATOM     26  H   LIG d   1       3.233   1.225  -4.351  0.00  0.00     0.024 H 
ATOM     27  H   LIG d   1       2.400  -0.335  -4.144  0.00  0.00     0.024 H 
ENDBRANCH   1  24
BRANCH   6  28
ATOM     28  C   LIG d   1       5.425   1.259  -2.843  0.00  0.00    -0.058 C 
ATOM     29  H   LIG d   1       4.343   1.282  -2.712  0.00  0.00     0.024 H 
ATOM     30  H   LIG d   1       5.905   1.106  -1.876  0.00  0.00     0.024 H 
ATOM     31  H   LIG d   1       5.760   2.204  -3.269  0.00  0.00     0.024 H 
ENDBRANCH   6  28
BRANCH   6  32
ATOM     32  C   LIG d   1       6.575  -0.963  -3.020  0.00  0.00    -0.058 C 
ATOM     33  H   LIG d   1       7.451  -1.258  -3.597  0.00  0.00     0.024 H 
ATOM     34  H   LIG d   1       6.891  -0.566  -2.056  0.00  0.00     0.024 H 
ATOM     35  H   LIG d   1       5.933  -1.830  -2.864  0.00  0.00     0.024 H 
ENDBRANCH   6  32
BRANCH   4  36
ATOM     36  C   LIG d   1       8.119   0.412  -4.695  0.00  0.00     0.310 C 
ATOM     37  O   LIG d   1       8.748   1.199  -4.027  0.00  0.00    -0.251 OA
BRANCH  36  38
ATOM     38  O   LIG d   1       8.725  -0.673  -5.202  0.00  0.00    -0.468 OA
BRANCH  38  39
ATOM     39  C   LIG d   1      10.087  -0.506  -5.676  0.00  0.00     0.082 C 
ATOM     40  H   LIG d   1      10.511   0.403  -5.249  0.00  0.00     0.066 H 
ATOM     41  H   LIG d   1      10.686  -1.364  -5.373  0.00  0.00     0.066 H 
ATOM     42  H   LIG d   1      10.087  -0.429  -6.764  0.00  0.00     0.066 H 
ENDBRANCH  38  39
ENDBRANCH  36  38
ENDBRANCH   4  36
TORSDOF 9
ENDMDL
MODEL 4
REMARK VINA RESULT:      -4.7      3.231      6.653
REMARK  9 active torsions:
REMARK  status: ('A' for Active; 'I' for Inactive)
REMARK    1  A    between atoms: C_1  and  C_2 
REMARK    2  A    between atoms: C_2  and  C_8 
REMARK    3  A    between atoms: N_3  and  N_4 
REMARK       I    between atoms: N_4  and  C_5 
REMARK       I    between atoms: C_5  and  N_7 
REMARK    4  A    between atoms: C_8  and  C_20 
REMARK    5  A    between atoms: C_11  and  C_16 
REMARK    6  A    between atoms: C_13  and  C_14 
REMARK    7  A    between atoms: C_13  and  C_15 
REMARK    8  A    between atoms: C_16  and  O_18 
REMARK    9  A    between atoms: O_18  and  C_19 
ROOT
ATOM      1  C   LIG d   1       5.266   0.994  -8.782  0.00  0.00     0.013 C 
ATOM      2  C   LIG d   1       4.343   2.197  -9.068  0.00  0.00    -0.041 C 
ATOM      3  C   LIG d   1       3.349   1.668 -10.132  0.00  0.00    -0.039 C 
ATOM      4  C   LIG d   1       4.245   0.772 -11.020  0.00  0.00     0.062 C 
ATOM      5  H   LIG d   1       4.805   1.377 -11.733  0.00  0.00     0.042 H 
ATOM      6  C   LIG d   1       5.205   0.088 -10.023  0.00  0.00    -0.011 C 
ATOM      7  H   LIG d   1       3.811   2.493  -8.163  0.00  0.00     0.027 H 
ATOM      8  H   LIG d   1       4.918   3.033  -9.465  0.00  0.00     0.027 H 
ATOM      9  H   LIG d   1       2.558   1.083  -9.664  0.00  0.00     0.027 H 
ATOM     10  H   LIG d   1       2.928   2.491 -10.709  0.00  0.00     0.027 H 
ENDROOT
BRANCH   1  11
ATOM     11  C   LIG d   1       4.776   0.244  -7.570  0.00  0.00     0.040 C 
ATOM     12  N   LIG d   1       3.565   0.381  -7.179  0.00  0.00    -0.188 NA
BRANCH  11  13
ATOM     13  C   LIG d   1       5.709  -0.674  -6.823  0.00  0.00    -0.024 C 
ATOM     14  H   LIG d   1       5.292  -1.680  -6.806  0.00  0.00     0.029 H 
ATOM     15  H   LIG d   1       6.679  -0.691  -7.321  0.00  0.00     0.029 H 
ATOM     16  H   LIG d   1       5.832  -0.314  -5.802  0.00  0.00     0.029 H 
ENDBRANCH  11  13
BRANCH  12  17
ATOM     17  N   LIG d   1       3.108  -0.321  -6.056  0.00  0.00    -0.191 N 
ATOM     18  C   LIG d   1       2.624   0.352  -4.993  0.00  0.00     0.317 C 
ATOM     19  O   LIG d   1       2.226  -0.256  -4.018  0.00  0.00    -0.251 OA
ATOM     20  N   LIG d   1       2.580   1.700  -5.010  0.00  0.00    -0.312 N 
ATOM     21  H   LIG d   1       2.897   2.184  -5.788  0.00  0.00     0.146 HD
ATOM     22  H   LIG d   1       2.233   2.183  -4.245  0.00  0.00     0.146 HD
ATOM     23  H   LIG d   1       3.139  -1.290  -6.043  0.00  0.00     0.179 HD
ENDBRANCH  12  17
ENDBRANCH   1  11
BRANCH   1  24
ATOM     24  C   LIG d   1       6.700   1.476  -8.555  0.00  0.00    -0.054 C 
ATOM     25  H   LIG d   1       7.398   0.712  -8.895  0.00  0.00     0.024 H 
ATOM     26  H   LIG d   1       6.867   2.396  -9.116  0.00  0.00     0.024 H 
ATOM     27  H   LIG d   1       6.856   1.664  -7.492  0.00  0.00     0.024 H 
ENDBRANCH   1  24
BRANCH   6  28
ATOM     28  C   LIG d   1       6.598  -0.047 -10.643  0.00  0.00    -0.058 C 
ATOM     29  H   LIG d   1       7.323  -0.273  -9.861  0.00  0.00     0.024 H 
ATOM     30  H   LIG d   1       6.592  -0.853 -11.378  0.00  0.00     0.024 H 
ATOM     31  H   LIG d   1       6.870   0.888 -11.132  0.00  0.00     0.024 H 
ENDBRANCH   6  28
BRANCH   6  32
ATOM     32  C   LIG d   1       4.666  -1.293  -9.639  0.00  0.00    -0.058 C 
ATOM     33  H   LIG d   1       4.564  -1.354  -8.556  0.00  0.00     0.024 H 
ATOM     34  H   LIG d   1       3.693  -1.445 -10.105  0.00  0.00     0.024 H 
ATOM     35  H   LIG d   1       5.358  -2.061  -9.982  0.00  0.00     0.024 H 
ENDBRANCH   6  32
BRANCH   4  36
ATOM     36  C   LIG d   1       3.412  -0.255 -11.743  0.00  0.00     0.310 C 
ATOM     37  O   LIG d   1       3.858  -0.820 -12.714  0.00  0.00    -0.251 OA
BRANCH  36  38
ATOM     38  O   LIG d   1       2.175  -0.544 -11.308  0.00  0.00    -0.468 OA
BRANCH  38  39
ATOM     39  C   LIG d   1       1.409  -1.501 -12.086  0.00  0.00     0.082 C 
ATOM     40  H   LIG d   1       0.781  -0.968 -12.801  0.00  0.00     0.066 H 
ATOM     41  H   LIG d   1       2.090  -2.162 -12.622  0.00  0.00     0.066 H 
ATOM     42  H   LIG d   1       0.779  -2.090 -11.419  0.00  0.00     0.066 H 
ENDBRANCH  38  39
ENDBRANCH  36  38
ENDBRANCH   4  36
TORSDOF 9
ENDMDL
MODEL 5
REMARK VINA RESULT:      -4.7      3.667      5.898
REMARK  9 active torsions:
REMARK  status: ('A' for Active; 'I' for Inactive)
REMARK    1  A    between atoms: C_1  and  C_2 
REMARK    2  A    between atoms: C_2  and  C_8 
REMARK    3  A    between atoms: N_3  and  N_4 
REMARK       I    between atoms: N_4  and  C_5 
REMARK       I    between atoms: C_5  and  N_7 
REMARK    4  A    between atoms: C_8  and  C_20 
REMARK    5  A    between atoms: C_11  and  C_16 
REMARK    6  A    between atoms: C_13  and  C_14 
REMARK    7  A    between atoms: C_13  and  C_15 
REMARK    8  A    between atoms: C_16  and  O_18 
REMARK    9  A    between atoms: O_18  and  C_19 
ROOT
ATOM      1  C   LIG d   1       6.088  -2.039  -6.052  0.00  0.00     0.013 C 
ATOM      2  C   LIG d   1       5.811  -2.237  -7.557  0.00  0.00    -0.041 C 
ATOM      3  C   LIG d   1       4.858  -3.458  -7.610  0.00  0.00    -0.039 C 
ATOM      4  C   LIG d   1       5.417  -4.375  -6.495  0.00  0.00     0.062 C 
ATOM      5  H   LIG d   1       6.279  -4.935  -6.857  0.00  0.00     0.042 H 
ATOM      6  C   LIG d   1       5.839  -3.398  -5.376  0.00  0.00    -0.011 C 
ATOM      7  H   LIG d   1       5.324  -1.355  -7.975  0.00  0.00     0.027 H 
ATOM      8  H   LIG d   1       6.736  -2.452  -8.090  0.00  0.00     0.027 H 
ATOM      9  H   LIG d   1       3.834  -3.158  -7.388  0.00  0.00     0.027 H 
ATOM     10  H   LIG d   1       4.914  -3.949  -8.582  0.00  0.00     0.027 H 
ENDROOT
BRANCH   1  11
ATOM     11  C   LIG d   1       5.153  -1.002  -5.487  0.00  0.00     0.040 C 
ATOM     12  N   LIG d   1       5.393  -0.480  -4.342  0.00  0.00    -0.188 NA
BRANCH  11  13
ATOM     13  C   LIG d   1       3.940  -0.572  -6.271  0.00  0.00    -0.024 C 
ATOM     14  H   LIG d   1       4.109   0.421  -6.686  0.00  0.00     0.029 H 
ATOM     15  H   LIG d   1       3.762  -1.279  -7.082  0.00  0.00     0.029 H 
ATOM     16  H   LIG d   1       3.072  -0.548  -5.613  0.00  0.00     0.029 H 
ENDBRANCH  11  13
BRANCH  12  17
ATOM     17  N   LIG d   1       4.526   0.488  -3.819  0.00  0.00    -0.191 N 
ATOM     18  C   LIG d   1       4.088   0.384  -2.548  0.00  0.00     0.317 C 
ATOM     19  O   LIG d   1       3.337   1.225  -2.093  0.00  0.00    -0.251 OA
ATOM     20  N   LIG d   1       4.484  -0.652  -1.781  0.00  0.00    -0.312 N 
ATOM     21  H   LIG d   1       5.083  -1.322  -2.145  0.00  0.00     0.146 HD
ATOM     22  H   LIG d   1       4.168  -0.727  -0.868  0.00  0.00     0.146 HD
ATOM     23  H   LIG d   1       4.241   1.233  -4.370  0.00  0.00     0.179 HD
ENDBRANCH  12  17
ENDBRANCH   1  11
BRANCH   1  24
ATOM     24  C   LIG d   1       7.540  -1.607  -5.840  0.00  0.00    -0.054 C 
ATOM     25  H   LIG d   1       8.208  -2.389  -6.201  0.00  0.00     0.024 H 
ATOM     26  H   LIG d   1       7.730  -0.685  -6.390  0.00  0.00     0.024 H 
ATOM     27  H   LIG d   1       7.718  -1.439  -4.778  0.00  0.00     0.024 H 
ENDBRANCH   1  24
BRANCH   6  28
ATOM     28  C   LIG d   1       7.122  -3.892  -4.704  0.00  0.00    -0.058 C 
ATOM     29  H   LIG d   1       7.119  -4.982  -4.672  0.00  0.00     0.024 H 
ATOM     30  H   LIG d   1       7.986  -3.547  -5.272  0.00  0.00     0.024 H 
ATOM     31  H   LIG d   1       7.174  -3.498  -3.689  0.00  0.00     0.024 H 
ENDBRANCH   6  28
BRANCH   6  32
ATOM     32  C   LIG d   1       4.719  -3.271  -4.340  0.00  0.00    -0.058 C 
ATOM     33  H   LIG d   1       4.289  -4.254  -4.147  0.00  0.00     0.024 H 
ATOM     34  H   LIG d   1       5.125  -2.863  -3.415  0.00  0.00     0.024 H 
ATOM     35  H   LIG d   1       3.945  -2.605  -4.722  0.00  0.00     0.024 H 
ENDBRANCH   6  32
BRANCH   4  36
ATOM     36  C   LIG d   1       4.347  -5.315  -6.001  0.00  0.00     0.310 C 
ATOM     37  O   LIG d   1       3.204  -5.176  -6.368  0.00  0.00    -0.251 OA
BRANCH  36  38
ATOM     38  O   LIG d   1       4.665  -6.308  -5.155  0.00  0.00    -0.468 OA
BRANCH  38  39
ATOM     39  C   LIG d   1       5.660  -7.264  -5.605  0.00  0.00     0.082 C 
ATOM     40  H   LIG d   1       5.561  -7.414  -6.680  0.00  0.00     0.066 H 
ATOM     41  H   LIG d   1       6.657  -6.885  -5.381  0.00  0.00     0.066 H 
ATOM     42  H   LIG d   1       5.509  -8.215  -5.092  0.00  0.00     0.066 H 
ENDBRANCH  38  39
ENDBRANCH  36  38
ENDBRANCH   4  36
TORSDOF 9
ENDMDL
MODEL 6
REMARK VINA RESULT:      -4.6      2.270      3.744
REMARK  9 active torsions:
REMARK  status: ('A' for Active; 'I' for Inactive)
REMARK    1  A    between atoms: C_1  and  C_2 
REMARK    2  A    between atoms: C_2  and  C_8 
REMARK    3  A    between atoms: N_3  and  N_4 
REMARK       I    between atoms: N_4  and  C_5 
REMARK       I    between atoms: C_5  and  N_7 
REMARK    4  A    between atoms: C_8  and  C_20 
REMARK    5  A    between atoms: C_11  and  C_16 
REMARK    6  A    between atoms: C_13  and  C_14 
REMARK    7  A    between atoms: C_13  and  C_15 
REMARK    8  A    between atoms: C_16  and  O_18 
REMARK    9  A    between atoms: O_18  and  C_19 
ROOT
ATOM      1  C   LIG d   1       6.210  -2.440  -5.349  0.00  0.00     0.013 C 
ATOM      2  C   LIG d   1       5.447  -3.727  -4.976  0.00  0.00    -0.041 C 
ATOM      3  C   LIG d   1       4.349  -3.247  -3.994  0.00  0.00    -0.039 C 
ATOM      4  C   LIG d   1       5.080  -2.160  -3.170  0.00  0.00     0.062 C 
ATOM      5  H   LIG d   1       5.688  -2.616  -2.389  0.00  0.00     0.042 H 
ATOM      6  C   LIG d   1       5.978  -1.443  -4.201  0.00  0.00    -0.011 C 
ATOM      7  H   LIG d   1       4.996  -4.175  -5.863  0.00  0.00     0.027 H 
ATOM      8  H   LIG d   1       6.113  -4.437  -4.486  0.00  0.00     0.027 H 
ATOM      9  H   LIG d   1       3.506  -2.821  -4.537  0.00  0.00     0.027 H 
ATOM     10  H   LIG d   1       4.020  -4.065  -3.353  0.00  0.00     0.027 H 
ENDROOT
BRANCH   1  11
ATOM     11  C   LIG d   1       5.672  -1.876  -6.639  0.00  0.00     0.040 C 
ATOM     12  N   LIG d   1       4.441  -2.042  -6.946  0.00  0.00    -0.188 NA
BRANCH  11  13
ATOM     13  C   LIG d   1       6.582  -1.110  -7.564  0.00  0.00    -0.024 C 
ATOM     14  H   LIG d   1       6.038  -0.270  -7.995  0.00  0.00     0.029 H 
ATOM     15  H   LIG d   1       7.441  -0.738  -7.005  0.00  0.00     0.029 H 
ATOM     16  H   LIG d   1       6.926  -1.767  -8.363  0.00  0.00     0.029 H 
ENDBRANCH  11  13
BRANCH  12  17
ATOM     17  N   LIG d   1       3.940  -1.514  -8.143  0.00  0.00    -0.191 N 
ATOM     18  C   LIG d   1       2.962  -0.586  -8.113  0.00  0.00     0.317 C 
ATOM     19  O   LIG d   1       2.528  -0.126  -9.151  0.00  0.00    -0.251 OA
ATOM     20  N   LIG d   1       2.466  -0.168  -6.931  0.00  0.00    -0.312 N 
ATOM     21  H   LIG d   1       2.812  -0.534  -6.103  0.00  0.00     0.146 HD
ATOM     22  H   LIG d   1       1.762   0.499  -6.909  0.00  0.00     0.146 HD
ATOM     23  H   LIG d   1       4.296  -1.814  -8.993  0.00  0.00     0.179 HD
ENDBRANCH  12  17
ENDBRANCH   1  11
BRANCH   1  24
ATOM     24  C   LIG d   1       7.704  -2.739  -5.491  0.00  0.00    -0.054 C 
ATOM     25  H   LIG d   1       8.271  -2.063  -4.851  0.00  0.00     0.024 H 
ATOM     26  H   LIG d   1       7.898  -3.769  -5.193  0.00  0.00     0.024 H 
ATOM     27  H   LIG d   1       8.006  -2.596  -6.528  0.00  0.00     0.024 H 
ENDBRANCH   1  24
BRANCH   6  28
ATOM     28  C   LIG d   1       7.315  -1.062  -3.559  0.00  0.00    -0.058 C 
ATOM     29  H   LIG d   1       7.226  -1.118  -2.475  0.00  0.00     0.024 H 
ATOM     30  H   LIG d   1       8.089  -1.752  -3.897  0.00  0.00     0.024 H 
ATOM     31  H   LIG d   1       7.581  -0.047  -3.851  0.00  0.00     0.024 H 
ENDBRANCH   6  28
BRANCH   6  32
ATOM     32  C   LIG d   1       5.274  -0.190  -4.728  0.00  0.00    -0.058 C 
ATOM     33  H   LIG d   1       4.199  -0.286  -4.577  0.00  0.00     0.024 H 
ATOM     34  H   LIG d   1       5.640   0.685  -4.191  0.00  0.00     0.024 H 
ATOM     35  H   LIG d   1       5.483  -0.077  -5.792  0.00  0.00     0.024 H 
ENDBRANCH   6  32
BRANCH   4  36
ATOM     36  C   LIG d   1       4.089  -1.196  -2.571  0.00  0.00     0.310 C 
ATOM     37  O   LIG d   1       2.979  -1.100  -3.041  0.00  0.00    -0.251 OA
BRANCH  36  38
ATOM     38  O   LIG d   1       4.436  -0.446  -1.513  0.00  0.00    -0.468 OA
BRANCH  38  39
ATOM     39  C   LIG d   1       4.448   0.994  -1.703  0.00  0.00     0.082 C 
ATOM     40  H   LIG d   1       3.424   1.359  -1.778  0.00  0.00     0.066 H 
ATOM     41  H   LIG d   1       4.942   1.468  -0.855  0.00  0.00     0.066 H 
ATOM     42  H   LIG d   1       4.988   1.235  -2.619  0.00  0.00     0.066 H 
ENDBRANCH  38  39
ENDBRANCH  36  38
ENDBRANCH   4  36
TORSDOF 9
ENDMDL
MODEL 7
REMARK VINA RESULT:      -4.4      8.593     11.221
REMARK  9 active torsions:
REMARK  status: ('A' for Active; 'I' for Inactive)
REMARK    1  A    between atoms: C_1  and  C_2 
REMARK    2  A    between atoms: C_2  and  C_8 
REMARK    3  A    between atoms: N_3  and  N_4 
REMARK       I    between atoms: N_4  and  C_5 
REMARK       I    between atoms: C_5  and  N_7 
REMARK    4  A    between atoms: C_8  and  C_20 
REMARK    5  A    between atoms: C_11  and  C_16 
REMARK    6  A    between atoms: C_13  and  C_14 
REMARK    7  A    between atoms: C_13  and  C_15 
REMARK    8  A    between atoms: C_16  and  O_18 
REMARK    9  A    between atoms: O_18  and  C_19 
ROOT
ATOM      1  C   LIG d   1      11.497   8.685  -0.765  0.00  0.00     0.013 C 
ATOM      2  C   LIG d   1      12.548   8.747  -1.893  0.00  0.00    -0.041 C 
ATOM      3  C   LIG d   1      11.968   7.834  -3.002  0.00  0.00    -0.039 C 
ATOM      4  C   LIG d   1      11.332   6.677  -2.195  0.00  0.00     0.062 C 
ATOM      5  H   LIG d   1      12.093   5.957  -1.893  0.00  0.00     0.042 H 
ATOM      6  C   LIG d   1      10.724   7.368  -0.956  0.00  0.00    -0.011 C 
ATOM      7  H   LIG d   1      12.657   9.769  -2.258  0.00  0.00     0.027 H 
ATOM      8  H   LIG d   1      13.505   8.361  -1.543  0.00  0.00     0.027 H 
ATOM      9  H   LIG d   1      11.212   8.364  -3.582  0.00  0.00     0.027 H 
ATOM     10  H   LIG d   1      12.762   7.464  -3.652  0.00  0.00     0.027 H 
ENDROOT
BRANCH   1  11
ATOM     11  C   LIG d   1      10.555   9.856  -0.872  0.00  0.00     0.040 C 
ATOM     12  N   LIG d   1      10.276  10.350  -2.019  0.00  0.00    -0.188 NA
BRANCH  11  13
ATOM     13  C   LIG d   1       9.937  10.442   0.371  0.00  0.00    -0.024 C 
ATOM     14  H   LIG d   1      10.704  10.565   1.135  0.00  0.00     0.029 H 
ATOM     15  H   LIG d   1       9.499  11.413   0.137  0.00  0.00     0.029 H 
ATOM     16  H   LIG d   1       9.160   9.773   0.740  0.00  0.00     0.029 H 
ENDBRANCH  11  13
BRANCH  12  17
ATOM     17  N   LIG d   1       9.397  11.437  -2.119  0.00  0.00    -0.191 N 
ATOM     18  C   LIG d   1       8.666  11.612  -3.238  0.00  0.00     0.317 C 
ATOM     19  O   LIG d   1       7.902  12.554  -3.324  0.00  0.00    -0.251 OA
ATOM     20  N   LIG d   1       8.782  10.742  -4.262  0.00  0.00    -0.312 N 
ATOM     21  H   LIG d   1       9.391   9.991  -4.193  0.00  0.00     0.146 HD
ATOM     22  H   LIG d   1       8.257  10.869  -5.067  0.00  0.00     0.146 HD
ATOM     23  H   LIG d   1       9.313  12.062  -1.383  0.00  0.00     0.179 HD
ENDBRANCH  12  17
ENDBRANCH   1  11
BRANCH   1  24
ATOM     24  C   LIG d   1      12.190   8.692   0.598  0.00  0.00    -0.054 C 
ATOM     25  H   LIG d   1      11.835   9.542   1.182  0.00  0.00     0.024 H 
ATOM     26  H   LIG d   1      11.962   7.767   1.128  0.00  0.00     0.024 H 
ATOM     27  H   LIG d   1      13.268   8.774   0.457  0.00  0.00     0.024 H 
ENDBRANCH   1  24
BRANCH   6  28
ATOM     28  C   LIG d   1      10.891   6.479   0.278  0.00  0.00    -0.058 C 
ATOM     29  H   LIG d   1      10.251   6.846   1.080  0.00  0.00     0.024 H 
ATOM     30  H   LIG d   1      10.611   5.455   0.028  0.00  0.00     0.024 H 
ATOM     31  H   LIG d   1      11.931   6.501   0.603  0.00  0.00     0.024 H 
ENDBRANCH   6  28
BRANCH   6  32
ATOM     32  C   LIG d   1       9.240   7.662  -1.194  0.00  0.00    -0.058 C 
ATOM     33  H   LIG d   1       8.697   6.723  -1.298  0.00  0.00     0.024 H 
ATOM     34  H   LIG d   1       8.841   8.221  -0.348  0.00  0.00     0.024 H 
ATOM     35  H   LIG d   1       9.127   8.249  -2.104  0.00  0.00     0.024 H 
ENDBRANCH   6  32
BRANCH   4  36
ATOM     36  C   LIG d   1      10.256   5.998  -3.004  0.00  0.00     0.310 C 
ATOM     37  O   LIG d   1       9.826   6.527  -4.001  0.00  0.00    -0.251 OA
BRANCH  36  38
ATOM     38  O   LIG d   1       9.777   4.805  -2.617  0.00  0.00    -0.468 OA
BRANCH  38  39
ATOM     39  C   LIG d   1      10.728   3.713  -2.520  0.00  0.00     0.082 C 
ATOM     40  H   LIG d   1      10.468   3.078  -1.673  0.00  0.00     0.066 H 
ATOM     41  H   LIG d   1      10.700   3.124  -3.437  0.00  0.00     0.066 H 
ATOM     42  H   LIG d   1      11.731   4.115  -2.378  0.00  0.00     0.066 H 
ENDBRANCH  38  39
ENDBRANCH  36  38
ENDBRANCH   4  36
TORSDOF 9
ENDMDL
MODEL 8
REMARK VINA RESULT:      -4.4      2.622      3.961
REMARK  9 active torsions:
REMARK  status: ('A' for Active; 'I' for Inactive)
REMARK    1  A    between atoms: C_1  and  C_2 
REMARK    2  A    between atoms: C_2  and  C_8 
REMARK    3  A    between atoms: N_3  and  N_4 
REMARK       I    between atoms: N_4  and  C_5 
REMARK       I    between atoms: C_5  and  N_7 
REMARK    4  A    between atoms: C_8  and  C_20 
REMARK    5  A    between atoms: C_11  and  C_16 
REMARK    6  A    between atoms: C_13  and  C_14 
REMARK    7  A    between atoms: C_13  and  C_15 
REMARK    8  A    between atoms: C_16  and  O_18 
REMARK    9  A    between atoms: O_18  and  C_19 
ROOT
ATOM      1  C   LIG d   1       6.857  -2.249  -5.525  0.00  0.00     0.013 C 
ATOM      2  C   LIG d   1       7.542  -2.782  -4.250  0.00  0.00    -0.041 C 
ATOM      3  C   LIG d   1       7.067  -1.819  -3.133  0.00  0.00    -0.039 C 
ATOM      4  C   LIG d   1       7.056  -0.446  -3.847  0.00  0.00     0.062 C 
ATOM      5  H   LIG d   1       8.062  -0.028  -3.887  0.00  0.00     0.042 H 
ATOM      6  C   LIG d   1       6.548  -0.763  -5.270  0.00  0.00    -0.011 C 
ATOM      7  H   LIG d   1       7.216  -3.801  -4.039  0.00  0.00     0.027 H 
ATOM      8  H   LIG d   1       8.626  -2.741  -4.353  0.00  0.00     0.027 H 
ATOM      9  H   LIG d   1       6.067  -2.087  -2.792  0.00  0.00     0.027 H 
ATOM     10  H   LIG d   1       7.770  -1.818  -2.299  0.00  0.00     0.027 H 
ENDROOT
BRANCH   1  11
ATOM     11  C   LIG d   1       5.579  -3.005  -5.779  0.00  0.00     0.040 C 
ATOM     12  N   LIG d   1       5.126  -3.115  -6.971  0.00  0.00    -0.188 NA
BRANCH  11  13
ATOM     13  C   LIG d   1       4.837  -3.640  -4.631  0.00  0.00    -0.024 C 
ATOM     14  H   LIG d   1       3.793  -3.782  -4.907  0.00  0.00     0.029 H 
ATOM     15  H   LIG d   1       5.286  -4.606  -4.397  0.00  0.00     0.029 H 
ATOM     16  H   LIG d   1       4.897  -2.992  -3.757  0.00  0.00     0.029 H 
ENDBRANCH  11  13
BRANCH  12  17
ATOM     17  N   LIG d   1       3.940  -3.822  -7.208  0.00  0.00    -0.191 N 
ATOM     18  C   LIG d   1       3.949  -4.901  -8.016  0.00  0.00     0.317 C 
ATOM     19  O   LIG d   1       2.921  -5.516  -8.221  0.00  0.00    -0.251 OA
ATOM     20  N   LIG d   1       5.100  -5.299  -8.597  0.00  0.00    -0.312 N 
ATOM     21  H   LIG d   1       5.920  -4.808  -8.433  0.00  0.00     0.146 HD
ATOM     22  H   LIG d   1       5.106  -6.075  -9.178  0.00  0.00     0.146 HD
ATOM     23  H   LIG d   1       3.113  -3.536  -6.791  0.00  0.00     0.179 HD
ENDBRANCH  12  17
ENDBRANCH   1  11
BRANCH   1  24
ATOM     24  C   LIG d   1       7.797  -2.391  -6.723  0.00  0.00    -0.054 C 
ATOM     25  H   LIG d   1       7.813  -3.431  -7.050  0.00  0.00     0.024 H 
ATOM     26  H   LIG d   1       7.445  -1.759  -7.539  0.00  0.00     0.024 H 
ATOM     27  H   LIG d   1       8.803  -2.086  -6.434  0.00  0.00     0.024 H 
ENDBRANCH   1  24
BRANCH   6  28
ATOM     28  C   LIG d   1       7.279   0.107  -6.296  0.00  0.00    -0.058 C 
ATOM     29  H   LIG d   1       6.844   1.106  -6.300  0.00  0.00     0.024 H 
ATOM     30  H   LIG d   1       8.335   0.171  -6.030  0.00  0.00     0.024 H 
ATOM     31  H   LIG d   1       7.180  -0.338  -7.285  0.00  0.00     0.024 H 
ENDBRANCH   6  28
BRANCH   6  32
ATOM     32  C   LIG d   1       5.040  -0.519  -5.356  0.00  0.00    -0.058 C 
ATOM     33  H   LIG d   1       4.674  -0.166  -4.392  0.00  0.00     0.024 H 
ATOM     34  H   LIG d   1       4.836   0.232  -6.119  0.00  0.00     0.024 H 
ATOM     35  H   LIG d   1       4.535  -1.449  -5.617  0.00  0.00     0.024 H 
ENDBRANCH   6  32
BRANCH   4  36
ATOM     36  C   LIG d   1       6.117   0.504  -3.150  0.00  0.00     0.310 C 
ATOM     37  O   LIG d   1       6.227   1.696  -3.320  0.00  0.00    -0.251 OA
BRANCH  36  38
ATOM     38  O   LIG d   1       5.159   0.028  -2.339  0.00  0.00    -0.468 OA
BRANCH  38  39
ATOM     39  C   LIG d   1       4.086   0.938  -1.981  0.00  0.00     0.082 C 
ATOM     40  H   LIG d   1       3.778   1.501  -2.862  0.00  0.00     0.066 H 
ATOM     41  H   LIG d   1       3.239   0.369  -1.598  0.00  0.00     0.066 H 
ATOM     42  H   LIG d   1       4.437   1.629  -1.213  0.00  0.00     0.066 H 
ENDBRANCH  38  39
ENDBRANCH  36  38
ENDBRANCH   4  36
TORSDOF 9
ENDMDL
MODEL 9
REMARK VINA RESULT:      -4.3      3.113      6.918
REMARK  9 active torsions:
REMARK  status: ('A' for Active; 'I' for Inactive)
REMARK    1  A    between atoms: C_1  and  C_2 
REMARK    2  A    between atoms: C_2  and  C_8 
REMARK    3  A    between atoms: N_3  and  N_4 
REMARK       I    between atoms: N_4  and  C_5 
REMARK       I    between atoms: C_5  and  N_7 
REMARK    4  A    between atoms: C_8  and  C_20 
REMARK    5  A    between atoms: C_11  and  C_16 
REMARK    6  A    between atoms: C_13  and  C_14 
REMARK    7  A    between atoms: C_13  and  C_15 
REMARK    8  A    between atoms: C_16  and  O_18 
REMARK    9  A    between atoms: O_18  and  C_19 
ROOT
ATOM      1  C   LIG d   1       2.887   0.228  -8.987  0.00  0.00     0.013 C 
ATOM      2  C   LIG d   1       1.590  -0.493  -9.411  0.00  0.00    -0.041 C 
ATOM      3  C   LIG d   1       1.993  -1.284 -10.680  0.00  0.00    -0.039 C 
ATOM      4  C   LIG d   1       2.960  -0.310 -11.397  0.00  0.00     0.062 C 
ATOM      5  H   LIG d   1       2.401   0.444 -11.951  0.00  0.00     0.042 H 
ATOM      6  C   LIG d   1       3.758   0.345 -10.249  0.00  0.00    -0.011 C 
ATOM      7  H   LIG d   1       1.258  -1.175  -8.626  0.00  0.00     0.027 H 
ATOM      8  H   LIG d   1       0.810   0.230  -9.644  0.00  0.00     0.027 H 
ATOM      9  H   LIG d   1       2.504  -2.210 -10.412  0.00  0.00     0.027 H 
ATOM     10  H   LIG d   1       1.120  -1.492 -11.299  0.00  0.00     0.027 H 
ENDROOT
BRANCH   1  11
ATOM     11  C   LIG d   1       3.606  -0.578  -7.936  0.00  0.00     0.040 C 
ATOM     12  N   LIG d   1       4.073  -0.000  -6.894  0.00  0.00    -0.188 NA
BRANCH  11  13
ATOM     13  C   LIG d   1       3.769  -2.067  -8.109  0.00  0.00    -0.024 C 
ATOM     14  H   LIG d   1       4.680  -2.392  -7.608  0.00  0.00     0.029 H 
ATOM     15  H   LIG d   1       2.911  -2.580  -7.673  0.00  0.00     0.029 H 
ATOM     16  H   LIG d   1       3.833  -2.305  -9.170  0.00  0.00     0.029 H 
ENDBRANCH  11  13
BRANCH  12  17
ATOM     17  N   LIG d   1       4.737  -0.750  -5.915  0.00  0.00    -0.191 N 
ATOM     18  C   LIG d   1       4.144  -0.984  -4.728  0.00  0.00     0.317 C 
ATOM     19  O   LIG d   1       4.720  -1.637  -3.879  0.00  0.00    -0.251 OA
ATOM     20  N   LIG d   1       2.912  -0.496  -4.482  0.00  0.00    -0.312 N 
ATOM     21  H   LIG d   1       2.453   0.024  -5.159  0.00  0.00     0.146 HD
ATOM     22  H   LIG d   1       2.486  -0.664  -3.627  0.00  0.00     0.146 HD
ATOM     23  H   LIG d   1       5.624  -1.102  -6.092  0.00  0.00     0.179 HD
ENDBRANCH  12  17
ENDBRANCH   1  11
BRANCH   1  24
ATOM     24  C   LIG d   1       2.558   1.620  -8.445  0.00  0.00    -0.054 C 
ATOM     25  H   LIG d   1       3.085   2.372  -9.033  0.00  0.00     0.024 H 
ATOM     26  H   LIG d   1       1.484   1.793  -8.513  0.00  0.00     0.024 H 
ATOM     27  H   LIG d   1       2.872   1.688  -7.403  0.00  0.00     0.024 H 
ENDBRANCH   1  24
BRANCH   6  28
ATOM     28  C   LIG d   1       4.022   1.819 -10.568  0.00  0.00    -0.058 C 
ATOM     29  H   LIG d   1       3.430   2.446  -9.902  0.00  0.00     0.024 H 
ATOM     30  H   LIG d   1       5.082   2.036 -10.426  0.00  0.00     0.024 H 
ATOM     31  H   LIG d   1       3.746   2.022 -11.602  0.00  0.00     0.024 H 
ENDBRANCH   6  28
BRANCH   6  32
ATOM     32  C   LIG d   1       5.082  -0.393 -10.043  0.00  0.00    -0.058 C 
ATOM     33  H   LIG d   1       5.641  -0.405 -10.979  0.00  0.00     0.024 H 
ATOM     34  H   LIG d   1       5.667   0.117  -9.277  0.00  0.00     0.024 H 
ATOM     35  H   LIG d   1       4.883  -1.416  -9.726  0.00  0.00     0.024 H 
ENDBRANCH   6  32
BRANCH   4  36
ATOM     36  C   LIG d   1       3.882  -1.065 -12.319  0.00  0.00     0.310 C 
ATOM     37  O   LIG d   1       3.990  -2.265 -12.216  0.00  0.00    -0.251 OA
BRANCH  36  38
ATOM     38  O   LIG d   1       4.582  -0.406 -13.256  0.00  0.00    -0.468 OA
BRANCH  38  39
ATOM     39  C   LIG d   1       5.834  -1.004 -13.685  0.00  0.00     0.082 C 
ATOM     40  H   LIG d   1       6.667  -0.459 -13.241  0.00  0.00     0.066 H 
ATOM     41  H   LIG d   1       5.869  -2.045 -13.366  0.00  0.00     0.066 H 
ATOM     42  H   LIG d   1       5.906  -0.954 -14.772  0.00  0.00     0.066 H 
ENDBRANCH  38  39
ENDBRANCH  36  38
ENDBRANCH   4  36
TORSDOF 9
ENDMDL
MODEL 10
REMARK VINA RESULT:      -4.3      3.296      5.893
REMARK  9 active torsions:
REMARK  status: ('A' for Active; 'I' for Inactive)
REMARK    1  A    between atoms: C_1  and  C_2 
REMARK    2  A    between atoms: C_2  and  C_8 
REMARK    3  A    between atoms: N_3  and  N_4 
REMARK       I    between atoms: N_4  and  C_5 
REMARK       I    between atoms: C_5  and  N_7 
REMARK    4  A    between atoms: C_8  and  C_20 
REMARK    5  A    between atoms: C_11  and  C_16 
REMARK    6  A    between atoms: C_13  and  C_14 
REMARK    7  A    between atoms: C_13  and  C_15 
REMARK    8  A    between atoms: C_16  and  O_18 
REMARK    9  A    between atoms: O_18  and  C_19 
ROOT
ATOM      1  C   LIG d   1       3.105  -0.404  -9.278  0.00  0.00     0.013 C 
ATOM      2  C   LIG d   1       3.262  -1.886  -8.876  0.00  0.00    -0.041 C 
ATOM      3  C   LIG d   1       4.791  -2.132  -8.925  0.00  0.00    -0.039 C 
ATOM      4  C   LIG d   1       5.230  -1.305 -10.158  0.00  0.00     0.062 C 
ATOM      5  H   LIG d   1       5.034  -1.857 -11.077  0.00  0.00     0.042 H 
ATOM      6  C   LIG d   1       4.356  -0.035 -10.094  0.00  0.00    -0.011 C 
ATOM      7  H   LIG d   1       2.882  -2.050  -7.867  0.00  0.00     0.027 H 
ATOM      8  H   LIG d   1       2.749  -2.531  -9.588  0.00  0.00     0.027 H 
ATOM      9  H   LIG d   1       5.271  -1.762  -8.019  0.00  0.00     0.027 H 
ATOM     10  H   LIG d   1       5.007  -3.191  -9.070  0.00  0.00     0.027 H 
ENDROOT
BRANCH   1  11
ATOM     11  C   LIG d   1       3.019   0.459  -8.046  0.00  0.00     0.040 C 
ATOM     12  N   LIG d   1       3.204  -0.057  -6.889  0.00  0.00    -0.188 NA
BRANCH  11  13
ATOM     13  C   LIG d   1       2.723   1.931  -8.176  0.00  0.00    -0.024 C 
ATOM     14  H   LIG d   1       1.651   2.075  -8.304  0.00  0.00     0.029 H 
ATOM     15  H   LIG d   1       3.054   2.449  -7.276  0.00  0.00     0.029 H 
ATOM     16  H   LIG d   1       3.249   2.332  -9.041  0.00  0.00     0.029 H 
ENDBRANCH  11  13
BRANCH  12  17
ATOM     17  N   LIG d   1       3.129   0.747  -5.744  0.00  0.00    -0.191 N 
ATOM     18  C   LIG d   1       3.151   0.181  -4.520  0.00  0.00     0.317 C 
ATOM     19  O   LIG d   1       3.087   0.878  -3.526  0.00  0.00    -0.251 OA
ATOM     20  N   LIG d   1       3.246  -1.159  -4.399  0.00  0.00    -0.312 N 
ATOM     21  H   LIG d   1       3.297  -1.715  -5.192  0.00  0.00     0.146 HD
ATOM     22  H   LIG d   1       3.261  -1.566  -3.519  0.00  0.00     0.146 HD
ATOM     23  H   LIG d   1       3.061   1.710  -5.831  0.00  0.00     0.179 HD
ENDBRANCH  12  17
ENDBRANCH   1  11
BRANCH   1  24
ATOM     24  C   LIG d   1       1.849  -0.224 -10.132  0.00  0.00    -0.054 C 
ATOM     25  H   LIG d   1       1.152  -1.037  -9.928  0.00  0.00     0.024 H 
ATOM     26  H   LIG d   1       1.378   0.728  -9.890  0.00  0.00     0.024 H 
ATOM     27  H   LIG d   1       2.123  -0.237 -11.188  0.00  0.00     0.024 H 
ENDBRANCH   1  24
BRANCH   6  28
ATOM     28  C   LIG d   1       3.951   0.397 -11.506  0.00  0.00    -0.058 C 
ATOM     29  H   LIG d   1       4.678   1.113 -11.889  0.00  0.00     0.024 H 
ATOM     30  H   LIG d   1       3.922  -0.477 -12.158  0.00  0.00     0.024 H 
ATOM     31  H   LIG d   1       2.966   0.860 -11.475  0.00  0.00     0.024 H 
ENDBRANCH   6  28
BRANCH   6  32
ATOM     32  C   LIG d   1       5.120   1.094  -9.399  0.00  0.00    -0.058 C 
ATOM     33  H   LIG d   1       5.980   1.378 -10.006  0.00  0.00     0.024 H 
ATOM     34  H   LIG d   1       4.463   1.955  -9.274  0.00  0.00     0.024 H 
ATOM     35  H   LIG d   1       5.462   0.754  -8.422  0.00  0.00     0.024 H 
ENDBRANCH   6  32
BRANCH   4  36
ATOM     36  C   LIG d   1       6.691  -0.948 -10.060  0.00  0.00     0.310 C 
ATOM     37  O   LIG d   1       7.290  -1.130  -9.026  0.00  0.00    -0.251 OA
BRANCH  36  38
ATOM     38  O   LIG d   1       7.328  -0.429 -11.121  0.00  0.00    -0.468 OA
BRANCH  38  39
ATOM     39  C   LIG d   1       7.253  -1.174 -12.365  0.00  0.00     0.082 C 
ATOM     40  H   LIG d   1       6.351  -0.888 -12.906  0.00  0.00     0.066 H 
ATOM     41  H   LIG d   1       8.129  -0.953 -12.975  0.00  0.00     0.066 H 
ATOM     42  H   LIG d   1       7.223  -2.242 -12.147  0.00  0.00     0.066 H 
ENDBRANCH  38  39
ENDBRANCH  36  38
ENDBRANCH   4  36
TORSDOF 9
ENDMDL
