MODEL 1
REMARK VINA RESULT:      -5.8      0.000      0.000
REMARK  13 active torsions:
REMARK  status: ('A' for Active; 'I' for Inactive)
REMARK    1  A    between atoms: C_1  and  C_2 
REMARK    2  A    between atoms: C_5  and  O_32 
REMARK    3  A    between atoms: C_7  and  C_29 
REMARK    4  A    between atoms: C_7  and  C_30 
REMARK    5  A    between atoms: C_14  and  N_16 
REMARK       I    between atoms: N_16  and  C_17 
REMARK    6  A    between atoms: C_17  and  C_19 
REMARK    7  A    between atoms: C_19  and  C_20 
REMARK    8  A    between atoms: C_20  and  C_21 
REMARK    9  A    between atoms: C_20  and  C_22 
REMARK   10  A    between atoms: C_20  and  C_23 
REMARK   11  A    between atoms: C_24  and  C_26 
REMARK   12  A    between atoms: C_26  and  C_27 
REMARK   13  A    between atoms: C_30  and  O_31 
ROOT
ATOM      1  C   LIG d   1      10.690   4.823  -5.236  0.00  0.00    -0.020 C 
ATOM      2  C   LIG d   1      11.273   6.209  -4.938  0.00  0.00    -0.044 C 
ATOM      3  C   LIG d   1      12.258   6.618  -6.030  0.00  0.00    -0.026 C 
ATOM      4  C   LIG d   1      11.515   6.675  -7.368  0.00  0.00     0.063 C 
ATOM      5  H   LIG d   1      10.687   7.382  -7.297  0.00  0.00     0.060 H 
ATOM      6  C   LIG d   1      10.975   5.281  -7.689  0.00  0.00     0.021 C 
ATOM      7  C   LIG d   1       9.998   4.825  -6.601  0.00  0.00    -0.021 C 
ATOM      8  H   LIG d   1       9.127   5.480  -6.584  0.00  0.00     0.032 H 
ATOM      9  C   LIG d   1       9.570   3.386  -6.948  0.00  0.00    -0.016 C 
ATOM     10  C   LIG d   1       8.907   2.779  -5.762  0.00  0.00     0.015 A 
ATOM     11  C   LIG d   1       8.922   3.230  -4.481  0.00  0.00     0.058 A 
ATOM     12  N   LIG d   1       8.247   2.498  -3.597  0.00  0.00    -0.229 NA
ATOM     13  C   LIG d   1       7.603   1.402  -3.940  0.00  0.00     0.165 A 
ATOM     14  S   LIG d   1       7.919   1.312  -5.648  0.00  0.00    -0.057 SA
ATOM     15  C   LIG d   1       9.678   4.502  -4.129  0.00  0.00     0.013 C 
ATOM     16  H   LIG d   1       8.973   5.328  -4.032  0.00  0.00     0.037 H 
ATOM     17  H   LIG d   1      10.464   6.937  -4.891  0.00  0.00     0.027 H 
ATOM     18  H   LIG d   1      11.789   6.184  -3.978  0.00  0.00     0.027 H 
ATOM     19  H   LIG d   1      12.671   7.600  -5.800  0.00  0.00     0.029 H 
ATOM     20  H   LIG d   1      13.063   5.886  -6.090  0.00  0.00     0.029 H 
ATOM     21  H   LIG d   1      10.448   2.799  -7.217  0.00  0.00     0.032 H 
ATOM     22  H   LIG d   1       8.873   3.404  -7.786  0.00  0.00     0.032 H 
ENDROOT
BRANCH  13  23
ATOM     23  N   LIG d   1       6.861   0.539  -3.142  0.00  0.00    -0.265 N 
ATOM     24  C   LIG d   1       5.565   0.804  -2.885  0.00  0.00     0.219 C 
ATOM     25  O   LIG d   1       5.046   1.796  -3.350  0.00  0.00    -0.275 OA
ATOM     26  H   LIG d   1       7.277  -0.254  -2.769  0.00  0.00     0.157 HD
BRANCH  24  27
ATOM     27  C   LIG d   1       4.762  -0.133  -2.020  0.00  0.00     0.029 C 
ATOM     28  H   LIG d   1       5.438  -0.744  -1.421  0.00  0.00     0.036 H 
ATOM     29  H   LIG d   1       4.115   0.446  -1.360  0.00  0.00     0.036 H 
BRANCH  27  30
ATOM     30  C   LIG d   1       3.906  -1.039  -2.907  0.00  0.00    -0.029 C 
BRANCH  30  31
ATOM     31  C   LIG d   1       3.816  -2.431  -2.278  0.00  0.00    -0.060 C 
ATOM     32  H   LIG d   1       2.769  -2.712  -2.166  0.00  0.00     0.024 H 
ATOM     33  H   LIG d   1       4.319  -3.154  -2.920  0.00  0.00     0.024 H 
ATOM     34  H   LIG d   1       4.296  -2.419  -1.298  0.00  0.00     0.024 H 
ENDBRANCH  30  31
BRANCH  30  35
ATOM     35  C   LIG d   1       2.502  -0.446  -3.038  0.00  0.00    -0.060 C 
ATOM     36  H   LIG d   1       2.199  -0.016  -2.083  0.00  0.00     0.024 H 
ATOM     37  H   LIG d   1       2.504   0.330  -3.803  0.00  0.00     0.024 H 
ATOM     38  H   LIG d   1       1.801  -1.231  -3.319  0.00  0.00     0.024 H 
ENDBRANCH  30  35
BRANCH  30  39
ATOM     39  C   LIG d   1       4.545  -1.147  -4.293  0.00  0.00    -0.060 C 
ATOM     40  H   LIG d   1       4.133  -0.375  -4.944  0.00  0.00     0.024 H 
ATOM     41  H   LIG d   1       5.623  -1.013  -4.208  0.00  0.00     0.024 H 
ATOM     42  H   LIG d   1       4.332  -2.129  -4.716  0.00  0.00     0.024 H 
ENDBRANCH  30  39
ENDBRANCH  27  30
ENDBRANCH  24  27
ENDBRANCH  13  23
BRANCH  15  43
ATOM     43  C   LIG d   1      10.417   4.306  -2.804  0.00  0.00    -0.004 C 
ATOM     44  H   LIG d   1      10.075   3.385  -2.331  0.00  0.00     0.033 H 
ATOM     45  H   LIG d   1      11.488   4.244  -2.990  0.00  0.00     0.033 H 
BRANCH  43  46
ATOM     46  C   LIG d   1      10.132   5.472  -1.892  0.00  0.00     0.042 C 
ATOM     47  O   LIG d   1      10.668   5.538  -0.811  0.00  0.00    -0.550 OA
ATOM     48  O   LIG d   1       9.283   6.437  -2.280  0.00  0.00    -0.550 OA
ENDBRANCH  43  46
ENDBRANCH  15  43
BRANCH   1  49
ATOM     49  C   LIG d   1      11.806   3.775  -5.229  0.00  0.00    -0.059 C 
ATOM     50  H   LIG d   1      11.489   2.904  -5.802  0.00  0.00     0.024 H 
ATOM     51  H   LIG d   1      12.704   4.199  -5.678  0.00  0.00     0.024 H 
ATOM     52  H   LIG d   1      12.019   3.477  -4.203  0.00  0.00     0.024 H 
ENDBRANCH   1  49
BRANCH   6  53
ATOM     53  C   LIG d   1      10.252   5.317  -9.036  0.00  0.00    -0.055 C 
ATOM     54  H   LIG d   1      10.753   4.646  -9.735  0.00  0.00     0.024 H 
ATOM     55  H   LIG d   1       9.219   4.997  -8.903  0.00  0.00     0.024 H 
ATOM     56  H   LIG d   1      10.270   6.333  -9.432  0.00  0.00     0.024 H 
ENDBRANCH   6  53
BRANCH   6  57
ATOM     57  C   LIG d   1      12.141   4.294  -7.769  0.00  0.00     0.052 C 
ATOM     58  H   LIG d   1      12.937   4.616  -7.098  0.00  0.00     0.056 H 
ATOM     59  H   LIG d   1      11.797   3.301  -7.475  0.00  0.00     0.056 H 
BRANCH  57  60
ATOM     60  O   LIG d   1      12.635   4.248  -9.109  0.00  0.00    -0.394 OA
ATOM     61  H   LIG d   1      12.381   5.010  -9.649  0.00  0.00     0.209 HD
ENDBRANCH  57  60
ENDBRANCH   6  57
BRANCH   4  62
ATOM     62  O   LIG d   1      12.413   7.089  -8.399  0.00  0.00    -0.391 OA
ATOM     63  H   LIG d   1      12.068   6.965  -9.294  0.00  0.00     0.210 HD
ENDBRANCH   4  62
TORSDOF 13
ENDMDL
MODEL 2
REMARK VINA RESULT:      -5.6      1.364      1.822
REMARK  13 active torsions:
REMARK  status: ('A' for Active; 'I' for Inactive)
REMARK    1  A    between atoms: C_1  and  C_2 
REMARK    2  A    between atoms: C_5  and  O_32 
REMARK    3  A    between atoms: C_7  and  C_29 
REMARK    4  A    between atoms: C_7  and  C_30 
REMARK    5  A    between atoms: C_14  and  N_16 
REMARK       I    between atoms: N_16  and  C_17 
REMARK    6  A    between atoms: C_17  and  C_19 
REMARK    7  A    between atoms: C_19  and  C_20 
REMARK    8  A    between atoms: C_20  and  C_21 
REMARK    9  A    between atoms: C_20  and  C_22 
REMARK   10  A    between atoms: C_20  and  C_23 
REMARK   11  A    between atoms: C_24  and  C_26 
REMARK   12  A    between atoms: C_26  and  C_27 
REMARK   13  A    between atoms: C_30  and  O_31 
ROOT
ATOM      1  C   LIG d   1      10.784   6.290  -4.603  0.00  0.00    -0.020 C 
ATOM      2  C   LIG d   1      11.032   7.704  -4.069  0.00  0.00    -0.044 C 
ATOM      3  C   LIG d   1      11.901   8.496  -5.042  0.00  0.00    -0.026 C 
ATOM      4  C   LIG d   1      11.170   8.599  -6.384  0.00  0.00     0.063 C 
ATOM      5  H   LIG d   1      10.202   9.080  -6.238  0.00  0.00     0.060 H 
ATOM      6  C   LIG d   1      10.966   7.190  -6.941  0.00  0.00     0.021 C 
ATOM      7  C   LIG d   1      10.116   6.356  -5.979  0.00  0.00    -0.021 C 
ATOM      8  H   LIG d   1       9.117   6.785  -5.896  0.00  0.00     0.032 H 
ATOM      9  C   LIG d   1      10.030   4.932  -6.563  0.00  0.00    -0.016 C 
ATOM     10  C   LIG d   1       9.520   4.008  -5.515  0.00  0.00     0.015 A 
ATOM     11  C   LIG d   1       9.425   4.237  -4.180  0.00  0.00     0.058 A 
ATOM     12  N   LIG d   1       8.933   3.239  -3.450  0.00  0.00    -0.229 NA
ATOM     13  C   LIG d   1       8.559   2.096  -3.985  0.00  0.00     0.165 A 
ATOM     14  S   LIG d   1       8.894   2.357  -5.672  0.00  0.00    -0.057 SA
ATOM     15  C   LIG d   1       9.868   5.573  -3.603  0.00  0.00     0.013 C 
ATOM     16  H   LIG d   1       8.991   6.192  -3.407  0.00  0.00     0.037 H 
ATOM     17  H   LIG d   1      10.076   8.213  -3.942  0.00  0.00     0.027 H 
ATOM     18  H   LIG d   1      11.536   7.641  -3.104  0.00  0.00     0.027 H 
ATOM     19  H   LIG d   1      12.077   9.495  -4.644  0.00  0.00     0.029 H 
ATOM     20  H   LIG d   1      12.853   7.984  -5.183  0.00  0.00     0.029 H 
ATOM     21  H   LIG d   1      11.021   4.611  -6.884  0.00  0.00     0.032 H 
ATOM     22  H   LIG d   1       9.352   4.928  -7.416  0.00  0.00     0.032 H 
ENDROOT
BRANCH  13  23
ATOM     23  N   LIG d   1       8.032   0.970  -3.364  0.00  0.00    -0.265 N 
ATOM     24  C   LIG d   1       6.882   0.429  -3.812  0.00  0.00     0.219 C 
ATOM     25  O   LIG d   1       6.307   0.924  -4.758  0.00  0.00    -0.275 OA
ATOM     26  H   LIG d   1       8.491   0.575  -2.607  0.00  0.00     0.157 HD
BRANCH  24  27
ATOM     27  C   LIG d   1       6.311  -0.791  -3.137  0.00  0.00     0.029 C 
ATOM     28  H   LIG d   1       6.352  -1.639  -3.821  0.00  0.00     0.036 H 
ATOM     29  H   LIG d   1       6.892  -1.018  -2.243  0.00  0.00     0.036 H 
BRANCH  27  30
ATOM     30  C   LIG d   1       4.857  -0.523  -2.745  0.00  0.00    -0.029 C 
BRANCH  30  31
ATOM     31  C   LIG d   1       4.778   0.770  -1.932  0.00  0.00    -0.060 C 
ATOM     32  H   LIG d   1       5.152   0.589  -0.924  0.00  0.00     0.024 H 
ATOM     33  H   LIG d   1       5.386   1.538  -2.411  0.00  0.00     0.024 H 
ATOM     34  H   LIG d   1       3.742   1.106  -1.881  0.00  0.00     0.024 H 
ENDBRANCH  30  31
BRANCH  30  35
ATOM     35  C   LIG d   1       4.005  -0.384  -4.008  0.00  0.00    -0.060 C 
ATOM     36  H   LIG d   1       4.493  -0.901  -4.834  0.00  0.00     0.024 H 
ATOM     37  H   LIG d   1       3.022  -0.822  -3.835  0.00  0.00     0.024 H 
ATOM     38  H   LIG d   1       3.893   0.671  -4.257  0.00  0.00     0.024 H 
ENDBRANCH  30  35
BRANCH  30  39
ATOM     39  C   LIG d   1       4.332  -1.687  -1.903  0.00  0.00    -0.060 C 
ATOM     40  H   LIG d   1       4.966  -2.561  -2.056  0.00  0.00     0.024 H 
ATOM     41  H   LIG d   1       4.346  -1.409  -0.849  0.00  0.00     0.024 H 
ATOM     42  H   LIG d   1       3.311  -1.923  -2.203  0.00  0.00     0.024 H 
ENDBRANCH  30  39
ENDBRANCH  27  30
ENDBRANCH  24  27
ENDBRANCH  13  23
BRANCH  15  43
ATOM     43  C   LIG d   1      10.626   5.338  -2.295  0.00  0.00    -0.004 C 
ATOM     44  H   LIG d   1      10.584   4.280  -2.037  0.00  0.00     0.033 H 
ATOM     45  H   LIG d   1      11.665   5.641  -2.418  0.00  0.00     0.033 H 
BRANCH  43  46
ATOM     46  C   LIG d   1       9.993   6.148  -1.194  0.00  0.00     0.042 C 
ATOM     47  O   LIG d   1      10.388   6.036  -0.057  0.00  0.00    -0.550 OA
ATOM     48  O   LIG d   1       8.989   6.994  -1.473  0.00  0.00    -0.550 OA
ENDBRANCH  43  46
ENDBRANCH  15  43
BRANCH   1  49
ATOM     49  C   LIG d   1      12.110   5.534  -4.715  0.00  0.00    -0.059 C 
ATOM     50  H   LIG d   1      12.596   5.507  -3.740  0.00  0.00     0.024 H 
ATOM     51  H   LIG d   1      11.921   4.516  -5.055  0.00  0.00     0.024 H 
ATOM     52  H   LIG d   1      12.759   6.041  -5.429  0.00  0.00     0.024 H 
ENDBRANCH   1  49
BRANCH   6  53
ATOM     53  C   LIG d   1      10.260   7.279  -8.294  0.00  0.00    -0.055 C 
ATOM     54  H   LIG d   1       9.475   6.524  -8.345  0.00  0.00     0.024 H 
ATOM     55  H   LIG d   1       9.819   8.269  -8.411  0.00  0.00     0.024 H 
ATOM     56  H   LIG d   1      10.982   7.107  -9.093  0.00  0.00     0.024 H 
ENDBRANCH   6  53
BRANCH   6  57
ATOM     57  C   LIG d   1      12.328   6.518  -7.126  0.00  0.00     0.052 C 
ATOM     58  H   LIG d   1      13.026   6.899  -6.381  0.00  0.00     0.056 H 
ATOM     59  H   LIG d   1      12.220   5.439  -7.005  0.00  0.00     0.056 H 
BRANCH  57  60
ATOM     60  O   LIG d   1      12.825   6.802  -8.436  0.00  0.00    -0.394 OA
ATOM     61  H   LIG d   1      12.704   7.722  -8.711  0.00  0.00     0.209 HD
ENDBRANCH  57  60
ENDBRANCH   6  57
BRANCH   4  62
ATOM     62  O   LIG d   1      11.953   9.367  -7.300  0.00  0.00    -0.391 OA
ATOM     63  H   LIG d   1      12.447  10.089  -6.886  0.00  0.00     0.210 HD
ENDBRANCH   4  62
TORSDOF 13
ENDMDL
MODEL 3
REMARK VINA RESULT:      -5.3      4.541      8.185
REMARK  13 active torsions:
REMARK  status: ('A' for Active; 'I' for Inactive)
REMARK    1  A    between atoms: C_1  and  C_2 
REMARK    2  A    between atoms: C_5  and  O_32 
REMARK    3  A    between atoms: C_7  and  C_29 
REMARK    4  A    between atoms: C_7  and  C_30 
REMARK    5  A    between atoms: C_14  and  N_16 
REMARK       I    between atoms: N_16  and  C_17 
REMARK    6  A    between atoms: C_17  and  C_19 
REMARK    7  A    between atoms: C_19  and  C_20 
REMARK    8  A    between atoms: C_20  and  C_21 
REMARK    9  A    between atoms: C_20  and  C_22 
REMARK   10  A    between atoms: C_20  and  C_23 
REMARK   11  A    between atoms: C_24  and  C_26 
REMARK   12  A    between atoms: C_26  and  C_27 
REMARK   13  A    between atoms: C_30  and  O_31 
ROOT
ATOM      1  C   LIG d   1      10.811   6.631  -2.118  0.00  0.00    -0.020 C 
ATOM      2  C   LIG d   1      10.685   5.552  -1.037  0.00  0.00    -0.044 C 
ATOM      3  C   LIG d   1      11.462   5.958   0.213  0.00  0.00    -0.026 C 
ATOM      4  C   LIG d   1      10.878   7.266   0.754  0.00  0.00     0.063 C 
ATOM      5  H   LIG d   1       9.818   7.130   0.974  0.00  0.00     0.060 H 
ATOM      6  C   LIG d   1      11.048   8.354  -0.306  0.00  0.00     0.021 C 
ATOM      7  C   LIG d   1      10.299   7.972  -1.586  0.00  0.00    -0.021 C 
ATOM      8  H   LIG d   1       9.228   7.919  -1.390  0.00  0.00     0.032 H 
ATOM      9  C   LIG d   1      10.590   9.069  -2.629  0.00  0.00    -0.016 C 
ATOM     10  C   LIG d   1      10.182   8.580  -3.973  0.00  0.00     0.015 A 
ATOM     11  C   LIG d   1       9.894   7.305  -4.341  0.00  0.00     0.058 A 
ATOM     12  N   LIG d   1       9.554   7.128  -5.616  0.00  0.00    -0.229 NA
ATOM     13  C   LIG d   1       9.499   8.126  -6.472  0.00  0.00     0.165 A 
ATOM     14  S   LIG d   1       9.952   9.482  -5.481  0.00  0.00    -0.057 SA
ATOM     15  C   LIG d   1       9.969   6.181  -3.319  0.00  0.00     0.013 C 
ATOM     16  H   LIG d   1       8.963   5.930  -2.982  0.00  0.00     0.037 H 
ATOM     17  H   LIG d   1       9.634   5.420  -0.782  0.00  0.00     0.027 H 
ATOM     18  H   LIG d   1      11.082   4.611  -1.420  0.00  0.00     0.027 H 
ATOM     19  H   LIG d   1      11.371   5.177   0.967  0.00  0.00     0.029 H 
ATOM     20  H   LIG d   1      12.512   6.103  -0.040  0.00  0.00     0.029 H 
ATOM     21  H   LIG d   1      11.656   9.296  -2.630  0.00  0.00     0.032 H 
ATOM     22  H   LIG d   1      10.027   9.968  -2.381  0.00  0.00     0.032 H 
ENDROOT
BRANCH  13  23
ATOM     23  N   LIG d   1       9.165   8.103  -7.822  0.00  0.00    -0.265 N 
ATOM     24  C   LIG d   1      10.120   7.891  -8.749  0.00  0.00     0.219 C 
ATOM     25  O   LIG d   1      11.270   7.720  -8.406  0.00  0.00    -0.275 OA
ATOM     26  H   LIG d   1       8.245   8.240  -8.095  0.00  0.00     0.157 HD
BRANCH  24  27
ATOM     27  C   LIG d   1       9.757   7.867 -10.211  0.00  0.00     0.029 C 
ATOM     28  H   LIG d   1       8.857   8.461 -10.372  0.00  0.00     0.036 H 
ATOM     29  H   LIG d   1      10.577   8.283 -10.797  0.00  0.00     0.036 H 
BRANCH  27  30
ATOM     30  C   LIG d   1       9.499   6.424 -10.648  0.00  0.00    -0.029 C 
BRANCH  30  31
ATOM     31  C   LIG d   1       9.024   6.409 -12.103  0.00  0.00    -0.060 C 
ATOM     32  H   LIG d   1       8.061   6.914 -12.176  0.00  0.00     0.024 H 
ATOM     33  H   LIG d   1       9.752   6.926 -12.728  0.00  0.00     0.024 H 
ATOM     34  H   LIG d   1       8.921   5.378 -12.442  0.00  0.00     0.024 H 
ENDBRANCH  30  31
BRANCH  30  35
ATOM     35  C   LIG d   1      10.792   5.615 -10.527  0.00  0.00    -0.060 C 
ATOM     36  H   LIG d   1      11.552   6.043 -11.181  0.00  0.00     0.024 H 
ATOM     37  H   LIG d   1      11.143   5.643  -9.495  0.00  0.00     0.024 H 
ATOM     38  H   LIG d   1      10.604   4.582 -10.817  0.00  0.00     0.024 H 
ENDBRANCH  30  35
BRANCH  30  39
ATOM     39  C   LIG d   1       8.424   5.804  -9.755  0.00  0.00    -0.060 C 
ATOM     40  H   LIG d   1       7.877   5.046 -10.318  0.00  0.00     0.024 H 
ATOM     41  H   LIG d   1       8.893   5.342  -8.886  0.00  0.00     0.024 H 
ATOM     42  H   LIG d   1       7.733   6.580  -9.426  0.00  0.00     0.024 H 
ENDBRANCH  30  39
ENDBRANCH  27  30
ENDBRANCH  24  27
ENDBRANCH  13  23
BRANCH  15  43
ATOM     43  C   LIG d   1      10.613   4.950  -3.960  0.00  0.00    -0.004 C 
ATOM     44  H   LIG d   1      11.035   5.224  -4.927  0.00  0.00     0.033 H 
ATOM     45  H   LIG d   1      11.403   4.574  -3.311  0.00  0.00     0.033 H 
BRANCH  43  46
ATOM     46  C   LIG d   1       9.569   3.880  -4.153  0.00  0.00     0.042 C 
ATOM     47  O   LIG d   1       9.101   3.684  -5.251  0.00  0.00    -0.550 OA
ATOM     48  O   LIG d   1       9.158   3.146  -3.108  0.00  0.00    -0.550 OA
ENDBRANCH  43  46
ENDBRANCH  15  43
BRANCH   1  49
ATOM     49  C   LIG d   1      12.275   6.775  -2.544  0.00  0.00    -0.059 C 
ATOM     50  H   LIG d   1      12.675   7.711  -2.157  0.00  0.00     0.024 H 
ATOM     51  H   LIG d   1      12.851   5.940  -2.146  0.00  0.00     0.024 H 
ATOM     52  H   LIG d   1      12.338   6.775  -3.632  0.00  0.00     0.024 H 
ENDBRANCH   1  49
BRANCH   6  53
ATOM     53  C   LIG d   1      10.492   9.673   0.231  0.00  0.00    -0.055 C 
ATOM     54  H   LIG d   1       9.426   9.736   0.010  0.00  0.00     0.024 H 
ATOM     55  H   LIG d   1      10.642   9.720   1.310  0.00  0.00     0.024 H 
ATOM     56  H   LIG d   1      11.010  10.507  -0.243  0.00  0.00     0.024 H 
ENDBRANCH   6  53
BRANCH   6  57
ATOM     57  C   LIG d   1      12.535   8.525  -0.621  0.00  0.00     0.052 C 
ATOM     58  H   LIG d   1      13.037   7.561  -0.539  0.00  0.00     0.056 H 
ATOM     59  H   LIG d   1      12.650   8.910  -1.635  0.00  0.00     0.056 H 
BRANCH  57  60
ATOM     60  O   LIG d   1      13.115   9.446   0.306  0.00  0.00    -0.394 OA
ATOM     61  H   LIG d   1      12.722   9.415   1.190  0.00  0.00     0.209 HD
ENDBRANCH  57  60
ENDBRANCH   6  57
BRANCH   4  62
ATOM     62  O   LIG d   1      11.570   7.644   1.944  0.00  0.00    -0.391 OA
ATOM     63  H   LIG d   1      12.304   8.256   1.795  0.00  0.00     0.210 HD
ENDBRANCH   4  62
TORSDOF 13
ENDMDL
MODEL 4
REMARK VINA RESULT:      -5.2      6.240     10.101
REMARK  13 active torsions:
REMARK  status: ('A' for Active; 'I' for Inactive)
REMARK    1  A    between atoms: C_1  and  C_2 
REMARK    2  A    between atoms: C_5  and  O_32 
REMARK    3  A    between atoms: C_7  and  C_29 
REMARK    4  A    between atoms: C_7  and  C_30 
REMARK    5  A    between atoms: C_14  and  N_16 
REMARK       I    between atoms: N_16  and  C_17 
REMARK    6  A    between atoms: C_17  and  C_19 
REMARK    7  A    between atoms: C_19  and  C_20 
REMARK    8  A    between atoms: C_20  and  C_21 
REMARK    9  A    between atoms: C_20  and  C_22 
REMARK   10  A    between atoms: C_20  and  C_23 
REMARK   11  A    between atoms: C_24  and  C_26 
REMARK   12  A    between atoms: C_26  and  C_27 
REMARK   13  A    between atoms: C_30  and  O_31 
ROOT
ATOM      1  C   LIG d   1       4.810  -2.079  -4.823  0.00  0.00    -0.020 C 
ATOM      2  C   LIG d   1       4.569  -2.773  -3.478  0.00  0.00    -0.044 C 
ATOM      3  C   LIG d   1       4.944  -1.844  -2.325  0.00  0.00    -0.026 C 
ATOM      4  C   LIG d   1       4.065  -0.592  -2.396  0.00  0.00     0.063 C 
ATOM      5  H   LIG d   1       3.015  -0.879  -2.348  0.00  0.00     0.060 H 
ATOM      6  C   LIG d   1       4.342   0.126  -3.717  0.00  0.00     0.021 C 
ATOM      7  C   LIG d   1       3.999  -0.784  -4.900  0.00  0.00    -0.021 C 
ATOM      8  H   LIG d   1       2.931  -1.004  -4.905  0.00  0.00     0.032 H 
ATOM      9  C   LIG d   1       4.386  -0.026  -6.185  0.00  0.00    -0.016 C 
ATOM     10  C   LIG d   1       4.400  -0.982  -7.325  0.00  0.00     0.015 A 
ATOM     11  C   LIG d   1       4.395  -2.339  -7.272  0.00  0.00     0.058 A 
ATOM     12  N   LIG d   1       4.414  -2.969  -8.444  0.00  0.00    -0.229 NA
ATOM     13  C   LIG d   1       4.436  -2.320  -9.589  0.00  0.00     0.165 A 
ATOM     14  S   LIG d   1       4.432  -0.661  -9.068  0.00  0.00    -0.057 SA
ATOM     15  C   LIG d   1       4.368  -3.049  -5.927  0.00  0.00     0.013 C 
ATOM     16  H   LIG d   1       3.355  -3.395  -5.720  0.00  0.00     0.037 H 
ATOM     17  H   LIG d   1       3.517  -3.044  -3.396  0.00  0.00     0.027 H 
ATOM     18  H   LIG d   1       5.177  -3.677  -3.425  0.00  0.00     0.027 H 
ATOM     19  H   LIG d   1       4.777  -2.355  -1.377  0.00  0.00     0.029 H 
ATOM     20  H   LIG d   1       5.992  -1.561  -2.410  0.00  0.00     0.029 H 
ATOM     21  H   LIG d   1       5.376   0.414  -6.064  0.00  0.00     0.032 H 
ATOM     22  H   LIG d   1       3.658   0.762  -6.378  0.00  0.00     0.032 H 
ENDROOT
BRANCH  13  23
ATOM     23  N   LIG d   1       4.457  -2.830 -10.883  0.00  0.00    -0.265 N 
ATOM     24  C   LIG d   1       3.301  -3.049 -11.540  0.00  0.00     0.219 C 
ATOM     25  O   LIG d   1       2.243  -2.801 -11.004  0.00  0.00    -0.275 OA
ATOM     26  H   LIG d   1       5.305  -3.028 -11.311  0.00  0.00     0.157 HD
BRANCH  24  27
ATOM     27  C   LIG d   1       3.326  -3.601 -12.942  0.00  0.00     0.029 C 
ATOM     28  H   LIG d   1       4.311  -4.021 -13.150  0.00  0.00     0.036 H 
ATOM     29  H   LIG d   1       2.571  -4.381 -13.039  0.00  0.00     0.036 H 
BRANCH  27  30
ATOM     30  C   LIG d   1       3.030  -2.478 -13.938  0.00  0.00    -0.029 C 
BRANCH  30  31
ATOM     31  C   LIG d   1       3.749  -2.766 -15.258  0.00  0.00    -0.060 C 
ATOM     32  H   LIG d   1       3.068  -3.278 -15.938  0.00  0.00     0.024 H 
ATOM     33  H   LIG d   1       4.072  -1.827 -15.708  0.00  0.00     0.024 H 
ATOM     34  H   LIG d   1       4.618  -3.396 -15.069  0.00  0.00     0.024 H 
ENDBRANCH  30  31
BRANCH  30  35
ATOM     35  C   LIG d   1       1.522  -2.399 -14.185  0.00  0.00    -0.060 C 
ATOM     36  H   LIG d   1       1.090  -1.625 -13.551  0.00  0.00     0.024 H 
ATOM     37  H   LIG d   1       1.338  -2.157 -15.231  0.00  0.00     0.024 H 
ATOM     38  H   LIG d   1       1.064  -3.359 -13.948  0.00  0.00     0.024 H 
ENDBRANCH  30  35
BRANCH  30  39
ATOM     39  C   LIG d   1       3.524  -1.148 -13.368  0.00  0.00    -0.060 C 
ATOM     40  H   LIG d   1       2.989  -0.327 -13.846  0.00  0.00     0.024 H 
ATOM     41  H   LIG d   1       3.343  -1.122 -12.293  0.00  0.00     0.024 H 
ATOM     42  H   LIG d   1       4.592  -1.044 -13.559  0.00  0.00     0.024 H 
ENDBRANCH  30  39
ENDBRANCH  27  30
ENDBRANCH  24  27
ENDBRANCH  13  23
BRANCH  15  43
ATOM     43  C   LIG d   1       5.317  -4.248  -5.963  0.00  0.00    -0.004 C 
ATOM     44  H   LIG d   1       5.883  -4.234  -6.895  0.00  0.00     0.033 H 
ATOM     45  H   LIG d   1       6.004  -4.193  -5.120  0.00  0.00     0.033 H 
BRANCH  43  46
ATOM     46  C   LIG d   1       4.519  -5.523  -5.880  0.00  0.00     0.042 C 
ATOM     47  O   LIG d   1       3.350  -5.526  -6.186  0.00  0.00    -0.550 OA
ATOM     48  O   LIG d   1       5.106  -6.657  -5.464  0.00  0.00    -0.550 OA
ENDBRANCH  43  46
ENDBRANCH  15  43
BRANCH   1  49
ATOM     49  C   LIG d   1       6.299  -1.762  -4.987  0.00  0.00    -0.059 C 
ATOM     50  H   LIG d   1       6.545  -0.870  -4.412  0.00  0.00     0.024 H 
ATOM     51  H   LIG d   1       6.891  -2.602  -4.627  0.00  0.00     0.024 H 
ATOM     52  H   LIG d   1       6.519  -1.587  -6.040  0.00  0.00     0.024 H 
ENDBRANCH   1  49
BRANCH   6  53
ATOM     53  C   LIG d   1       3.490   1.394  -3.791  0.00  0.00    -0.055 C 
ATOM     54  H   LIG d   1       3.719   2.037  -2.940  0.00  0.00     0.024 H 
ATOM     55  H   LIG d   1       3.709   1.927  -4.716  0.00  0.00     0.024 H 
ATOM     56  H   LIG d   1       2.434   1.125  -3.768  0.00  0.00     0.024 H 
ENDBRANCH   6  53
BRANCH   6  57
ATOM     57  C   LIG d   1       5.821   0.509  -3.785  0.00  0.00     0.052 C 
ATOM     58  H   LIG d   1       6.420  -0.272  -3.318  0.00  0.00     0.056 H 
ATOM     59  H   LIG d   1       6.120   0.622  -4.827  0.00  0.00     0.056 H 
BRANCH  57  60
ATOM     60  O   LIG d   1       6.025   1.744  -3.095  0.00  0.00    -0.394 OA
ATOM     61  H   LIG d   1       6.470   1.649  -2.241  0.00  0.00     0.209 HD
ENDBRANCH  57  60
ENDBRANCH   6  57
BRANCH   4  62
ATOM     62  O   LIG d   1       4.377   0.275  -1.306  0.00  0.00    -0.391 OA
ATOM     63  H   LIG d   1       4.493   1.202  -1.560  0.00  0.00     0.210 HD
ENDBRANCH   4  62
TORSDOF 13
ENDMDL
MODEL 5
REMARK VINA RESULT:      -5.2      6.814     10.291
REMARK  13 active torsions:
REMARK  status: ('A' for Active; 'I' for Inactive)
REMARK    1  A    between atoms: C_1  and  C_2 
REMARK    2  A    between atoms: C_5  and  O_32 
REMARK    3  A    between atoms: C_7  and  C_29 
REMARK    4  A    between atoms: C_7  and  C_30 
REMARK    5  A    between atoms: C_14  and  N_16 
REMARK       I    between atoms: N_16  and  C_17 
REMARK    6  A    between atoms: C_17  and  C_19 
REMARK    7  A    between atoms: C_19  and  C_20 
REMARK    8  A    between atoms: C_20  and  C_21 
REMARK    9  A    between atoms: C_20  and  C_22 
REMARK   10  A    between atoms: C_20  and  C_23 
REMARK   11  A    between atoms: C_24  and  C_26 
REMARK   12  A    between atoms: C_26  and  C_27 
REMARK   13  A    between atoms: C_30  and  O_31 
ROOT
ATOM      1  C   LIG d   1       3.078  -2.058 -11.186  0.00  0.00    -0.020 C 
ATOM      2  C   LIG d   1       2.407  -1.241 -12.295  0.00  0.00    -0.044 C 
ATOM      3  C   LIG d   1       2.284  -2.073 -13.569  0.00  0.00    -0.026 C 
ATOM      4  C   LIG d   1       1.422  -3.304 -13.274  0.00  0.00     0.063 C 
ATOM      5  H   LIG d   1       0.443  -2.986 -12.914  0.00  0.00     0.060 H 
ATOM      6  C   LIG d   1       2.117  -4.143 -12.202  0.00  0.00     0.021 C 
ATOM      7  C   LIG d   1       2.278  -3.334 -10.913  0.00  0.00    -0.021 C 
ATOM      8  H   LIG d   1       1.299  -3.087 -10.502  0.00  0.00     0.032 H 
ATOM      9  C   LIG d   1       3.061  -4.212  -9.917  0.00  0.00    -0.016 C 
ATOM     10  C   LIG d   1       3.541  -3.363  -8.794  0.00  0.00     0.015 A 
ATOM     11  C   LIG d   1       3.594  -2.007  -8.743  0.00  0.00     0.058 A 
ATOM     12  N   LIG d   1       4.072  -1.484  -7.616  0.00  0.00    -0.229 NA
ATOM     13  C   LIG d   1       4.470  -2.232  -6.609  0.00  0.00     0.165 A 
ATOM     14  S   LIG d   1       4.184  -3.838  -7.213  0.00  0.00    -0.057 SA
ATOM     15  C   LIG d   1       3.122  -1.180  -9.929  0.00  0.00     0.013 C 
ATOM     16  H   LIG d   1       2.124  -0.790  -9.725  0.00  0.00     0.037 H 
ATOM     17  H   LIG d   1       1.413  -0.937 -11.966  0.00  0.00     0.027 H 
ATOM     18  H   LIG d   1       3.004  -0.352 -12.500  0.00  0.00     0.027 H 
ATOM     19  H   LIG d   1       1.815  -1.476 -14.350  0.00  0.00     0.029 H 
ATOM     20  H   LIG d   1       3.275  -2.391 -13.895  0.00  0.00     0.029 H 
ATOM     21  H   LIG d   1       3.913  -4.666 -10.424  0.00  0.00     0.032 H 
ATOM     22  H   LIG d   1       2.409  -4.995  -9.530  0.00  0.00     0.032 H 
ENDROOT
BRANCH  13  23
ATOM     23  N   LIG d   1       4.988  -1.841  -5.380  0.00  0.00    -0.265 N 
ATOM     24  C   LIG d   1       4.876  -0.559  -4.979  0.00  0.00     0.219 C 
ATOM     25  O   LIG d   1       4.324   0.253  -5.690  0.00  0.00    -0.275 OA
ATOM     26  H   LIG d   1       5.430  -2.490  -4.811  0.00  0.00     0.157 HD
BRANCH  24  27
ATOM     27  C   LIG d   1       5.438  -0.136  -3.646  0.00  0.00     0.029 C 
ATOM     28  H   LIG d   1       6.263  -0.794  -3.373  0.00  0.00     0.036 H 
ATOM     29  H   LIG d   1       5.799   0.891  -3.712  0.00  0.00     0.036 H 
BRANCH  27  30
ATOM     30  C   LIG d   1       4.343  -0.223  -2.581  0.00  0.00    -0.029 C 
BRANCH  30  31
ATOM     31  C   LIG d   1       4.425  -1.578  -1.875  0.00  0.00    -0.060 C 
ATOM     32  H   LIG d   1       5.195  -1.540  -1.103  0.00  0.00     0.024 H 
ATOM     33  H   LIG d   1       3.463  -1.808  -1.417  0.00  0.00     0.024 H 
ATOM     34  H   LIG d   1       4.676  -2.352  -2.602  0.00  0.00     0.024 H 
ENDBRANCH  30  31
BRANCH  30  35
ATOM     35  C   LIG d   1       4.538   0.897  -1.556  0.00  0.00    -0.060 C 
ATOM     36  H   LIG d   1       5.354   0.636  -0.883  0.00  0.00     0.024 H 
ATOM     37  H   LIG d   1       4.777   1.826  -2.075  0.00  0.00     0.024 H 
ATOM     38  H   LIG d   1       3.622   1.028  -0.982  0.00  0.00     0.024 H 
ENDBRANCH  30  35
BRANCH  30  39
ATOM     39  C   LIG d   1       2.973  -0.075  -3.243  0.00  0.00    -0.060 C 
ATOM     40  H   LIG d   1       3.018   0.707  -4.001  0.00  0.00     0.024 H 
ATOM     41  H   LIG d   1       2.692  -1.019  -3.712  0.00  0.00     0.024 H 
ATOM     42  H   LIG d   1       2.231   0.191  -2.490  0.00  0.00     0.024 H 
ENDBRANCH  30  39
ENDBRANCH  27  30
ENDBRANCH  24  27
ENDBRANCH  13  23
BRANCH  15  43
ATOM     43  C   LIG d   1       4.086  -0.014 -10.154  0.00  0.00    -0.004 C 
ATOM     44  H   LIG d   1       4.963  -0.140  -9.518  0.00  0.00     0.033 H 
ATOM     45  H   LIG d   1       4.394   0.007 -11.199  0.00  0.00     0.033 H 
BRANCH  43  46
ATOM     46  C   LIG d   1       3.399   1.282  -9.808  0.00  0.00     0.042 C 
ATOM     47  O   LIG d   1       3.617   2.275 -10.461  0.00  0.00    -0.550 OA
ATOM     48  O   LIG d   1       2.545   1.334  -8.774  0.00  0.00    -0.550 OA
ENDBRANCH  43  46
ENDBRANCH  15  43
BRANCH   1  49
ATOM     49  C   LIG d   1       4.505  -2.428 -11.601  0.00  0.00    -0.059 C 
ATOM     50  H   LIG d   1       5.081  -2.702 -10.718  0.00  0.00     0.024 H 
ATOM     51  H   LIG d   1       4.474  -3.270 -12.292  0.00  0.00     0.024 H 
ATOM     52  H   LIG d   1       4.974  -1.573 -12.090  0.00  0.00     0.024 H 
ENDBRANCH   1  49
BRANCH   6  53
ATOM     53  C   LIG d   1       1.279  -5.390 -11.916  0.00  0.00    -0.055 C 
ATOM     54  H   LIG d   1       0.247  -5.214 -12.220  0.00  0.00     0.024 H 
ATOM     55  H   LIG d   1       1.682  -6.236 -12.473  0.00  0.00     0.024 H 
ATOM     56  H   LIG d   1       1.309  -5.612 -10.849  0.00  0.00     0.024 H 
ENDBRANCH   6  53
BRANCH   6  57
ATOM     57  C   LIG d   1       3.496  -4.569 -12.709  0.00  0.00     0.052 C 
ATOM     58  H   LIG d   1       3.865  -3.832 -13.421  0.00  0.00     0.056 H 
ATOM     59  H   LIG d   1       4.186  -4.639 -11.867  0.00  0.00     0.056 H 
BRANCH  57  60
ATOM     60  O   LIG d   1       3.396  -5.843 -13.349  0.00  0.00    -0.394 OA
ATOM     61  H   LIG d   1       2.967  -6.522 -12.809  0.00  0.00     0.209 HD
ENDBRANCH  57  60
ENDBRANCH   6  57
BRANCH   4  62
ATOM     62  O   LIG d   1       1.268  -4.078 -14.464  0.00  0.00    -0.391 OA
ATOM     63  H   LIG d   1       1.583  -3.637 -15.264  0.00  0.00     0.210 HD
ENDBRANCH   4  62
TORSDOF 13
ENDMDL
MODEL 6
REMARK VINA RESULT:      -5.2      3.184      8.526
REMARK  13 active torsions:
REMARK  status: ('A' for Active; 'I' for Inactive)
REMARK    1  A    between atoms: C_1  and  C_2 
REMARK    2  A    between atoms: C_5  and  O_32 
REMARK    3  A    between atoms: C_7  and  C_29 
REMARK    4  A    between atoms: C_7  and  C_30 
REMARK    5  A    between atoms: C_14  and  N_16 
REMARK       I    between atoms: N_16  and  C_17 
REMARK    6  A    between atoms: C_17  and  C_19 
REMARK    7  A    between atoms: C_19  and  C_20 
REMARK    8  A    between atoms: C_20  and  C_21 
REMARK    9  A    between atoms: C_20  and  C_22 
REMARK   10  A    between atoms: C_20  and  C_23 
REMARK   11  A    between atoms: C_24  and  C_26 
REMARK   12  A    between atoms: C_26  and  C_27 
REMARK   13  A    between atoms: C_30  and  O_31 
ROOT
ATOM      1  C   LIG d   1       6.001  -1.838  -4.668  0.00  0.00    -0.020 C 
ATOM      2  C   LIG d   1       4.934  -2.801  -4.137  0.00  0.00    -0.044 C 
ATOM      3  C   LIG d   1       4.788  -4.001  -5.069  0.00  0.00    -0.026 C 
ATOM      4  C   LIG d   1       6.128  -4.740  -5.134  0.00  0.00     0.063 C 
ATOM      5  H   LIG d   1       6.422  -5.052  -4.132  0.00  0.00     0.060 H 
ATOM      6  C   LIG d   1       7.182  -3.795  -5.710  0.00  0.00     0.021 C 
ATOM      7  C   LIG d   1       7.340  -2.564  -4.812  0.00  0.00    -0.021 C 
ATOM      8  H   LIG d   1       7.718  -2.863  -3.834  0.00  0.00     0.032 H 
ATOM      9  C   LIG d   1       8.348  -1.624  -5.501  0.00  0.00    -0.016 C 
ATOM     10  C   LIG d   1       8.277  -0.283  -4.860  0.00  0.00     0.015 A 
ATOM     11  C   LIG d   1       7.311   0.191  -4.032  0.00  0.00     0.058 A 
ATOM     12  N   LIG d   1       7.480   1.435  -3.591  0.00  0.00    -0.229 NA
ATOM     13  C   LIG d   1       8.519   2.166  -3.934  0.00  0.00     0.165 A 
ATOM     14  S   LIG d   1       9.398   1.085  -4.975  0.00  0.00    -0.057 SA
ATOM     15  C   LIG d   1       6.127  -0.689  -3.660  0.00  0.00     0.013 C 
ATOM     16  H   LIG d   1       6.279  -1.098  -2.661  0.00  0.00     0.037 H 
ATOM     17  H   LIG d   1       5.223  -3.148  -3.145  0.00  0.00     0.027 H 
ATOM     18  H   LIG d   1       3.979  -2.278  -4.069  0.00  0.00     0.027 H 
ATOM     19  H   LIG d   1       4.019  -4.671  -4.684  0.00  0.00     0.029 H 
ATOM     20  H   LIG d   1       4.511  -3.658  -6.066  0.00  0.00     0.029 H 
ATOM     21  H   LIG d   1       8.101  -1.538  -6.559  0.00  0.00     0.032 H 
ATOM     22  H   LIG d   1       9.356  -2.026  -5.395  0.00  0.00     0.032 H 
ENDROOT
BRANCH  13  23
ATOM     23  N   LIG d   1       8.833   3.468  -3.561  0.00  0.00    -0.265 N 
ATOM     24  C   LIG d   1       9.949   3.714  -2.845  0.00  0.00     0.219 C 
ATOM     25  O   LIG d   1      10.678   2.799  -2.526  0.00  0.00    -0.275 OA
ATOM     26  H   LIG d   1       8.250   4.200  -3.816  0.00  0.00     0.157 HD
BRANCH  24  27
ATOM     27  C   LIG d   1      10.288   5.125  -2.442  0.00  0.00     0.029 C 
ATOM     28  H   LIG d   1       9.410   5.600  -2.003  0.00  0.00     0.036 H 
ATOM     29  H   LIG d   1      11.096   5.110  -1.710  0.00  0.00     0.036 H 
BRANCH  27  30
ATOM     30  C   LIG d   1      10.732   5.915  -3.675  0.00  0.00    -0.029 C 
BRANCH  30  31
ATOM     31  C   LIG d   1       9.503   6.490  -4.381  0.00  0.00    -0.060 C 
ATOM     32  H   LIG d   1       9.801   6.918  -5.339  0.00  0.00     0.024 H 
ATOM     33  H   LIG d   1       8.776   5.695  -4.550  0.00  0.00     0.024 H 
ATOM     34  H   LIG d   1       9.055   7.266  -3.759  0.00  0.00     0.024 H 
ENDBRANCH  30  31
BRANCH  30  35
ATOM     35  C   LIG d   1      11.654   7.058  -3.244  0.00  0.00    -0.060 C 
ATOM     36  H   LIG d   1      11.323   7.448  -2.281  0.00  0.00     0.024 H 
ATOM     37  H   LIG d   1      12.675   6.688  -3.155  0.00  0.00     0.024 H 
ATOM     38  H   LIG d   1      11.619   7.853  -3.988  0.00  0.00     0.024 H 
ENDBRANCH  30  35
BRANCH  30  39
ATOM     39  C   LIG d   1      11.483   4.988  -4.632  0.00  0.00    -0.060 C 
ATOM     40  H   LIG d   1      10.965   4.960  -5.591  0.00  0.00     0.024 H 
ATOM     41  H   LIG d   1      12.498   5.359  -4.777  0.00  0.00     0.024 H 
ATOM     42  H   LIG d   1      11.520   3.983  -4.211  0.00  0.00     0.024 H 
ENDBRANCH  30  39
ENDBRANCH  27  30
ENDBRANCH  24  27
ENDBRANCH  13  23
BRANCH  15  43
ATOM     43  C   LIG d   1       4.845   0.147  -3.676  0.00  0.00    -0.004 C 
ATOM     44  H   LIG d   1       5.064   1.139  -4.073  0.00  0.00     0.033 H 
ATOM     45  H   LIG d   1       4.102  -0.341  -4.305  0.00  0.00     0.033 H 
BRANCH  43  46
ATOM     46  C   LIG d   1       4.311   0.276  -2.274  0.00  0.00     0.042 C 
ATOM     47  O   LIG d   1       4.498  -0.609  -1.472  0.00  0.00    -0.550 OA
ATOM     48  O   LIG d   1       3.625   1.372  -1.914  0.00  0.00    -0.550 OA
ENDBRANCH  43  46
ENDBRANCH  15  43
BRANCH   1  49
ATOM     49  C   LIG d   1       5.571  -1.282  -6.028  0.00  0.00    -0.059 C 
ATOM     50  H   LIG d   1       6.452  -0.964  -6.585  0.00  0.00     0.024 H 
ATOM     51  H   LIG d   1       5.047  -2.056  -6.587  0.00  0.00     0.024 H 
ATOM     52  H   LIG d   1       4.909  -0.429  -5.879  0.00  0.00     0.024 H 
ENDBRANCH   1  49
BRANCH   6  53
ATOM     53  C   LIG d   1       8.520  -4.528  -5.806  0.00  0.00    -0.055 C 
ATOM     54  H   LIG d   1       8.403  -5.548  -5.439  0.00  0.00     0.024 H 
ATOM     55  H   LIG d   1       8.849  -4.551  -6.844  0.00  0.00     0.024 H 
ATOM     56  H   LIG d   1       9.264  -4.008  -5.201  0.00  0.00     0.024 H 
ENDBRANCH   6  53
BRANCH   6  57
ATOM     57  C   LIG d   1       6.751  -3.349  -7.108  0.00  0.00     0.052 C 
ATOM     58  H   LIG d   1       5.663  -3.306  -7.158  0.00  0.00     0.056 H 
ATOM     59  H   LIG d   1       7.163  -2.361  -7.318  0.00  0.00     0.056 H 
BRANCH  57  60
ATOM     60  O   LIG d   1       7.236  -4.281  -8.076  0.00  0.00    -0.394 OA
ATOM     61  H   LIG d   1       6.700  -5.083  -8.154  0.00  0.00     0.209 HD
ENDBRANCH  57  60
ENDBRANCH   6  57
BRANCH   4  62
ATOM     62  O   LIG d   1       6.002  -5.887  -5.976  0.00  0.00    -0.391 OA
ATOM     63  H   LIG d   1       6.845  -6.306  -6.198  0.00  0.00     0.210 HD
ENDBRANCH   4  62
TORSDOF 13
ENDMDL
MODEL 7
REMARK VINA RESULT:      -5.2      3.535      5.024
REMARK  13 active torsions:
REMARK  status: ('A' for Active; 'I' for Inactive)
REMARK    1  A    between atoms: C_1  and  C_2 
REMARK    2  A    between atoms: C_5  and  O_32 
REMARK    3  A    between atoms: C_7  and  C_29 
REMARK    4  A    between atoms: C_7  and  C_30 
REMARK    5  A    between atoms: C_14  and  N_16 
REMARK       I    between atoms: N_16  and  C_17 
REMARK    6  A    between atoms: C_17  and  C_19 
REMARK    7  A    between atoms: C_19  and  C_20 
REMARK    8  A    between atoms: C_20  and  C_21 
REMARK    9  A    between atoms: C_20  and  C_22 
REMARK   10  A    between atoms: C_20  and  C_23 
REMARK   11  A    between atoms: C_24  and  C_26 
REMARK   12  A    between atoms: C_26  and  C_27 
REMARK   13  A    between atoms: C_30  and  O_31 
ROOT
ATOM      1  C   LIG d   1       9.702   2.596  -4.667  0.00  0.00    -0.020 C 
ATOM      2  C   LIG d   1       9.740   2.825  -3.152  0.00  0.00    -0.044 C 
ATOM      3  C   LIG d   1      11.106   3.361  -2.729  0.00  0.00    -0.026 C 
ATOM      4  C   LIG d   1      11.350   4.698  -3.434  0.00  0.00     0.063 C 
ATOM      5  H   LIG d   1      10.554   5.398  -3.177  0.00  0.00     0.060 H 
ATOM      6  C   LIG d   1      11.361   4.462  -4.944  0.00  0.00     0.021 C 
ATOM      7  C   LIG d   1      10.012   3.901  -5.404  0.00  0.00    -0.021 C 
ATOM      8  H   LIG d   1       9.224   4.633  -5.229  0.00  0.00     0.032 H 
ATOM      9  C   LIG d   1      10.131   3.608  -6.913  0.00  0.00    -0.016 C 
ATOM     10  C   LIG d   1       8.989   2.752  -7.332  0.00  0.00     0.015 A 
ATOM     11  C   LIG d   1       8.136   2.057  -6.536  0.00  0.00     0.058 A 
ATOM     12  N   LIG d   1       7.191   1.360  -7.162  0.00  0.00    -0.229 NA
ATOM     13  C   LIG d   1       7.086   1.341  -8.474  0.00  0.00     0.165 A 
ATOM     14  S   LIG d   1       8.398   2.374  -8.959  0.00  0.00    -0.057 SA
ATOM     15  C   LIG d   1       8.292   2.107  -5.024  0.00  0.00     0.013 C 
ATOM     16  H   LIG d   1       7.555   2.793  -4.605  0.00  0.00     0.037 H 
ATOM     17  H   LIG d   1       8.969   3.544  -2.877  0.00  0.00     0.027 H 
ATOM     18  H   LIG d   1       9.549   1.881  -2.640  0.00  0.00     0.027 H 
ATOM     19  H   LIG d   1      11.121   3.509  -1.649  0.00  0.00     0.029 H 
ATOM     20  H   LIG d   1      11.882   2.651  -3.013  0.00  0.00     0.029 H 
ATOM     21  H   LIG d   1      11.069   3.088  -7.109  0.00  0.00     0.032 H 
ATOM     22  H   LIG d   1      10.110   4.544  -7.470  0.00  0.00     0.032 H 
ENDROOT
BRANCH  13  23
ATOM     23  N   LIG d   1       6.163   0.669  -9.268  0.00  0.00    -0.265 N 
ATOM     24  C   LIG d   1       5.098   1.326  -9.767  0.00  0.00     0.219 C 
ATOM     25  O   LIG d   1       4.943   2.503  -9.523  0.00  0.00    -0.275 OA
ATOM     26  H   LIG d   1       6.287  -0.273  -9.461  0.00  0.00     0.157 HD
BRANCH  24  27
ATOM     27  C   LIG d   1       4.099   0.596 -10.626  0.00  0.00     0.029 C 
ATOM     28  H   LIG d   1       3.568   1.311 -11.255  0.00  0.00     0.036 H 
ATOM     29  H   LIG d   1       4.619  -0.126 -11.257  0.00  0.00     0.036 H 
BRANCH  27  30
ATOM     30  C   LIG d   1       3.097  -0.138  -9.732  0.00  0.00    -0.029 C 
BRANCH  30  31
ATOM     31  C   LIG d   1       1.841  -0.470 -10.541  0.00  0.00    -0.060 C 
ATOM     32  H   LIG d   1       1.788   0.180 -11.415  0.00  0.00     0.024 H 
ATOM     33  H   LIG d   1       1.881  -1.510 -10.865  0.00  0.00     0.024 H 
ATOM     34  H   LIG d   1       0.957  -0.317  -9.920  0.00  0.00     0.024 H 
ENDBRANCH  30  31
BRANCH  30  35
ATOM     35  C   LIG d   1       3.727  -1.432  -9.215  0.00  0.00    -0.060 C 
ATOM     36  H   LIG d   1       3.518  -1.538  -8.150  0.00  0.00     0.024 H 
ATOM     37  H   LIG d   1       3.307  -2.282  -9.754  0.00  0.00     0.024 H 
ATOM     38  H   LIG d   1       4.805  -1.400  -9.371  0.00  0.00     0.024 H 
ENDBRANCH  30  35
BRANCH  30  39
ATOM     39  C   LIG d   1       2.720   0.755  -8.549  0.00  0.00    -0.060 C 
ATOM     40  H   LIG d   1       3.600   0.928  -7.929  0.00  0.00     0.024 H 
ATOM     41  H   LIG d   1       2.342   1.709  -8.918  0.00  0.00     0.024 H 
ATOM     42  H   LIG d   1       1.949   0.265  -7.955  0.00  0.00     0.024 H 
ENDBRANCH  30  39
ENDBRANCH  27  30
ENDBRANCH  24  27
ENDBRANCH  13  23
BRANCH  15  43
ATOM     43  C   LIG d   1       8.075   0.710  -4.441  0.00  0.00    -0.004 C 
ATOM     44  H   LIG d   1       7.923  -0.002  -5.253  0.00  0.00     0.033 H 
ATOM     45  H   LIG d   1       8.949   0.418  -3.860  0.00  0.00     0.033 H 
BRANCH  43  46
ATOM     46  C   LIG d   1       6.860   0.720  -3.550  0.00  0.00     0.042 C 
ATOM     47  O   LIG d   1       6.299   1.762  -3.304  0.00  0.00    -0.550 OA
ATOM     48  O   LIG d   1       6.399  -0.428  -3.028  0.00  0.00    -0.550 OA
ENDBRANCH  43  46
ENDBRANCH  15  43
BRANCH   1  49
ATOM     49  C   LIG d   1      10.728   1.530  -5.060  0.00  0.00    -0.059 C 
ATOM     50  H   LIG d   1      11.140   1.766  -6.040  0.00  0.00     0.024 H 
ATOM     51  H   LIG d   1      11.531   1.510  -4.323  0.00  0.00     0.024 H 
ATOM     52  H   LIG d   1      10.243   0.554  -5.095  0.00  0.00     0.024 H 
ENDBRANCH   1  49
BRANCH   6  53
ATOM     53  C   LIG d   1      11.630   5.785  -5.661  0.00  0.00    -0.055 C 
ATOM     54  H   LIG d   1      12.292   6.401  -5.051  0.00  0.00     0.024 H 
ATOM     55  H   LIG d   1      12.102   5.588  -6.623  0.00  0.00     0.024 H 
ATOM     56  H   LIG d   1      10.689   6.312  -5.820  0.00  0.00     0.024 H 
ENDBRANCH   6  53
BRANCH   6  57
ATOM     57  C   LIG d   1      12.469   3.466  -5.292  0.00  0.00     0.052 C 
ATOM     58  H   LIG d   1      12.594   2.760  -4.471  0.00  0.00     0.056 H 
ATOM     59  H   LIG d   1      12.199   2.924  -6.199  0.00  0.00     0.056 H 
BRANCH  57  60
ATOM     60  O   LIG d   1      13.693   4.171  -5.506  0.00  0.00    -0.394 OA
ATOM     61  H   LIG d   1      13.713   5.054  -5.110  0.00  0.00     0.209 HD
ENDBRANCH  57  60
ENDBRANCH   6  57
BRANCH   4  62
ATOM     62  O   LIG d   1      12.610   5.233  -3.024  0.00  0.00    -0.391 OA
ATOM     63  H   LIG d   1      12.927   5.960  -3.578  0.00  0.00     0.210 HD
ENDBRANCH   4  62
TORSDOF 13
ENDMDL
MODEL 8
REMARK VINA RESULT:      -5.1      6.133      9.372
REMARK  13 active torsions:
REMARK  status: ('A' for Active; 'I' for Inactive)
REMARK    1  A    between atoms: C_1  and  C_2 
REMARK    2  A    between atoms: C_5  and  O_32 
REMARK    3  A    between atoms: C_7  and  C_29 
REMARK    4  A    between atoms: C_7  and  C_30 
REMARK    5  A    between atoms: C_14  and  N_16 
REMARK       I    between atoms: N_16  and  C_17 
REMARK    6  A    between atoms: C_17  and  C_19 
REMARK    7  A    between atoms: C_19  and  C_20 
REMARK    8  A    between atoms: C_20  and  C_21 
REMARK    9  A    between atoms: C_20  and  C_22 
REMARK   10  A    between atoms: C_20  and  C_23 
REMARK   11  A    between atoms: C_24  and  C_26 
REMARK   12  A    between atoms: C_26  and  C_27 
REMARK   13  A    between atoms: C_30  and  O_31 
ROOT
ATOM      1  C   LIG d   1       6.487  -1.695  -4.324  0.00  0.00    -0.020 C 
ATOM      2  C   LIG d   1       7.293  -0.637  -3.563  0.00  0.00    -0.044 C 
ATOM      3  C   LIG d   1       6.490   0.655  -3.437  0.00  0.00    -0.026 C 
ATOM      4  C   LIG d   1       5.204   0.362  -2.658  0.00  0.00     0.063 C 
ATOM      5  H   LIG d   1       5.455  -0.044  -1.678  0.00  0.00     0.060 H 
ATOM      6  C   LIG d   1       4.377  -0.657  -3.441  0.00  0.00     0.021 C 
ATOM      7  C   LIG d   1       5.161  -1.962  -3.608  0.00  0.00    -0.021 C 
ATOM      8  H   LIG d   1       5.340  -2.418  -2.634  0.00  0.00     0.032 H 
ATOM      9  C   LIG d   1       4.302  -2.901  -4.479  0.00  0.00    -0.016 C 
ATOM     10  C   LIG d   1       5.148  -4.028  -4.956  0.00  0.00     0.015 A 
ATOM     11  C   LIG d   1       6.503  -4.116  -4.934  0.00  0.00     0.058 A 
ATOM     12  N   LIG d   1       7.022  -5.239  -5.427  0.00  0.00    -0.229 NA
ATOM     13  C   LIG d   1       6.271  -6.207  -5.907  0.00  0.00     0.165 A 
ATOM     14  S   LIG d   1       4.668  -5.569  -5.687  0.00  0.00    -0.057 SA
ATOM     15  C   LIG d   1       7.332  -2.974  -4.368  0.00  0.00     0.013 C 
ATOM     16  H   LIG d   1       7.659  -3.228  -3.360  0.00  0.00     0.037 H 
ATOM     17  H   LIG d   1       7.531  -1.013  -2.568  0.00  0.00     0.027 H 
ATOM     18  H   LIG d   1       8.220  -0.435  -4.101  0.00  0.00     0.027 H 
ATOM     19  H   LIG d   1       7.079   1.400  -2.903  0.00  0.00     0.029 H 
ATOM     20  H   LIG d   1       6.238   1.028  -4.430  0.00  0.00     0.029 H 
ATOM     21  H   LIG d   1       3.912  -2.349  -5.334  0.00  0.00     0.032 H 
ATOM     22  H   LIG d   1       3.473  -3.290  -3.888  0.00  0.00     0.032 H 
ENDROOT
BRANCH  13  23
ATOM     23  N   LIG d   1       6.659  -7.427  -6.451  0.00  0.00    -0.265 N 
ATOM     24  C   LIG d   1       6.718  -8.524  -5.671  0.00  0.00     0.219 C 
ATOM     25  O   LIG d   1       6.432  -8.449  -4.495  0.00  0.00    -0.275 OA
ATOM     26  H   LIG d   1       6.888  -7.487  -7.391  0.00  0.00     0.157 HD
BRANCH  24  27
ATOM     27  C   LIG d   1       7.139  -9.845  -6.261  0.00  0.00     0.029 C 
ATOM     28  H   LIG d   1       7.569  -9.682  -7.249  0.00  0.00     0.036 H 
ATOM     29  H   LIG d   1       7.881 -10.313  -5.615  0.00  0.00     0.036 H 
BRANCH  27  30
ATOM     30  C   LIG d   1       5.919 -10.761  -6.382  0.00  0.00    -0.029 C 
BRANCH  30  31
ATOM     31  C   LIG d   1       6.128 -11.737  -7.543  0.00  0.00    -0.060 C 
ATOM     32  H   LIG d   1       6.158 -12.757  -7.159  0.00  0.00     0.024 H 
ATOM     33  H   LIG d   1       5.305 -11.641  -8.251  0.00  0.00     0.024 H 
ATOM     34  H   LIG d   1       7.068 -11.509  -8.045  0.00  0.00     0.024 H 
ENDBRANCH  30  31
BRANCH  30  35
ATOM     35  C   LIG d   1       5.740 -11.547  -5.082  0.00  0.00    -0.060 C 
ATOM     36  H   LIG d   1       6.588 -11.358  -4.423  0.00  0.00     0.024 H 
ATOM     37  H   LIG d   1       4.820 -11.231  -4.590  0.00  0.00     0.024 H 
ATOM     38  H   LIG d   1       5.685 -12.612  -5.305  0.00  0.00     0.024 H 
ENDBRANCH  30  35
BRANCH  30  39
ATOM     39  C   LIG d   1       4.671  -9.918  -6.644  0.00  0.00    -0.060 C 
ATOM     40  H   LIG d   1       4.624  -9.104  -5.920  0.00  0.00     0.024 H 
ATOM     41  H   LIG d   1       4.716  -9.504  -7.652  0.00  0.00     0.024 H 
ATOM     42  H   LIG d   1       3.782 -10.542  -6.547  0.00  0.00     0.024 H 
ENDBRANCH  30  39
ENDBRANCH  27  30
ENDBRANCH  24  27
ENDBRANCH  13  23
BRANCH  15  43
ATOM     43  C   LIG d   1       8.558  -2.745  -5.256  0.00  0.00    -0.004 C 
ATOM     44  H   LIG d   1       8.474  -3.358  -6.154  0.00  0.00     0.033 H 
ATOM     45  H   LIG d   1       8.612  -1.694  -5.536  0.00  0.00     0.033 H 
BRANCH  43  46
ATOM     46  C   LIG d   1       9.804  -3.129  -4.501  0.00  0.00     0.042 C 
ATOM     47  O   LIG d   1      10.889  -2.802  -4.921  0.00  0.00    -0.550 OA
ATOM     48  O   LIG d   1       9.711  -3.835  -3.364  0.00  0.00    -0.550 OA
ENDBRANCH  43  46
ENDBRANCH  15  43
BRANCH   1  49
ATOM     49  C   LIG d   1       6.211  -1.214  -5.751  0.00  0.00    -0.059 C 
ATOM     50  H   LIG d   1       7.075  -1.426  -6.379  0.00  0.00     0.024 H 
ATOM     51  H   LIG d   1       5.338  -1.732  -6.146  0.00  0.00     0.024 H 
ATOM     52  H   LIG d   1       6.023  -0.140  -5.743  0.00  0.00     0.024 H 
ENDBRANCH   1  49
BRANCH   6  53
ATOM     53  C   LIG d   1       3.077  -0.940  -2.687  0.00  0.00    -0.055 C 
ATOM     54  H   LIG d   1       2.601   0.003  -2.417  0.00  0.00     0.024 H 
ATOM     55  H   LIG d   1       2.406  -1.517  -3.323  0.00  0.00     0.024 H 
ATOM     56  H   LIG d   1       3.297  -1.507  -1.782  0.00  0.00     0.024 H 
ENDBRANCH   6  53
BRANCH   6  57
ATOM     57  C   LIG d   1       4.045  -0.085  -4.821  0.00  0.00     0.052 C 
ATOM     58  H   LIG d   1       4.925   0.410  -5.230  0.00  0.00     0.056 H 
ATOM     59  H   LIG d   1       3.741  -0.894  -5.486  0.00  0.00     0.056 H 
BRANCH  57  60
ATOM     60  O   LIG d   1       2.978   0.858  -4.701  0.00  0.00    -0.394 OA
ATOM     61  H   LIG d   1       2.615   1.152  -5.548  0.00  0.00     0.209 HD
ENDBRANCH  57  60
ENDBRANCH   6  57
BRANCH   4  62
ATOM     62  O   LIG d   1       4.454   1.567  -2.499  0.00  0.00    -0.391 OA
ATOM     63  H   LIG d   1       4.774   2.304  -3.038  0.00  0.00     0.210 HD
ENDBRANCH   4  62
TORSDOF 13
ENDMDL
MODEL 9
REMARK VINA RESULT:      -5.1      1.510      2.076
REMARK  13 active torsions:
REMARK  status: ('A' for Active; 'I' for Inactive)
REMARK    1  A    between atoms: C_1  and  C_2 
REMARK    2  A    between atoms: C_5  and  O_32 
REMARK    3  A    between atoms: C_7  and  C_29 
REMARK    4  A    between atoms: C_7  and  C_30 
REMARK    5  A    between atoms: C_14  and  N_16 
REMARK       I    between atoms: N_16  and  C_17 
REMARK    6  A    between atoms: C_17  and  C_19 
REMARK    7  A    between atoms: C_19  and  C_20 
REMARK    8  A    between atoms: C_20  and  C_21 
REMARK    9  A    between atoms: C_20  and  C_22 
REMARK   10  A    between atoms: C_20  and  C_23 
REMARK   11  A    between atoms: C_24  and  C_26 
REMARK   12  A    between atoms: C_26  and  C_27 
REMARK   13  A    between atoms: C_30  and  O_31 
ROOT
ATOM      1  C   LIG d   1      10.553   4.653  -7.143  0.00  0.00    -0.020 C 
ATOM      2  C   LIG d   1      11.237   5.968  -6.756  0.00  0.00    -0.044 C 
ATOM      3  C   LIG d   1      11.882   6.613  -7.981  0.00  0.00    -0.026 C 
ATOM      4  C   LIG d   1      10.790   6.912  -9.013  0.00  0.00     0.063 C 
ATOM      5  H   LIG d   1      10.038   7.567  -8.571  0.00  0.00     0.060 H 
ATOM      6  C   LIG d   1      10.141   5.594  -9.434  0.00  0.00     0.021 C 
ATOM      7  C   LIG d   1       9.501   4.905  -8.225  0.00  0.00    -0.021 C 
ATOM      8  H   LIG d   1       8.690   5.518  -7.832  0.00  0.00     0.032 H 
ATOM      9  C   LIG d   1       8.949   3.551  -8.712  0.00  0.00    -0.016 C 
ATOM     10  C   LIG d   1       8.634   2.703  -7.531  0.00  0.00     0.015 A 
ATOM     11  C   LIG d   1       9.027   2.892  -6.245  0.00  0.00     0.058 A 
ATOM     12  N   LIG d   1       8.611   1.981  -5.368  0.00  0.00    -0.229 NA
ATOM     13  C   LIG d   1       7.864   0.957  -5.721  0.00  0.00     0.165 A 
ATOM     14  S   LIG d   1       7.677   1.215  -7.431  0.00  0.00    -0.057 SA
ATOM     15  C   LIG d   1       9.889   4.091  -5.879  0.00  0.00     0.013 C 
ATOM     16  H   LIG d   1       9.266   4.861  -5.424  0.00  0.00     0.037 H 
ATOM     17  H   LIG d   1      10.497   6.650  -6.337  0.00  0.00     0.027 H 
ATOM     18  H   LIG d   1      12.005   5.769  -6.007  0.00  0.00     0.027 H 
ATOM     19  H   LIG d   1      12.372   7.541  -7.689  0.00  0.00     0.029 H 
ATOM     20  H   LIG d   1      12.614   5.930  -8.411  0.00  0.00     0.029 H 
ATOM     21  H   LIG d   1       9.697   3.054  -9.330  0.00  0.00     0.032 H 
ATOM     22  H   LIG d   1       8.044   3.713  -9.296  0.00  0.00     0.032 H 
ENDROOT
BRANCH  13  23
ATOM     23  N   LIG d   1       7.355  -0.068  -4.931  0.00  0.00    -0.265 N 
ATOM     24  C   LIG d   1       6.602   0.223  -3.852  0.00  0.00     0.219 C 
ATOM     25  O   LIG d   1       6.369   1.378  -3.569  0.00  0.00    -0.275 OA
ATOM     26  H   LIG d   1       7.542  -0.992  -5.157  0.00  0.00     0.157 HD
BRANCH  24  27
ATOM     27  C   LIG d   1       6.052  -0.889  -2.997  0.00  0.00     0.029 C 
ATOM     28  H   LIG d   1       6.264  -1.849  -3.467  0.00  0.00     0.036 H 
ATOM     29  H   LIG d   1       6.518  -0.856  -2.012  0.00  0.00     0.036 H 
BRANCH  27  30
ATOM     30  C   LIG d   1       4.538  -0.717  -2.850  0.00  0.00    -0.029 C 
BRANCH  30  31
ATOM     31  C   LIG d   1       4.247   0.406  -1.852  0.00  0.00    -0.060 C 
ATOM     32  H   LIG d   1       5.171   0.940  -1.626  0.00  0.00     0.024 H 
ATOM     33  H   LIG d   1       3.525   1.098  -2.285  0.00  0.00     0.024 H 
ATOM     34  H   LIG d   1       3.838  -0.019  -0.935  0.00  0.00     0.024 H 
ENDBRANCH  30  31
BRANCH  30  35
ATOM     35  C   LIG d   1       3.931  -0.362  -4.209  0.00  0.00    -0.060 C 
ATOM     36  H   LIG d   1       2.855  -0.225  -4.101  0.00  0.00     0.024 H 
ATOM     37  H   LIG d   1       4.380   0.560  -4.578  0.00  0.00     0.024 H 
ATOM     38  H   LIG d   1       4.124  -1.169  -4.915  0.00  0.00     0.024 H 
ENDBRANCH  30  35
BRANCH  30  39
ATOM     39  C   LIG d   1       3.924  -2.022  -2.342  0.00  0.00    -0.060 C 
ATOM     40  H   LIG d   1       4.713  -2.672  -1.962  0.00  0.00     0.024 H 
ATOM     41  H   LIG d   1       3.216  -1.804  -1.541  0.00  0.00     0.024 H 
ATOM     42  H   LIG d   1       3.404  -2.522  -3.159  0.00  0.00     0.024 H 
ENDBRANCH  30  39
ENDBRANCH  27  30
ENDBRANCH  24  27
ENDBRANCH  13  23
BRANCH  15  43
ATOM     43  C   LIG d   1      10.969   3.658  -4.885  0.00  0.00    -0.004 C 
ATOM     44  H   LIG d   1      11.053   2.571  -4.891  0.00  0.00     0.033 H 
ATOM     45  H   LIG d   1      11.923   4.099  -5.171  0.00  0.00     0.033 H 
BRANCH  43  46
ATOM     46  C   LIG d   1      10.594   4.124  -3.502  0.00  0.00     0.042 C 
ATOM     47  O   LIG d   1      10.237   5.266  -3.325  0.00  0.00    -0.550 OA
ATOM     48  O   LIG d   1      10.658   3.274  -2.466  0.00  0.00    -0.550 OA
ENDBRANCH  43  46
ENDBRANCH  15  43
BRANCH   1  49
ATOM     49  C   LIG d   1      11.593   3.657  -7.661  0.00  0.00    -0.059 C 
ATOM     50  H   LIG d   1      12.464   3.666  -7.006  0.00  0.00     0.024 H 
ATOM     51  H   LIG d   1      11.161   2.657  -7.677  0.00  0.00     0.024 H 
ATOM     52  H   LIG d   1      11.895   3.939  -8.670  0.00  0.00     0.024 H 
ENDBRANCH   1  49
BRANCH   6  53
ATOM     53  C   LIG d   1       9.065   5.874 -10.485  0.00  0.00    -0.055 C 
ATOM     54  H   LIG d   1       8.594   4.937 -10.782  0.00  0.00     0.024 H 
ATOM     55  H   LIG d   1       8.312   6.542 -10.066  0.00  0.00     0.024 H 
ATOM     56  H   LIG d   1       9.521   6.343 -11.357  0.00  0.00     0.024 H 
ENDBRANCH   6  53
BRANCH   6  57
ATOM     57  C   LIG d   1      11.205   4.675 -10.036  0.00  0.00     0.052 C 
ATOM     58  H   LIG d   1      12.167   4.876  -9.565  0.00  0.00     0.056 H 
ATOM     59  H   LIG d   1      10.927   3.635  -9.865  0.00  0.00     0.056 H 
BRANCH  57  60
ATOM     60  O   LIG d   1      11.302   4.916 -11.442  0.00  0.00    -0.394 OA
ATOM     61  H   LIG d   1      11.138   4.134 -11.987  0.00  0.00     0.209 HD
ENDBRANCH  57  60
ENDBRANCH   6  57
BRANCH   4  62
ATOM     62  O   LIG d   1      11.369   7.547 -10.153  0.00  0.00    -0.391 OA
ATOM     63  H   LIG d   1      12.134   8.102  -9.949  0.00  0.00     0.210 HD
ENDBRANCH   4  62
TORSDOF 13
ENDMDL
