MODEL 1
REMARK VINA RESULT:      -3.6      0.000      0.000
REMARK  4 active torsions:
REMARK  status: ('A' for Active; 'I' for Inactive)
REMARK    1  A    between atoms: C_1  and  C_2 
REMARK    2  A    between atoms: C_2  and  O_3 
REMARK    3  A    between atoms: O_3  and  C_4 
REMARK    4  A    between atoms: C_5  and  C_6 
ROOT
ATOM      1  O   LIG d   1       4.137  -2.748  -3.306  0.00  0.00    -0.500 OA
ENDROOT
BRANCH   1   2
ATOM      2  C   LIG d   1       4.836  -3.365  -4.419  0.00  0.00     0.086 C 
ATOM      3  H   LIG d   1       4.760  -4.449  -4.338  0.00  0.00     0.069 H 
ATOM      4  H   LIG d   1       4.386  -3.039  -5.357  0.00  0.00     0.069 H 
BRANCH   2   5
ATOM      5  C   LIG d   1       6.308  -2.952  -4.389  0.00  0.00    -0.031 C 
ATOM      6  H   LIG d   1       6.455  -2.081  -5.027  0.00  0.00     0.026 H 
ATOM      7  H   LIG d   1       6.596  -2.707  -3.366  0.00  0.00     0.026 H 
ATOM      8  H   LIG d   1       6.924  -3.775  -4.751  0.00  0.00     0.026 H 
ENDBRANCH   2   5
ENDBRANCH   1   2
BRANCH   1   9
ATOM      9  C   LIG d   1       4.110  -1.401  -3.271  0.00  0.00     0.086 C 
ATOM     10  C   LIG d   1       4.409  -0.751  -2.132  0.00  0.00    -0.005 C 
ATOM     11  H   LIG d   1       4.672  -1.308  -1.245  0.00  0.00     0.067 H 
ATOM     12  H   LIG d   1       3.847  -0.843  -4.158  0.00  0.00     0.102 H 
BRANCH  10  13
ATOM     13  C   LIG d   1       4.381   0.665  -2.096  0.00  0.00     0.067 C 
ATOM     14  O   LIG d   1       3.324   1.248  -1.950  0.00  0.00    -0.545 OA
ATOM     15  O   LIG d   1       5.528   1.365  -2.215  0.00  0.00    -0.545 OA
ENDBRANCH  10  13
ENDBRANCH   1   9
TORSDOF 4
ENDMDL
MODEL 2
REMARK VINA RESULT:      -3.5      1.540      4.416
REMARK  4 active torsions:
REMARK  status: ('A' for Active; 'I' for Inactive)
REMARK    1  A    between atoms: C_1  and  C_2 
REMARK    2  A    between atoms: C_2  and  O_3 
REMARK    3  A    between atoms: O_3  and  C_4 
REMARK    4  A    between atoms: C_5  and  C_6 
ROOT
ATOM      1  O   LIG d   1       4.325  -0.671  -1.607  0.00  0.00    -0.500 OA
ENDROOT
BRANCH   1   2
ATOM      2  C   LIG d   1       4.616   0.750  -1.664  0.00  0.00     0.086 C 
ATOM      3  H   LIG d   1       4.576   1.169  -0.658  0.00  0.00     0.069 H 
ATOM      4  H   LIG d   1       5.612   0.901  -2.081  0.00  0.00     0.069 H 
BRANCH   2   5
ATOM      5  C   LIG d   1       3.581   1.448  -2.548  0.00  0.00    -0.031 C 
ATOM      6  H   LIG d   1       3.056   2.205  -1.965  0.00  0.00     0.026 H 
ATOM      7  H   LIG d   1       4.085   1.924  -3.391  0.00  0.00     0.026 H 
ATOM      8  H   LIG d   1       2.866   0.715  -2.920  0.00  0.00     0.026 H 
ENDBRANCH   2   5
ENDBRANCH   1   2
BRANCH   1   9
ATOM      9  C   LIG d   1       4.961  -1.462  -2.494  0.00  0.00     0.086 C 
ATOM     10  C   LIG d   1       4.254  -2.284  -3.290  0.00  0.00    -0.005 C 
ATOM     11  H   LIG d   1       3.177  -2.310  -3.219  0.00  0.00     0.067 H 
ATOM     12  H   LIG d   1       6.038  -1.436  -2.566  0.00  0.00     0.102 H 
BRANCH  10  13
ATOM     13  C   LIG d   1       4.922  -3.115  -4.222  0.00  0.00     0.067 C 
ATOM     14  O   LIG d   1       6.043  -2.829  -4.596  0.00  0.00    -0.545 OA
ATOM     15  O   LIG d   1       4.316  -4.227  -4.689  0.00  0.00    -0.545 OA
ENDBRANCH  10  13
ENDBRANCH   1   9
TORSDOF 4
ENDMDL
MODEL 3
REMARK VINA RESULT:      -3.4      2.121      3.664
REMARK  4 active torsions:
REMARK  status: ('A' for Active; 'I' for Inactive)
REMARK    1  A    between atoms: C_1  and  C_2 
REMARK    2  A    between atoms: C_2  and  O_3 
REMARK    3  A    between atoms: O_3  and  C_4 
REMARK    4  A    between atoms: C_5  and  C_6 
ROOT
ATOM      1  O   LIG d   1       5.948   1.415  -2.691  0.00  0.00    -0.500 OA
ENDROOT
BRANCH   1   2
ATOM      2  C   LIG d   1       6.941   0.858  -3.592  0.00  0.00     0.086 C 
ATOM      3  H   LIG d   1       7.393  -0.022  -3.134  0.00  0.00     0.069 H 
ATOM      4  H   LIG d   1       6.463   0.575  -4.530  0.00  0.00     0.069 H 
BRANCH   2   5
ATOM      5  C   LIG d   1       8.024   1.903  -3.866  0.00  0.00    -0.031 C 
ATOM      6  H   LIG d   1       8.315   1.858  -4.916  0.00  0.00     0.026 H 
ATOM      7  H   LIG d   1       7.636   2.897  -3.638  0.00  0.00     0.026 H 
ATOM      8  H   LIG d   1       8.892   1.700  -3.240  0.00  0.00     0.026 H 
ENDBRANCH   2   5
ENDBRANCH   1   2
BRANCH   1   9
ATOM      9  C   LIG d   1       4.815   0.705  -2.515  0.00  0.00     0.086 C 
ATOM     10  C   LIG d   1       4.743  -0.565  -2.951  0.00  0.00    -0.005 C 
ATOM     11  H   LIG d   1       5.592  -1.018  -3.442  0.00  0.00     0.067 H 
ATOM     12  H   LIG d   1       3.966   1.157  -2.025  0.00  0.00     0.102 H 
BRANCH  10  13
ATOM     13  C   LIG d   1       3.553  -1.311  -2.766  0.00  0.00     0.067 C 
ATOM     14  O   LIG d   1       2.472  -0.789  -2.963  0.00  0.00    -0.545 OA
ATOM     15  O   LIG d   1       3.620  -2.602  -2.378  0.00  0.00    -0.545 OA
ENDBRANCH  10  13
ENDBRANCH   1   9
TORSDOF 4
ENDMDL
MODEL 4
REMARK VINA RESULT:      -3.3      3.411      4.223
REMARK  4 active torsions:
REMARK  status: ('A' for Active; 'I' for Inactive)
REMARK    1  A    between atoms: C_1  and  C_2 
REMARK    2  A    between atoms: C_2  and  O_3 
REMARK    3  A    between atoms: O_3  and  C_4 
REMARK    4  A    between atoms: C_5  and  C_6 
ROOT
ATOM      1  O   LIG d   1       3.080   0.021  -3.301  0.00  0.00    -0.500 OA
ENDROOT
BRANCH   1   2
ATOM      2  C   LIG d   1       3.947  -0.566  -2.295  0.00  0.00     0.086 C 
ATOM      3  H   LIG d   1       4.978  -0.267  -2.486  0.00  0.00     0.069 H 
ATOM      4  H   LIG d   1       3.645  -0.218  -1.307  0.00  0.00     0.069 H 
BRANCH   2   5
ATOM      5  C   LIG d   1       3.839  -2.091  -2.355  0.00  0.00    -0.031 C 
ATOM      6  H   LIG d   1       3.959  -2.423  -3.386  0.00  0.00     0.026 H 
ATOM      7  H   LIG d   1       4.621  -2.534  -1.736  0.00  0.00     0.026 H 
ATOM      8  H   LIG d   1       2.863  -2.401  -1.983  0.00  0.00     0.026 H 
ENDBRANCH   2   5
ENDBRANCH   1   2
BRANCH   1   9
ATOM      9  C   LIG d   1       3.477  -0.081  -4.585  0.00  0.00     0.086 C 
ATOM     10  C   LIG d   1       2.664   0.328  -5.575  0.00  0.00    -0.005 C 
ATOM     11  H   LIG d   1       1.693   0.739  -5.342  0.00  0.00     0.067 H 
ATOM     12  H   LIG d   1       4.448  -0.492  -4.820  0.00  0.00     0.102 H 
BRANCH  10  13
ATOM     13  C   LIG d   1       3.080   0.221  -6.925  0.00  0.00     0.067 C 
ATOM     14  O   LIG d   1       2.321  -0.230  -7.761  0.00  0.00    -0.545 OA
ATOM     15  O   LIG d   1       4.316   0.627  -7.283  0.00  0.00    -0.545 OA
ENDBRANCH  10  13
ENDBRANCH   1   9
TORSDOF 4
ENDMDL
MODEL 5
REMARK VINA RESULT:      -3.3      2.441      3.612
REMARK  4 active torsions:
REMARK  status: ('A' for Active; 'I' for Inactive)
REMARK    1  A    between atoms: C_1  and  C_2 
REMARK    2  A    between atoms: C_2  and  O_3 
REMARK    3  A    between atoms: O_3  and  C_4 
REMARK    4  A    between atoms: C_5  and  C_6 
ROOT
ATOM      1  O   LIG d   1       4.700   0.220  -1.910  0.00  0.00    -0.500 OA
ENDROOT
BRANCH   1   2
ATOM      2  C   LIG d   1       3.617  -0.518  -2.534  0.00  0.00     0.086 C 
ATOM      3  H   LIG d   1       2.672  -0.236  -2.069  0.00  0.00     0.069 H 
ATOM      4  H   LIG d   1       3.583  -0.284  -3.597  0.00  0.00     0.069 H 
BRANCH   2   5
ATOM      5  C   LIG d   1       3.849  -2.019  -2.348  0.00  0.00    -0.031 C 
ATOM      6  H   LIG d   1       2.911  -2.500  -2.073  0.00  0.00     0.026 H 
ATOM      7  H   LIG d   1       4.218  -2.447  -3.282  0.00  0.00     0.026 H 
ATOM      8  H   LIG d   1       4.584  -2.179  -1.560  0.00  0.00     0.026 H 
ENDBRANCH   2   5
ENDBRANCH   1   2
BRANCH   1   9
ATOM      9  C   LIG d   1       5.436   1.020  -2.708  0.00  0.00     0.086 C 
ATOM     10  C   LIG d   1       6.644   0.613  -3.138  0.00  0.00    -0.005 C 
ATOM     11  H   LIG d   1       7.025  -0.354  -2.844  0.00  0.00     0.067 H 
ATOM     12  H   LIG d   1       5.055   1.987  -3.002  0.00  0.00     0.102 H 
BRANCH  10  13
ATOM     13  C   LIG d   1       7.416   1.452  -3.977  0.00  0.00     0.067 C 
ATOM     14  O   LIG d   1       8.211   2.233  -3.490  0.00  0.00    -0.545 OA
ATOM     15  O   LIG d   1       7.276   1.380  -5.317  0.00  0.00    -0.545 OA
ENDBRANCH  10  13
ENDBRANCH   1   9
TORSDOF 4
ENDMDL
MODEL 6
REMARK VINA RESULT:      -3.3      2.739      3.603
REMARK  4 active torsions:
REMARK  status: ('A' for Active; 'I' for Inactive)
REMARK    1  A    between atoms: C_1  and  C_2 
REMARK    2  A    between atoms: C_2  and  O_3 
REMARK    3  A    between atoms: O_3  and  C_4 
REMARK    4  A    between atoms: C_5  and  C_6 
ROOT
ATOM      1  O   LIG d   1       2.895   0.725  -5.275  0.00  0.00    -0.500 OA
ENDROOT
BRANCH   1   2
ATOM      2  C   LIG d   1       3.375  -0.086  -6.380  0.00  0.00     0.086 C 
ATOM      3  H   LIG d   1       4.464  -0.040  -6.418  0.00  0.00     0.069 H 
ATOM      4  H   LIG d   1       3.060  -1.119  -6.236  0.00  0.00     0.069 H 
BRANCH   2   5
ATOM      5  C   LIG d   1       2.797   0.445  -7.693  0.00  0.00    -0.031 C 
ATOM      6  H   LIG d   1       2.903   1.530  -7.724  0.00  0.00     0.026 H 
ATOM      7  H   LIG d   1       3.335   0.003  -8.532  0.00  0.00     0.026 H 
ATOM      8  H   LIG d   1       1.742   0.181  -7.759  0.00  0.00     0.026 H 
ENDBRANCH   2   5
ENDBRANCH   1   2
BRANCH   1   9
ATOM      9  C   LIG d   1       3.082   0.238  -4.033  0.00  0.00     0.086 C 
ATOM     10  C   LIG d   1       3.609  -0.988  -3.862  0.00  0.00    -0.005 C 
ATOM     11  H   LIG d   1       3.883  -1.582  -4.721  0.00  0.00     0.067 H 
ATOM     12  H   LIG d   1       2.809   0.833  -3.173  0.00  0.00     0.102 H 
BRANCH  10  13
ATOM     13  C   LIG d   1       3.806  -1.499  -2.556  0.00  0.00     0.067 C 
ATOM     14  O   LIG d   1       3.543  -2.661  -2.313  0.00  0.00    -0.545 OA
ATOM     15  O   LIG d   1       4.293  -0.699  -1.585  0.00  0.00    -0.545 OA
ENDBRANCH  10  13
ENDBRANCH   1   9
TORSDOF 4
ENDMDL
MODEL 7
REMARK VINA RESULT:      -3.1      2.873      3.762
REMARK  4 active torsions:
REMARK  status: ('A' for Active; 'I' for Inactive)
REMARK    1  A    between atoms: C_1  and  C_2 
REMARK    2  A    between atoms: C_2  and  O_3 
REMARK    3  A    between atoms: O_3  and  C_4 
REMARK    4  A    between atoms: C_5  and  C_6 
ROOT
ATOM      1  O   LIG d   1       7.221   0.667  -4.386  0.00  0.00    -0.500 OA
ENDROOT
BRANCH   1   2
ATOM      2  C   LIG d   1       8.106   1.624  -3.745  0.00  0.00     0.086 C 
ATOM      3  H   LIG d   1       7.605   2.057  -2.879  0.00  0.00     0.069 H 
ATOM      4  H   LIG d   1       9.016   1.118  -3.423  0.00  0.00     0.069 H 
BRANCH   2   5
ATOM      5  C   LIG d   1       8.462   2.733  -4.736  0.00  0.00    -0.031 C 
ATOM      6  H   LIG d   1       9.546   2.815  -4.817  0.00  0.00     0.026 H 
ATOM      7  H   LIG d   1       8.041   2.495  -5.714  0.00  0.00     0.026 H 
ATOM      8  H   LIG d   1       8.051   3.680  -4.386  0.00  0.00     0.026 H 
ENDBRANCH   2   5
ENDBRANCH   1   2
BRANCH   1   9
ATOM      9  C   LIG d   1       6.151   0.255  -3.678  0.00  0.00     0.086 C 
ATOM     10  C   LIG d   1       5.539   1.100  -2.829  0.00  0.00    -0.005 C 
ATOM     11  H   LIG d   1       5.905   2.110  -2.714  0.00  0.00     0.067 H 
ATOM     12  H   LIG d   1       5.784  -0.755  -3.792  0.00  0.00     0.102 H 
BRANCH  10  13
ATOM     13  C   LIG d   1       4.414   0.667  -2.086  0.00  0.00     0.067 C 
ATOM     14  O   LIG d   1       3.453   1.401  -1.956  0.00  0.00    -0.545 OA
ATOM     15  O   LIG d   1       4.407  -0.562  -1.528  0.00  0.00    -0.545 OA
ENDBRANCH  10  13
ENDBRANCH   1   9
TORSDOF 4
ENDMDL
MODEL 8
REMARK VINA RESULT:      -3.0      3.969      4.381
REMARK  4 active torsions:
REMARK  status: ('A' for Active; 'I' for Inactive)
REMARK    1  A    between atoms: C_1  and  C_2 
REMARK    2  A    between atoms: C_2  and  O_3 
REMARK    3  A    between atoms: O_3  and  C_4 
REMARK    4  A    between atoms: C_5  and  C_6 
ROOT
ATOM      1  O   LIG d   1       3.008  -0.193  -7.412  0.00  0.00    -0.500 OA
ENDROOT
BRANCH   1   2
ATOM      2  C   LIG d   1       3.567   0.643  -8.459  0.00  0.00     0.086 C 
ATOM      3  H   LIG d   1       4.636   0.773  -8.288  0.00  0.00     0.069 H 
ATOM      4  H   LIG d   1       3.409   0.169  -9.427  0.00  0.00     0.069 H 
BRANCH   2   5
ATOM      5  C   LIG d   1       2.879   2.010  -8.442  0.00  0.00    -0.031 C 
ATOM      6  H   LIG d   1       1.829   1.891  -8.707  0.00  0.00     0.026 H 
ATOM      7  H   LIG d   1       2.956   2.443  -7.444  0.00  0.00     0.026 H 
ATOM      8  H   LIG d   1       3.363   2.670  -9.162  0.00  0.00     0.026 H 
ENDBRANCH   2   5
ENDBRANCH   1   2
BRANCH   1   9
ATOM      9  C   LIG d   1       2.813   0.381  -6.209  0.00  0.00     0.086 C 
ATOM     10  C   LIG d   1       3.418  -0.122  -5.117  0.00  0.00    -0.005 C 
ATOM     11  H   LIG d   1       4.060  -0.986  -5.205  0.00  0.00     0.067 H 
ATOM     12  H   LIG d   1       2.171   1.245  -6.120  0.00  0.00     0.102 H 
BRANCH  10  13
ATOM     13  C   LIG d   1       3.213   0.482  -3.853  0.00  0.00     0.067 C 
ATOM     14  O   LIG d   1       3.417   1.672  -3.707  0.00  0.00    -0.545 OA
ATOM     15  O   LIG d   1       2.785  -0.262  -2.812  0.00  0.00    -0.545 OA
ENDBRANCH  10  13
ENDBRANCH   1   9
TORSDOF 4
ENDMDL
MODEL 9
REMARK VINA RESULT:      -3.0      9.209     10.140
REMARK  4 active torsions:
REMARK  status: ('A' for Active; 'I' for Inactive)
REMARK    1  A    between atoms: C_1  and  C_2 
REMARK    2  A    between atoms: C_2  and  O_3 
REMARK    3  A    between atoms: O_3  and  C_4 
REMARK    4  A    between atoms: C_5  and  C_6 
ROOT
ATOM      1  O   LIG d   1       6.747 -11.160  -3.005  0.00  0.00    -0.500 OA
ENDROOT
BRANCH   1   2
ATOM      2  C   LIG d   1       7.037 -10.851  -1.617  0.00  0.00     0.086 C 
ATOM      3  H   LIG d   1       6.126 -10.946  -1.026  0.00  0.00     0.069 H 
ATOM      4  H   LIG d   1       7.789 -11.544  -1.239  0.00  0.00     0.069 H 
BRANCH   2   5
ATOM      5  C   LIG d   1       7.565  -9.419  -1.512  0.00  0.00    -0.031 C 
ATOM      6  H   LIG d   1       7.490  -8.932  -2.484  0.00  0.00     0.026 H 
ATOM      7  H   LIG d   1       6.972  -8.866  -0.781  0.00  0.00     0.026 H 
ATOM      8  H   LIG d   1       8.607  -9.437  -1.194  0.00  0.00     0.026 H 
ENDBRANCH   2   5
ENDBRANCH   1   2
BRANCH   1   9
ATOM      9  C   LIG d   1       5.575 -10.716  -3.499  0.00  0.00     0.086 C 
ATOM     10  C   LIG d   1       4.416 -11.125  -2.951  0.00  0.00    -0.005 C 
ATOM     11  H   LIG d   1       4.425 -11.809  -2.115  0.00  0.00     0.067 H 
ATOM     12  H   LIG d   1       5.564 -10.032  -4.335  0.00  0.00     0.102 H 
BRANCH  10  13
ATOM     13  C   LIG d   1       3.183 -10.658  -3.469  0.00  0.00     0.067 C 
ATOM     14  O   LIG d   1       2.721  -9.603  -3.079  0.00  0.00    -0.545 OA
ATOM     15  O   LIG d   1       2.526 -11.380  -4.400  0.00  0.00    -0.545 OA
ENDBRANCH  10  13
ENDBRANCH   1   9
TORSDOF 4
ENDMDL
MODEL 10
REMARK VINA RESULT:      -2.9      5.924      6.382
REMARK  4 active torsions:
REMARK  status: ('A' for Active; 'I' for Inactive)
REMARK    1  A    between atoms: C_1  and  C_2 
REMARK    2  A    between atoms: C_2  and  O_3 
REMARK    3  A    between atoms: O_3  and  C_4 
REMARK    4  A    between atoms: C_5  and  C_6 
ROOT
ATOM      1  O   LIG d   1       2.565  -0.024  -7.134  0.00  0.00    -0.500 OA
ENDROOT
BRANCH   1   2
ATOM      2  C   LIG d   1       3.329   0.004  -5.900  0.00  0.00     0.086 C 
ATOM      3  H   LIG d   1       3.724  -0.992  -5.696  0.00  0.00     0.069 H 
ATOM      4  H   LIG d   1       4.154   0.709  -5.998  0.00  0.00     0.069 H 
BRANCH   2   5
ATOM      5  C   LIG d   1       2.421   0.437  -4.747  0.00  0.00    -0.031 C 
ATOM      6  H   LIG d   1       1.464  -0.078  -4.825  0.00  0.00     0.026 H 
ATOM      7  H   LIG d   1       2.895   0.184  -3.798  0.00  0.00     0.026 H 
ATOM      8  H   LIG d   1       2.260   1.514  -4.796  0.00  0.00     0.026 H 
ENDBRANCH   2   5
ENDBRANCH   1   2
BRANCH   1   9
ATOM      9  C   LIG d   1       2.923   0.852  -8.095  0.00  0.00     0.086 C 
ATOM     10  C   LIG d   1       4.189   0.876  -8.546  0.00  0.00    -0.005 C 
ATOM     11  H   LIG d   1       4.921   0.193  -8.140  0.00  0.00     0.067 H 
ATOM     12  H   LIG d   1       2.192   1.535  -8.502  0.00  0.00     0.102 H 
BRANCH  10  13
ATOM     13  C   LIG d   1       4.565   1.795  -9.555  0.00  0.00     0.067 C 
ATOM     14  O   LIG d   1       3.964   1.816 -10.612  0.00  0.00    -0.545 OA
ATOM     15  O   LIG d   1       5.585   2.652  -9.341  0.00  0.00    -0.545 OA
ENDBRANCH  10  13
ENDBRANCH   1   9
TORSDOF 4
ENDMDL
