MODEL 1
REMARK VINA RESULT:      -7.7      0.000      0.000
REMARK  12 active torsions:
REMARK  status: ('A' for Active; 'I' for Inactive)
REMARK    1  A    between atoms: C_1  and  C_2 
REMARK    2  A    between atoms: C_2  and  C_3 
REMARK    3  A    between atoms: C_3  and  C_5 
REMARK    4  A    between atoms: C_3  and  N_27 
REMARK    5  A    between atoms: C_5  and  O_7 
REMARK    6  A    between atoms: O_7  and  C_8 
REMARK    7  A    between atoms: C_12  and  C_19 
REMARK    8  A    between atoms: C_22  and  O_25 
REMARK    9  A    between atoms: O_25  and  C_26 
REMARK   10  A    between atoms: N_27  and  S_28 
REMARK   11  A    between atoms: S_28  and  C_31 
REMARK   12  A    between atoms: C_34  and  C_37 
ROOT
ATOM      1  O   LIG d   1       6.679  -0.579  -5.155  0.00  0.00    -0.425 OA
ENDROOT
BRANCH   1   2
ATOM      2  C   LIG d   1       6.150  -1.023  -4.003  0.00  0.00     0.331 C 
ATOM      3  O   LIG d   1       6.732  -1.862  -3.356  0.00  0.00    -0.249 OA
BRANCH   2   4
ATOM      4  C   LIG d   1       4.832  -0.477  -3.519  0.00  0.00     0.126 C 
ATOM      5  H   LIG d   1       4.896   0.608  -3.436  0.00  0.00     0.059 H 
BRANCH   4   6
ATOM      6  C   LIG d   1       4.507  -1.073  -2.147  0.00  0.00    -0.028 C 
ATOM      7  H   LIG d   1       5.432  -1.344  -1.640  0.00  0.00     0.028 H 
ATOM      8  H   LIG d   1       3.967  -0.338  -1.551  0.00  0.00     0.028 H 
BRANCH   6   9
ATOM      9  C   LIG d   1       3.640  -2.322  -2.326  0.00  0.00    -0.063 C 
ATOM     10  H   LIG d   1       3.723  -2.677  -3.352  0.00  0.00     0.023 H 
ATOM     11  H   LIG d   1       3.981  -3.100  -1.643  0.00  0.00     0.023 H 
ATOM     12  H   LIG d   1       2.600  -2.078  -2.108  0.00  0.00     0.023 H 
ENDBRANCH   6   9
ENDBRANCH   4   6
BRANCH   4  13
ATOM     13  N   LIG d   1       3.776  -0.834  -4.469  0.00  0.00    -0.176 N 
ATOM     14  H   LIG d   1       3.685  -1.750  -4.772  0.00  0.00     0.149 HD
BRANCH  13  15
ATOM     15  S   LIG d   1       2.736   0.329  -5.026  0.00  0.00     0.059 S 
ATOM     16  O   LIG d   1       3.125   1.550  -4.412  0.00  0.00    -0.153 OA
ATOM     17  O   LIG d   1       1.425  -0.203  -4.900  0.00  0.00    -0.153 OA
BRANCH  15  18
ATOM     18  C   LIG d   1       3.039   0.515  -6.752  0.00  0.00     0.105 A 
ATOM     19  C   LIG d   1       3.610  -0.519  -7.469  0.00  0.00    -0.035 A 
ATOM     20  C   LIG d   1       3.842  -0.375  -8.824  0.00  0.00    -0.057 A 
ATOM     21  H   LIG d   1       3.875  -1.440  -6.971  0.00  0.00     0.064 H 
ATOM     22  C   LIG d   1       3.503   0.804  -9.462  0.00  0.00    -0.050 A 
ATOM     23  H   LIG d   1       4.288  -1.183  -9.385  0.00  0.00     0.062 H 
ATOM     24  C   LIG d   1       2.932   1.838  -8.745  0.00  0.00    -0.057 A 
ATOM     25  C   LIG d   1       2.701   1.695  -7.390  0.00  0.00    -0.035 A 
ATOM     26  H   LIG d   1       2.667   2.760  -9.243  0.00  0.00     0.062 H 
ATOM     27  H   LIG d   1       2.255   2.503  -6.829  0.00  0.00     0.064 H 
BRANCH  22  28
ATOM     28  C   LIG d   1       3.756   0.961 -10.939  0.00  0.00    -0.040 C 
ATOM     29  H   LIG d   1       4.176   0.037 -11.337  0.00  0.00     0.028 H 
ATOM     30  H   LIG d   1       2.816   1.182 -11.447  0.00  0.00     0.028 H 
ATOM     31  H   LIG d   1       4.457   1.780 -11.102  0.00  0.00     0.028 H 
ENDBRANCH  22  28
ENDBRANCH  15  18
ENDBRANCH  13  15
ENDBRANCH   4  13
ENDBRANCH   2   4
ENDBRANCH   1   2
BRANCH   1  32
ATOM     32  C   LIG d   1       7.389   0.578  -5.103  0.00  0.00     0.135 A 
ATOM     33  C   LIG d   1       7.876   1.136  -6.273  0.00  0.00     0.024 A 
ATOM     34  C   LIG d   1       8.601   2.318  -6.223  0.00  0.00     0.143 A 
ATOM     35  H   LIG d   1       7.692   0.655  -7.222  0.00  0.00     0.069 H 
ATOM     36  C   LIG d   1       8.832   2.933  -4.980  0.00  0.00     0.025 A 
ATOM     37  O   LIG d   1       9.084   2.879  -7.352  0.00  0.00    -0.422 OA
ATOM     38  C   LIG d   1       8.333   2.355  -3.810  0.00  0.00    -0.047 A 
ATOM     39  C   LIG d   1       9.603   4.186  -4.938  0.00  0.00    -0.001 A 
ATOM     40  C   LIG d   1       7.616   1.195  -3.876  0.00  0.00    -0.018 A 
ATOM     41  H   LIG d   1       8.510   2.829  -2.855  0.00  0.00     0.063 H 
ATOM     42  H   LIG d   1       7.227   0.752  -2.972  0.00  0.00     0.065 H 
ATOM     43  C   LIG d   1      10.066   4.700  -6.136  0.00  0.00     0.031 A 
ATOM     44  C   LIG d   1       9.790   4.020  -7.333  0.00  0.00     0.338 A 
ATOM     45  H   LIG d   1      10.637   5.617  -6.150  0.00  0.00     0.070 H 
ATOM     46  O   LIG d   1      10.201   4.480  -8.385  0.00  0.00    -0.245 OA
BRANCH  39  47
ATOM     47  C   LIG d   1       9.875   4.873  -3.658  0.00  0.00    -0.017 A 
ATOM     48  C   LIG d   1       9.264   6.097  -3.375  0.00  0.00    -0.051 A 
ATOM     49  C   LIG d   1       9.520   6.732  -2.181  0.00  0.00    -0.019 A 
ATOM     50  H   LIG d   1       8.593   6.544  -4.093  0.00  0.00     0.062 H 
ATOM     51  C   LIG d   1      10.384   6.157  -1.256  0.00  0.00     0.120 A 
ATOM     52  H   LIG d   1       9.048   7.679  -1.961  0.00  0.00     0.065 H 
ATOM     53  C   LIG d   1      10.994   4.939  -1.534  0.00  0.00    -0.019 A 
ATOM     54  C   LIG d   1      10.739   4.296  -2.724  0.00  0.00    -0.051 A 
ATOM     55  H   LIG d   1      11.666   4.496  -0.813  0.00  0.00     0.065 H 
ATOM     56  H   LIG d   1      11.210   3.347  -2.937  0.00  0.00     0.062 H 
BRANCH  51  57
ATOM     57  O   LIG d   1      10.635   6.787  -0.080  0.00  0.00    -0.495 OA
BRANCH  57  58
ATOM     58  C   LIG d   1      11.162   5.990   0.983  0.00  0.00     0.079 C 
ATOM     59  H   LIG d   1      10.733   6.318   1.930  0.00  0.00     0.066 H 
ATOM     60  H   LIG d   1      10.909   4.944   0.812  0.00  0.00     0.066 H 
ATOM     61  H   LIG d   1      12.246   6.102   1.018  0.00  0.00     0.066 H 
ENDBRANCH  57  58
ENDBRANCH  51  57
ENDBRANCH  39  47
ENDBRANCH   1  32
TORSDOF 12
ENDMDL
MODEL 2
REMARK VINA RESULT:      -7.6      1.879      2.364
REMARK  12 active torsions:
REMARK  status: ('A' for Active; 'I' for Inactive)
REMARK    1  A    between atoms: C_1  and  C_2 
REMARK    2  A    between atoms: C_2  and  C_3 
REMARK    3  A    between atoms: C_3  and  C_5 
REMARK    4  A    between atoms: C_3  and  N_27 
REMARK    5  A    between atoms: C_5  and  O_7 
REMARK    6  A    between atoms: O_7  and  C_8 
REMARK    7  A    between atoms: C_12  and  C_19 
REMARK    8  A    between atoms: C_22  and  O_25 
REMARK    9  A    between atoms: O_25  and  C_26 
REMARK   10  A    between atoms: N_27  and  S_28 
REMARK   11  A    between atoms: S_28  and  C_31 
REMARK   12  A    between atoms: C_34  and  C_37 
ROOT
ATOM      1  O   LIG d   1       5.766  -1.105  -4.317  0.00  0.00    -0.425 OA
ENDROOT
BRANCH   1   2
ATOM      2  C   LIG d   1       4.698  -1.211  -5.125  0.00  0.00     0.331 C 
ATOM      3  O   LIG d   1       4.518  -2.225  -5.758  0.00  0.00    -0.249 OA
BRANCH   2   4
ATOM      4  C   LIG d   1       3.727  -0.066  -5.244  0.00  0.00     0.126 C 
ATOM      5  H   LIG d   1       4.267   0.878  -5.179  0.00  0.00     0.059 H 
BRANCH   4   6
ATOM      6  C   LIG d   1       2.703  -0.146  -4.109  0.00  0.00    -0.028 C 
ATOM      7  H   LIG d   1       1.771   0.321  -4.427  0.00  0.00     0.028 H 
ATOM      8  H   LIG d   1       2.519  -1.191  -3.860  0.00  0.00     0.028 H 
BRANCH   6   9
ATOM      9  C   LIG d   1       3.245   0.585  -2.880  0.00  0.00    -0.063 C 
ATOM     10  H   LIG d   1       2.568   1.395  -2.610  0.00  0.00     0.023 H 
ATOM     11  H   LIG d   1       3.325  -0.115  -2.047  0.00  0.00     0.023 H 
ATOM     12  H   LIG d   1       4.231   0.994  -3.105  0.00  0.00     0.023 H 
ENDBRANCH   6   9
ENDBRANCH   4   6
BRANCH   4  13
ATOM     13  N   LIG d   1       3.034  -0.145  -6.532  0.00  0.00    -0.176 N 
ATOM     14  H   LIG d   1       2.320  -0.787  -6.661  0.00  0.00     0.149 HD
BRANCH  13  15
ATOM     15  S   LIG d   1       3.471   0.866  -7.771  0.00  0.00     0.059 S 
ATOM     16  O   LIG d   1       4.891   0.879  -7.802  0.00  0.00    -0.153 OA
ATOM     17  O   LIG d   1       2.701   2.050  -7.620  0.00  0.00    -0.153 OA
BRANCH  15  18
ATOM     18  C   LIG d   1       2.942   0.109  -9.272  0.00  0.00     0.105 A 
ATOM     19  C   LIG d   1       3.672   0.290 -10.431  0.00  0.00    -0.035 A 
ATOM     20  C   LIG d   1       3.260  -0.308 -11.607  0.00  0.00    -0.057 A 
ATOM     21  H   LIG d   1       4.564   0.899 -10.419  0.00  0.00     0.064 H 
ATOM     22  C   LIG d   1       2.118  -1.088 -11.624  0.00  0.00    -0.050 A 
ATOM     23  H   LIG d   1       3.830  -0.168 -12.514  0.00  0.00     0.062 H 
ATOM     24  C   LIG d   1       1.388  -1.270 -10.463  0.00  0.00    -0.057 A 
ATOM     25  C   LIG d   1       1.799  -0.670  -9.288  0.00  0.00    -0.035 A 
ATOM     26  H   LIG d   1       0.496  -1.878 -10.476  0.00  0.00     0.062 H 
ATOM     27  H   LIG d   1       1.229  -0.811  -8.382  0.00  0.00     0.064 H 
BRANCH  22  28
ATOM     28  C   LIG d   1       1.669  -1.741 -12.905  0.00  0.00    -0.040 C 
ATOM     29  H   LIG d   1       0.903  -1.125 -13.378  0.00  0.00     0.028 H 
ATOM     30  H   LIG d   1       2.520  -1.843 -13.579  0.00  0.00     0.028 H 
ATOM     31  H   LIG d   1       1.259  -2.727 -12.686  0.00  0.00     0.028 H 
ENDBRANCH  22  28
ENDBRANCH  15  18
ENDBRANCH  13  15
ENDBRANCH   4  13
ENDBRANCH   2   4
ENDBRANCH   1   2
BRANCH   1  32
ATOM     32  C   LIG d   1       6.626  -0.083  -4.560  0.00  0.00     0.135 A 
ATOM     33  C   LIG d   1       7.283  -0.014  -5.778  0.00  0.00     0.024 A 
ATOM     34  C   LIG d   1       8.163   1.030  -6.028  0.00  0.00     0.143 A 
ATOM     35  H   LIG d   1       7.111  -0.768  -6.531  0.00  0.00     0.069 H 
ATOM     36  C   LIG d   1       8.375   2.004  -5.038  0.00  0.00     0.025 A 
ATOM     37  O   LIG d   1       8.812   1.115  -7.209  0.00  0.00    -0.422 OA
ATOM     38  C   LIG d   1       7.705   1.918  -3.815  0.00  0.00    -0.047 A 
ATOM     39  C   LIG d   1       9.311   3.107  -5.314  0.00  0.00    -0.001 A 
ATOM     40  C   LIG d   1       6.838   0.889  -3.586  0.00  0.00    -0.018 A 
ATOM     41  H   LIG d   1       7.869   2.668  -3.055  0.00  0.00     0.063 H 
ATOM     42  H   LIG d   1       6.316   0.825  -2.643  0.00  0.00     0.065 H 
ATOM     43  C   LIG d   1       9.940   3.127  -6.546  0.00  0.00     0.031 A 
ATOM     44  C   LIG d   1       9.669   2.112  -7.477  0.00  0.00     0.338 A 
ATOM     45  H   LIG d   1      10.634   3.918  -6.789  0.00  0.00     0.070 H 
ATOM     46  O   LIG d   1      10.227   2.138  -8.561  0.00  0.00    -0.245 OA
BRANCH  39  47
ATOM     47  C   LIG d   1       9.572   4.156  -4.307  0.00  0.00    -0.017 A 
ATOM     48  C   LIG d   1       9.209   5.481  -4.564  0.00  0.00    -0.051 A 
ATOM     49  C   LIG d   1       9.453   6.455  -3.623  0.00  0.00    -0.019 A 
ATOM     50  H   LIG d   1       8.738   5.739  -5.501  0.00  0.00     0.062 H 
ATOM     51  C   LIG d   1      10.060   6.123  -2.417  0.00  0.00     0.120 A 
ATOM     52  H   LIG d   1       9.173   7.480  -3.821  0.00  0.00     0.065 H 
ATOM     53  C   LIG d   1      10.422   4.807  -2.157  0.00  0.00    -0.019 A 
ATOM     54  C   LIG d   1      10.176   3.826  -3.091  0.00  0.00    -0.051 A 
ATOM     55  H   LIG d   1      10.893   4.553  -1.218  0.00  0.00     0.065 H 
ATOM     56  H   LIG d   1      10.455   2.802  -2.886  0.00  0.00     0.062 H 
BRANCH  51  57
ATOM     57  O   LIG d   1      10.299   7.087  -1.491  0.00  0.00    -0.495 OA
BRANCH  57  58
ATOM     58  C   LIG d   1       9.222   7.976  -1.186  0.00  0.00     0.079 C 
ATOM     59  H   LIG d   1       9.433   8.960  -1.605  0.00  0.00     0.066 H 
ATOM     60  H   LIG d   1       8.299   7.588  -1.616  0.00  0.00     0.066 H 
ATOM     61  H   LIG d   1       9.115   8.058  -0.104  0.00  0.00     0.066 H 
ENDBRANCH  57  58
ENDBRANCH  51  57
ENDBRANCH  39  47
ENDBRANCH   1  32
TORSDOF 12
ENDMDL
MODEL 3
REMARK VINA RESULT:      -7.3      1.962      2.894
REMARK  12 active torsions:
REMARK  status: ('A' for Active; 'I' for Inactive)
REMARK    1  A    between atoms: C_1  and  C_2 
REMARK    2  A    between atoms: C_2  and  C_3 
REMARK    3  A    between atoms: C_3  and  C_5 
REMARK    4  A    between atoms: C_3  and  N_27 
REMARK    5  A    between atoms: C_5  and  O_7 
REMARK    6  A    between atoms: O_7  and  C_8 
REMARK    7  A    between atoms: C_12  and  C_19 
REMARK    8  A    between atoms: C_22  and  O_25 
REMARK    9  A    between atoms: O_25  and  C_26 
REMARK   10  A    between atoms: N_27  and  S_28 
REMARK   11  A    between atoms: S_28  and  C_31 
REMARK   12  A    between atoms: C_34  and  C_37 
ROOT
ATOM      1  O   LIG d   1       6.947  -0.242  -5.668  0.00  0.00    -0.425 OA
ENDROOT
BRANCH   1   2
ATOM      2  C   LIG d   1       5.646  -0.102  -5.967  0.00  0.00     0.331 C 
ATOM      3  O   LIG d   1       4.849   0.146  -5.092  0.00  0.00    -0.249 OA
BRANCH   2   4
ATOM      4  C   LIG d   1       5.178  -0.254  -7.390  0.00  0.00     0.126 C 
ATOM      5  H   LIG d   1       4.152  -0.620  -7.400  0.00  0.00     0.059 H 
BRANCH   4   6
ATOM      6  C   LIG d   1       6.081  -1.252  -8.120  0.00  0.00    -0.028 C 
ATOM      7  H   LIG d   1       6.711  -0.719  -8.832  0.00  0.00     0.028 H 
ATOM      8  H   LIG d   1       6.709  -1.769  -7.395  0.00  0.00     0.028 H 
BRANCH   6   9
ATOM      9  C   LIG d   1       5.217  -2.270  -8.866  0.00  0.00    -0.063 C 
ATOM     10  H   LIG d   1       4.237  -2.330  -8.396  0.00  0.00     0.023 H 
ATOM     11  H   LIG d   1       5.104  -1.958  -9.905  0.00  0.00     0.023 H 
ATOM     12  H   LIG d   1       5.697  -3.249  -8.832  0.00  0.00     0.023 H 
ENDBRANCH   6   9
ENDBRANCH   4   6
BRANCH   4  13
ATOM     13  N   LIG d   1       5.241   1.044  -8.067  0.00  0.00    -0.176 N 
ATOM     14  H   LIG d   1       6.091   1.499  -8.167  0.00  0.00     0.149 HD
BRANCH  13  15
ATOM     15  S   LIG d   1       3.857   1.736  -8.660  0.00  0.00     0.059 S 
ATOM     16  O   LIG d   1       4.254   2.916  -9.345  0.00  0.00    -0.153 OA
ATOM     17  O   LIG d   1       2.921   1.753  -7.592  0.00  0.00    -0.153 OA
BRANCH  15  18
ATOM     18  C   LIG d   1       3.209   0.641  -9.880  0.00  0.00     0.105 A 
ATOM     19  C   LIG d   1       3.861   0.490 -11.089  0.00  0.00    -0.035 A 
ATOM     20  C   LIG d   1       3.355  -0.374 -12.043  0.00  0.00    -0.057 A 
ATOM     21  H   LIG d   1       4.764   1.046 -11.289  0.00  0.00     0.064 H 
ATOM     22  C   LIG d   1       2.198  -1.087 -11.787  0.00  0.00    -0.050 A 
ATOM     23  H   LIG d   1       3.864  -0.493 -12.988  0.00  0.00     0.062 H 
ATOM     24  C   LIG d   1       1.547  -0.935 -10.577  0.00  0.00    -0.057 A 
ATOM     25  C   LIG d   1       2.051  -0.071  -9.624  0.00  0.00    -0.035 A 
ATOM     26  H   LIG d   1       0.642  -1.491 -10.377  0.00  0.00     0.062 H 
ATOM     27  H   LIG d   1       1.542   0.048  -8.679  0.00  0.00     0.064 H 
BRANCH  22  28
ATOM     28  C   LIG d   1       1.647  -2.028 -12.826  0.00  0.00    -0.040 C 
ATOM     29  H   LIG d   1       2.061  -1.775 -13.802  0.00  0.00     0.028 H 
ATOM     30  H   LIG d   1       1.920  -3.052 -12.570  0.00  0.00     0.028 H 
ATOM     31  H   LIG d   1       0.561  -1.938 -12.858  0.00  0.00     0.028 H 
ENDBRANCH  22  28
ENDBRANCH  15  18
ENDBRANCH  13  15
ENDBRANCH   4  13
ENDBRANCH   2   4
ENDBRANCH   1   2
BRANCH   1  32
ATOM     32  C   LIG d   1       7.662   0.896  -5.472  0.00  0.00     0.135 A 
ATOM     33  C   LIG d   1       8.284   1.510  -6.547  0.00  0.00     0.024 A 
ATOM     34  C   LIG d   1       9.014   2.673  -6.348  0.00  0.00     0.143 A 
ATOM     35  H   LIG d   1       8.199   1.086  -7.536  0.00  0.00     0.069 H 
ATOM     36  C   LIG d   1       9.114   3.211  -5.054  0.00  0.00     0.025 A 
ATOM     37  O   LIG d   1       9.627   3.286  -7.384  0.00  0.00    -0.422 OA
ATOM     38  C   LIG d   1       8.482   2.579  -3.982  0.00  0.00    -0.047 A 
ATOM     39  C   LIG d   1       9.893   4.445  -4.856  0.00  0.00    -0.001 A 
ATOM     40  C   LIG d   1       7.761   1.439  -4.193  0.00  0.00    -0.018 A 
ATOM     41  H   LIG d   1       8.559   2.994  -2.988  0.00  0.00     0.063 H 
ATOM     42  H   LIG d   1       7.269   0.953  -3.365  0.00  0.00     0.065 H 
ATOM     43  C   LIG d   1      10.492   5.016  -5.964  0.00  0.00     0.031 A 
ATOM     44  C   LIG d   1      10.341   4.411  -7.221  0.00  0.00     0.338 A 
ATOM     45  H   LIG d   1      11.073   5.921  -5.862  0.00  0.00     0.070 H 
ATOM     46  O   LIG d   1      10.872   4.921  -8.193  0.00  0.00    -0.245 OA
BRANCH  39  47
ATOM     47  C   LIG d   1      10.031   5.053  -3.516  0.00  0.00    -0.017 A 
ATOM     48  C   LIG d   1      10.819   4.434  -2.543  0.00  0.00    -0.051 A 
ATOM     49  C   LIG d   1      10.946   5.004  -1.296  0.00  0.00    -0.019 A 
ATOM     50  H   LIG d   1      11.329   3.509  -2.769  0.00  0.00     0.062 H 
ATOM     51  C   LIG d   1      10.291   6.194  -1.004  0.00  0.00     0.120 A 
ATOM     52  H   LIG d   1      11.555   4.526  -0.543  0.00  0.00     0.065 H 
ATOM     53  C   LIG d   1       9.506   6.814  -1.970  0.00  0.00    -0.019 A 
ATOM     54  C   LIG d   1       9.378   6.253  -3.220  0.00  0.00    -0.051 A 
ATOM     55  H   LIG d   1       8.998   7.739  -1.739  0.00  0.00     0.065 H 
ATOM     56  H   LIG d   1       8.771   6.737  -3.971  0.00  0.00     0.062 H 
BRANCH  51  57
ATOM     57  O   LIG d   1      10.417   6.753   0.227  0.00  0.00    -0.495 OA
BRANCH  57  58
ATOM     58  C   LIG d   1      11.071   5.973   1.230  0.00  0.00     0.079 C 
ATOM     59  H   LIG d   1      11.769   5.282   0.755  0.00  0.00     0.066 H 
ATOM     60  H   LIG d   1      11.614   6.632   1.906  0.00  0.00     0.066 H 
ATOM     61  H   LIG d   1      10.327   5.407   1.791  0.00  0.00     0.066 H 
ENDBRANCH  57  58
ENDBRANCH  51  57
ENDBRANCH  39  47
ENDBRANCH   1  32
TORSDOF 12
ENDMDL
MODEL 4
REMARK VINA RESULT:      -7.3      7.083     11.712
REMARK  12 active torsions:
REMARK  status: ('A' for Active; 'I' for Inactive)
REMARK    1  A    between atoms: C_1  and  C_2 
REMARK    2  A    between atoms: C_2  and  C_3 
REMARK    3  A    between atoms: C_3  and  C_5 
REMARK    4  A    between atoms: C_3  and  N_27 
REMARK    5  A    between atoms: C_5  and  O_7 
REMARK    6  A    between atoms: O_7  and  C_8 
REMARK    7  A    between atoms: C_12  and  C_19 
REMARK    8  A    between atoms: C_22  and  O_25 
REMARK    9  A    between atoms: O_25  and  C_26 
REMARK   10  A    between atoms: N_27  and  S_28 
REMARK   11  A    between atoms: S_28  and  C_31 
REMARK   12  A    between atoms: C_34  and  C_37 
ROOT
ATOM      1  O   LIG d   1       7.007  -6.446  -6.811  0.00  0.00    -0.425 OA
ENDROOT
BRANCH   1   2
ATOM      2  C   LIG d   1       8.033  -5.612  -6.577  0.00  0.00     0.331 C 
ATOM      3  O   LIG d   1       9.154  -5.928  -6.901  0.00  0.00    -0.249 OA
BRANCH   2   4
ATOM      4  C   LIG d   1       7.788  -4.284  -5.910  0.00  0.00     0.126 C 
ATOM      5  H   LIG d   1       7.500  -3.547  -6.661  0.00  0.00     0.059 H 
BRANCH   4   6
ATOM      6  C   LIG d   1       9.067  -3.822  -5.208  0.00  0.00    -0.028 C 
ATOM      7  H   LIG d   1       9.822  -4.604  -5.278  0.00  0.00     0.028 H 
ATOM      8  H   LIG d   1       9.437  -2.916  -5.688  0.00  0.00     0.028 H 
BRANCH   6   9
ATOM      9  C   LIG d   1       8.766  -3.535  -3.736  0.00  0.00    -0.063 C 
ATOM     10  H   LIG d   1       9.013  -2.498  -3.510  0.00  0.00     0.023 H 
ATOM     11  H   LIG d   1       7.708  -3.708  -3.541  0.00  0.00     0.023 H 
ATOM     12  H   LIG d   1       9.363  -4.196  -3.107  0.00  0.00     0.023 H 
ENDBRANCH   6   9
ENDBRANCH   4   6
BRANCH   4  13
ATOM     13  N   LIG d   1       6.713  -4.422  -4.924  0.00  0.00    -0.176 N 
ATOM     14  H   LIG d   1       6.873  -4.901  -4.097  0.00  0.00     0.149 HD
BRANCH  13  15
ATOM     15  S   LIG d   1       5.224  -3.760  -5.223  0.00  0.00     0.059 S 
ATOM     16  O   LIG d   1       4.263  -4.725  -4.819  0.00  0.00    -0.153 OA
ATOM     17  O   LIG d   1       5.271  -3.236  -6.543  0.00  0.00    -0.153 OA
BRANCH  15  18
ATOM     18  C   LIG d   1       5.040  -2.381  -4.141  0.00  0.00     0.105 A 
ATOM     19  C   LIG d   1       5.792  -1.240  -4.343  0.00  0.00    -0.035 A 
ATOM     20  C   LIG d   1       5.643  -0.156  -3.497  0.00  0.00    -0.057 A 
ATOM     21  H   LIG d   1       6.495  -1.193  -5.160  0.00  0.00     0.064 H 
ATOM     22  C   LIG d   1       4.742  -0.215  -2.450  0.00  0.00    -0.050 A 
ATOM     23  H   LIG d   1       6.229   0.737  -3.654  0.00  0.00     0.062 H 
ATOM     24  C   LIG d   1       3.989  -1.357  -2.249  0.00  0.00    -0.057 A 
ATOM     25  C   LIG d   1       4.140  -2.441  -3.093  0.00  0.00    -0.035 A 
ATOM     26  H   LIG d   1       3.286  -1.404  -1.430  0.00  0.00     0.062 H 
ATOM     27  H   LIG d   1       3.553  -3.334  -2.936  0.00  0.00     0.064 H 
BRANCH  22  28
ATOM     28  C   LIG d   1       4.578   0.966  -1.528  0.00  0.00    -0.040 C 
ATOM     29  H   LIG d   1       4.321   1.850  -2.112  0.00  0.00     0.028 H 
ATOM     30  H   LIG d   1       3.784   0.760  -0.811  0.00  0.00     0.028 H 
ATOM     31  H   LIG d   1       5.513   1.141  -0.994  0.00  0.00     0.028 H 
ENDBRANCH  22  28
ENDBRANCH  15  18
ENDBRANCH  13  15
ENDBRANCH   4  13
ENDBRANCH   2   4
ENDBRANCH   1   2
BRANCH   1  32
ATOM     32  C   LIG d   1       6.751  -7.391  -5.870  0.00  0.00     0.135 A 
ATOM     33  C   LIG d   1       5.470  -7.903  -5.742  0.00  0.00     0.024 A 
ATOM     34  C   LIG d   1       5.208  -8.869  -4.781  0.00  0.00     0.143 A 
ATOM     35  H   LIG d   1       4.679  -7.553  -6.388  0.00  0.00     0.069 H 
ATOM     36  C   LIG d   1       6.249  -9.314  -3.948  0.00  0.00     0.025 A 
ATOM     37  O   LIG d   1       3.966  -9.381  -4.641  0.00  0.00    -0.422 OA
ATOM     38  C   LIG d   1       7.534  -8.786  -4.091  0.00  0.00    -0.047 A 
ATOM     39  C   LIG d   1       5.958 -10.339  -2.932  0.00  0.00    -0.001 A 
ATOM     40  C   LIG d   1       7.779  -7.841  -5.045  0.00  0.00    -0.018 A 
ATOM     41  H   LIG d   1       8.333  -9.129  -3.451  0.00  0.00     0.063 H 
ATOM     42  H   LIG d   1       8.773  -7.436  -5.158  0.00  0.00     0.065 H 
ATOM     43  C   LIG d   1       4.662 -10.815  -2.847  0.00  0.00     0.031 A 
ATOM     44  C   LIG d   1       3.682 -10.315  -3.719  0.00  0.00     0.338 A 
ATOM     45  H   LIG d   1       4.406 -11.567  -2.115  0.00  0.00     0.070 H 
ATOM     46  O   LIG d   1       2.543 -10.741  -3.638  0.00  0.00    -0.245 OA
BRANCH  39  47
ATOM     47  C   LIG d   1       7.015 -10.840  -2.030  0.00  0.00    -0.017 A 
ATOM     48  C   LIG d   1       7.693  -9.958  -1.185  0.00  0.00    -0.051 A 
ATOM     49  C   LIG d   1       8.677 -10.430  -0.346  0.00  0.00    -0.019 A 
ATOM     50  H   LIG d   1       7.445  -8.907  -1.190  0.00  0.00     0.062 H 
ATOM     51  C   LIG d   1       8.997 -11.783  -0.337  0.00  0.00     0.120 A 
ATOM     52  H   LIG d   1       9.202  -9.749   0.308  0.00  0.00     0.065 H 
ATOM     53  C   LIG d   1       8.325 -12.664  -1.176  0.00  0.00    -0.019 A 
ATOM     54  C   LIG d   1       7.336 -12.200  -2.014  0.00  0.00    -0.051 A 
ATOM     55  H   LIG d   1       8.576 -13.715  -1.167  0.00  0.00     0.065 H 
ATOM     56  H   LIG d   1       6.811 -12.887  -2.663  0.00  0.00     0.062 H 
BRANCH  51  57
ATOM     57  O   LIG d   1       9.969 -12.244   0.492  0.00  0.00    -0.495 OA
BRANCH  57  58
ATOM     58  C   LIG d   1      10.560 -11.300   1.386  0.00  0.00     0.079 C 
ATOM     59  H   LIG d   1      11.580 -11.086   1.067  0.00  0.00     0.066 H 
ATOM     60  H   LIG d   1       9.976 -10.380   1.381  0.00  0.00     0.066 H 
ATOM     61  H   LIG d   1      10.576 -11.716   2.394  0.00  0.00     0.066 H 
ENDBRANCH  57  58
ENDBRANCH  51  57
ENDBRANCH  39  47
ENDBRANCH   1  32
TORSDOF 12
ENDMDL
MODEL 5
REMARK VINA RESULT:      -7.2      2.542      3.646
REMARK  12 active torsions:
REMARK  status: ('A' for Active; 'I' for Inactive)
REMARK    1  A    between atoms: C_1  and  C_2 
REMARK    2  A    between atoms: C_2  and  C_3 
REMARK    3  A    between atoms: C_3  and  C_5 
REMARK    4  A    between atoms: C_3  and  N_27 
REMARK    5  A    between atoms: C_5  and  O_7 
REMARK    6  A    between atoms: O_7  and  C_8 
REMARK    7  A    between atoms: C_12  and  C_19 
REMARK    8  A    between atoms: C_22  and  O_25 
REMARK    9  A    between atoms: O_25  and  C_26 
REMARK   10  A    between atoms: N_27  and  S_28 
REMARK   11  A    between atoms: S_28  and  C_31 
REMARK   12  A    between atoms: C_34  and  C_37 
ROOT
ATOM      1  O   LIG d   1       7.323  -0.694  -5.878  0.00  0.00    -0.425 OA
ENDROOT
BRANCH   1   2
ATOM      2  C   LIG d   1       8.029  -1.759  -5.465  0.00  0.00     0.331 C 
ATOM      3  O   LIG d   1       9.144  -1.947  -5.892  0.00  0.00    -0.249 OA
BRANCH   2   4
ATOM      4  C   LIG d   1       7.431  -2.720  -4.470  0.00  0.00     0.126 C 
ATOM      5  H   LIG d   1       6.811  -2.171  -3.762  0.00  0.00     0.059 H 
BRANCH   4   6
ATOM      6  C   LIG d   1       8.554  -3.436  -3.716  0.00  0.00    -0.028 C 
ATOM      7  H   LIG d   1       9.503  -2.942  -3.922  0.00  0.00     0.028 H 
ATOM      8  H   LIG d   1       8.351  -3.401  -2.645  0.00  0.00     0.028 H 
BRANCH   6   9
ATOM      9  C   LIG d   1       8.629  -4.894  -4.174  0.00  0.00    -0.063 C 
ATOM     10  H   LIG d   1       7.688  -5.175  -4.646  0.00  0.00     0.023 H 
ATOM     11  H   LIG d   1       9.443  -5.008  -4.890  0.00  0.00     0.023 H 
ATOM     12  H   LIG d   1       8.810  -5.537  -3.313  0.00  0.00     0.023 H 
ENDBRANCH   6   9
ENDBRANCH   4   6
BRANCH   4  13
ATOM     13  N   LIG d   1       6.611  -3.707  -5.176  0.00  0.00    -0.176 N 
ATOM     14  H   LIG d   1       7.029  -4.475  -5.594  0.00  0.00     0.149 HD
BRANCH  13  15
ATOM     15  S   LIG d   1       4.968  -3.511  -5.259  0.00  0.00     0.059 S 
ATOM     16  O   LIG d   1       4.392  -4.627  -4.594  0.00  0.00    -0.153 OA
ATOM     17  O   LIG d   1       4.666  -3.189  -6.609  0.00  0.00    -0.153 OA
BRANCH  15  18
ATOM     18  C   LIG d   1       4.564  -2.089  -4.300  0.00  0.00     0.105 A 
ATOM     19  C   LIG d   1       4.259  -0.897  -4.928  0.00  0.00    -0.035 A 
ATOM     20  C   LIG d   1       3.937   0.217  -4.175  0.00  0.00    -0.057 A 
ATOM     21  H   LIG d   1       4.273  -0.834  -6.006  0.00  0.00     0.064 H 
ATOM     22  C   LIG d   1       3.918   0.138  -2.795  0.00  0.00    -0.050 A 
ATOM     23  H   LIG d   1       3.698   1.150  -4.665  0.00  0.00     0.062 H 
ATOM     24  C   LIG d   1       4.222  -1.056  -2.167  0.00  0.00    -0.057 A 
ATOM     25  C   LIG d   1       4.547  -2.169  -2.919  0.00  0.00    -0.035 A 
ATOM     26  H   LIG d   1       4.209  -1.118  -1.089  0.00  0.00     0.062 H 
ATOM     27  H   LIG d   1       4.785  -3.102  -2.430  0.00  0.00     0.064 H 
BRANCH  22  28
ATOM     28  C   LIG d   1       3.566   1.351  -1.974  0.00  0.00    -0.040 C 
ATOM     29  H   LIG d   1       2.490   1.372  -1.798  0.00  0.00     0.028 H 
ATOM     30  H   LIG d   1       4.090   1.309  -1.019  0.00  0.00     0.028 H 
ATOM     31  H   LIG d   1       3.864   2.252  -2.512  0.00  0.00     0.028 H 
ENDBRANCH  22  28
ENDBRANCH  15  18
ENDBRANCH  13  15
ENDBRANCH   4  13
ENDBRANCH   2   4
ENDBRANCH   1   2
BRANCH   1  32
ATOM     32  C   LIG d   1       7.889   0.528  -5.702  0.00  0.00     0.135 A 
ATOM     33  C   LIG d   1       8.314   1.252  -6.804  0.00  0.00     0.024 A 
ATOM     34  C   LIG d   1       8.892   2.501  -6.626  0.00  0.00     0.143 A 
ATOM     35  H   LIG d   1       8.195   0.848  -7.797  0.00  0.00     0.069 H 
ATOM     36  C   LIG d   1       9.039   3.013  -5.326  0.00  0.00     0.025 A 
ATOM     37  O   LIG d   1       9.312   3.223  -7.687  0.00  0.00    -0.422 OA
ATOM     38  C   LIG d   1       8.606   2.269  -4.226  0.00  0.00    -0.047 A 
ATOM     39  C   LIG d   1       9.655   4.340  -5.150  0.00  0.00    -0.001 A 
ATOM     40  C   LIG d   1       8.033   1.045  -4.417  0.00  0.00    -0.018 A 
ATOM     41  H   LIG d   1       8.719   2.665  -3.228  0.00  0.00     0.063 H 
ATOM     42  H   LIG d   1       7.694   0.472  -3.567  0.00  0.00     0.065 H 
ATOM     43  C   LIG d   1      10.061   5.019  -6.284  0.00  0.00     0.031 A 
ATOM     44  C   LIG d   1       9.876   4.432  -7.546  0.00  0.00     0.338 A 
ATOM     45  H   LIG d   1      10.518   5.994  -6.199  0.00  0.00     0.070 H 
ATOM     46  O   LIG d   1      10.236   5.038  -8.540  0.00  0.00    -0.245 OA
BRANCH  39  47
ATOM     47  C   LIG d   1       9.835   4.924  -3.805  0.00  0.00    -0.017 A 
ATOM     48  C   LIG d   1      10.578   4.243  -2.838  0.00  0.00    -0.051 A 
ATOM     49  C   LIG d   1      10.744   4.792  -1.586  0.00  0.00    -0.019 A 
ATOM     50  H   LIG d   1      11.022   3.287  -3.072  0.00  0.00     0.062 H 
ATOM     51  C   LIG d   1      10.174   6.023  -1.283  0.00  0.00     0.120 A 
ATOM     52  H   LIG d   1      11.319   4.266  -0.837  0.00  0.00     0.065 H 
ATOM     53  C   LIG d   1       9.434   6.704  -2.243  0.00  0.00    -0.019 A 
ATOM     54  C   LIG d   1       9.268   6.164  -3.498  0.00  0.00    -0.051 A 
ATOM     55  H   LIG d   1       8.991   7.661  -2.004  0.00  0.00     0.065 H 
ATOM     56  H   LIG d   1       8.696   6.696  -4.244  0.00  0.00     0.062 H 
BRANCH  51  57
ATOM     57  O   LIG d   1      10.339   6.561  -0.047  0.00  0.00    -0.495 OA
BRANCH  57  58
ATOM     58  C   LIG d   1      11.254   5.902   0.830  0.00  0.00     0.079 C 
ATOM     59  H   LIG d   1      10.843   4.936   1.125  0.00  0.00     0.066 H 
ATOM     60  H   LIG d   1      12.204   5.752   0.317  0.00  0.00     0.066 H 
ATOM     61  H   LIG d   1      11.412   6.515   1.717  0.00  0.00     0.066 H 
ENDBRANCH  57  58
ENDBRANCH  51  57
ENDBRANCH  39  47
ENDBRANCH   1  32
TORSDOF 12
ENDMDL
MODEL 6
REMARK VINA RESULT:      -7.2      2.392      4.886
REMARK  12 active torsions:
REMARK  status: ('A' for Active; 'I' for Inactive)
REMARK    1  A    between atoms: C_1  and  C_2 
REMARK    2  A    between atoms: C_2  and  C_3 
REMARK    3  A    between atoms: C_3  and  C_5 
REMARK    4  A    between atoms: C_3  and  N_27 
REMARK    5  A    between atoms: C_5  and  O_7 
REMARK    6  A    between atoms: O_7  and  C_8 
REMARK    7  A    between atoms: C_12  and  C_19 
REMARK    8  A    between atoms: C_22  and  O_25 
REMARK    9  A    between atoms: O_25  and  C_26 
REMARK   10  A    between atoms: N_27  and  S_28 
REMARK   11  A    between atoms: S_28  and  C_31 
REMARK   12  A    between atoms: C_34  and  C_37 
ROOT
ATOM      1  O   LIG d   1       6.046  -0.967  -4.008  0.00  0.00    -0.425 OA
ENDROOT
BRANCH   1   2
ATOM      2  C   LIG d   1       4.987  -1.286  -4.769  0.00  0.00     0.331 C 
ATOM      3  O   LIG d   1       4.863  -2.413  -5.189  0.00  0.00    -0.249 OA
BRANCH   2   4
ATOM      4  C   LIG d   1       3.954  -0.241  -5.099  0.00  0.00     0.126 C 
ATOM      5  H   LIG d   1       4.449   0.706  -5.314  0.00  0.00     0.059 H 
BRANCH   4   6
ATOM      6  C   LIG d   1       3.011  -0.062  -3.906  0.00  0.00    -0.028 C 
ATOM      7  H   LIG d   1       2.000   0.127  -4.268  0.00  0.00     0.028 H 
ATOM      8  H   LIG d   1       3.017  -0.967  -3.300  0.00  0.00     0.028 H 
BRANCH   6   9
ATOM      9  C   LIG d   1       3.478   1.123  -3.059  0.00  0.00    -0.063 C 
ATOM     10  H   LIG d   1       3.746   0.775  -2.063  0.00  0.00     0.023 H 
ATOM     11  H   LIG d   1       4.347   1.585  -3.529  0.00  0.00     0.023 H 
ATOM     12  H   LIG d   1       2.674   1.856  -2.984  0.00  0.00     0.023 H 
ENDBRANCH   6   9
ENDBRANCH   4   6
BRANCH   4  13
ATOM     13  N   LIG d   1       3.183  -0.666  -6.270  0.00  0.00    -0.176 N 
ATOM     14  H   LIG d   1       2.754  -1.535  -6.278  0.00  0.00     0.149 HD
BRANCH  13  15
ATOM     15  S   LIG d   1       3.047   0.338  -7.581  0.00  0.00     0.059 S 
ATOM     16  O   LIG d   1       2.882   1.653  -7.069  0.00  0.00    -0.153 OA
ATOM     17  O   LIG d   1       2.104  -0.264  -8.456  0.00  0.00    -0.153 OA
BRANCH  15  18
ATOM     18  C   LIG d   1       4.598   0.314  -8.418  0.00  0.00     0.105 A 
ATOM     19  C   LIG d   1       5.225   1.502  -8.744  0.00  0.00    -0.035 A 
ATOM     20  C   LIG d   1       6.443   1.483  -9.396  0.00  0.00    -0.057 A 
ATOM     21  H   LIG d   1       4.763   2.445  -8.490  0.00  0.00     0.064 H 
ATOM     22  C   LIG d   1       7.035   0.277  -9.722  0.00  0.00    -0.050 A 
ATOM     23  H   LIG d   1       6.934   2.411  -9.650  0.00  0.00     0.062 H 
ATOM     24  C   LIG d   1       6.408  -0.911  -9.395  0.00  0.00    -0.057 A 
ATOM     25  C   LIG d   1       5.189  -0.892  -8.745  0.00  0.00    -0.035 A 
ATOM     26  H   LIG d   1       6.869  -1.854  -9.650  0.00  0.00     0.062 H 
ATOM     27  H   LIG d   1       4.697  -1.820  -8.491  0.00  0.00     0.064 H 
BRANCH  22  28
ATOM     28  C   LIG d   1       8.364   0.256 -10.432  0.00  0.00    -0.040 C 
ATOM     29  H   LIG d   1       8.401  -0.598 -11.108  0.00  0.00     0.028 H 
ATOM     30  H   LIG d   1       8.486   1.178 -11.002  0.00  0.00     0.028 H 
ATOM     31  H   LIG d   1       9.167   0.175  -9.698  0.00  0.00     0.028 H 
ENDBRANCH  22  28
ENDBRANCH  15  18
ENDBRANCH  13  15
ENDBRANCH   4  13
ENDBRANCH   2   4
ENDBRANCH   1   2
BRANCH   1  32
ATOM     32  C   LIG d   1       6.879  -0.004  -4.481  0.00  0.00     0.135 A 
ATOM     33  C   LIG d   1       7.364   0.967  -3.621  0.00  0.00     0.024 A 
ATOM     34  C   LIG d   1       8.215   1.952  -4.102  0.00  0.00     0.143 A 
ATOM     35  H   LIG d   1       7.082   0.958  -2.579  0.00  0.00     0.069 H 
ATOM     36  C   LIG d   1       8.573   1.949  -5.461  0.00  0.00     0.025 A 
ATOM     37  O   LIG d   1       8.699   2.907  -3.279  0.00  0.00    -0.422 OA
ATOM     38  C   LIG d   1       8.075   0.963  -6.315  0.00  0.00    -0.047 A 
ATOM     39  C   LIG d   1       9.477   2.999  -5.961  0.00  0.00    -0.001 A 
ATOM     40  C   LIG d   1       7.243  -0.003  -5.826  0.00  0.00    -0.018 A 
ATOM     41  H   LIG d   1       8.351   0.961  -7.359  0.00  0.00     0.063 H 
ATOM     42  H   LIG d   1       6.861  -0.768  -6.485  0.00  0.00     0.065 H 
ATOM     43  C   LIG d   1       9.931   3.944  -5.058  0.00  0.00     0.031 A 
ATOM     44  C   LIG d   1       9.522   3.872  -3.717  0.00  0.00     0.338 A 
ATOM     45  H   LIG d   1      10.594   4.732  -5.383  0.00  0.00     0.070 H 
ATOM     46  O   LIG d   1       9.928   4.708  -2.928  0.00  0.00    -0.245 OA
BRANCH  39  47
ATOM     47  C   LIG d   1       9.883   3.043  -7.381  0.00  0.00    -0.017 A 
ATOM     48  C   LIG d   1       9.148   3.798  -8.298  0.00  0.00    -0.051 A 
ATOM     49  C   LIG d   1       9.531   3.837  -9.619  0.00  0.00    -0.019 A 
ATOM     50  H   LIG d   1       8.280   4.350  -7.969  0.00  0.00     0.062 H 
ATOM     51  C   LIG d   1      10.648   3.127 -10.043  0.00  0.00     0.120 A 
ATOM     52  H   LIG d   1       8.963   4.421 -10.329  0.00  0.00     0.065 H 
ATOM     53  C   LIG d   1      11.383   2.375  -9.133  0.00  0.00    -0.019 A 
ATOM     54  C   LIG d   1      11.009   2.335  -7.809  0.00  0.00    -0.051 A 
ATOM     55  H   LIG d   1      12.251   1.824  -9.466  0.00  0.00     0.065 H 
ATOM     56  H   LIG d   1      11.583   1.754  -7.102  0.00  0.00     0.062 H 
BRANCH  51  57
ATOM     57  O   LIG d   1      11.023   3.167 -11.347  0.00  0.00    -0.495 OA
BRANCH  57  58
ATOM     58  C   LIG d   1      10.281   4.034 -12.208  0.00  0.00     0.079 C 
ATOM     59  H   LIG d   1       9.248   3.691 -12.268  0.00  0.00     0.066 H 
ATOM     60  H   LIG d   1      10.306   5.048 -11.811  0.00  0.00     0.066 H 
ATOM     61  H   LIG d   1      10.725   4.023 -13.204  0.00  0.00     0.066 H 
ENDBRANCH  57  58
ENDBRANCH  51  57
ENDBRANCH  39  47
ENDBRANCH   1  32
TORSDOF 12
ENDMDL
MODEL 7
REMARK VINA RESULT:      -7.2      3.593      8.677
REMARK  12 active torsions:
REMARK  status: ('A' for Active; 'I' for Inactive)
REMARK    1  A    between atoms: C_1  and  C_2 
REMARK    2  A    between atoms: C_2  and  C_3 
REMARK    3  A    between atoms: C_3  and  C_5 
REMARK    4  A    between atoms: C_3  and  N_27 
REMARK    5  A    between atoms: C_5  and  O_7 
REMARK    6  A    between atoms: O_7  and  C_8 
REMARK    7  A    between atoms: C_12  and  C_19 
REMARK    8  A    between atoms: C_22  and  O_25 
REMARK    9  A    between atoms: O_25  and  C_26 
REMARK   10  A    between atoms: N_27  and  S_28 
REMARK   11  A    between atoms: S_28  and  C_31 
REMARK   12  A    between atoms: C_34  and  C_37 
ROOT
ATOM      1  O   LIG d   1       9.907   0.102  -7.813  0.00  0.00    -0.425 OA
ENDROOT
BRANCH   1   2
ATOM      2  C   LIG d   1      10.723   0.176  -6.749  0.00  0.00     0.331 C 
ATOM      3  O   LIG d   1      11.568  -0.672  -6.577  0.00  0.00    -0.249 OA
BRANCH   2   4
ATOM      4  C   LIG d   1      10.585   1.312  -5.771  0.00  0.00     0.126 C 
ATOM      5  H   LIG d   1      10.119   2.164  -6.266  0.00  0.00     0.059 H 
BRANCH   4   6
ATOM      6  C   LIG d   1      11.970   1.716  -5.260  0.00  0.00    -0.028 C 
ATOM      7  H   LIG d   1      12.736   1.213  -5.850  0.00  0.00     0.028 H 
ATOM      8  H   LIG d   1      12.090   2.795  -5.352  0.00  0.00     0.028 H 
BRANCH   6   9
ATOM      9  C   LIG d   1      12.111   1.310  -3.791  0.00  0.00    -0.063 C 
ATOM     10  H   LIG d   1      12.987   1.794  -3.363  0.00  0.00     0.023 H 
ATOM     11  H   LIG d   1      11.220   1.618  -3.243  0.00  0.00     0.023 H 
ATOM     12  H   LIG d   1      12.223   0.228  -3.722  0.00  0.00     0.023 H 
ENDBRANCH   6   9
ENDBRANCH   4   6
BRANCH   4  13
ATOM     13  N   LIG d   1       9.753   0.888  -4.642  0.00  0.00    -0.176 N 
ATOM     14  H   LIG d   1       9.965   0.073  -4.163  0.00  0.00     0.149 HD
BRANCH  13  15
ATOM     15  S   LIG d   1       8.450   1.802  -4.184  0.00  0.00     0.059 S 
ATOM     16  O   LIG d   1       7.982   2.457  -5.355  0.00  0.00    -0.153 OA
ATOM     17  O   LIG d   1       8.842   2.513  -3.018  0.00  0.00    -0.153 OA
BRANCH  15  18
ATOM     18  C   LIG d   1       7.178   0.686  -3.689  0.00  0.00     0.105 A 
ATOM     19  C   LIG d   1       5.988   1.175  -3.186  0.00  0.00    -0.035 A 
ATOM     20  C   LIG d   1       4.989   0.300  -2.803  0.00  0.00    -0.057 A 
ATOM     21  H   LIG d   1       5.838   2.240  -3.091  0.00  0.00     0.064 H 
ATOM     22  C   LIG d   1       5.180  -1.064  -2.925  0.00  0.00    -0.050 A 
ATOM     23  H   LIG d   1       4.058   0.681  -2.410  0.00  0.00     0.062 H 
ATOM     24  C   LIG d   1       6.371  -1.553  -3.429  0.00  0.00    -0.057 A 
ATOM     25  C   LIG d   1       7.370  -0.678  -3.810  0.00  0.00    -0.035 A 
ATOM     26  H   LIG d   1       6.521  -2.618  -3.524  0.00  0.00     0.062 H 
ATOM     27  H   LIG d   1       8.301  -1.059  -4.203  0.00  0.00     0.064 H 
BRANCH  22  28
ATOM     28  C   LIG d   1       4.091  -2.018  -2.509  0.00  0.00    -0.040 C 
ATOM     29  H   LIG d   1       3.440  -1.533  -1.782  0.00  0.00     0.028 H 
ATOM     30  H   LIG d   1       3.507  -2.308  -3.383  0.00  0.00     0.028 H 
ATOM     31  H   LIG d   1       4.538  -2.906  -2.061  0.00  0.00     0.028 H 
ENDBRANCH  22  28
ENDBRANCH  15  18
ENDBRANCH  13  15
ENDBRANCH   4  13
ENDBRANCH   2   4
ENDBRANCH   1   2
BRANCH   1  32
ATOM     32  C   LIG d   1       8.676  -0.436  -7.612  0.00  0.00     0.135 A 
ATOM     33  C   LIG d   1       7.565   0.391  -7.568  0.00  0.00     0.024 A 
ATOM     34  C   LIG d   1       6.307  -0.156  -7.362  0.00  0.00     0.143 A 
ATOM     35  H   LIG d   1       7.677   1.457  -7.693  0.00  0.00     0.069 H 
ATOM     36  C   LIG d   1       6.178  -1.546  -7.201  0.00  0.00     0.025 A 
ATOM     37  O   LIG d   1       5.212   0.633  -7.317  0.00  0.00    -0.422 OA
ATOM     38  C   LIG d   1       7.308  -2.365  -7.247  0.00  0.00    -0.047 A 
ATOM     39  C   LIG d   1       4.837  -2.116  -6.983  0.00  0.00    -0.001 A 
ATOM     40  C   LIG d   1       8.539  -1.813  -7.456  0.00  0.00    -0.018 A 
ATOM     41  H   LIG d   1       7.208  -3.433  -7.123  0.00  0.00     0.063 H 
ATOM     42  H   LIG d   1       9.413  -2.446  -7.497  0.00  0.00     0.065 H 
ATOM     43  C   LIG d   1       3.763  -1.245  -6.947  0.00  0.00     0.031 A 
ATOM     44  C   LIG d   1       3.983   0.131  -7.118  0.00  0.00     0.338 A 
ATOM     45  H   LIG d   1       2.763  -1.621  -6.789  0.00  0.00     0.070 H 
ATOM     46  O   LIG d   1       3.030   0.892  -7.086  0.00  0.00    -0.245 OA
BRANCH  39  47
ATOM     47  C   LIG d   1       4.646  -3.570  -6.805  0.00  0.00    -0.017 A 
ATOM     48  C   LIG d   1       4.818  -4.152  -5.547  0.00  0.00    -0.051 A 
ATOM     49  C   LIG d   1       4.638  -5.507  -5.386  0.00  0.00    -0.019 A 
ATOM     50  H   LIG d   1       5.092  -3.539  -4.701  0.00  0.00     0.062 H 
ATOM     51  C   LIG d   1       4.285  -6.298  -6.474  0.00  0.00     0.120 A 
ATOM     52  H   LIG d   1       4.770  -5.958  -4.413  0.00  0.00     0.065 H 
ATOM     53  C   LIG d   1       4.112  -5.723  -7.727  0.00  0.00    -0.019 A 
ATOM     54  C   LIG d   1       4.286  -4.367  -7.895  0.00  0.00    -0.051 A 
ATOM     55  H   LIG d   1       3.838  -6.340  -8.571  0.00  0.00     0.065 H 
ATOM     56  H   LIG d   1       4.147  -3.921  -8.869  0.00  0.00     0.062 H 
BRANCH  51  57
ATOM     57  O   LIG d   1       4.108  -7.634  -6.311  0.00  0.00    -0.495 OA
BRANCH  57  58
ATOM     58  C   LIG d   1       4.992  -8.300  -5.407  0.00  0.00     0.079 C 
ATOM     59  H   LIG d   1       5.759  -8.830  -5.972  0.00  0.00     0.066 H 
ATOM     60  H   LIG d   1       5.464  -7.565  -4.754  0.00  0.00     0.066 H 
ATOM     61  H   LIG d   1       4.427  -9.012  -4.805  0.00  0.00     0.066 H 
ENDBRANCH  57  58
ENDBRANCH  51  57
ENDBRANCH  39  47
ENDBRANCH   1  32
TORSDOF 12
ENDMDL
MODEL 8
REMARK VINA RESULT:      -7.1      6.676     11.137
REMARK  12 active torsions:
REMARK  status: ('A' for Active; 'I' for Inactive)
REMARK    1  A    between atoms: C_1  and  C_2 
REMARK    2  A    between atoms: C_2  and  C_3 
REMARK    3  A    between atoms: C_3  and  C_5 
REMARK    4  A    between atoms: C_3  and  N_27 
REMARK    5  A    between atoms: C_5  and  O_7 
REMARK    6  A    between atoms: O_7  and  C_8 
REMARK    7  A    between atoms: C_12  and  C_19 
REMARK    8  A    between atoms: C_22  and  O_25 
REMARK    9  A    between atoms: O_25  and  C_26 
REMARK   10  A    between atoms: N_27  and  S_28 
REMARK   11  A    between atoms: S_28  and  C_31 
REMARK   12  A    between atoms: C_34  and  C_37 
ROOT
ATOM      1  O   LIG d   1       5.511  -6.502  -8.247  0.00  0.00    -0.425 OA
ENDROOT
BRANCH   1   2
ATOM      2  C   LIG d   1       5.662  -5.171  -8.151  0.00  0.00     0.331 C 
ATOM      3  O   LIG d   1       6.693  -4.653  -8.513  0.00  0.00    -0.249 OA
BRANCH   2   4
ATOM      4  C   LIG d   1       4.549  -4.325  -7.593  0.00  0.00     0.126 C 
ATOM      5  H   LIG d   1       3.812  -4.965  -7.108  0.00  0.00     0.059 H 
BRANCH   4   6
ATOM      6  C   LIG d   1       3.879  -3.548  -8.730  0.00  0.00    -0.028 C 
ATOM      7  H   LIG d   1       4.523  -3.564  -9.609  0.00  0.00     0.028 H 
ATOM      8  H   LIG d   1       2.923  -4.012  -8.971  0.00  0.00     0.028 H 
BRANCH   6   9
ATOM      9  C   LIG d   1       3.650  -2.100  -8.293  0.00  0.00    -0.063 C 
ATOM     10  H   LIG d   1       4.610  -1.615  -8.126  0.00  0.00     0.023 H 
ATOM     11  H   LIG d   1       3.104  -1.568  -9.073  0.00  0.00     0.023 H 
ATOM     12  H   LIG d   1       3.069  -2.086  -7.370  0.00  0.00     0.023 H 
ENDBRANCH   6   9
ENDBRANCH   4   6
BRANCH   4  13
ATOM     13  N   LIG d   1       5.095  -3.381  -6.614  0.00  0.00    -0.176 N 
ATOM     14  H   LIG d   1       5.298  -2.471  -6.878  0.00  0.00     0.149 HD
BRANCH  13  15
ATOM     15  S   LIG d   1       5.367  -3.871  -5.055  0.00  0.00     0.059 S 
ATOM     16  O   LIG d   1       6.742  -4.217  -4.972  0.00  0.00    -0.153 OA
ATOM     17  O   LIG d   1       4.329  -4.785  -4.730  0.00  0.00    -0.153 OA
BRANCH  15  18
ATOM     18  C   LIG d   1       5.139  -2.463  -4.019  0.00  0.00     0.105 A 
ATOM     19  C   LIG d   1       4.109  -2.442  -3.098  0.00  0.00    -0.035 A 
ATOM     20  C   LIG d   1       3.934  -1.340  -2.283  0.00  0.00    -0.057 A 
ATOM     21  H   LIG d   1       3.440  -3.286  -3.016  0.00  0.00     0.064 H 
ATOM     22  C   LIG d   1       4.790  -0.259  -2.387  0.00  0.00    -0.050 A 
ATOM     23  H   LIG d   1       3.129  -1.323  -1.562  0.00  0.00     0.062 H 
ATOM     24  C   LIG d   1       5.820  -0.280  -3.309  0.00  0.00    -0.057 A 
ATOM     25  C   LIG d   1       5.994  -1.381  -4.125  0.00  0.00    -0.035 A 
ATOM     26  H   LIG d   1       6.488   0.564  -3.392  0.00  0.00     0.062 H 
ATOM     27  H   LIG d   1       6.799  -1.398  -4.846  0.00  0.00     0.064 H 
BRANCH  22  28
ATOM     28  C   LIG d   1       4.600   0.942  -1.498  0.00  0.00    -0.040 C 
ATOM     29  H   LIG d   1       4.003   1.691  -2.020  0.00  0.00     0.028 H 
ATOM     30  H   LIG d   1       4.087   0.641  -0.584  0.00  0.00     0.028 H 
ATOM     31  H   LIG d   1       5.573   1.365  -1.246  0.00  0.00     0.028 H 
ENDBRANCH  22  28
ENDBRANCH  15  18
ENDBRANCH  13  15
ENDBRANCH   4  13
ENDBRANCH   2   4
ENDBRANCH   1   2
BRANCH   1  32
ATOM     32  C   LIG d   1       5.743  -7.233  -7.126  0.00  0.00     0.135 A 
ATOM     33  C   LIG d   1       4.689  -7.870  -6.491  0.00  0.00     0.024 A 
ATOM     34  C   LIG d   1       4.925  -8.617  -5.346  0.00  0.00     0.143 A 
ATOM     35  H   LIG d   1       3.688  -7.786  -6.886  0.00  0.00     0.069 H 
ATOM     36  C   LIG d   1       6.234  -8.716  -4.845  0.00  0.00     0.025 A 
ATOM     37  O   LIG d   1       3.911  -9.245  -4.713  0.00  0.00    -0.422 OA
ATOM     38  C   LIG d   1       7.285  -8.067  -5.497  0.00  0.00    -0.047 A 
ATOM     39  C   LIG d   1       6.472  -9.511  -3.628  0.00  0.00    -0.001 A 
ATOM     40  C   LIG d   1       7.039  -7.340  -6.627  0.00  0.00    -0.018 A 
ATOM     41  H   LIG d   1       8.291  -8.144  -5.111  0.00  0.00     0.063 H 
ATOM     42  H   LIG d   1       7.852  -6.842  -7.133  0.00  0.00     0.065 H 
ATOM     43  C   LIG d   1       5.383 -10.125  -3.035  0.00  0.00     0.031 A 
ATOM     44  C   LIG d   1       4.109  -9.973  -3.603  0.00  0.00     0.338 A 
ATOM     45  H   LIG d   1       5.514 -10.717  -2.141  0.00  0.00     0.070 H 
ATOM     46  O   LIG d   1       3.155 -10.518  -3.074  0.00  0.00    -0.245 OA
BRANCH  39  47
ATOM     47  C   LIG d   1       7.828  -9.647  -3.059  0.00  0.00    -0.017 A 
ATOM     48  C   LIG d   1       8.282  -8.735  -2.102  0.00  0.00    -0.051 A 
ATOM     49  C   LIG d   1       9.546  -8.866  -1.574  0.00  0.00    -0.019 A 
ATOM     50  H   LIG d   1       7.641  -7.928  -1.779  0.00  0.00     0.062 H 
ATOM     51  C   LIG d   1      10.372  -9.904  -1.990  0.00  0.00     0.120 A 
ATOM     52  H   LIG d   1       9.898  -8.161  -0.834  0.00  0.00     0.065 H 
ATOM     53  C   LIG d   1       9.924 -10.813  -2.941  0.00  0.00    -0.019 A 
ATOM     54  C   LIG d   1       8.660 -10.692  -3.470  0.00  0.00    -0.051 A 
ATOM     55  H   LIG d   1      10.569 -11.618  -3.262  0.00  0.00     0.065 H 
ATOM     56  H   LIG d   1       8.311 -11.402  -4.206  0.00  0.00     0.062 H 
BRANCH  51  57
ATOM     57  O   LIG d   1      11.619 -10.029  -1.466  0.00  0.00    -0.495 OA
BRANCH  57  58
ATOM     58  C   LIG d   1      12.364 -11.191  -1.838  0.00  0.00     0.079 C 
ATOM     59  H   LIG d   1      11.943 -11.617  -2.748  0.00  0.00     0.066 H 
ATOM     60  H   LIG d   1      13.404 -10.914  -2.013  0.00  0.00     0.066 H 
ATOM     61  H   LIG d   1      12.313 -11.926  -1.034  0.00  0.00     0.066 H 
ENDBRANCH  57  58
ENDBRANCH  51  57
ENDBRANCH  39  47
ENDBRANCH   1  32
TORSDOF 12
ENDMDL
MODEL 9
REMARK VINA RESULT:      -7.1      4.516      8.977
REMARK  12 active torsions:
REMARK  status: ('A' for Active; 'I' for Inactive)
REMARK    1  A    between atoms: C_1  and  C_2 
REMARK    2  A    between atoms: C_2  and  C_3 
REMARK    3  A    between atoms: C_3  and  C_5 
REMARK    4  A    between atoms: C_3  and  N_27 
REMARK    5  A    between atoms: C_5  and  O_7 
REMARK    6  A    between atoms: O_7  and  C_8 
REMARK    7  A    between atoms: C_12  and  C_19 
REMARK    8  A    between atoms: C_22  and  O_25 
REMARK    9  A    between atoms: O_25  and  C_26 
REMARK   10  A    between atoms: N_27  and  S_28 
REMARK   11  A    between atoms: S_28  and  C_31 
REMARK   12  A    between atoms: C_34  and  C_37 
ROOT
ATOM      1  O   LIG d   1       3.053   0.476  -8.717  0.00  0.00    -0.425 OA
ENDROOT
BRANCH   1   2
ATOM      2  C   LIG d   1       3.940   1.385  -9.151  0.00  0.00     0.331 C 
ATOM      3  O   LIG d   1       4.134   2.393  -8.511  0.00  0.00    -0.249 OA
BRANCH   2   4
ATOM      4  C   LIG d   1       4.693   1.152 -10.434  0.00  0.00     0.126 C 
ATOM      5  H   LIG d   1       5.139   2.088 -10.770  0.00  0.00     0.059 H 
BRANCH   4   6
ATOM      6  C   LIG d   1       3.728   0.636 -11.505  0.00  0.00    -0.028 C 
ATOM      7  H   LIG d   1       2.883   0.143 -11.024  0.00  0.00     0.028 H 
ATOM      8  H   LIG d   1       3.369   1.473 -12.103  0.00  0.00     0.028 H 
BRANCH   6   9
ATOM      9  C   LIG d   1       4.454  -0.364 -12.407  0.00  0.00    -0.063 C 
ATOM     10  H   LIG d   1       3.795  -0.662 -13.222  0.00  0.00     0.023 H 
ATOM     11  H   LIG d   1       5.351   0.102 -12.817  0.00  0.00     0.023 H 
ATOM     12  H   LIG d   1       4.735  -1.242 -11.825  0.00  0.00     0.023 H 
ENDBRANCH   6   9
ENDBRANCH   4   6
BRANCH   4  13
ATOM     13  N   LIG d   1       5.748   0.161 -10.210  0.00  0.00    -0.176 N 
ATOM     14  H   LIG d   1       5.571  -0.779 -10.366  0.00  0.00     0.149 HD
BRANCH  13  15
ATOM     15  S   LIG d   1       7.243   0.647  -9.688  0.00  0.00     0.059 S 
ATOM     16  O   LIG d   1       7.191   2.062  -9.569  0.00  0.00    -0.153 OA
ATOM     17  O   LIG d   1       8.195  -0.015 -10.509  0.00  0.00    -0.153 OA
BRANCH  15  18
ATOM     18  C   LIG d   1       7.457   0.012  -8.058  0.00  0.00     0.105 A 
ATOM     19  C   LIG d   1       7.993  -1.249  -7.873  0.00  0.00    -0.035 A 
ATOM     20  C   LIG d   1       8.167  -1.744  -6.594  0.00  0.00    -0.057 A 
ATOM     21  H   LIG d   1       8.276  -1.847  -8.726  0.00  0.00     0.064 H 
ATOM     22  C   LIG d   1       7.805  -0.979  -5.500  0.00  0.00    -0.050 A 
ATOM     23  H   LIG d   1       8.586  -2.729  -6.448  0.00  0.00     0.062 H 
ATOM     24  C   LIG d   1       7.270   0.282  -5.686  0.00  0.00    -0.057 A 
ATOM     25  C   LIG d   1       7.095   0.777  -6.965  0.00  0.00    -0.035 A 
ATOM     26  H   LIG d   1       6.986   0.880  -4.833  0.00  0.00     0.062 H 
ATOM     27  H   LIG d   1       6.676   1.762  -7.110  0.00  0.00     0.064 H 
BRANCH  22  28
ATOM     28  C   LIG d   1       7.995  -1.519  -4.107  0.00  0.00    -0.040 C 
ATOM     29  H   LIG d   1       7.382  -0.947  -3.409  0.00  0.00     0.028 H 
ATOM     30  H   LIG d   1       7.696  -2.567  -4.079  0.00  0.00     0.028 H 
ATOM     31  H   LIG d   1       9.044  -1.433  -3.824  0.00  0.00     0.028 H 
ENDBRANCH  22  28
ENDBRANCH  15  18
ENDBRANCH  13  15
ENDBRANCH   4  13
ENDBRANCH   2   4
ENDBRANCH   1   2
BRANCH   1  32
ATOM     32  C   LIG d   1       3.478  -0.399  -7.769  0.00  0.00     0.135 A 
ATOM     33  C   LIG d   1       3.423  -0.041  -6.431  0.00  0.00     0.024 A 
ATOM     34  C   LIG d   1       3.857  -0.934  -5.461  0.00  0.00     0.143 A 
ATOM     35  H   LIG d   1       3.043   0.927  -6.144  0.00  0.00     0.069 H 
ATOM     36  C   LIG d   1       4.349  -2.191  -5.852  0.00  0.00     0.025 A 
ATOM     37  O   LIG d   1       3.811  -0.604  -4.153  0.00  0.00    -0.422 OA
ATOM     38  C   LIG d   1       4.399  -2.534  -7.205  0.00  0.00    -0.047 A 
ATOM     39  C   LIG d   1       4.807  -3.129  -4.814  0.00  0.00    -0.001 A 
ATOM     40  C   LIG d   1       3.962  -1.648  -8.148  0.00  0.00    -0.018 A 
ATOM     41  H   LIG d   1       4.776  -3.501  -7.504  0.00  0.00     0.063 H 
ATOM     42  H   LIG d   1       3.996  -1.916  -9.193  0.00  0.00     0.065 H 
ATOM     43  C   LIG d   1       4.730  -2.721  -3.494  0.00  0.00     0.031 A 
ATOM     44  C   LIG d   1       4.225  -1.446  -3.193  0.00  0.00     0.338 A 
ATOM     45  H   LIG d   1       5.056  -3.378  -2.702  0.00  0.00     0.070 H 
ATOM     46  O   LIG d   1       4.159  -1.095  -2.028  0.00  0.00    -0.245 OA
BRANCH  39  47
ATOM     47  C   LIG d   1       5.335  -4.463  -5.170  0.00  0.00    -0.017 A 
ATOM     48  C   LIG d   1       4.460  -5.534  -5.366  0.00  0.00    -0.051 A 
ATOM     49  C   LIG d   1       4.956  -6.774  -5.698  0.00  0.00    -0.019 A 
ATOM     50  H   LIG d   1       3.395  -5.388  -5.256  0.00  0.00     0.062 H 
ATOM     51  C   LIG d   1       6.326  -6.962  -5.840  0.00  0.00     0.120 A 
ATOM     52  H   LIG d   1       4.280  -7.603  -5.850  0.00  0.00     0.065 H 
ATOM     53  C   LIG d   1       7.200  -5.899  -5.647  0.00  0.00    -0.019 A 
ATOM     54  C   LIG d   1       6.711  -4.655  -5.319  0.00  0.00    -0.051 A 
ATOM     55  H   LIG d   1       8.264  -6.049  -5.757  0.00  0.00     0.065 H 
ATOM     56  H   LIG d   1       7.391  -3.828  -5.173  0.00  0.00     0.062 H 
BRANCH  51  57
ATOM     57  O   LIG d   1       6.811  -8.188  -6.168  0.00  0.00    -0.495 OA
BRANCH  57  58
ATOM     58  C   LIG d   1       8.223  -8.296  -6.358  0.00  0.00     0.079 C 
ATOM     59  H   LIG d   1       8.474  -8.023  -7.384  0.00  0.00     0.066 H 
ATOM     60  H   LIG d   1       8.735  -7.625  -5.668  0.00  0.00     0.066 H 
ATOM     61  H   LIG d   1       8.537  -9.322  -6.169  0.00  0.00     0.066 H 
ENDBRANCH  57  58
ENDBRANCH  51  57
ENDBRANCH  39  47
ENDBRANCH   1  32
TORSDOF 12
ENDMDL
