MODEL 1
REMARK VINA RESULT:      -5.5      0.000      0.000
REMARK  7 active torsions:
REMARK  status: ('A' for Active; 'I' for Inactive)
REMARK    1  A    between atoms: C_1  and  O_2 
REMARK    2  A    between atoms: O_2  and  C_3 
REMARK    3  A    between atoms: C_6  and  C_9 
REMARK    4  A    between atoms: C_9  and  C_10 
REMARK    5  A    between atoms: C_9  and  C_18 
REMARK    6  A    between atoms: C_13  and  O_16 
REMARK    7  A    between atoms: O_16  and  C_17 
ROOT
ATOM      1  C   LIG d   1       4.358  -0.250  -8.531  0.00  0.00     0.056 C 
ATOM      2  H   LIG d   1       5.319  -0.748  -8.659  0.00  0.00     0.044 H 
ENDROOT
BRANCH   1   3
ATOM      3  C   LIG d   1       4.041  -0.142  -7.062  0.00  0.00    -0.036 A 
ATOM      4  C   LIG d   1       2.774   0.234  -6.655  0.00  0.00    -0.054 A 
ATOM      5  C   LIG d   1       2.481   0.334  -5.309  0.00  0.00    -0.020 A 
ATOM      6  H   LIG d   1       2.014   0.451  -7.391  0.00  0.00     0.062 H 
ATOM      7  C   LIG d   1       3.458   0.056  -4.365  0.00  0.00     0.120 A 
ATOM      8  H   LIG d   1       1.491   0.628  -4.992  0.00  0.00     0.065 H 
ATOM      9  C   LIG d   1       4.729  -0.316  -4.775  0.00  0.00    -0.020 A 
ATOM     10  C   LIG d   1       5.016  -0.421  -6.122  0.00  0.00    -0.054 A 
ATOM     11  H   LIG d   1       5.493  -0.529  -4.042  0.00  0.00     0.065 H 
ATOM     12  H   LIG d   1       6.005  -0.716  -6.443  0.00  0.00     0.062 H 
BRANCH   7  13
ATOM     13  O   LIG d   1       3.171   0.154  -3.040  0.00  0.00    -0.495 OA
BRANCH  13  14
ATOM     14  C   LIG d   1       3.846   1.175  -2.303  0.00  0.00     0.079 C 
ATOM     15  H   LIG d   1       3.510   1.158  -1.266  0.00  0.00     0.066 H 
ATOM     16  H   LIG d   1       4.921   1.000  -2.340  0.00  0.00     0.066 H 
ATOM     17  H   LIG d   1       3.622   2.148  -2.742  0.00  0.00     0.066 H 
ENDBRANCH  13  14
ENDBRANCH   7  13
ENDBRANCH   1   3
BRANCH   1  18
ATOM     18  C   LIG d   1       3.282  -1.051  -9.219  0.00  0.00    -0.036 A 
ATOM     19  C   LIG d   1       2.199  -0.407  -9.788  0.00  0.00    -0.054 A 
ATOM     20  C   LIG d   1       1.214  -1.138 -10.424  0.00  0.00    -0.020 A 
ATOM     21  H   LIG d   1       2.125   0.669  -9.738  0.00  0.00     0.062 H 
ATOM     22  C   LIG d   1       1.307  -2.522 -10.481  0.00  0.00     0.120 A 
ATOM     23  H   LIG d   1       0.371  -0.634 -10.872  0.00  0.00     0.065 H 
ATOM     24  C   LIG d   1       2.392  -3.166  -9.904  0.00  0.00    -0.020 A 
ATOM     25  C   LIG d   1       3.376  -2.430  -9.275  0.00  0.00    -0.054 A 
ATOM     26  H   LIG d   1       2.467  -4.242  -9.947  0.00  0.00     0.065 H 
ATOM     27  H   LIG d   1       4.221  -2.930  -8.826  0.00  0.00     0.062 H 
BRANCH  22  28
ATOM     28  O   LIG d   1       0.337  -3.244 -11.101  0.00  0.00    -0.495 OA
BRANCH  28  29
ATOM     29  C   LIG d   1       0.073  -4.550 -10.588  0.00  0.00     0.079 C 
ATOM     30  H   LIG d   1      -0.911  -4.566 -10.120  0.00  0.00     0.066 H 
ATOM     31  H   LIG d   1       0.099  -5.274 -11.402  0.00  0.00     0.066 H 
ATOM     32  H   LIG d   1       0.831  -4.809  -9.848  0.00  0.00     0.066 H 
ENDBRANCH  28  29
ENDBRANCH  22  28
ENDBRANCH   1  18
BRANCH   1  33
ATOM     33  C   LIG d   1       4.423   1.150  -9.143  0.00  0.00     0.201 C 
ATOM     34 CL   LIG d   1       3.060   2.146  -8.510  0.00  0.00    -0.082 Cl
ATOM     35 CL   LIG d   1       5.990   1.926  -8.703  0.00  0.00    -0.082 Cl
ATOM     36 CL   LIG d   1       4.296   1.028 -10.937  0.00  0.00    -0.082 Cl
ENDBRANCH   1  33
TORSDOF 7
ENDMDL
MODEL 2
REMARK VINA RESULT:      -5.5      5.145      7.580
REMARK  7 active torsions:
REMARK  status: ('A' for Active; 'I' for Inactive)
REMARK    1  A    between atoms: C_1  and  O_2 
REMARK    2  A    between atoms: O_2  and  C_3 
REMARK    3  A    between atoms: C_6  and  C_9 
REMARK    4  A    between atoms: C_9  and  C_10 
REMARK    5  A    between atoms: C_9  and  C_18 
REMARK    6  A    between atoms: C_13  and  O_16 
REMARK    7  A    between atoms: O_16  and  C_17 
ROOT
ATOM      1  C   LIG d   1       6.136  -1.102  -3.252  0.00  0.00     0.056 C 
ATOM      2  H   LIG d   1       6.665  -1.254  -2.311  0.00  0.00     0.044 H 
ENDROOT
BRANCH   1   3
ATOM      3  C   LIG d   1       6.100  -2.396  -4.023  0.00  0.00    -0.036 A 
ATOM      4  C   LIG d   1       4.905  -2.854  -4.548  0.00  0.00    -0.054 A 
ATOM      5  C   LIG d   1       4.870  -4.040  -5.255  0.00  0.00    -0.020 A 
ATOM      6  H   LIG d   1       4.000  -2.283  -4.406  0.00  0.00     0.062 H 
ATOM      7  C   LIG d   1       6.033  -4.773  -5.437  0.00  0.00     0.120 A 
ATOM      8  H   LIG d   1       3.937  -4.397  -5.665  0.00  0.00     0.065 H 
ATOM      9  C   LIG d   1       7.229  -4.315  -4.905  0.00  0.00    -0.020 A 
ATOM     10  C   LIG d   1       7.261  -3.125  -4.204  0.00  0.00    -0.054 A 
ATOM     11  H   LIG d   1       8.136  -4.886  -5.041  0.00  0.00     0.065 H 
ATOM     12  H   LIG d   1       8.193  -2.765  -3.793  0.00  0.00     0.062 H 
BRANCH   7  13
ATOM     13  O   LIG d   1       6.000  -5.940  -6.132  0.00  0.00    -0.495 OA
BRANCH  13  14
ATOM     14  C   LIG d   1       4.997  -6.888  -5.762  0.00  0.00     0.079 C 
ATOM     15  H   LIG d   1       4.981  -6.995  -4.677  0.00  0.00     0.066 H 
ATOM     16  H   LIG d   1       4.023  -6.539  -6.107  0.00  0.00     0.066 H 
ATOM     17  H   LIG d   1       5.221  -7.852  -6.219  0.00  0.00     0.066 H 
ENDBRANCH  13  14
ENDBRANCH   7  13
ENDBRANCH   1   3
BRANCH   1  18
ATOM     18  C   LIG d   1       6.851  -0.053  -4.066  0.00  0.00    -0.036 A 
ATOM     19  C   LIG d   1       7.401   1.050  -3.440  0.00  0.00    -0.054 A 
ATOM     20  C   LIG d   1       8.060   2.010  -4.183  0.00  0.00    -0.020 A 
ATOM     21  H   LIG d   1       7.317   1.159  -2.369  0.00  0.00     0.062 H 
ATOM     22  C   LIG d   1       8.160   1.872  -5.560  0.00  0.00     0.120 A 
ATOM     23  H   LIG d   1       8.494   2.869  -3.693  0.00  0.00     0.065 H 
ATOM     24  C   LIG d   1       7.602   0.766  -6.186  0.00  0.00    -0.020 A 
ATOM     25  C   LIG d   1       6.949  -0.193  -5.438  0.00  0.00    -0.054 A 
ATOM     26  H   LIG d   1       7.679   0.657  -7.258  0.00  0.00     0.065 H 
ATOM     27  H   LIG d   1       6.514  -1.054  -5.925  0.00  0.00     0.062 H 
BRANCH  22  28
ATOM     28  O   LIG d   1       8.804   2.817  -6.294  0.00  0.00    -0.495 OA
BRANCH  28  29
ATOM     29  C   LIG d   1       9.557   3.795  -5.574  0.00  0.00     0.079 C 
ATOM     30  H   LIG d   1      10.060   4.458  -6.277  0.00  0.00     0.066 H 
ATOM     31  H   LIG d   1       8.887   4.377  -4.942  0.00  0.00     0.066 H 
ATOM     32  H   LIG d   1      10.300   3.295  -4.952  0.00  0.00     0.066 H 
ENDBRANCH  28  29
ENDBRANCH  22  28
ENDBRANCH   1  18
BRANCH   1  33
ATOM     33  C   LIG d   1       4.706  -0.639  -2.965  0.00  0.00     0.201 C 
ATOM     34 CL   LIG d   1       3.947  -0.053  -4.491  0.00  0.00    -0.082 Cl
ATOM     35 CL   LIG d   1       3.749  -2.019  -2.308  0.00  0.00    -0.082 Cl
ATOM     36 CL   LIG d   1       4.739   0.698  -1.757  0.00  0.00    -0.082 Cl
ENDBRANCH   1  33
TORSDOF 7
ENDMDL
MODEL 3
REMARK VINA RESULT:      -5.5      4.142      6.769
REMARK  7 active torsions:
REMARK  status: ('A' for Active; 'I' for Inactive)
REMARK    1  A    between atoms: C_1  and  O_2 
REMARK    2  A    between atoms: O_2  and  C_3 
REMARK    3  A    between atoms: C_6  and  C_9 
REMARK    4  A    between atoms: C_9  and  C_10 
REMARK    5  A    between atoms: C_9  and  C_18 
REMARK    6  A    between atoms: C_13  and  O_16 
REMARK    7  A    between atoms: O_16  and  C_17 
ROOT
ATOM      1  C   LIG d   1       4.259  -1.761  -4.930  0.00  0.00     0.056 C 
ATOM      2  H   LIG d   1       3.478  -2.495  -5.126  0.00  0.00     0.044 H 
ENDROOT
BRANCH   1   3
ATOM      3  C   LIG d   1       4.388  -0.837  -6.113  0.00  0.00    -0.036 A 
ATOM      4  C   LIG d   1       3.269  -0.200  -6.616  0.00  0.00    -0.054 A 
ATOM      5  C   LIG d   1       3.384   0.648  -7.700  0.00  0.00    -0.020 A 
ATOM      6  H   LIG d   1       2.304  -0.365  -6.161  0.00  0.00     0.062 H 
ATOM      7  C   LIG d   1       4.624   0.860  -8.285  0.00  0.00     0.120 A 
ATOM      8  H   LIG d   1       2.510   1.146  -8.093  0.00  0.00     0.065 H 
ATOM      9  C   LIG d   1       5.745   0.216  -7.782  0.00  0.00    -0.020 A 
ATOM     10  C   LIG d   1       5.625  -0.626  -6.693  0.00  0.00    -0.054 A 
ATOM     11  H   LIG d   1       6.710   0.375  -8.238  0.00  0.00     0.065 H 
ATOM     12  H   LIG d   1       6.499  -1.125  -6.298  0.00  0.00     0.062 H 
BRANCH   7  13
ATOM     13  O   LIG d   1       4.740   1.693  -9.352  0.00  0.00    -0.495 OA
BRANCH  13  14
ATOM     14  C   LIG d   1       4.079   1.301 -10.557  0.00  0.00     0.079 C 
ATOM     15  H   LIG d   1       4.711   1.541 -11.412  0.00  0.00     0.066 H 
ATOM     16  H   LIG d   1       3.890   0.228 -10.535  0.00  0.00     0.066 H 
ATOM     17  H   LIG d   1       3.133   1.835 -10.643  0.00  0.00     0.066 H 
ENDBRANCH  13  14
ENDBRANCH   7  13
ENDBRANCH   1   3
BRANCH   1  18
ATOM     18  C   LIG d   1       5.570  -2.471  -4.702  0.00  0.00    -0.036 A 
ATOM     19  C   LIG d   1       5.757  -3.750  -5.192  0.00  0.00    -0.054 A 
ATOM     20  C   LIG d   1       6.958  -4.400  -4.989  0.00  0.00    -0.020 A 
ATOM     21  H   LIG d   1       4.963  -4.239  -5.737  0.00  0.00     0.062 H 
ATOM     22  C   LIG d   1       7.974  -3.773  -4.282  0.00  0.00     0.120 A 
ATOM     23  H   LIG d   1       7.105  -5.398  -5.376  0.00  0.00     0.065 H 
ATOM     24  C   LIG d   1       7.782  -2.491  -3.787  0.00  0.00    -0.020 A 
ATOM     25  C   LIG d   1       6.581  -1.843  -3.997  0.00  0.00    -0.054 A 
ATOM     26  H   LIG d   1       8.571  -2.000  -3.236  0.00  0.00     0.065 H 
ATOM     27  H   LIG d   1       6.430  -0.845  -3.612  0.00  0.00     0.062 H 
BRANCH  22  28
ATOM     28  O   LIG d   1       9.156  -4.412  -4.076  0.00  0.00    -0.495 OA
BRANCH  28  29
ATOM     29  C   LIG d   1       9.636  -4.471  -2.732  0.00  0.00     0.079 C 
ATOM     30  H   LIG d   1       8.831  -4.791  -2.072  0.00  0.00     0.066 H 
ATOM     31  H   LIG d   1      10.460  -5.181  -2.671  0.00  0.00     0.066 H 
ATOM     32  H   LIG d   1       9.984  -3.484  -2.428  0.00  0.00     0.066 H 
ENDBRANCH  28  29
ENDBRANCH  22  28
ENDBRANCH   1  18
BRANCH   1  33
ATOM     33  C   LIG d   1       3.895  -0.949  -3.686  0.00  0.00     0.201 C 
ATOM     34 CL   LIG d   1       2.177  -0.416  -3.797  0.00  0.00    -0.082 Cl
ATOM     35 CL   LIG d   1       4.114  -1.971  -2.216  0.00  0.00    -0.082 Cl
ATOM     36 CL   LIG d   1       4.967   0.496  -3.576  0.00  0.00    -0.082 Cl
ENDBRANCH   1  33
TORSDOF 7
ENDMDL
MODEL 4
REMARK VINA RESULT:      -5.3      1.222      5.808
REMARK  7 active torsions:
REMARK  status: ('A' for Active; 'I' for Inactive)
REMARK    1  A    between atoms: C_1  and  O_2 
REMARK    2  A    between atoms: O_2  and  C_3 
REMARK    3  A    between atoms: C_6  and  C_9 
REMARK    4  A    between atoms: C_9  and  C_10 
REMARK    5  A    between atoms: C_9  and  C_18 
REMARK    6  A    between atoms: C_13  and  O_16 
REMARK    7  A    between atoms: O_16  and  C_17 
ROOT
ATOM      1  C   LIG d   1       2.730   0.215  -8.352  0.00  0.00     0.056 C 
ATOM      2  H   LIG d   1       1.806   0.789  -8.419  0.00  0.00     0.044 H 
ENDROOT
BRANCH   1   3
ATOM      3  C   LIG d   1       2.546  -1.113  -9.039  0.00  0.00    -0.036 A 
ATOM      4  C   LIG d   1       1.452  -1.320  -9.859  0.00  0.00    -0.054 A 
ATOM      5  C   LIG d   1       1.280  -2.538 -10.489  0.00  0.00    -0.020 A 
ATOM      6  H   LIG d   1       0.731  -0.530 -10.005  0.00  0.00     0.062 H 
ATOM      7  C   LIG d   1       2.206  -3.553 -10.299  0.00  0.00     0.120 A 
ATOM      8  H   LIG d   1       0.425  -2.699 -11.129  0.00  0.00     0.065 H 
ATOM      9  C   LIG d   1       3.301  -3.344  -9.473  0.00  0.00    -0.020 A 
ATOM     10  C   LIG d   1       3.471  -2.123  -8.849  0.00  0.00    -0.054 A 
ATOM     11  H   LIG d   1       4.021  -4.134  -9.320  0.00  0.00     0.065 H 
ATOM     12  H   LIG d   1       4.326  -1.958  -8.209  0.00  0.00     0.062 H 
BRANCH   7  13
ATOM     13  O   LIG d   1       2.039  -4.751 -10.918  0.00  0.00    -0.495 OA
BRANCH  13  14
ATOM     14  C   LIG d   1       1.591  -5.841 -10.112  0.00  0.00     0.079 C 
ATOM     15  H   LIG d   1       1.637  -6.764 -10.690  0.00  0.00     0.066 H 
ATOM     16  H   LIG d   1       2.231  -5.931  -9.234  0.00  0.00     0.066 H 
ATOM     17  H   LIG d   1       0.563  -5.661  -9.796  0.00  0.00     0.066 H 
ENDBRANCH  13  14
ENDBRANCH   7  13
ENDBRANCH   1   3
BRANCH   1  18
ATOM     18  C   LIG d   1       3.077  -0.012  -6.903  0.00  0.00    -0.036 A 
ATOM     19  C   LIG d   1       4.043  -0.942  -6.562  0.00  0.00    -0.054 A 
ATOM     20  C   LIG d   1       4.366  -1.148  -5.235  0.00  0.00    -0.020 A 
ATOM     21  H   LIG d   1       4.546  -1.504  -7.334  0.00  0.00     0.062 H 
ATOM     22  C   LIG d   1       3.713  -0.430  -4.243  0.00  0.00     0.120 A 
ATOM     23  H   LIG d   1       5.123  -1.871  -4.969  0.00  0.00     0.065 H 
ATOM     24  C   LIG d   1       2.741   0.498  -4.588  0.00  0.00    -0.020 A 
ATOM     25  C   LIG d   1       2.425   0.704  -5.916  0.00  0.00    -0.054 A 
ATOM     26  H   LIG d   1       2.231   1.058  -3.818  0.00  0.00     0.065 H 
ATOM     27  H   LIG d   1       1.669   1.427  -6.186  0.00  0.00     0.062 H 
BRANCH  22  28
ATOM     28  O   LIG d   1       4.026  -0.635  -2.937  0.00  0.00    -0.495 OA
BRANCH  28  29
ATOM     29  C   LIG d   1       3.906  -1.970  -2.443  0.00  0.00     0.079 C 
ATOM     30  H   LIG d   1       4.822  -2.520  -2.656  0.00  0.00     0.066 H 
ATOM     31  H   LIG d   1       3.739  -1.946  -1.366  0.00  0.00     0.066 H 
ATOM     32  H   LIG d   1       3.065  -2.463  -2.930  0.00  0.00     0.066 H 
ENDBRANCH  28  29
ENDBRANCH  22  28
ENDBRANCH   1  18
BRANCH   1  33
ATOM     33  C   LIG d   1       3.861   0.988  -9.033  0.00  0.00     0.201 C 
ATOM     34 CL   LIG d   1       3.559   2.758  -8.874  0.00  0.00    -0.082 Cl
ATOM     35 CL   LIG d   1       5.430   0.573  -8.248  0.00  0.00    -0.082 Cl
ATOM     36 CL   LIG d   1       3.927   0.544 -10.779  0.00  0.00    -0.082 Cl
ENDBRANCH   1  33
TORSDOF 7
ENDMDL
MODEL 5
REMARK VINA RESULT:      -5.2      4.800      5.752
REMARK  7 active torsions:
REMARK  status: ('A' for Active; 'I' for Inactive)
REMARK    1  A    between atoms: C_1  and  O_2 
REMARK    2  A    between atoms: O_2  and  C_3 
REMARK    3  A    between atoms: C_6  and  C_9 
REMARK    4  A    between atoms: C_9  and  C_10 
REMARK    5  A    between atoms: C_9  and  C_18 
REMARK    6  A    between atoms: C_13  and  O_16 
REMARK    7  A    between atoms: O_16  and  C_17 
ROOT
ATOM      1  C   LIG d   1       6.947  -3.579  -5.531  0.00  0.00     0.056 C 
ATOM      2  H   LIG d   1       7.981  -3.745  -5.229  0.00  0.00     0.044 H 
ENDROOT
BRANCH   1   3
ATOM      3  C   LIG d   1       6.249  -2.742  -4.492  0.00  0.00    -0.036 A 
ATOM      4  C   LIG d   1       4.958  -3.056  -4.106  0.00  0.00    -0.054 A 
ATOM      5  C   LIG d   1       4.315  -2.291  -3.153  0.00  0.00    -0.020 A 
ATOM      6  H   LIG d   1       4.453  -3.900  -4.551  0.00  0.00     0.062 H 
ATOM      7  C   LIG d   1       4.964  -1.206  -2.582  0.00  0.00     0.120 A 
ATOM      8  H   LIG d   1       3.307  -2.537  -2.852  0.00  0.00     0.065 H 
ATOM      9  C   LIG d   1       6.257  -0.890  -2.973  0.00  0.00    -0.020 A 
ATOM     10  C   LIG d   1       6.898  -1.662  -3.923  0.00  0.00    -0.054 A 
ATOM     11  H   LIG d   1       6.763  -0.044  -2.534  0.00  0.00     0.065 H 
ATOM     12  H   LIG d   1       7.907  -1.420  -4.225  0.00  0.00     0.062 H 
BRANCH   7  13
ATOM     13  O   LIG d   1       4.334  -0.452  -1.644  0.00  0.00    -0.495 OA
BRANCH  13  14
ATOM     14  C   LIG d   1       4.494   0.965  -1.735  0.00  0.00     0.079 C 
ATOM     15  H   LIG d   1       5.131   1.204  -2.587  0.00  0.00     0.066 H 
ATOM     16  H   LIG d   1       3.519   1.433  -1.867  0.00  0.00     0.066 H 
ATOM     17  H   LIG d   1       4.956   1.338  -0.821  0.00  0.00     0.066 H 
ENDBRANCH  13  14
ENDBRANCH   7  13
ENDBRANCH   1   3
BRANCH   1  18
ATOM     18  C   LIG d   1       6.243  -4.906  -5.665  0.00  0.00    -0.036 A 
ATOM     19  C   LIG d   1       6.905  -6.075  -5.337  0.00  0.00    -0.054 A 
ATOM     20  C   LIG d   1       6.261  -7.290  -5.453  0.00  0.00    -0.020 A 
ATOM     21  H   LIG d   1       7.926  -6.035  -4.986  0.00  0.00     0.062 H 
ATOM     22  C   LIG d   1       4.952  -7.340  -5.911  0.00  0.00     0.120 A 
ATOM     23  H   LIG d   1       6.777  -8.203  -5.192  0.00  0.00     0.065 H 
ATOM     24  C   LIG d   1       4.292  -6.165  -6.244  0.00  0.00    -0.020 A 
ATOM     25  C   LIG d   1       4.939  -4.952  -6.121  0.00  0.00    -0.054 A 
ATOM     26  H   LIG d   1       3.273  -6.201  -6.601  0.00  0.00     0.065 H 
ATOM     27  H   LIG d   1       4.426  -4.037  -6.380  0.00  0.00     0.062 H 
BRANCH  22  28
ATOM     28  O   LIG d   1       4.317  -8.535  -6.031  0.00  0.00    -0.495 OA
BRANCH  28  29
ATOM     29  C   LIG d   1       4.704  -9.568  -5.124  0.00  0.00     0.079 C 
ATOM     30  H   LIG d   1       4.426 -10.538  -5.535  0.00  0.00     0.066 H 
ATOM     31  H   LIG d   1       5.784  -9.535  -4.973  0.00  0.00     0.066 H 
ATOM     32  H   LIG d   1       4.200  -9.421  -4.169  0.00  0.00     0.066 H 
ENDBRANCH  28  29
ENDBRANCH  22  28
ENDBRANCH   1  18
BRANCH   1  33
ATOM     33  C   LIG d   1       6.920  -2.849  -6.876  0.00  0.00     0.201 C 
ATOM     34 CL   LIG d   1       7.003  -4.053  -8.214  0.00  0.00    -0.082 Cl
ATOM     35 CL   LIG d   1       5.393  -1.901  -7.013  0.00  0.00    -0.082 Cl
ATOM     36 CL   LIG d   1       8.332  -1.733  -6.982  0.00  0.00    -0.082 Cl
ENDBRANCH   1  33
TORSDOF 7
ENDMDL
MODEL 6
REMARK VINA RESULT:      -5.0      3.739      4.656
REMARK  7 active torsions:
REMARK  status: ('A' for Active; 'I' for Inactive)
REMARK    1  A    between atoms: C_1  and  O_2 
REMARK    2  A    between atoms: O_2  and  C_3 
REMARK    3  A    between atoms: C_6  and  C_9 
REMARK    4  A    between atoms: C_9  and  C_10 
REMARK    5  A    between atoms: C_9  and  C_18 
REMARK    6  A    between atoms: C_13  and  O_16 
REMARK    7  A    between atoms: O_16  and  C_17 
ROOT
ATOM      1  C   LIG d   1       5.345  -4.070  -5.234  0.00  0.00     0.056 C 
ATOM      2  H   LIG d   1       4.795  -4.803  -4.643  0.00  0.00     0.044 H 
ENDROOT
BRANCH   1   3
ATOM      3  C   LIG d   1       5.422  -2.770  -4.477  0.00  0.00    -0.036 A 
ATOM      4  C   LIG d   1       4.604  -2.559  -3.382  0.00  0.00    -0.054 A 
ATOM      5  C   LIG d   1       4.673  -1.368  -2.686  0.00  0.00    -0.020 A 
ATOM      6  H   LIG d   1       3.910  -3.326  -3.073  0.00  0.00     0.062 H 
ATOM      7  C   LIG d   1       5.564  -0.383  -3.085  0.00  0.00     0.120 A 
ATOM      8  H   LIG d   1       4.033  -1.204  -1.831  0.00  0.00     0.065 H 
ATOM      9  C   LIG d   1       6.381  -0.594  -4.186  0.00  0.00    -0.020 A 
ATOM     10  C   LIG d   1       6.312  -1.790  -4.876  0.00  0.00    -0.054 A 
ATOM     11  H   LIG d   1       7.072   0.172  -4.502  0.00  0.00     0.065 H 
ATOM     12  H   LIG d   1       6.951  -1.957  -5.731  0.00  0.00     0.062 H 
BRANCH   7  13
ATOM     13  O   LIG d   1       5.633   0.789  -2.402  0.00  0.00    -0.495 OA
BRANCH  13  14
ATOM     14  C   LIG d   1       4.483   1.167  -1.643  0.00  0.00     0.079 C 
ATOM     15  H   LIG d   1       3.612   0.620  -2.006  0.00  0.00     0.066 H 
ATOM     16  H   LIG d   1       4.647   0.933  -0.592  0.00  0.00     0.066 H 
ATOM     17  H   LIG d   1       4.310   2.238  -1.755  0.00  0.00     0.066 H 
ENDBRANCH  13  14
ENDBRANCH   7  13
ENDBRANCH   1   3
BRANCH   1  18
ATOM     18  C   LIG d   1       4.633  -3.846  -6.545  0.00  0.00    -0.036 A 
ATOM     19  C   LIG d   1       4.508  -2.566  -7.052  0.00  0.00    -0.054 A 
ATOM     20  C   LIG d   1       3.861  -2.359  -8.255  0.00  0.00    -0.020 A 
ATOM     21  H   LIG d   1       4.920  -1.728  -6.510  0.00  0.00     0.062 H 
ATOM     22  C   LIG d   1       3.325  -3.436  -8.948  0.00  0.00     0.120 A 
ATOM     23  H   LIG d   1       3.767  -1.360  -8.653  0.00  0.00     0.065 H 
ATOM     24  C   LIG d   1       3.448  -4.719  -8.433  0.00  0.00    -0.020 A 
ATOM     25  C   LIG d   1       4.101  -4.921  -7.233  0.00  0.00    -0.054 A 
ATOM     26  H   LIG d   1       3.033  -5.559  -8.970  0.00  0.00     0.065 H 
ATOM     27  H   LIG d   1       4.197  -5.919  -6.832  0.00  0.00     0.062 H 
BRANCH  22  28
ATOM     28  O   LIG d   1       2.684  -3.235 -10.129  0.00  0.00    -0.495 OA
BRANCH  28  29
ATOM     29  C   LIG d   1       1.558  -2.356 -10.113  0.00  0.00     0.079 C 
ATOM     30  H   LIG d   1       1.730  -1.556  -9.393  0.00  0.00     0.066 H 
ATOM     31  H   LIG d   1       1.418  -1.926 -11.105  0.00  0.00     0.066 H 
ATOM     32  H   LIG d   1       0.666  -2.914  -9.830  0.00  0.00     0.066 H 
ENDBRANCH  28  29
ENDBRANCH  22  28
ENDBRANCH   1  18
BRANCH   1  33
ATOM     33  C   LIG d   1       6.759  -4.588  -5.504  0.00  0.00     0.201 C 
ATOM     34 CL   LIG d   1       6.743  -6.391  -5.528  0.00  0.00    -0.082 Cl
ATOM     35 CL   LIG d   1       7.332  -3.970  -7.097  0.00  0.00    -0.082 Cl
ATOM     36 CL   LIG d   1       7.867  -4.014  -4.203  0.00  0.00    -0.082 Cl
ENDBRANCH   1  33
TORSDOF 7
ENDMDL
MODEL 7
REMARK VINA RESULT:      -4.9      6.696     10.424
REMARK  7 active torsions:
REMARK  status: ('A' for Active; 'I' for Inactive)
REMARK    1  A    between atoms: C_1  and  O_2 
REMARK    2  A    between atoms: O_2  and  C_3 
REMARK    3  A    between atoms: C_6  and  C_9 
REMARK    4  A    between atoms: C_9  and  C_10 
REMARK    5  A    between atoms: C_9  and  C_18 
REMARK    6  A    between atoms: C_13  and  O_16 
REMARK    7  A    between atoms: O_16  and  C_17 
ROOT
ATOM      1  C   LIG d   1       9.898   4.381  -5.155  0.00  0.00     0.056 C 
ATOM      2  H   LIG d   1       9.406   5.078  -5.833  0.00  0.00     0.044 H 
ENDROOT
BRANCH   1   3
ATOM      3  C   LIG d   1       9.093   3.110  -5.070  0.00  0.00    -0.036 A 
ATOM      4  C   LIG d   1       8.703   2.621  -3.837  0.00  0.00    -0.054 A 
ATOM      5  C   LIG d   1       7.965   1.456  -3.757  0.00  0.00    -0.020 A 
ATOM      6  H   LIG d   1       8.976   3.150  -2.936  0.00  0.00     0.062 H 
ATOM      7  C   LIG d   1       7.615   0.777  -4.914  0.00  0.00     0.120 A 
ATOM      8  H   LIG d   1       7.660   1.074  -2.794  0.00  0.00     0.065 H 
ATOM      9  C   LIG d   1       8.011   1.266  -6.150  0.00  0.00    -0.020 A 
ATOM     10  C   LIG d   1       8.744   2.435  -6.226  0.00  0.00    -0.054 A 
ATOM     11  H   LIG d   1       7.744   0.737  -7.053  0.00  0.00     0.065 H 
ATOM     12  H   LIG d   1       9.050   2.820  -7.188  0.00  0.00     0.062 H 
BRANCH   7  13
ATOM     13  O   LIG d   1       6.889  -0.369  -4.838  0.00  0.00    -0.495 OA
BRANCH  13  14
ATOM     14  C   LIG d   1       6.359  -0.717  -3.558  0.00  0.00     0.079 C 
ATOM     15  H   LIG d   1       5.327  -0.372  -3.486  0.00  0.00     0.066 H 
ATOM     16  H   LIG d   1       6.389  -1.800  -3.434  0.00  0.00     0.066 H 
ATOM     17  H   LIG d   1       6.955  -0.245  -2.777  0.00  0.00     0.066 H 
ENDBRANCH  13  14
ENDBRANCH   7  13
ENDBRANCH   1   3
BRANCH   1  18
ATOM     18  C   LIG d   1      10.000   5.002  -3.785  0.00  0.00    -0.036 A 
ATOM     19  C   LIG d   1       9.389   6.216  -3.529  0.00  0.00    -0.054 A 
ATOM     20  C   LIG d   1       9.477   6.785  -2.274  0.00  0.00    -0.020 A 
ATOM     21  H   LIG d   1       8.839   6.718  -4.312  0.00  0.00     0.062 H 
ATOM     22  C   LIG d   1      10.190   6.143  -1.271  0.00  0.00     0.120 A 
ATOM     23  H   LIG d   1       8.996   7.731  -2.074  0.00  0.00     0.065 H 
ATOM     24  C   LIG d   1      10.807   4.927  -1.532  0.00  0.00    -0.020 A 
ATOM     25  C   LIG d   1      10.711   4.360  -2.787  0.00  0.00    -0.054 A 
ATOM     26  H   LIG d   1      11.362   4.425  -0.753  0.00  0.00     0.065 H 
ATOM     27  H   LIG d   1      11.191   3.414  -2.991  0.00  0.00     0.062 H 
BRANCH  22  28
ATOM     28  O   LIG d   1      10.283   6.702  -0.036  0.00  0.00    -0.495 OA
BRANCH  28  29
ATOM     29  C   LIG d   1      11.094   6.023   0.924  0.00  0.00     0.079 C 
ATOM     30  H   LIG d   1      12.135   6.319   0.795  0.00  0.00     0.066 H 
ATOM     31  H   LIG d   1      10.764   6.285   1.929  0.00  0.00     0.066 H 
ATOM     32  H   LIG d   1      11.002   4.947   0.780  0.00  0.00     0.066 H 
ENDBRANCH  28  29
ENDBRANCH  22  28
ENDBRANCH   1  18
BRANCH   1  33
ATOM     33  C   LIG d   1      11.300   4.063  -5.677  0.00  0.00     0.201 C 
ATOM     34 CL   LIG d   1      12.449   5.339  -5.131  0.00  0.00    -0.082 Cl
ATOM     35 CL   LIG d   1      11.831   2.463  -5.038  0.00  0.00    -0.082 Cl
ATOM     36 CL   LIG d   1      11.272   4.010  -7.479  0.00  0.00    -0.082 Cl
ENDBRANCH   1  33
TORSDOF 7
ENDMDL
MODEL 8
REMARK VINA RESULT:      -4.8      6.340     10.040
REMARK  7 active torsions:
REMARK  status: ('A' for Active; 'I' for Inactive)
REMARK    1  A    between atoms: C_1  and  O_2 
REMARK    2  A    between atoms: O_2  and  C_3 
REMARK    3  A    between atoms: C_6  and  C_9 
REMARK    4  A    between atoms: C_9  and  C_10 
REMARK    5  A    between atoms: C_9  and  C_18 
REMARK    6  A    between atoms: C_13  and  O_16 
REMARK    7  A    between atoms: O_16  and  C_17 
ROOT
ATOM      1  C   LIG d   1       9.675   3.795  -5.500  0.00  0.00     0.056 C 
ATOM      2  H   LIG d   1       9.272   4.394  -6.317  0.00  0.00     0.044 H 
ENDROOT
BRANCH   1   3
ATOM      3  C   LIG d   1       8.776   2.613  -5.253  0.00  0.00    -0.036 A 
ATOM      4  C   LIG d   1       8.424   1.781  -6.301  0.00  0.00    -0.054 A 
ATOM      5  C   LIG d   1       7.599   0.697  -6.076  0.00  0.00    -0.020 A 
ATOM      6  H   LIG d   1       8.795   1.981  -7.295  0.00  0.00     0.062 H 
ATOM      7  C   LIG d   1       7.122   0.441  -4.799  0.00  0.00     0.120 A 
ATOM      8  H   LIG d   1       7.325   0.047  -6.895  0.00  0.00     0.065 H 
ATOM      9  C   LIG d   1       7.472   1.279  -3.750  0.00  0.00    -0.020 A 
ATOM     10  C   LIG d   1       8.302   2.360  -3.978  0.00  0.00    -0.054 A 
ATOM     11  H   LIG d   1       7.099   1.086  -2.756  0.00  0.00     0.065 H 
ATOM     12  H   LIG d   1       8.579   3.010  -3.161  0.00  0.00     0.062 H 
BRANCH   7  13
ATOM     13  O   LIG d   1       6.311  -0.625  -4.576  0.00  0.00    -0.495 OA
BRANCH  13  14
ATOM     14  C   LIG d   1       6.672  -1.504  -3.509  0.00  0.00     0.079 C 
ATOM     15  H   LIG d   1       6.550  -2.538  -3.833  0.00  0.00     0.066 H 
ATOM     16  H   LIG d   1       7.711  -1.330  -3.231  0.00  0.00     0.066 H 
ATOM     17  H   LIG d   1       6.029  -1.315  -2.649  0.00  0.00     0.066 H 
ENDBRANCH  13  14
ENDBRANCH   7  13
ENDBRANCH   1   3
BRANCH   1  18
ATOM     18  C   LIG d   1       9.753   4.637  -4.252  0.00  0.00    -0.036 A 
ATOM     19  C   LIG d   1      10.296   4.109  -3.095  0.00  0.00    -0.054 A 
ATOM     20  C   LIG d   1      10.373   4.880  -1.952  0.00  0.00    -0.020 A 
ATOM     21  H   LIG d   1      10.663   3.093  -3.087  0.00  0.00     0.062 H 
ATOM     22  C   LIG d   1       9.894   6.182  -1.962  0.00  0.00     0.120 A 
ATOM     23  H   LIG d   1      10.801   4.468  -1.050  0.00  0.00     0.065 H 
ATOM     24  C   LIG d   1       9.346   6.708  -3.122  0.00  0.00    -0.020 A 
ATOM     25  C   LIG d   1       9.276   5.935  -4.264  0.00  0.00    -0.054 A 
ATOM     26  H   LIG d   1       8.972   7.722  -3.133  0.00  0.00     0.065 H 
ATOM     27  H   LIG d   1       8.849   6.344  -5.168  0.00  0.00     0.062 H 
BRANCH  22  28
ATOM     28  O   LIG d   1       9.964   6.942  -0.837  0.00  0.00    -0.495 OA
BRANCH  28  29
ATOM     29  C   LIG d   1       9.469   8.279  -0.925  0.00  0.00     0.079 C 
ATOM     30  H   LIG d   1      10.060   8.930  -0.282  0.00  0.00     0.066 H 
ATOM     31  H   LIG d   1       9.539   8.625  -1.957  0.00  0.00     0.066 H 
ATOM     32  H   LIG d   1       8.427   8.301  -0.606  0.00  0.00     0.066 H 
ENDBRANCH  28  29
ENDBRANCH  22  28
ENDBRANCH   1  18
BRANCH   1  33
ATOM     33  C   LIG d   1      11.075   3.302  -5.872  0.00  0.00     0.201 C 
ATOM     34 CL   LIG d   1      11.448   1.801  -4.947  0.00  0.00    -0.082 Cl
ATOM     35 CL   LIG d   1      11.139   2.951  -7.639  0.00  0.00    -0.082 Cl
ATOM     36 CL   LIG d   1      12.287   4.574  -5.468  0.00  0.00    -0.082 Cl
ENDBRANCH   1  33
TORSDOF 7
ENDMDL
MODEL 9
REMARK VINA RESULT:      -4.8      1.318      5.994
REMARK  7 active torsions:
REMARK  status: ('A' for Active; 'I' for Inactive)
REMARK    1  A    between atoms: C_1  and  O_2 
REMARK    2  A    between atoms: O_2  and  C_3 
REMARK    3  A    between atoms: C_6  and  C_9 
REMARK    4  A    between atoms: C_9  and  C_10 
REMARK    5  A    between atoms: C_9  and  C_18 
REMARK    6  A    between atoms: C_13  and  O_16 
REMARK    7  A    between atoms: O_16  and  C_17 
ROOT
ATOM      1  C   LIG d   1       2.998   0.275  -8.677  0.00  0.00     0.056 C 
ATOM      2  H   LIG d   1       2.223   1.026  -8.525  0.00  0.00     0.044 H 
ENDROOT
BRANCH   1   3
ATOM      3  C   LIG d   1       2.434  -0.873  -9.473  0.00  0.00    -0.036 A 
ATOM      4  C   LIG d   1       1.575  -0.626 -10.528  0.00  0.00    -0.054 A 
ATOM      5  C   LIG d   1       1.057  -1.677 -11.259  0.00  0.00    -0.020 A 
ATOM      6  H   LIG d   1       1.309   0.390 -10.780  0.00  0.00     0.062 H 
ATOM      7  C   LIG d   1       1.398  -2.981 -10.935  0.00  0.00     0.120 A 
ATOM      8  H   LIG d   1       0.386  -1.483 -12.084  0.00  0.00     0.065 H 
ATOM      9  C   LIG d   1       2.256  -3.228  -9.874  0.00  0.00    -0.020 A 
ATOM     10  C   LIG d   1       2.777  -2.173  -9.149  0.00  0.00    -0.054 A 
ATOM     11  H   LIG d   1       2.520  -4.243  -9.616  0.00  0.00     0.065 H 
ATOM     12  H   LIG d   1       3.449  -2.364  -8.325  0.00  0.00     0.062 H 
BRANCH   7  13
ATOM     13  O   LIG d   1       0.889  -4.016 -11.653  0.00  0.00    -0.495 OA
BRANCH  13  14
ATOM     14  C   LIG d   1      -0.005  -3.690 -12.719  0.00  0.00     0.079 C 
ATOM     15  H   LIG d   1      -0.990  -4.105 -12.507  0.00  0.00     0.066 H 
ATOM     16  H   LIG d   1      -0.079  -2.606 -12.812  0.00  0.00     0.066 H 
ATOM     17  H   LIG d   1       0.373  -4.109 -13.652  0.00  0.00     0.066 H 
ENDBRANCH  13  14
ENDBRANCH   7  13
ENDBRANCH   1   3
BRANCH   1  18
ATOM     18  C   LIG d   1       3.478  -0.230  -7.340  0.00  0.00    -0.036 A 
ATOM     19  C   LIG d   1       2.906   0.249  -6.175  0.00  0.00    -0.054 A 
ATOM     20  C   LIG d   1       3.341  -0.215  -4.950  0.00  0.00    -0.020 A 
ATOM     21  H   LIG d   1       2.117   0.984  -6.226  0.00  0.00     0.062 H 
ATOM     22  C   LIG d   1       4.361  -1.154  -4.886  0.00  0.00     0.120 A 
ATOM     23  H   LIG d   1       2.891   0.156  -4.040  0.00  0.00     0.065 H 
ATOM     24  C   LIG d   1       4.936  -1.629  -6.056  0.00  0.00    -0.020 A 
ATOM     25  C   LIG d   1       4.494  -1.166  -7.279  0.00  0.00    -0.054 A 
ATOM     26  H   LIG d   1       5.730  -2.360  -6.010  0.00  0.00     0.065 H 
ATOM     27  H   LIG d   1       4.942  -1.535  -8.191  0.00  0.00     0.062 H 
BRANCH  22  28
ATOM     28  O   LIG d   1       4.794  -1.609  -3.681  0.00  0.00    -0.495 OA
BRANCH  28  29
ATOM     29  C   LIG d   1       6.146  -2.065  -3.608  0.00  0.00     0.079 C 
ATOM     30  H   LIG d   1       6.253  -2.753  -2.770  0.00  0.00     0.066 H 
ATOM     31  H   LIG d   1       6.407  -2.578  -4.535  0.00  0.00     0.066 H 
ATOM     32  H   LIG d   1       6.810  -1.213  -3.466  0.00  0.00     0.066 H 
ENDBRANCH  28  29
ENDBRANCH  22  28
ENDBRANCH   1  18
BRANCH   1  33
ATOM     33  C   LIG d   1       4.169   0.897  -9.439  0.00  0.00     0.201 C 
ATOM     34 CL   LIG d   1       4.804  -0.289 -10.639  0.00  0.00    -0.082 Cl
ATOM     35 CL   LIG d   1       3.608   2.379 -10.298  0.00  0.00    -0.082 Cl
ATOM     36 CL   LIG d   1       5.476   1.335  -8.277  0.00  0.00    -0.082 Cl
ENDBRANCH   1  33
TORSDOF 7
ENDMDL
MODEL 10
REMARK VINA RESULT:      -4.8      7.537     11.158
REMARK  7 active torsions:
REMARK  status: ('A' for Active; 'I' for Inactive)
REMARK    1  A    between atoms: C_1  and  O_2 
REMARK    2  A    between atoms: O_2  and  C_3 
REMARK    3  A    between atoms: C_6  and  C_9 
REMARK    4  A    between atoms: C_9  and  C_10 
REMARK    5  A    between atoms: C_9  and  C_18 
REMARK    6  A    between atoms: C_13  and  O_16 
REMARK    7  A    between atoms: O_16  and  C_17 
ROOT
ATOM      1  C   LIG d   1       9.272   5.210  -4.482  0.00  0.00     0.056 C 
ATOM      2  H   LIG d   1       8.198   5.378  -4.570  0.00  0.00     0.044 H 
ENDROOT
BRANCH   1   3
ATOM      3  C   LIG d   1       9.570   3.748  -4.688  0.00  0.00    -0.036 A 
ATOM      4  C   LIG d   1       8.539   2.827  -4.686  0.00  0.00    -0.054 A 
ATOM      5  C   LIG d   1       8.811   1.485  -4.874  0.00  0.00    -0.020 A 
ATOM      6  H   LIG d   1       7.522   3.156  -4.537  0.00  0.00     0.062 H 
ATOM      7  C   LIG d   1      10.118   1.063  -5.065  0.00  0.00     0.120 A 
ATOM      8  H   LIG d   1       8.005   0.766  -4.873  0.00  0.00     0.065 H 
ATOM      9  C   LIG d   1      11.151   1.988  -5.062  0.00  0.00    -0.020 A 
ATOM     10  C   LIG d   1      10.874   3.330  -4.879  0.00  0.00    -0.054 A 
ATOM     11  H   LIG d   1      12.170   1.661  -5.205  0.00  0.00     0.065 H 
ATOM     12  H   LIG d   1      11.678   4.052  -4.881  0.00  0.00     0.062 H 
BRANCH   7  13
ATOM     13  O   LIG d   1      10.386  -0.256  -5.251  0.00  0.00    -0.495 OA
BRANCH  13  14
ATOM     14  C   LIG d   1       9.269  -1.147  -5.293  0.00  0.00     0.079 C 
ATOM     15  H   LIG d   1       8.582  -0.906  -4.481  0.00  0.00     0.066 H 
ATOM     16  H   LIG d   1       8.755  -1.040  -6.247  0.00  0.00     0.066 H 
ATOM     17  H   LIG d   1       9.619  -2.173  -5.180  0.00  0.00     0.066 H 
ENDBRANCH  13  14
ENDBRANCH   7  13
ENDBRANCH   1   3
BRANCH   1  18
ATOM     18  C   LIG d   1       9.734   5.629  -3.109  0.00  0.00    -0.036 A 
ATOM     19  C   LIG d   1       9.379   6.868  -2.609  0.00  0.00    -0.054 A 
ATOM     20  C   LIG d   1       9.797   7.251  -1.350  0.00  0.00    -0.020 A 
ATOM     21  H   LIG d   1       8.770   7.534  -3.202  0.00  0.00     0.062 H 
ATOM     22  C   LIG d   1      10.585   6.397  -0.591  0.00  0.00     0.120 A 
ATOM     23  H   LIG d   1       9.515   8.218  -0.957  0.00  0.00     0.065 H 
ATOM     24  C   LIG d   1      10.944   5.157  -1.098  0.00  0.00    -0.020 A 
ATOM     25  C   LIG d   1      10.519   4.776  -2.355  0.00  0.00    -0.054 A 
ATOM     26  H   LIG d   1      11.557   4.489  -0.510  0.00  0.00     0.065 H 
ATOM     27  H   LIG d   1      10.799   3.810  -2.751  0.00  0.00     0.062 H 
BRANCH  22  28
ATOM     28  O   LIG d   1      11.001   6.774   0.646  0.00  0.00    -0.495 OA
BRANCH  28  29
ATOM     29  C   LIG d   1      11.026   5.764   1.657  0.00  0.00     0.079 C 
ATOM     30  H   LIG d   1      10.101   5.801   2.231  0.00  0.00     0.066 H 
ATOM     31  H   LIG d   1      11.126   4.784   1.190  0.00  0.00     0.066 H 
ATOM     32  H   LIG d   1      11.873   5.937   2.321  0.00  0.00     0.066 H 
ENDBRANCH  28  29
ENDBRANCH  22  28
ENDBRANCH   1  18
BRANCH   1  33
ATOM     33  C   LIG d   1      10.006   6.035  -5.541  0.00  0.00     0.201 C 
ATOM     34 CL   LIG d   1       9.938   5.176  -7.125  0.00  0.00    -0.082 Cl
ATOM     35 CL   LIG d   1       9.217   7.649  -5.699  0.00  0.00    -0.082 Cl
ATOM     36 CL   LIG d   1      11.726   6.252  -5.048  0.00  0.00    -0.082 Cl
ENDBRANCH   1  33
TORSDOF 7
ENDMDL
