MODEL 1
REMARK VINA RESULT:      -6.5      0.000      0.000
REMARK  6 active torsions:
REMARK  status: ('A' for Active; 'I' for Inactive)
REMARK    1  A    between atoms: C_1  and  C_2 
REMARK    2  A    between atoms: C_2  and  C_3 
REMARK    3  A    between atoms: C_3  and  O_5 
REMARK    4  A    between atoms: O_5  and  C_6 
REMARK    5  A    between atoms: C_12  and  C_29 
REMARK    6  A    between atoms: C_27  and  C_28 
ROOT
ATOM      1  C   LIG d   1       4.982  -2.010  -4.397  0.00  0.00     0.109 C 
ATOM      2  H   LIG d   1       5.671  -1.417  -3.800  0.00  0.00     0.074 H 
ATOM      3  C   LIG d   1       5.590  -3.401  -4.713  0.00  0.00    -0.015 C 
ATOM      4  C   LIG d   1       5.579  -3.539  -6.264  0.00  0.00    -0.046 C 
ATOM      5  C   LIG d   1       4.451  -2.574  -6.650  0.00  0.00    -0.029 C 
ATOM      6  H   LIG d   1       3.495  -3.021  -6.287  0.00  0.00     0.031 H 
ATOM      7  C   LIG d   1       4.782  -1.352  -5.772  0.00  0.00     0.008 C 
ATOM      8  C   LIG d   1       3.655  -0.351  -5.873  0.00  0.00    -0.044 C 
ATOM      9  C   LIG d   1       3.540   0.092  -7.346  0.00  0.00    -0.049 C 
ATOM     10  C   LIG d   1       3.281  -1.093  -8.255  0.00  0.00    -0.029 C 
ATOM     11  H   LIG d   1       2.316  -1.517  -7.898  0.00  0.00     0.031 H 
ATOM     12  C   LIG d   1       4.285  -2.228  -8.106  0.00  0.00    -0.034 C 
ATOM     13  H   LIG d   1       3.793  -3.121  -8.583  0.00  0.00     0.031 H 
ATOM     14  C   LIG d   1       5.598  -2.060  -8.837  0.00  0.00    -0.046 C 
ATOM     15  C   LIG d   1       5.601  -0.846  -9.764  0.00  0.00    -0.030 C 
ATOM     16  C   LIG d   1       4.290  -0.853 -10.510  0.00  0.00    -0.060 C 
ATOM     17  C   LIG d   1       4.251  -1.012 -11.826  0.00  0.00    -0.019 C 
ATOM     18  C   LIG d   1       2.979  -1.181 -12.525  0.00  0.00     0.156 C 
ATOM     19  O   LIG d   1       2.964  -1.239 -13.738  0.00  0.00    -0.293 OA
ATOM     20  C   LIG d   1       1.689  -1.296 -11.755  0.00  0.00     0.011 C 
ATOM     21  C   LIG d   1       1.966  -1.659 -10.297  0.00  0.00    -0.037 C 
ATOM     22  C   LIG d   1       3.022  -0.716  -9.705  0.00  0.00    -0.007 C 
ATOM     23  H   LIG d   1       6.610  -3.459  -4.341  0.00  0.00     0.030 H 
ATOM     24  H   LIG d   1       4.979  -4.186  -4.268  0.00  0.00     0.030 H 
ATOM     25  H   LIG d   1       6.532  -3.252  -6.693  0.00  0.00     0.027 H 
ATOM     26  H   LIG d   1       5.320  -4.560  -6.550  0.00  0.00     0.027 H 
ATOM     27  H   LIG d   1       3.866   0.516  -5.246  0.00  0.00     0.027 H 
ATOM     28  H   LIG d   1       2.716  -0.810  -5.559  0.00  0.00     0.027 H 
ATOM     29  H   LIG d   1       4.429   0.629  -7.652  0.00  0.00     0.027 H 
ATOM     30  H   LIG d   1       2.687   0.784  -7.377  0.00  0.00     0.027 H 
ATOM     31  H   LIG d   1       5.737  -2.949  -9.480  0.00  0.00     0.027 H 
ATOM     32  H   LIG d   1       6.446  -2.028  -8.176  0.00  0.00     0.027 H 
ATOM     33  H   LIG d   1       6.426  -0.930 -10.469  0.00  0.00     0.031 H 
ATOM     34  H   LIG d   1       5.694   0.064  -9.181  0.00  0.00     0.031 H 
ATOM     35  H   LIG d   1       5.173  -1.060 -12.386  0.00  0.00     0.065 H 
ATOM     36  H   LIG d   1       1.200  -0.425 -11.789  0.00  0.00     0.035 H 
ATOM     37  H   LIG d   1       1.080  -2.090 -12.208  0.00  0.00     0.035 H 
ATOM     38  H   LIG d   1       2.332  -2.686 -10.237  0.00  0.00     0.028 H 
ATOM     39  H   LIG d   1       1.046  -1.574  -9.718  0.00  0.00     0.028 H 
ENDROOT
BRANCH   1  40
ATOM     40  O   LIG d   1       3.706  -2.155  -3.724  0.00  0.00    -0.461 OA
BRANCH  40  41
ATOM     41  C   LIG d   1       3.404  -1.245  -2.786  0.00  0.00     0.307 C 
ATOM     42  O   LIG d   1       2.295  -0.767  -2.743  0.00  0.00    -0.251 OA
BRANCH  41  43
ATOM     43  C   LIG d   1       4.448  -0.818  -1.786  0.00  0.00     0.042 C 
ATOM     44  H   LIG d   1       4.172  -1.181  -0.796  0.00  0.00     0.037 H 
ATOM     45  H   LIG d   1       5.415  -1.234  -2.071  0.00  0.00     0.037 H 
BRANCH  43  46
ATOM     46  C   LIG d   1       4.537   0.709  -1.763  0.00  0.00    -0.055 C 
ATOM     47  H   LIG d   1       4.135   1.111  -2.694  0.00  0.00     0.024 H 
ATOM     48  H   LIG d   1       3.958   1.094  -0.923  0.00  0.00     0.024 H 
ATOM     49  H   LIG d   1       5.578   1.011  -1.656  0.00  0.00     0.024 H 
ENDBRANCH  43  46
ENDBRANCH  41  43
ENDBRANCH  40  41
ENDBRANCH   1  40
BRANCH   7  50
ATOM     50  C   LIG d   1       6.101  -0.674  -6.139  0.00  0.00    -0.056 C 
ATOM     51  H   LIG d   1       5.964   0.407  -6.143  0.00  0.00     0.024 H 
ATOM     52  H   LIG d   1       6.863  -0.941  -5.406  0.00  0.00     0.024 H 
ATOM     53  H   LIG d   1       6.416  -1.004  -7.128  0.00  0.00     0.024 H 
ENDBRANCH   7  50
BRANCH  22  54
ATOM     54  C   LIG d   1       2.518   0.725  -9.817  0.00  0.00    -0.056 C 
ATOM     55  H   LIG d   1       2.853   1.154 -10.761  0.00  0.00     0.024 H 
ATOM     56  H   LIG d   1       1.429   0.733  -9.781  0.00  0.00     0.024 H 
ATOM     57  H   LIG d   1       2.915   1.313  -8.990  0.00  0.00     0.024 H 
ENDBRANCH  22  54
TORSDOF 6
ENDMDL
MODEL 2
REMARK VINA RESULT:      -6.1      4.031      7.059
REMARK  6 active torsions:
REMARK  status: ('A' for Active; 'I' for Inactive)
REMARK    1  A    between atoms: C_1  and  C_2 
REMARK    2  A    between atoms: C_2  and  C_3 
REMARK    3  A    between atoms: C_3  and  O_5 
REMARK    4  A    between atoms: O_5  and  C_6 
REMARK    5  A    between atoms: C_12  and  C_29 
REMARK    6  A    between atoms: C_27  and  C_28 
ROOT
ATOM      1  C   LIG d   1       6.448  -6.369  -6.443  0.00  0.00     0.109 C 
ATOM      2  H   LIG d   1       7.067  -6.484  -7.329  0.00  0.00     0.074 H 
ATOM      3  C   LIG d   1       4.971  -6.721  -6.758  0.00  0.00    -0.015 C 
ATOM      4  C   LIG d   1       4.131  -5.471  -6.363  0.00  0.00    -0.046 C 
ATOM      5  C   LIG d   1       5.041  -4.806  -5.322  0.00  0.00    -0.029 C 
ATOM      6  H   LIG d   1       5.058  -5.471  -4.425  0.00  0.00     0.031 H 
ATOM      7  C   LIG d   1       6.413  -4.891  -6.019  0.00  0.00     0.008 C 
ATOM      8  C   LIG d   1       7.486  -4.451  -5.050  0.00  0.00    -0.044 C 
ATOM      9  C   LIG d   1       7.202  -2.987  -4.656  0.00  0.00    -0.049 C 
ATOM     10  C   LIG d   1       5.830  -2.848  -4.026  0.00  0.00    -0.029 C 
ATOM     11  H   LIG d   1       5.866  -3.497  -3.122  0.00  0.00     0.031 H 
ATOM     12  C   LIG d   1       4.694  -3.413  -4.867  0.00  0.00    -0.034 C 
ATOM     13  H   LIG d   1       3.828  -3.525  -4.156  0.00  0.00     0.031 H 
ATOM     14  C   LIG d   1       4.181  -2.528  -5.981  0.00  0.00    -0.046 C 
ATOM     15  C   LIG d   1       4.781  -1.124  -5.936  0.00  0.00    -0.030 C 
ATOM     16  C   LIG d   1       4.739  -0.669  -4.498  0.00  0.00    -0.060 C 
ATOM     17  C   LIG d   1       3.997   0.367  -4.128  0.00  0.00    -0.019 C 
ATOM     18  C   LIG d   1       3.830   0.704  -2.716  0.00  0.00     0.156 C 
ATOM     19  O   LIG d   1       3.217   1.706  -2.408  0.00  0.00    -0.293 OA
ATOM     20  C   LIG d   1       4.399  -0.184  -1.641  0.00  0.00     0.011 C 
ATOM     21  C   LIG d   1       4.706  -1.572  -2.201  0.00  0.00    -0.037 C 
ATOM     22  C   LIG d   1       5.534  -1.457  -3.487  0.00  0.00    -0.007 C 
ATOM     23  H   LIG d   1       4.852  -6.930  -7.819  0.00  0.00     0.030 H 
ATOM     24  H   LIG d   1       4.658  -7.580  -6.165  0.00  0.00     0.030 H 
ATOM     25  H   LIG d   1       3.947  -4.832  -7.218  0.00  0.00     0.027 H 
ATOM     26  H   LIG d   1       3.190  -5.779  -5.903  0.00  0.00     0.027 H 
ATOM     27  H   LIG d   1       8.466  -4.517  -5.523  0.00  0.00     0.027 H 
ATOM     28  H   LIG d   1       7.466  -5.077  -4.157  0.00  0.00     0.027 H 
ATOM     29  H   LIG d   1       7.303  -2.334  -5.513  0.00  0.00     0.027 H 
ATOM     30  H   LIG d   1       7.979  -2.726  -3.924  0.00  0.00     0.027 H 
ATOM     31  H   LIG d   1       3.091  -2.411  -5.839  0.00  0.00     0.027 H 
ATOM     32  H   LIG d   1       4.315  -2.961  -6.957  0.00  0.00     0.027 H 
ATOM     33  H   LIG d   1       4.183  -0.455  -6.551  0.00  0.00     0.031 H 
ATOM     34  H   LIG d   1       5.806  -1.147  -6.290  0.00  0.00     0.031 H 
ATOM     35  H   LIG d   1       3.474   0.944  -4.876  0.00  0.00     0.065 H 
ATOM     36  H   LIG d   1       5.241   0.220  -1.285  0.00  0.00     0.035 H 
ATOM     37  H   LIG d   1       3.657  -0.283  -0.838  0.00  0.00     0.035 H 
ATOM     38  H   LIG d   1       3.773  -2.094  -2.423  0.00  0.00     0.028 H 
ATOM     39  H   LIG d   1       5.270  -2.147  -1.464  0.00  0.00     0.028 H 
ENDROOT
BRANCH   1  40
ATOM     40  O   LIG d   1       6.943  -7.187  -5.354  0.00  0.00    -0.461 OA
BRANCH  40  41
ATOM     41  C   LIG d   1       6.794  -8.516  -5.473  0.00  0.00     0.307 C 
ATOM     42  O   LIG d   1       7.153  -9.075  -6.482  0.00  0.00    -0.251 OA
BRANCH  41  43
ATOM     43  C   LIG d   1       6.179  -9.309  -4.349  0.00  0.00     0.042 C 
ATOM     44  H   LIG d   1       6.566 -10.327  -4.368  0.00  0.00     0.037 H 
ATOM     45  H   LIG d   1       6.430  -8.842  -3.395  0.00  0.00     0.037 H 
BRANCH  43  46
ATOM     46  C   LIG d   1       4.659  -9.337  -4.517  0.00  0.00    -0.055 C 
ATOM     47  H   LIG d   1       4.400  -9.953  -5.379  0.00  0.00     0.024 H 
ATOM     48  H   LIG d   1       4.202  -9.757  -3.621  0.00  0.00     0.024 H 
ATOM     49  H   LIG d   1       4.291  -8.323  -4.671  0.00  0.00     0.024 H 
ENDBRANCH  43  46
ENDBRANCH  41  43
ENDBRANCH  40  41
ENDBRANCH   1  40
BRANCH   7  50
ATOM     50  C   LIG d   1       6.503  -4.057  -7.296  0.00  0.00    -0.056 C 
ATOM     51  H   LIG d   1       5.520  -4.002  -7.763  0.00  0.00     0.024 H 
ATOM     52  H   LIG d   1       6.844  -3.051  -7.049  0.00  0.00     0.024 H 
ATOM     53  H   LIG d   1       7.208  -4.522  -7.984  0.00  0.00     0.024 H 
ENDBRANCH   7  50
BRANCH  22  54
ATOM     54  C   LIG d   1       6.828  -0.701  -3.179  0.00  0.00    -0.056 C 
ATOM     55  H   LIG d   1       6.809  -0.354  -2.145  0.00  0.00     0.024 H 
ATOM     56  H   LIG d   1       7.681  -1.365  -3.323  0.00  0.00     0.024 H 
ATOM     57  H   LIG d   1       6.917   0.156  -3.847  0.00  0.00     0.024 H 
ENDBRANCH  22  54
TORSDOF 6
ENDMDL
MODEL 3
REMARK VINA RESULT:      -5.9      1.694      2.044
REMARK  6 active torsions:
REMARK  status: ('A' for Active; 'I' for Inactive)
REMARK    1  A    between atoms: C_1  and  C_2 
REMARK    2  A    between atoms: C_2  and  C_3 
REMARK    3  A    between atoms: C_3  and  O_5 
REMARK    4  A    between atoms: O_5  and  C_6 
REMARK    5  A    between atoms: C_12  and  C_29 
REMARK    6  A    between atoms: C_27  and  C_28 
ROOT
ATOM      1  C   LIG d   1       6.023  -0.595  -4.930  0.00  0.00     0.109 C 
ATOM      2  H   LIG d   1       7.097  -0.538  -4.774  0.00  0.00     0.074 H 
ATOM      3  C   LIG d   1       5.450  -1.897  -4.313  0.00  0.00    -0.015 C 
ATOM      4  C   LIG d   1       4.713  -2.640  -5.465  0.00  0.00    -0.046 C 
ATOM      5  C   LIG d   1       4.384  -1.480  -6.416  0.00  0.00    -0.029 C 
ATOM      6  H   LIG d   1       3.618  -0.846  -5.909  0.00  0.00     0.031 H 
ATOM      7  C   LIG d   1       5.720  -0.713  -6.433  0.00  0.00     0.008 C 
ATOM      8  C   LIG d   1       5.531   0.588  -7.177  0.00  0.00    -0.044 C 
ATOM      9  C   LIG d   1       5.113   0.255  -8.624  0.00  0.00    -0.049 C 
ATOM     10  C   LIG d   1       3.836  -0.561  -8.649  0.00  0.00    -0.029 C 
ATOM     11  H   LIG d   1       3.074   0.090  -8.162  0.00  0.00     0.031 H 
ATOM     12  C   LIG d   1       3.878  -1.819  -7.793  0.00  0.00    -0.034 C 
ATOM     13  H   LIG d   1       2.802  -2.123  -7.662  0.00  0.00     0.031 H 
ATOM     14  C   LIG d   1       4.560  -3.022  -8.405  0.00  0.00    -0.046 C 
ATOM     15  C   LIG d   1       4.920  -2.807  -9.873  0.00  0.00    -0.030 C 
ATOM     16  C   LIG d   1       3.723  -2.170 -10.535  0.00  0.00    -0.060 C 
ATOM     17  C   LIG d   1       3.052  -2.800 -11.491  0.00  0.00    -0.019 C 
ATOM     18  C   LIG d   1       1.802  -2.254 -12.015  0.00  0.00     0.156 C 
ATOM     19  O   LIG d   1       1.252  -2.805 -12.948  0.00  0.00    -0.293 OA
ATOM     20  C   LIG d   1       1.183  -1.024 -11.403  0.00  0.00     0.011 C 
ATOM     21  C   LIG d   1       1.754  -0.777 -10.008  0.00  0.00    -0.037 C 
ATOM     22  C   LIG d   1       3.288  -0.811 -10.045  0.00  0.00    -0.007 C 
ATOM     23  H   LIG d   1       6.255  -2.517  -3.925  0.00  0.00     0.030 H 
ATOM     24  H   LIG d   1       4.744  -1.654  -3.518  0.00  0.00     0.030 H 
ATOM     25  H   LIG d   1       5.351  -3.383  -5.928  0.00  0.00     0.027 H 
ATOM     26  H   LIG d   1       3.795  -3.098  -5.093  0.00  0.00     0.027 H 
ATOM     27  H   LIG d   1       6.464   1.152  -7.188  0.00  0.00     0.027 H 
ATOM     28  H   LIG d   1       4.749   1.183  -6.702  0.00  0.00     0.027 H 
ATOM     29  H   LIG d   1       5.912  -0.259  -9.143  0.00  0.00     0.027 H 
ATOM     30  H   LIG d   1       4.949   1.226  -9.112  0.00  0.00     0.027 H 
ATOM     31  H   LIG d   1       3.842  -3.862  -8.375  0.00  0.00     0.027 H 
ATOM     32  H   LIG d   1       5.425  -3.342  -7.851  0.00  0.00     0.027 H 
ATOM     33  H   LIG d   1       5.130  -3.767 -10.340  0.00  0.00     0.031 H 
ATOM     34  H   LIG d   1       5.781  -2.153  -9.952  0.00  0.00     0.031 H 
ATOM     35  H   LIG d   1       3.410  -3.750 -11.857  0.00  0.00     0.065 H 
ATOM     36  H   LIG d   1       1.373  -0.232 -11.981  0.00  0.00     0.035 H 
ATOM     37  H   LIG d   1       0.100  -1.181 -11.319  0.00  0.00     0.035 H 
ATOM     38  H   LIG d   1       1.397  -1.547  -9.321  0.00  0.00     0.028 H 
ATOM     39  H   LIG d   1       1.429   0.201  -9.647  0.00  0.00     0.028 H 
ENDROOT
BRANCH   1  40
ATOM     40  O   LIG d   1       5.356   0.566  -4.377  0.00  0.00    -0.461 OA
BRANCH  40  41
ATOM     41  C   LIG d   1       5.791   1.011  -3.187  0.00  0.00     0.307 C 
ATOM     42  O   LIG d   1       6.916   1.438  -3.079  0.00  0.00    -0.251 OA
BRANCH  41  43
ATOM     43  C   LIG d   1       4.878   0.976  -1.989  0.00  0.00     0.042 C 
ATOM     44  H   LIG d   1       5.203   0.191  -1.308  0.00  0.00     0.037 H 
ATOM     45  H   LIG d   1       4.913   1.939  -1.478  0.00  0.00     0.037 H 
BRANCH  43  46
ATOM     46  C   LIG d   1       3.446   0.695  -2.448  0.00  0.00    -0.055 C 
ATOM     47  H   LIG d   1       2.838   1.589  -2.310  0.00  0.00     0.024 H 
ATOM     48  H   LIG d   1       3.450   0.419  -3.503  0.00  0.00     0.024 H 
ATOM     49  H   LIG d   1       3.029  -0.122  -1.860  0.00  0.00     0.024 H 
ENDBRANCH  43  46
ENDBRANCH  41  43
ENDBRANCH  40  41
ENDBRANCH   1  40
BRANCH   7  50
ATOM     50  C   LIG d   1       6.869  -1.499  -7.061  0.00  0.00    -0.056 C 
ATOM     51  H   LIG d   1       6.471  -2.193  -7.802  0.00  0.00     0.024 H 
ATOM     52  H   LIG d   1       7.560  -0.808  -7.545  0.00  0.00     0.024 H 
ATOM     53  H   LIG d   1       7.394  -2.056  -6.287  0.00  0.00     0.024 H 
ENDBRANCH   7  50
BRANCH  22  54
ATOM     54  C   LIG d   1       3.785   0.251 -11.029  0.00  0.00    -0.056 C 
ATOM     55  H   LIG d   1       3.606   1.243 -10.613  0.00  0.00     0.024 H 
ATOM     56  H   LIG d   1       4.853   0.116 -11.201  0.00  0.00     0.024 H 
ATOM     57  H   LIG d   1       3.249   0.151 -11.972  0.00  0.00     0.024 H 
ENDBRANCH  22  54
TORSDOF 6
ENDMDL
MODEL 4
REMARK VINA RESULT:      -5.9      1.501      7.217
REMARK  6 active torsions:
REMARK  status: ('A' for Active; 'I' for Inactive)
REMARK    1  A    between atoms: C_1  and  C_2 
REMARK    2  A    between atoms: C_2  and  C_3 
REMARK    3  A    between atoms: C_3  and  O_5 
REMARK    4  A    between atoms: O_5  and  C_6 
REMARK    5  A    between atoms: C_12  and  C_29 
REMARK    6  A    between atoms: C_27  and  C_28 
ROOT
ATOM      1  C   LIG d   1       4.151   0.595 -11.259  0.00  0.00     0.109 C 
ATOM      2  H   LIG d   1       4.140   1.608 -11.653  0.00  0.00     0.074 H 
ATOM      3  C   LIG d   1       2.775  -0.089 -11.471  0.00  0.00    -0.015 C 
ATOM      4  C   LIG d   1       2.293  -0.547 -10.063  0.00  0.00    -0.046 C 
ATOM      5  C   LIG d   1       3.624  -0.669  -9.309  0.00  0.00    -0.029 C 
ATOM      6  H   LIG d   1       4.175  -1.534  -9.750  0.00  0.00     0.031 H 
ATOM      7  C   LIG d   1       4.334   0.631  -9.732  0.00  0.00     0.008 C 
ATOM      8  C   LIG d   1       5.760   0.598  -9.233  0.00  0.00    -0.044 C 
ATOM      9  C   LIG d   1       5.725   0.512  -7.693  0.00  0.00    -0.049 C 
ATOM     10  C   LIG d   1       4.973  -0.721  -7.232  0.00  0.00    -0.029 C 
ATOM     11  H   LIG d   1       5.544  -1.576  -7.659  0.00  0.00     0.031 H 
ATOM     12  C   LIG d   1       3.573  -0.857  -7.815  0.00  0.00    -0.034 C 
ATOM     13  H   LIG d   1       3.286  -1.932  -7.647  0.00  0.00     0.031 H 
ATOM     14  C   LIG d   1       2.487  -0.046  -7.144  0.00  0.00    -0.046 C 
ATOM     15  C   LIG d   1       2.968   0.626  -5.860  0.00  0.00    -0.030 C 
ATOM     16  C   LIG d   1       3.761  -0.401  -5.091  0.00  0.00    -0.060 C 
ATOM     17  C   LIG d   1       3.349  -0.840  -3.908  0.00  0.00    -0.019 C 
ATOM     18  C   LIG d   1       4.027  -1.948  -3.241  0.00  0.00     0.156 C 
ATOM     19  O   LIG d   1       3.685  -2.275  -2.122  0.00  0.00    -0.293 OA
ATOM     20  C   LIG d   1       5.137  -2.698  -3.931  0.00  0.00     0.011 C 
ATOM     21  C   LIG d   1       5.093  -2.450  -5.438  0.00  0.00    -0.037 C 
ATOM     22  C   LIG d   1       5.014  -0.945  -5.729  0.00  0.00    -0.007 C 
ATOM     23  H   LIG d   1       2.066   0.617 -11.897  0.00  0.00     0.030 H 
ATOM     24  H   LIG d   1       2.886  -0.954 -12.124  0.00  0.00     0.030 H 
ATOM     25  H   LIG d   1       1.631   0.184  -9.615  0.00  0.00     0.027 H 
ATOM     26  H   LIG d   1       1.803  -1.520 -10.131  0.00  0.00     0.027 H 
ATOM     27  H   LIG d   1       6.283   1.506  -9.535  0.00  0.00     0.027 H 
ATOM     28  H   LIG d   1       6.278  -0.274  -9.633  0.00  0.00     0.027 H 
ATOM     29  H   LIG d   1       5.292   1.410  -7.270  0.00  0.00     0.027 H 
ATOM     30  H   LIG d   1       6.776   0.450  -7.380  0.00  0.00     0.027 H 
ATOM     31  H   LIG d   1       1.682  -0.745  -6.853  0.00  0.00     0.027 H 
ATOM     32  H   LIG d   1       2.038   0.679  -7.800  0.00  0.00     0.027 H 
ATOM     33  H   LIG d   1       2.108   0.943  -5.273  0.00  0.00     0.031 H 
ATOM     34  H   LIG d   1       3.595   1.478  -6.100  0.00  0.00     0.031 H 
ATOM     35  H   LIG d   1       2.475  -0.401  -3.450  0.00  0.00     0.065 H 
ATOM     36  H   LIG d   1       6.019  -2.392  -3.574  0.00  0.00     0.035 H 
ATOM     37  H   LIG d   1       5.004  -3.771  -3.745  0.00  0.00     0.035 H 
ATOM     38  H   LIG d   1       4.218  -2.942  -5.867  0.00  0.00     0.028 H 
ATOM     39  H   LIG d   1       5.994  -2.856  -5.902  0.00  0.00     0.028 H 
ENDROOT
BRANCH   1  40
ATOM     40  O   LIG d   1       5.206  -0.188 -11.869  0.00  0.00    -0.461 OA
BRANCH  40  41
ATOM     41  C   LIG d   1       4.870  -0.950 -12.921  0.00  0.00     0.307 C 
ATOM     42  O   LIG d   1       4.636  -0.435 -13.989  0.00  0.00    -0.251 OA
BRANCH  41  43
ATOM     43  C   LIG d   1       4.784  -2.447 -12.772  0.00  0.00     0.042 C 
ATOM     44  H   LIG d   1       3.742  -2.741 -12.652  0.00  0.00     0.037 H 
ATOM     45  H   LIG d   1       5.197  -2.925 -13.660  0.00  0.00     0.037 H 
BRANCH  43  46
ATOM     46  C   LIG d   1       5.582  -2.883 -11.541  0.00  0.00    -0.055 C 
ATOM     47  H   LIG d   1       6.628  -3.024 -11.818  0.00  0.00     0.024 H 
ATOM     48  H   LIG d   1       5.511  -2.115 -10.771  0.00  0.00     0.024 H 
ATOM     49  H   LIG d   1       5.178  -3.820 -11.158  0.00  0.00     0.024 H 
ENDBRANCH  43  46
ENDBRANCH  41  43
ENDBRANCH  40  41
ENDBRANCH   1  40
BRANCH   7  50
ATOM     50  C   LIG d   1       3.644   1.897  -9.228  0.00  0.00    -0.056 C 
ATOM     51  H   LIG d   1       2.877   1.628  -8.502  0.00  0.00     0.024 H 
ATOM     52  H   LIG d   1       4.380   2.547  -8.754  0.00  0.00     0.024 H 
ATOM     53  H   LIG d   1       3.185   2.418 -10.067  0.00  0.00     0.024 H 
ENDBRANCH   7  50
BRANCH  22  54
ATOM     54  C   LIG d   1       6.227  -0.254  -5.103  0.00  0.00    -0.056 C 
ATOM     55  H   LIG d   1       6.956  -0.024  -5.881  0.00  0.00     0.024 H 
ATOM     56  H   LIG d   1       5.910   0.670  -4.619  0.00  0.00     0.024 H 
ATOM     57  H   LIG d   1       6.681  -0.915  -4.365  0.00  0.00     0.024 H 
ENDBRANCH  22  54
TORSDOF 6
ENDMDL
MODEL 5
REMARK VINA RESULT:      -5.7      9.537     11.879
REMARK  6 active torsions:
REMARK  status: ('A' for Active; 'I' for Inactive)
REMARK    1  A    between atoms: C_1  and  C_2 
REMARK    2  A    between atoms: C_2  and  C_3 
REMARK    3  A    between atoms: C_3  and  O_5 
REMARK    4  A    between atoms: O_5  and  C_6 
REMARK    5  A    between atoms: C_12  and  C_29 
REMARK    6  A    between atoms: C_27  and  C_28 
ROOT
ATOM      1  C   LIG d   1      10.676 -10.289  -0.012  0.00  0.00     0.109 C 
ATOM      2  H   LIG d   1      11.710 -10.177  -0.328  0.00  0.00     0.074 H 
ATOM      3  C   LIG d   1      10.445 -11.686   0.621  0.00  0.00    -0.015 C 
ATOM      4  C   LIG d   1       9.289 -12.346  -0.187  0.00  0.00    -0.046 C 
ATOM      5  C   LIG d   1       8.564 -11.114  -0.746  0.00  0.00    -0.029 C 
ATOM      6  H   LIG d   1       8.087 -10.592   0.117  0.00  0.00     0.031 H 
ATOM      7  C   LIG d   1       9.749 -10.262  -1.239  0.00  0.00     0.008 C 
ATOM      8  C   LIG d   1       9.238  -8.902  -1.656  0.00  0.00    -0.044 C 
ATOM      9  C   LIG d   1       8.236  -9.103  -2.812  0.00  0.00    -0.049 C 
ATOM     10  C   LIG d   1       7.086  -9.995  -2.388  0.00  0.00    -0.029 C 
ATOM     11  H   LIG d   1       6.605  -9.454  -1.542  0.00  0.00     0.031 H 
ATOM     12  C   LIG d   1       7.513 -11.333  -1.802  0.00  0.00    -0.034 C 
ATOM     13  H   LIG d   1       6.606 -11.722  -1.261  0.00  0.00     0.031 H 
ATOM     14  C   LIG d   1       7.876 -12.414  -2.796  0.00  0.00    -0.046 C 
ATOM     15  C   LIG d   1       7.557 -12.016  -4.236  0.00  0.00    -0.030 C 
ATOM     16  C   LIG d   1       6.184 -11.391  -4.230  0.00  0.00    -0.060 C 
ATOM     17  C   LIG d   1       5.171 -11.957  -4.876  0.00  0.00    -0.019 C 
ATOM     18  C   LIG d   1       3.811 -11.442  -4.736  0.00  0.00     0.156 C 
ATOM     19  O   LIG d   1       2.917 -11.923  -5.403  0.00  0.00    -0.293 OA
ATOM     20  C   LIG d   1       3.506 -10.331  -3.765  0.00  0.00     0.011 C 
ATOM     21  C   LIG d   1       4.624 -10.200  -2.733  0.00  0.00    -0.037 C 
ATOM     22  C   LIG d   1       5.988 -10.127  -3.432  0.00  0.00    -0.007 C 
ATOM     23  H   LIG d   1      11.347 -12.289   0.541  0.00  0.00     0.030 H 
ATOM     24  H   LIG d   1      10.153 -11.579   1.665  0.00  0.00     0.030 H 
ATOM     25  H   LIG d   1       9.671 -12.990  -0.970  0.00  0.00     0.027 H 
ATOM     26  H   LIG d   1       8.631 -12.903   0.482  0.00  0.00     0.027 H 
ATOM     27  H   LIG d   1      10.067  -8.280  -1.996  0.00  0.00     0.027 H 
ATOM     28  H   LIG d   1       8.734  -8.417  -0.819  0.00  0.00     0.027 H 
ATOM     29  H   LIG d   1       8.736  -9.502  -3.685  0.00  0.00     0.027 H 
ATOM     30  H   LIG d   1       7.863  -8.098  -3.053  0.00  0.00     0.027 H 
ATOM     31  H   LIG d   1       7.254 -13.298  -2.568  0.00  0.00     0.027 H 
ATOM     32  H   LIG d   1       8.900 -12.733  -2.715  0.00  0.00     0.027 H 
ATOM     33  H   LIG d   1       7.556 -12.903  -4.865  0.00  0.00     0.031 H 
ATOM     34  H   LIG d   1       8.290 -11.301  -4.593  0.00  0.00     0.031 H 
ATOM     35  H   LIG d   1       5.346 -12.835  -5.479  0.00  0.00     0.065 H 
ATOM     36  H   LIG d   1       3.415  -9.469  -4.263  0.00  0.00     0.035 H 
ATOM     37  H   LIG d   1       2.569 -10.569  -3.244  0.00  0.00     0.035 H 
ATOM     38  H   LIG d   1       4.611 -11.063  -2.065  0.00  0.00     0.028 H 
ATOM     39  H   LIG d   1       4.475  -9.292  -2.146  0.00  0.00     0.028 H 
ENDROOT
BRANCH   1  40
ATOM     40  O   LIG d   1      10.301  -9.243   0.918  0.00  0.00    -0.461 OA
BRANCH  40  41
ATOM     41  C   LIG d   1      11.292  -8.488   1.418  0.00  0.00     0.307 C 
ATOM     42  O   LIG d   1      12.079  -7.955   0.673  0.00  0.00    -0.251 OA
BRANCH  41  43
ATOM     43  C   LIG d   1      11.421  -8.305   2.908  0.00  0.00     0.042 C 
ATOM     44  H   LIG d   1      12.177  -7.548   3.117  0.00  0.00     0.037 H 
ATOM     45  H   LIG d   1      10.463  -7.985   3.320  0.00  0.00     0.037 H 
BRANCH  43  46
ATOM     46  C   LIG d   1      11.835  -9.630   3.551  0.00  0.00    -0.055 C 
ATOM     47  H   LIG d   1      11.378  -9.713   4.538  0.00  0.00     0.024 H 
ATOM     48  H   LIG d   1      11.499 -10.457   2.925  0.00  0.00     0.024 H 
ATOM     49  H   LIG d   1      12.920  -9.665   3.647  0.00  0.00     0.024 H 
ENDBRANCH  43  46
ENDBRANCH  41  43
ENDBRANCH  40  41
ENDBRANCH   1  40
BRANCH   7  50
ATOM     50  C   LIG d   1      10.520 -10.896  -2.396  0.00  0.00    -0.056 C 
ATOM     51  H   LIG d   1       9.824 -11.419  -3.051  0.00  0.00     0.024 H 
ATOM     52  H   LIG d   1      11.033 -10.117  -2.960  0.00  0.00     0.024 H 
ATOM     53  H   LIG d   1      11.250 -11.601  -2.002  0.00  0.00     0.024 H 
ENDBRANCH   7  50
BRANCH  22  54
ATOM     54  C   LIG d   1       5.993  -8.933  -4.389  0.00  0.00    -0.056 C 
ATOM     55  H   LIG d   1       6.160  -9.284  -5.408  0.00  0.00     0.024 H 
ATOM     56  H   LIG d   1       5.032  -8.421  -4.336  0.00  0.00     0.024 H 
ATOM     57  H   LIG d   1       6.789  -8.245  -4.107  0.00  0.00     0.024 H 
ENDBRANCH  22  54
TORSDOF 6
ENDMDL
MODEL 6
REMARK VINA RESULT:      -5.7      3.835      6.654
REMARK  6 active torsions:
REMARK  status: ('A' for Active; 'I' for Inactive)
REMARK    1  A    between atoms: C_1  and  C_2 
REMARK    2  A    between atoms: C_2  and  C_3 
REMARK    3  A    between atoms: C_3  and  O_5 
REMARK    4  A    between atoms: O_5  and  C_6 
REMARK    5  A    between atoms: C_12  and  C_29 
REMARK    6  A    between atoms: C_27  and  C_28 
ROOT
ATOM      1  C   LIG d   1       9.198  -5.659  -4.940  0.00  0.00     0.109 C 
ATOM      2  H   LIG d   1      10.195  -5.515  -5.346  0.00  0.00     0.074 H 
ATOM      3  C   LIG d   1       8.340  -6.530  -5.894  0.00  0.00    -0.015 C 
ATOM      4  C   LIG d   1       7.068  -5.693  -6.223  0.00  0.00    -0.046 C 
ATOM      5  C   LIG d   1       6.992  -4.761  -5.007  0.00  0.00    -0.029 C 
ATOM      6  H   LIG d   1       6.734  -5.392  -4.123  0.00  0.00     0.031 H 
ATOM      7  C   LIG d   1       8.460  -4.312  -4.875  0.00  0.00     0.008 C 
ATOM      8  C   LIG d   1       8.622  -3.525  -3.596  0.00  0.00    -0.044 C 
ATOM      9  C   LIG d   1       7.712  -2.283  -3.680  0.00  0.00    -0.049 C 
ATOM     10  C   LIG d   1       6.262  -2.680  -3.879  0.00  0.00    -0.029 C 
ATOM     11  H   LIG d   1       6.010  -3.289  -2.982  0.00  0.00     0.031 H 
ATOM     12  C   LIG d   1       6.023  -3.609  -5.061  0.00  0.00    -0.034 C 
ATOM     13  H   LIG d   1       5.003  -4.052  -4.886  0.00  0.00     0.031 H 
ATOM     14  C   LIG d   1       5.944  -2.954  -6.422  0.00  0.00    -0.046 C 
ATOM     15  C   LIG d   1       5.927  -1.429  -6.337  0.00  0.00    -0.030 C 
ATOM     16  C   LIG d   1       4.966  -1.056  -5.235  0.00  0.00    -0.060 C 
ATOM     17  C   LIG d   1       3.854  -0.380  -5.496  0.00  0.00    -0.019 C 
ATOM     18  C   LIG d   1       2.848  -0.162  -4.459  0.00  0.00     0.156 C 
ATOM     19  O   LIG d   1       1.880   0.532  -4.699  0.00  0.00    -0.293 OA
ATOM     20  C   LIG d   1       2.994  -0.798  -3.101  0.00  0.00     0.011 C 
ATOM     21  C   LIG d   1       3.986  -1.958  -3.157  0.00  0.00    -0.037 C 
ATOM     22  C   LIG d   1       5.289  -1.513  -3.835  0.00  0.00    -0.007 C 
ATOM     23  H   LIG d   1       8.891  -6.744  -6.807  0.00  0.00     0.030 H 
ATOM     24  H   LIG d   1       8.054  -7.457  -5.399  0.00  0.00     0.030 H 
ATOM     25  H   LIG d   1       7.183  -5.150  -7.153  0.00  0.00     0.027 H 
ATOM     26  H   LIG d   1       6.190  -6.341  -6.262  0.00  0.00     0.027 H 
ATOM     27  H   LIG d   1       9.659  -3.210  -3.479  0.00  0.00     0.027 H 
ATOM     28  H   LIG d   1       8.325  -4.134  -2.740  0.00  0.00     0.027 H 
ATOM     29  H   LIG d   1       8.044  -1.620  -4.469  0.00  0.00     0.027 H 
ATOM     30  H   LIG d   1       7.831  -1.767  -2.718  0.00  0.00     0.027 H 
ATOM     31  H   LIG d   1       4.985  -3.255  -6.881  0.00  0.00     0.027 H 
ATOM     32  H   LIG d   1       6.718  -3.282  -7.092  0.00  0.00     0.027 H 
ATOM     33  H   LIG d   1       5.581  -1.017  -7.283  0.00  0.00     0.031 H 
ATOM     34  H   LIG d   1       6.921  -1.060  -6.106  0.00  0.00     0.031 H 
ATOM     35  H   LIG d   1       3.668  -0.023  -6.498  0.00  0.00     0.065 H 
ATOM     36  H   LIG d   1       3.321  -0.117  -2.447  0.00  0.00     0.035 H 
ATOM     37  H   LIG d   1       2.015  -1.184  -2.788  0.00  0.00     0.035 H 
ATOM     38  H   LIG d   1       3.554  -2.785  -3.724  0.00  0.00     0.028 H 
ATOM     39  H   LIG d   1       4.209  -2.298  -2.144  0.00  0.00     0.028 H 
ENDROOT
BRANCH   1  40
ATOM     40  O   LIG d   1       9.256  -6.259  -3.622  0.00  0.00    -0.461 OA
BRANCH  40  41
ATOM     41  C   LIG d   1      10.470  -6.391  -3.064  0.00  0.00     0.307 C 
ATOM     42  O   LIG d   1      10.570  -6.762  -1.919  0.00  0.00    -0.251 OA
BRANCH  41  43
ATOM     43  C   LIG d   1      11.706  -6.075  -3.866  0.00  0.00     0.042 C 
ATOM     44  H   LIG d   1      12.467  -6.831  -3.673  0.00  0.00     0.037 H 
ATOM     45  H   LIG d   1      11.458  -6.072  -4.929  0.00  0.00     0.037 H 
BRANCH  43  46
ATOM     46  C   LIG d   1      12.238  -4.699  -3.463  0.00  0.00    -0.055 C 
ATOM     47  H   LIG d   1      12.280  -4.054  -4.342  0.00  0.00     0.024 H 
ATOM     48  H   LIG d   1      11.574  -4.256  -2.720  0.00  0.00     0.024 H 
ATOM     49  H   LIG d   1      13.237  -4.804  -3.041  0.00  0.00     0.024 H 
ENDBRANCH  43  46
ENDBRANCH  41  43
ENDBRANCH  40  41
ENDBRANCH   1  40
BRANCH   7  50
ATOM     50  C   LIG d   1       8.952  -3.475  -6.055  0.00  0.00    -0.056 C 
ATOM     51  H   LIG d   1       9.693  -4.044  -6.618  0.00  0.00     0.024 H 
ATOM     52  H   LIG d   1       8.111  -3.233  -6.705  0.00  0.00     0.024 H 
ATOM     53  H   LIG d   1       9.404  -2.556  -5.685  0.00  0.00     0.024 H 
ENDBRANCH   7  50
BRANCH  22  54
ATOM     54  C   LIG d   1       5.878  -0.335  -3.055  0.00  0.00    -0.056 C 
ATOM     55  H   LIG d   1       6.571  -0.709  -2.300  0.00  0.00     0.024 H 
ATOM     56  H   LIG d   1       6.409   0.326  -3.740  0.00  0.00     0.024 H 
ATOM     57  H   LIG d   1       5.074   0.216  -2.567  0.00  0.00     0.024 H 
ENDBRANCH  22  54
TORSDOF 6
ENDMDL
MODEL 7
REMARK VINA RESULT:      -5.6      3.829      5.730
REMARK  6 active torsions:
REMARK  status: ('A' for Active; 'I' for Inactive)
REMARK    1  A    between atoms: C_1  and  C_2 
REMARK    2  A    between atoms: C_2  and  C_3 
REMARK    3  A    between atoms: C_3  and  O_5 
REMARK    4  A    between atoms: O_5  and  C_6 
REMARK    5  A    between atoms: C_12  and  C_29 
REMARK    6  A    between atoms: C_27  and  C_28 
ROOT
ATOM      1  C   LIG d   1       5.799  -0.914  -4.545  0.00  0.00     0.109 C 
ATOM      2  H   LIG d   1       5.938  -0.025  -5.156  0.00  0.00     0.074 H 
ATOM      3  C   LIG d   1       7.005  -1.115  -3.592  0.00  0.00    -0.015 C 
ATOM      4  C   LIG d   1       7.558  -2.542  -3.881  0.00  0.00    -0.046 C 
ATOM      5  C   LIG d   1       6.319  -3.238  -4.461  0.00  0.00    -0.029 C 
ATOM      6  H   LIG d   1       5.583  -3.348  -3.630  0.00  0.00     0.031 H 
ATOM      7  C   LIG d   1       5.798  -2.166  -5.438  0.00  0.00     0.008 C 
ATOM      8  C   LIG d   1       4.453  -2.599  -5.973  0.00  0.00    -0.044 C 
ATOM      9  C   LIG d   1       4.646  -3.930  -6.729  0.00  0.00    -0.049 C 
ATOM     10  C   LIG d   1       5.224  -4.996  -5.819  0.00  0.00    -0.029 C 
ATOM     11  H   LIG d   1       4.471  -5.113  -5.007  0.00  0.00     0.031 H 
ATOM     12  C   LIG d   1       6.505  -4.586  -5.107  0.00  0.00    -0.034 C 
ATOM     13  H   LIG d   1       6.621  -5.321  -4.262  0.00  0.00     0.031 H 
ATOM     14  C   LIG d   1       7.782  -4.697  -5.909  0.00  0.00    -0.046 C 
ATOM     15  C   LIG d   1       7.571  -5.396  -7.251  0.00  0.00    -0.030 C 
ATOM     16  C   LIG d   1       6.706  -6.604  -6.991  0.00  0.00    -0.060 C 
ATOM     17  C   LIG d   1       7.167  -7.833  -7.189  0.00  0.00    -0.019 C 
ATOM     18  C   LIG d   1       6.389  -9.001  -6.785  0.00  0.00     0.156 C 
ATOM     19  O   LIG d   1       6.795 -10.114  -7.054  0.00  0.00    -0.293 OA
ATOM     20  C   LIG d   1       5.098  -8.839  -6.026  0.00  0.00     0.011 C 
ATOM     21  C   LIG d   1       5.013  -7.447  -5.404  0.00  0.00    -0.037 C 
ATOM     22  C   LIG d   1       5.314  -6.373  -6.458  0.00  0.00    -0.007 C 
ATOM     23  H   LIG d   1       7.772  -0.371  -3.792  0.00  0.00     0.030 H 
ATOM     24  H   LIG d   1       6.676  -1.049  -2.554  0.00  0.00     0.030 H 
ATOM     25  H   LIG d   1       8.381  -2.512  -4.584  0.00  0.00     0.027 H 
ATOM     26  H   LIG d   1       7.864  -3.024  -2.951  0.00  0.00     0.027 H 
ATOM     27  H   LIG d   1       4.062  -1.845  -6.657  0.00  0.00     0.027 H 
ATOM     28  H   LIG d   1       3.751  -2.748  -5.151  0.00  0.00     0.027 H 
ATOM     29  H   LIG d   1       5.270  -3.786  -7.602  0.00  0.00     0.027 H 
ATOM     30  H   LIG d   1       3.642  -4.225  -7.063  0.00  0.00     0.027 H 
ATOM     31  H   LIG d   1       8.484  -5.326  -5.332  0.00  0.00     0.027 H 
ATOM     32  H   LIG d   1       8.271  -3.750  -6.054  0.00  0.00     0.027 H 
ATOM     33  H   LIG d   1       8.532  -5.710  -7.651  0.00  0.00     0.031 H 
ATOM     34  H   LIG d   1       7.075  -4.724  -7.944  0.00  0.00     0.031 H 
ATOM     35  H   LIG d   1       8.149  -7.972  -7.616  0.00  0.00     0.065 H 
ATOM     36  H   LIG d   1       4.327  -8.968  -6.649  0.00  0.00     0.035 H 
ATOM     37  H   LIG d   1       5.066  -9.588  -5.224  0.00  0.00     0.035 H 
ATOM     38  H   LIG d   1       5.738  -7.362  -4.592  0.00  0.00     0.028 H 
ATOM     39  H   LIG d   1       4.010  -7.284  -5.006  0.00  0.00     0.028 H 
ENDROOT
BRANCH   1  40
ATOM     40  O   LIG d   1       4.564  -0.838  -3.791  0.00  0.00    -0.461 OA
BRANCH  40  41
ATOM     41  C   LIG d   1       3.855   0.298  -3.893  0.00  0.00     0.307 C 
ATOM     42  O   LIG d   1       3.499   0.691  -4.979  0.00  0.00    -0.251 OA
BRANCH  41  43
ATOM     43  C   LIG d   1       3.506   1.081  -2.655  0.00  0.00     0.042 C 
ATOM     44  H   LIG d   1       3.422   2.139  -2.906  0.00  0.00     0.037 H 
ATOM     45  H   LIG d   1       2.555   0.726  -2.256  0.00  0.00     0.037 H 
BRANCH  43  46
ATOM     46  C   LIG d   1       4.601   0.890  -1.604  0.00  0.00    -0.055 C 
ATOM     47  H   LIG d   1       4.160   0.499  -0.687  0.00  0.00     0.024 H 
ATOM     48  H   LIG d   1       5.345   0.186  -1.978  0.00  0.00     0.024 H 
ATOM     49  H   LIG d   1       5.079   1.848  -1.398  0.00  0.00     0.024 H 
ENDBRANCH  43  46
ENDBRANCH  41  43
ENDBRANCH  40  41
ENDBRANCH   1  40
BRANCH   7  50
ATOM     50  C   LIG d   1       6.746  -1.886  -6.603  0.00  0.00    -0.056 C 
ATOM     51  H   LIG d   1       6.811  -2.770  -7.237  0.00  0.00     0.024 H 
ATOM     52  H   LIG d   1       6.365  -1.048  -7.187  0.00  0.00     0.024 H 
ATOM     53  H   LIG d   1       7.734  -1.642  -6.216  0.00  0.00     0.024 H 
ENDBRANCH   7  50
BRANCH  22  54
ATOM     54  C   LIG d   1       4.315  -6.512  -7.608  0.00  0.00    -0.056 C 
ATOM     55  H   LIG d   1       4.356  -5.621  -8.235  0.00  0.00     0.024 H 
ATOM     56  H   LIG d   1       4.569  -7.387  -8.206  0.00  0.00     0.024 H 
ATOM     57  H   LIG d   1       3.310  -6.626  -7.204  0.00  0.00     0.024 H 
ENDBRANCH  22  54
TORSDOF 6
ENDMDL
MODEL 8
REMARK VINA RESULT:      -5.6      4.711      7.067
REMARK  6 active torsions:
REMARK  status: ('A' for Active; 'I' for Inactive)
REMARK    1  A    between atoms: C_1  and  C_2 
REMARK    2  A    between atoms: C_2  and  C_3 
REMARK    3  A    between atoms: C_3  and  O_5 
REMARK    4  A    between atoms: O_5  and  C_6 
REMARK    5  A    between atoms: C_12  and  C_29 
REMARK    6  A    between atoms: C_27  and  C_28 
ROOT
ATOM      1  C   LIG d   1       5.339  -0.667  -5.007  0.00  0.00     0.109 C 
ATOM      2  H   LIG d   1       5.238  -1.539  -4.366  0.00  0.00     0.074 H 
ATOM      3  C   LIG d   1       5.349  -1.086  -6.500  0.00  0.00    -0.015 C 
ATOM      4  C   LIG d   1       6.668  -0.519  -7.104  0.00  0.00    -0.046 C 
ATOM      5  C   LIG d   1       6.964   0.647  -6.152  0.00  0.00    -0.029 C 
ATOM      6  H   LIG d   1       6.180   1.422  -6.325  0.00  0.00     0.031 H 
ATOM      7  C   LIG d   1       6.710  -0.008  -4.780  0.00  0.00     0.008 C 
ATOM      8  C   LIG d   1       6.767   1.055  -3.708  0.00  0.00    -0.044 C 
ATOM      9  C   LIG d   1       8.179   1.676  -3.726  0.00  0.00    -0.049 C 
ATOM     10  C   LIG d   1       8.497   2.273  -5.082  0.00  0.00    -0.029 C 
ATOM     11  H   LIG d   1       7.722   3.058  -5.234  0.00  0.00     0.031 H 
ATOM     12  C   LIG d   1       8.312   1.312  -6.249  0.00  0.00    -0.034 C 
ATOM     13  H   LIG d   1       8.270   1.965  -7.165  0.00  0.00     0.031 H 
ATOM     14  C   LIG d   1       9.444   0.343  -6.503  0.00  0.00    -0.046 C 
ATOM     15  C   LIG d   1      10.672   0.638  -5.644  0.00  0.00    -0.030 C 
ATOM     16  C   LIG d   1      10.898   2.129  -5.691  0.00  0.00    -0.060 C 
ATOM     17  C   LIG d   1      11.994   2.639  -6.239  0.00  0.00    -0.019 C 
ATOM     18  C   LIG d   1      12.137   4.080  -6.429  0.00  0.00     0.156 C 
ATOM     19  O   LIG d   1      13.183   4.529  -6.854  0.00  0.00    -0.293 OA
ATOM     20  C   LIG d   1      10.996   5.014  -6.118  0.00  0.00     0.011 C 
ATOM     21  C   LIG d   1       9.678   4.244  -6.053  0.00  0.00    -0.037 C 
ATOM     22  C   LIG d   1       9.818   3.023  -5.134  0.00  0.00    -0.007 C 
ATOM     23  H   LIG d   1       5.335  -2.170  -6.588  0.00  0.00     0.030 H 
ATOM     24  H   LIG d   1       4.491  -0.654  -7.015  0.00  0.00     0.030 H 
ATOM     25  H   LIG d   1       7.455  -1.263  -7.102  0.00  0.00     0.027 H 
ATOM     26  H   LIG d   1       6.491  -0.149  -8.115  0.00  0.00     0.027 H 
ATOM     27  H   LIG d   1       6.575   0.612  -2.731  0.00  0.00     0.027 H 
ATOM     28  H   LIG d   1       6.027   1.832  -3.910  0.00  0.00     0.027 H 
ATOM     29  H   LIG d   1       8.922   0.941  -3.442  0.00  0.00     0.027 H 
ATOM     30  H   LIG d   1       8.160   2.466  -2.962  0.00  0.00     0.027 H 
ATOM     31  H   LIG d   1       9.757   0.465  -7.556  0.00  0.00     0.027 H 
ATOM     32  H   LIG d   1       9.149  -0.686  -6.392  0.00  0.00     0.027 H 
ATOM     33  H   LIG d   1      11.536   0.122  -6.057  0.00  0.00     0.031 H 
ATOM     34  H   LIG d   1      10.495   0.319  -4.623  0.00  0.00     0.031 H 
ATOM     35  H   LIG d   1      12.774   1.978  -6.588  0.00  0.00     0.065 H 
ATOM     36  H   LIG d   1      11.160   5.459  -5.239  0.00  0.00     0.035 H 
ATOM     37  H   LIG d   1      10.928   5.764  -6.916  0.00  0.00     0.035 H 
ATOM     38  H   LIG d   1       9.398   3.908  -7.053  0.00  0.00     0.028 H 
ATOM     39  H   LIG d   1       8.893   4.895  -5.663  0.00  0.00     0.028 H 
ENDROOT
BRANCH   1  40
ATOM     40  O   LIG d   1       4.279   0.288  -4.755  0.00  0.00    -0.461 OA
BRANCH  40  41
ATOM     41  C   LIG d   1       3.303  -0.091  -3.915  0.00  0.00     0.307 C 
ATOM     42  O   LIG d   1       2.155  -0.106  -4.292  0.00  0.00    -0.251 OA
BRANCH  41  43
ATOM     43  C   LIG d   1       3.639  -0.496  -2.503  0.00  0.00     0.042 C 
ATOM     44  H   LIG d   1       4.593  -0.055  -2.216  0.00  0.00     0.037 H 
ATOM     45  H   LIG d   1       2.858  -0.145  -1.829  0.00  0.00     0.037 H 
BRANCH  43  46
ATOM     46  C   LIG d   1       3.736  -2.021  -2.420  0.00  0.00    -0.055 C 
ATOM     47  H   LIG d   1       3.172  -2.466  -3.241  0.00  0.00     0.024 H 
ATOM     48  H   LIG d   1       4.781  -2.323  -2.492  0.00  0.00     0.024 H 
ATOM     49  H   LIG d   1       3.324  -2.360  -1.470  0.00  0.00     0.024 H 
ENDBRANCH  43  46
ENDBRANCH  41  43
ENDBRANCH  40  41
ENDBRANCH   1  40
BRANCH   7  50
ATOM     50  C   LIG d   1       7.694  -1.126  -4.444  0.00  0.00    -0.056 C 
ATOM     51  H   LIG d   1       8.150  -1.496  -5.363  0.00  0.00     0.024 H 
ATOM     52  H   LIG d   1       8.471  -0.740  -3.784  0.00  0.00     0.024 H 
ATOM     53  H   LIG d   1       7.165  -1.938  -3.947  0.00  0.00     0.024 H 
ENDBRANCH   7  50
BRANCH  22  54
ATOM     54  C   LIG d   1      10.238   3.495  -3.741  0.00  0.00    -0.056 C 
ATOM     55  H   LIG d   1      10.881   4.371  -3.832  0.00  0.00     0.024 H 
ATOM     56  H   LIG d   1       9.351   3.755  -3.163  0.00  0.00     0.024 H 
ATOM     57  H   LIG d   1      10.781   2.697  -3.235  0.00  0.00     0.024 H 
ENDBRANCH  22  54
TORSDOF 6
ENDMDL
MODEL 9
REMARK VINA RESULT:      -5.6      2.299      4.242
REMARK  6 active torsions:
REMARK  status: ('A' for Active; 'I' for Inactive)
REMARK    1  A    between atoms: C_1  and  C_2 
REMARK    2  A    between atoms: C_2  and  C_3 
REMARK    3  A    between atoms: C_3  and  O_5 
REMARK    4  A    between atoms: O_5  and  C_6 
REMARK    5  A    between atoms: C_12  and  C_29 
REMARK    6  A    between atoms: C_27  and  C_28 
ROOT
ATOM      1  C   LIG d   1       2.748   0.569  -7.229  0.00  0.00     0.109 C 
ATOM      2  H   LIG d   1       1.761   0.188  -6.979  0.00  0.00     0.074 H 
ATOM      3  C   LIG d   1       2.666   2.054  -7.665  0.00  0.00    -0.015 C 
ATOM      4  C   LIG d   1       3.305   2.130  -9.083  0.00  0.00    -0.046 C 
ATOM      5  C   LIG d   1       4.224   0.901  -9.070  0.00  0.00    -0.029 C 
ATOM      6  H   LIG d   1       5.044   1.110  -8.343  0.00  0.00     0.031 H 
ATOM      7  C   LIG d   1       3.294  -0.168  -8.464  0.00  0.00     0.008 C 
ATOM      8  C   LIG d   1       4.094  -1.420  -8.190  0.00  0.00    -0.044 C 
ATOM      9  C   LIG d   1       4.655  -1.931  -9.534  0.00  0.00    -0.049 C 
ATOM     10  C   LIG d   1       5.523  -0.881 -10.198  0.00  0.00    -0.029 C 
ATOM     11  H   LIG d   1       6.349  -0.697  -9.474  0.00  0.00     0.031 H 
ATOM     12  C   LIG d   1       4.848   0.472 -10.372  0.00  0.00    -0.034 C 
ATOM     13  H   LIG d   1       5.687   1.197 -10.567  0.00  0.00     0.031 H 
ATOM     14  C   LIG d   1       3.919   0.610 -11.557  0.00  0.00    -0.046 C 
ATOM     15  C   LIG d   1       3.977  -0.598 -12.490  0.00  0.00    -0.030 C 
ATOM     16  C   LIG d   1       5.434  -0.944 -12.677  0.00  0.00    -0.060 C 
ATOM     17  C   LIG d   1       6.014  -0.848 -13.867  0.00  0.00    -0.019 C 
ATOM     18  C   LIG d   1       7.456  -1.026 -14.016  0.00  0.00     0.156 C 
ATOM     19  O   LIG d   1       7.950  -1.017 -15.126  0.00  0.00    -0.293 OA
ATOM     20  C   LIG d   1       8.337  -1.206 -12.807  0.00  0.00     0.011 C 
ATOM     21  C   LIG d   1       7.617  -0.734 -11.545  0.00  0.00    -0.037 C 
ATOM     22  C   LIG d   1       6.220  -1.363 -11.460  0.00  0.00    -0.007 C 
ATOM     23  H   LIG d   1       1.628   2.378  -7.707  0.00  0.00     0.030 H 
ATOM     24  H   LIG d   1       3.229   2.679  -6.972  0.00  0.00     0.030 H 
ATOM     25  H   LIG d   1       2.553   2.073  -9.859  0.00  0.00     0.027 H 
ATOM     26  H   LIG d   1       3.894   3.043  -9.183  0.00  0.00     0.027 H 
ATOM     27  H   LIG d   1       3.454  -2.184  -7.748  0.00  0.00     0.027 H 
ATOM     28  H   LIG d   1       4.921  -1.198  -7.514  0.00  0.00     0.027 H 
ATOM     29  H   LIG d   1       3.851  -2.241 -10.189  0.00  0.00     0.027 H 
ATOM     30  H   LIG d   1       5.259  -2.813  -9.281  0.00  0.00     0.027 H 
ATOM     31  H   LIG d   1       4.259   1.481 -12.147  0.00  0.00     0.027 H 
ATOM     32  H   LIG d   1       2.902   0.814 -11.272  0.00  0.00     0.027 H 
ATOM     33  H   LIG d   1       3.535  -0.338 -13.449  0.00  0.00     0.031 H 
ATOM     34  H   LIG d   1       3.449  -1.435 -12.045  0.00  0.00     0.031 H 
ATOM     35  H   LIG d   1       5.419  -0.592 -14.732  0.00  0.00     0.065 H 
ATOM     36  H   LIG d   1       8.573  -2.172 -12.708  0.00  0.00     0.035 H 
ATOM     37  H   LIG d   1       9.246  -0.606 -12.942  0.00  0.00     0.035 H 
ATOM     38  H   LIG d   1       7.518   0.354 -11.564  0.00  0.00     0.028 H 
ATOM     39  H   LIG d   1       8.193  -1.024 -10.665  0.00  0.00     0.028 H 
ENDROOT
BRANCH   1  40
ATOM     40  O   LIG d   1       3.660   0.417  -6.114  0.00  0.00    -0.461 OA
BRANCH  40  41
ATOM     41  C   LIG d   1       3.116   0.219  -4.903  0.00  0.00     0.307 C 
ATOM     42  O   LIG d   1       1.915   0.216  -4.775  0.00  0.00    -0.251 OA
BRANCH  41  43
ATOM     43  C   LIG d   1       4.003   0.001  -3.705  0.00  0.00     0.042 C 
ATOM     44  H   LIG d   1       3.947  -1.043  -3.396  0.00  0.00     0.037 H 
ATOM     45  H   LIG d   1       5.033   0.248  -3.965  0.00  0.00     0.037 H 
BRANCH  43  46
ATOM     46  C   LIG d   1       3.538   0.898  -2.556  0.00  0.00    -0.055 C 
ATOM     47  H   LIG d   1       2.506   0.656  -2.301  0.00  0.00     0.024 H 
ATOM     48  H   LIG d   1       4.175   0.734  -1.687  0.00  0.00     0.024 H 
ATOM     49  H   LIG d   1       3.602   1.942  -2.862  0.00  0.00     0.024 H 
ENDBRANCH  43  46
ENDBRANCH  41  43
ENDBRANCH  40  41
ENDBRANCH   1  40
BRANCH   7  50
ATOM     50  C   LIG d   1       2.096  -0.509  -9.348  0.00  0.00    -0.056 C 
ATOM     51  H   LIG d   1       2.128   0.098 -10.252  0.00  0.00     0.024 H 
ATOM     52  H   LIG d   1       2.133  -1.565  -9.618  0.00  0.00     0.024 H 
ATOM     53  H   LIG d   1       1.174  -0.305  -8.805  0.00  0.00     0.024 H 
ENDBRANCH   7  50
BRANCH  22  54
ATOM     54  C   LIG d   1       6.361  -2.887 -11.463  0.00  0.00    -0.056 C 
ATOM     55  H   LIG d   1       7.110  -3.184 -10.728  0.00  0.00     0.024 H 
ATOM     56  H   LIG d   1       5.403  -3.341 -11.209  0.00  0.00     0.024 H 
ATOM     57  H   LIG d   1       6.671  -3.221 -12.453  0.00  0.00     0.024 H 
ENDBRANCH  22  54
TORSDOF 6
ENDMDL
