MODEL 1
REMARK VINA RESULT:      -6.2      0.000      0.000
REMARK  5 active torsions:
REMARK  status: ('A' for Active; 'I' for Inactive)
REMARK    1  A    between atoms: C_1  and  C_2 
REMARK    2  A    between atoms: C_2  and  C_3 
REMARK    3  A    between atoms: N_7  and  C_9 
REMARK    4  A    between atoms: C_9  and  C_10 
REMARK    5  A    between atoms: C_10  and  C_12 
ROOT
ATOM      1  C   LIG d   1       4.747  -0.634  -2.631  0.00  0.00     0.016 A 
ATOM      2  C   LIG d   1       4.073  -1.823  -2.398  0.00  0.00    -0.047 A 
ATOM      3  C   LIG d   1       4.258  -2.871  -3.286  0.00  0.00     0.002 A 
ATOM      4  C   LIG d   1       5.102  -2.699  -4.366  0.00  0.00     0.172 A 
ATOM      5  N   LIG d   1       5.728  -1.554  -4.557  0.00  0.00    -0.196 N 
ATOM      6  C   LIG d   1       5.571  -0.534  -3.736  0.00  0.00     0.175 A 
ATOM      7  H   LIG d   1       3.419  -1.929  -1.546  0.00  0.00     0.062 H 
ATOM      8  H   LIG d   1       3.748  -3.812  -3.135  0.00  0.00     0.068 H 
ATOM      9  H   LIG d   1       5.251  -3.511  -5.063  0.00  0.00     0.138 H 
ATOM     10  H   LIG d   1       6.097   0.391  -3.927  0.00  0.00     0.138 H 
ENDROOT
BRANCH   5  11
ATOM     11  C   LIG d   1       6.617  -1.410  -5.713  0.00  0.00     0.212 C 
ATOM     12  H   LIG d   1       7.631  -1.205  -5.368  0.00  0.00     0.112 H 
ATOM     13  H   LIG d   1       6.609  -2.332  -6.294  0.00  0.00     0.112 H 
BRANCH  11  14
ATOM     14  C   LIG d   1       6.139  -0.269  -6.574  0.00  0.00     0.228 C 
ATOM     15  O   LIG d   1       6.741   0.784  -6.573  0.00  0.00    -0.285 OA
BRANCH  14  16
ATOM     16  C   LIG d   1       4.944  -0.433  -7.415  0.00  0.00     0.024 A 
ATOM     17  C   LIG d   1       3.703   0.035  -6.969  0.00  0.00    -0.050 A 
ATOM     18  C   LIG d   1       2.588  -0.116  -7.765  0.00  0.00    -0.043 A 
ATOM     19  H   LIG d   1       3.620   0.519  -6.008  0.00  0.00     0.062 H 
ATOM     20  C   LIG d   1       2.691  -0.742  -8.997  0.00  0.00     0.041 A 
ATOM     21  H   LIG d   1       1.629   0.249  -7.425  0.00  0.00     0.063 H 
ATOM     22  C   LIG d   1       3.915  -1.213  -9.442  0.00  0.00    -0.043 A 
ATOM     23 CL   LIG d   1       1.280  -0.935  -9.989  0.00  0.00    -0.084 Cl
ATOM     24  C   LIG d   1       5.041  -1.063  -8.660  0.00  0.00    -0.050 A 
ATOM     25  H   LIG d   1       3.990  -1.699 -10.403  0.00  0.00     0.063 H 
ATOM     26  H   LIG d   1       5.995  -1.430  -9.008  0.00  0.00     0.062 H 
ENDBRANCH  14  16
ENDBRANCH  11  14
ENDBRANCH   5  11
BRANCH   1  27
ATOM     27  C   LIG d   1       4.580   0.535  -1.695  0.00  0.00    -0.025 C 
ATOM     28  H   LIG d   1       5.550   0.994  -1.509  0.00  0.00     0.031 H 
ATOM     29  H   LIG d   1       4.156   0.188  -0.754  0.00  0.00     0.031 H 
BRANCH  27  30
ATOM     30  C   LIG d   1       3.641   1.564  -2.328  0.00  0.00    -0.061 C 
ATOM     31  H   LIG d   1       4.130   2.019  -3.191  0.00  0.00     0.023 H 
ATOM     32  H   LIG d   1       2.723   1.072  -2.648  0.00  0.00     0.023 H 
ATOM     33  H   LIG d   1       3.404   2.337  -1.597  0.00  0.00     0.023 H 
ENDBRANCH  27  30
ENDBRANCH   1  27
TORSDOF 5
ENDMDL
MODEL 2
REMARK VINA RESULT:      -6.2      1.487      2.084
REMARK  5 active torsions:
REMARK  status: ('A' for Active; 'I' for Inactive)
REMARK    1  A    between atoms: C_1  and  C_2 
REMARK    2  A    between atoms: C_2  and  C_3 
REMARK    3  A    between atoms: N_7  and  C_9 
REMARK    4  A    between atoms: C_9  and  C_10 
REMARK    5  A    between atoms: C_10  and  C_12 
ROOT
ATOM      1  C   LIG d   1       4.504  -0.807  -2.970  0.00  0.00     0.016 A 
ATOM      2  C   LIG d   1       4.430  -2.181  -2.801  0.00  0.00    -0.047 A 
ATOM      3  C   LIG d   1       4.556  -2.991  -3.918  0.00  0.00     0.002 A 
ATOM      4  C   LIG d   1       4.750  -2.407  -5.155  0.00  0.00     0.172 A 
ATOM      5  N   LIG d   1       4.815  -1.095  -5.280  0.00  0.00    -0.196 N 
ATOM      6  C   LIG d   1       4.694  -0.294  -4.239  0.00  0.00     0.175 A 
ATOM      7  H   LIG d   1       4.278  -2.610  -1.821  0.00  0.00     0.062 H 
ATOM      8  H   LIG d   1       4.504  -4.066  -3.824  0.00  0.00     0.068 H 
ATOM      9  H   LIG d   1       4.848  -3.030  -6.032  0.00  0.00     0.138 H 
ATOM     10  H   LIG d   1       4.748   0.776  -4.380  0.00  0.00     0.138 H 
ENDROOT
BRANCH   5  11
ATOM     11  C   LIG d   1       5.023  -0.513  -6.608  0.00  0.00     0.212 C 
ATOM     12  H   LIG d   1       5.708   0.331  -6.531  0.00  0.00     0.112 H 
ATOM     13  H   LIG d   1       5.447  -1.266  -7.272  0.00  0.00     0.112 H 
BRANCH  11  14
ATOM     14  C   LIG d   1       3.703  -0.040  -7.161  0.00  0.00     0.228 C 
ATOM     15  O   LIG d   1       3.183   0.960  -6.715  0.00  0.00    -0.285 OA
BRANCH  14  16
ATOM     16  C   LIG d   1       3.046  -0.793  -8.240  0.00  0.00     0.024 A 
ATOM     17  C   LIG d   1       3.436  -2.108  -8.516  0.00  0.00    -0.050 A 
ATOM     18  C   LIG d   1       2.811  -2.810  -9.524  0.00  0.00    -0.043 A 
ATOM     19  H   LIG d   1       4.218  -2.574  -7.937  0.00  0.00     0.062 H 
ATOM     20  C   LIG d   1       1.809  -2.212 -10.272  0.00  0.00     0.041 A 
ATOM     21  H   LIG d   1       3.107  -3.827  -9.737  0.00  0.00     0.063 H 
ATOM     22  C   LIG d   1       1.423  -0.908 -10.009  0.00  0.00    -0.043 A 
ATOM     23 CL   LIG d   1       1.034  -3.101 -11.546  0.00  0.00    -0.084 Cl
ATOM     24  C   LIG d   1       2.034  -0.196  -8.999  0.00  0.00    -0.050 A 
ATOM     25  H   LIG d   1       0.642  -0.448 -10.594  0.00  0.00     0.063 H 
ATOM     26  H   LIG d   1       1.731   0.820  -8.793  0.00  0.00     0.062 H 
ENDBRANCH  14  16
ENDBRANCH  11  14
ENDBRANCH   5  11
BRANCH   1  27
ATOM     27  C   LIG d   1       4.373   0.116  -1.786  0.00  0.00    -0.025 C 
ATOM     28  H   LIG d   1       5.359   0.306  -1.362  0.00  0.00     0.031 H 
ATOM     29  H   LIG d   1       3.738  -0.348  -1.032  0.00  0.00     0.031 H 
BRANCH  27  30
ATOM     30  C   LIG d   1       3.747   1.437  -2.236  0.00  0.00    -0.061 C 
ATOM     31  H   LIG d   1       3.633   1.434  -3.320  0.00  0.00     0.023 H 
ATOM     32  H   LIG d   1       2.770   1.555  -1.768  0.00  0.00     0.023 H 
ATOM     33  H   LIG d   1       4.393   2.264  -1.942  0.00  0.00     0.023 H 
ENDBRANCH  27  30
ENDBRANCH   1  27
TORSDOF 5
ENDMDL
MODEL 3
REMARK VINA RESULT:      -5.9      3.054      5.750
REMARK  5 active torsions:
REMARK  status: ('A' for Active; 'I' for Inactive)
REMARK    1  A    between atoms: C_1  and  C_2 
REMARK    2  A    between atoms: C_2  and  C_3 
REMARK    3  A    between atoms: N_7  and  C_9 
REMARK    4  A    between atoms: C_9  and  C_10 
REMARK    5  A    between atoms: C_10  and  C_12 
ROOT
ATOM      1  C   LIG d   1       2.949   0.388  -8.709  0.00  0.00     0.016 A 
ATOM      2  C   LIG d   1       2.065  -0.372  -9.459  0.00  0.00    -0.047 A 
ATOM      3  C   LIG d   1       2.239  -1.747  -9.489  0.00  0.00     0.002 A 
ATOM      4  C   LIG d   1       3.280  -2.311  -8.776  0.00  0.00     0.172 A 
ATOM      5  N   LIG d   1       4.102  -1.556  -8.073  0.00  0.00    -0.196 N 
ATOM      6  C   LIG d   1       3.970  -0.245  -8.026  0.00  0.00     0.175 A 
ATOM      7  H   LIG d   1       1.260   0.095 -10.006  0.00  0.00     0.062 H 
ATOM      8  H   LIG d   1       1.569  -2.371 -10.063  0.00  0.00     0.068 H 
ATOM      9  H   LIG d   1       3.423  -3.381  -8.795  0.00  0.00     0.138 H 
ATOM     10  H   LIG d   1       4.666   0.341  -7.443  0.00  0.00     0.138 H 
ENDROOT
BRANCH   5  11
ATOM     11  C   LIG d   1       5.193  -2.191  -7.329  0.00  0.00     0.212 C 
ATOM     12  H   LIG d   1       5.580  -3.035  -7.901  0.00  0.00     0.112 H 
ATOM     13  H   LIG d   1       5.991  -1.466  -7.165  0.00  0.00     0.112 H 
BRANCH  11  14
ATOM     14  C   LIG d   1       4.677  -2.680  -6.000  0.00  0.00     0.228 C 
ATOM     15  O   LIG d   1       4.256  -3.812  -5.893  0.00  0.00    -0.285 OA
BRANCH  14  16
ATOM     16  C   LIG d   1       4.683  -1.783  -4.834  0.00  0.00     0.024 A 
ATOM     17  C   LIG d   1       5.465  -0.624  -4.845  0.00  0.00    -0.050 A 
ATOM     18  C   LIG d   1       5.461   0.216  -3.751  0.00  0.00    -0.043 A 
ATOM     19  H   LIG d   1       6.066  -0.384  -5.709  0.00  0.00     0.062 H 
ATOM     20  C   LIG d   1       4.694  -0.094  -2.639  0.00  0.00     0.041 A 
ATOM     21  H   LIG d   1       6.061   1.114  -3.759  0.00  0.00     0.063 H 
ATOM     22  C   LIG d   1       3.922  -1.243  -2.620  0.00  0.00    -0.043 A 
ATOM     23 CL   LIG d   1       4.701   0.965  -1.264  0.00  0.00    -0.084 Cl
ATOM     24  C   LIG d   1       3.911  -2.089  -3.709  0.00  0.00    -0.050 A 
ATOM     25  H   LIG d   1       3.326  -1.478  -1.750  0.00  0.00     0.063 H 
ATOM     26  H   LIG d   1       3.307  -2.984  -3.692  0.00  0.00     0.062 H 
ENDBRANCH  14  16
ENDBRANCH  11  14
ENDBRANCH   5  11
BRANCH   1  27
ATOM     27  C   LIG d   1       2.801   1.887  -8.644  0.00  0.00    -0.025 C 
ATOM     28  H   LIG d   1       2.739   2.201  -7.602  0.00  0.00     0.031 H 
ATOM     29  H   LIG d   1       1.894   2.186  -9.168  0.00  0.00     0.031 H 
BRANCH  27  30
ATOM     30  C   LIG d   1       4.013   2.547  -9.304  0.00  0.00    -0.061 C 
ATOM     31  H   LIG d   1       3.942   3.629  -9.193  0.00  0.00     0.023 H 
ATOM     32  H   LIG d   1       4.926   2.191  -8.828  0.00  0.00     0.023 H 
ATOM     33  H   LIG d   1       4.032   2.292 -10.364  0.00  0.00     0.023 H 
ENDBRANCH  27  30
ENDBRANCH   1  27
TORSDOF 5
ENDMDL
MODEL 4
REMARK VINA RESULT:      -5.6      4.059      5.602
REMARK  5 active torsions:
REMARK  status: ('A' for Active; 'I' for Inactive)
REMARK    1  A    between atoms: C_1  and  C_2 
REMARK    2  A    between atoms: C_2  and  C_3 
REMARK    3  A    between atoms: N_7  and  C_9 
REMARK    4  A    between atoms: C_9  and  C_10 
REMARK    5  A    between atoms: C_10  and  C_12 
ROOT
ATOM      1  C   LIG d   1       4.815  -0.583  -2.582  0.00  0.00     0.016 A 
ATOM      2  C   LIG d   1       3.999  -1.656  -2.263  0.00  0.00    -0.047 A 
ATOM      3  C   LIG d   1       4.101  -2.812  -3.023  0.00  0.00     0.002 A 
ATOM      4  C   LIG d   1       5.007  -2.854  -4.066  0.00  0.00     0.172 A 
ATOM      5  N   LIG d   1       5.768  -1.813  -4.341  0.00  0.00    -0.196 N 
ATOM      6  C   LIG d   1       5.693  -0.697  -3.643  0.00  0.00     0.175 A 
ATOM      7  H   LIG d   1       3.300  -1.595  -1.442  0.00  0.00     0.062 H 
ATOM      8  H   LIG d   1       3.480  -3.668  -2.803  0.00  0.00     0.068 H 
ATOM      9  H   LIG d   1       5.092  -3.750  -4.663  0.00  0.00     0.138 H 
ATOM     10  H   LIG d   1       6.330   0.137  -3.901  0.00  0.00     0.138 H 
ENDROOT
BRANCH   5  11
ATOM     11  C   LIG d   1       6.717  -1.897  -5.453  0.00  0.00     0.212 C 
ATOM     12  H   LIG d   1       6.419  -2.703  -6.125  0.00  0.00     0.112 H 
ATOM     13  H   LIG d   1       6.724  -0.953  -5.998  0.00  0.00     0.112 H 
BRANCH  11  14
ATOM     14  C   LIG d   1       8.098  -2.177  -4.916  0.00  0.00     0.228 C 
ATOM     15  O   LIG d   1       8.920  -1.287  -4.865  0.00  0.00    -0.285 OA
BRANCH  14  16
ATOM     16  C   LIG d   1       8.447  -3.528  -4.453  0.00  0.00     0.024 A 
ATOM     17  C   LIG d   1       9.152  -3.701  -3.257  0.00  0.00    -0.050 A 
ATOM     18  C   LIG d   1       9.470  -4.971  -2.827  0.00  0.00    -0.043 A 
ATOM     19  H   LIG d   1       9.441  -2.842  -2.670  0.00  0.00     0.062 H 
ATOM     20  C   LIG d   1       9.104  -6.074  -3.582  0.00  0.00     0.041 A 
ATOM     21  H   LIG d   1      10.010  -5.107  -1.901  0.00  0.00     0.063 H 
ATOM     22  C   LIG d   1       8.411  -5.910  -4.770  0.00  0.00    -0.043 A 
ATOM     23 CL   LIG d   1       9.515  -7.670  -3.035  0.00  0.00    -0.084 Cl
ATOM     24  C   LIG d   1       8.080  -4.646  -5.210  0.00  0.00    -0.050 A 
ATOM     25  H   LIG d   1       8.128  -6.774  -5.353  0.00  0.00     0.063 H 
ATOM     26  H   LIG d   1       7.539  -4.520  -6.136  0.00  0.00     0.062 H 
ENDBRANCH  14  16
ENDBRANCH  11  14
ENDBRANCH   5  11
BRANCH   1  27
ATOM     27  C   LIG d   1       4.742   0.695  -1.786  0.00  0.00    -0.025 C 
ATOM     28  H   LIG d   1       5.690   1.226  -1.863  0.00  0.00     0.031 H 
ATOM     29  H   LIG d   1       4.540   0.461  -0.741  0.00  0.00     0.031 H 
BRANCH  27  30
ATOM     30  C   LIG d   1       3.618   1.575  -2.337  0.00  0.00    -0.061 C 
ATOM     31  H   LIG d   1       3.976   2.600  -2.439  0.00  0.00     0.023 H 
ATOM     32  H   LIG d   1       3.306   1.200  -3.311  0.00  0.00     0.023 H 
ATOM     33  H   LIG d   1       2.771   1.554  -1.651  0.00  0.00     0.023 H 
ENDBRANCH  27  30
ENDBRANCH   1  27
TORSDOF 5
ENDMDL
MODEL 5
REMARK VINA RESULT:      -5.5      3.915      5.581
REMARK  5 active torsions:
REMARK  status: ('A' for Active; 'I' for Inactive)
REMARK    1  A    between atoms: C_1  and  C_2 
REMARK    2  A    between atoms: C_2  and  C_3 
REMARK    3  A    between atoms: N_7  and  C_9 
REMARK    4  A    between atoms: C_9  and  C_10 
REMARK    5  A    between atoms: C_10  and  C_12 
ROOT
ATOM      1  C   LIG d   1       3.445  -0.073  -4.012  0.00  0.00     0.016 A 
ATOM      2  C   LIG d   1       2.524   0.473  -4.892  0.00  0.00    -0.047 A 
ATOM      3  C   LIG d   1       2.733   0.309  -6.253  0.00  0.00     0.002 A 
ATOM      4  C   LIG d   1       3.845  -0.390  -6.684  0.00  0.00     0.172 A 
ATOM      5  N   LIG d   1       4.701  -0.896  -5.818  0.00  0.00    -0.196 N 
ATOM      6  C   LIG d   1       4.537  -0.754  -4.517  0.00  0.00     0.175 A 
ATOM      7  H   LIG d   1       1.664   1.014  -4.527  0.00  0.00     0.062 H 
ATOM      8  H   LIG d   1       2.036   0.721  -6.967  0.00  0.00     0.068 H 
ATOM      9  H   LIG d   1       4.017  -0.522  -7.742  0.00  0.00     0.138 H 
ATOM     10  H   LIG d   1       5.262  -1.179  -3.838  0.00  0.00     0.138 H 
ENDROOT
BRANCH   5  11
ATOM     11  C   LIG d   1       5.868  -1.631  -6.313  0.00  0.00     0.212 C 
ATOM     12  H   LIG d   1       5.865  -1.623  -7.404  0.00  0.00     0.112 H 
ATOM     13  H   LIG d   1       6.779  -1.157  -5.948  0.00  0.00     0.112 H 
BRANCH  11  14
ATOM     14  C   LIG d   1       5.810  -3.055  -5.821  0.00  0.00     0.228 C 
ATOM     15  O   LIG d   1       4.834  -3.737  -6.051  0.00  0.00    -0.285 OA
BRANCH  14  16
ATOM     16  C   LIG d   1       6.937  -3.616  -5.062  0.00  0.00     0.024 A 
ATOM     17  C   LIG d   1       7.382  -4.917  -5.324  0.00  0.00    -0.050 A 
ATOM     18  C   LIG d   1       8.443  -5.434  -4.613  0.00  0.00    -0.043 A 
ATOM     19  H   LIG d   1       6.899  -5.512  -6.085  0.00  0.00     0.062 H 
ATOM     20  C   LIG d   1       9.061  -4.674  -3.632  0.00  0.00     0.041 A 
ATOM     21  H   LIG d   1       8.791  -6.437  -4.816  0.00  0.00     0.063 H 
ATOM     22  C   LIG d   1       8.622  -3.389  -3.363  0.00  0.00    -0.043 A 
ATOM     23 CL   LIG d   1      10.392  -5.337  -2.736  0.00  0.00    -0.084 Cl
ATOM     24  C   LIG d   1       7.566  -2.855  -4.071  0.00  0.00    -0.050 A 
ATOM     25  H   LIG d   1       9.108  -2.801  -2.599  0.00  0.00     0.063 H 
ATOM     26  H   LIG d   1       7.226  -1.852  -3.861  0.00  0.00     0.062 H 
ENDBRANCH  14  16
ENDBRANCH  11  14
ENDBRANCH   5  11
BRANCH   1  27
ATOM     27  C   LIG d   1       3.262   0.079  -2.524  0.00  0.00    -0.025 C 
ATOM     28  H   LIG d   1       3.348  -0.897  -2.046  0.00  0.00     0.031 H 
ATOM     29  H   LIG d   1       2.277   0.497  -2.320  0.00  0.00     0.031 H 
BRANCH  27  30
ATOM     30  C   LIG d   1       4.338   1.016  -1.971  0.00  0.00    -0.061 C 
ATOM     31  H   LIG d   1       5.311   0.726  -2.368  0.00  0.00     0.023 H 
ATOM     32  H   LIG d   1       4.115   2.040  -2.267  0.00  0.00     0.023 H 
ATOM     33  H   LIG d   1       4.354   0.947  -0.883  0.00  0.00     0.023 H 
ENDBRANCH  27  30
ENDBRANCH   1  27
TORSDOF 5
ENDMDL
MODEL 6
REMARK VINA RESULT:      -5.4      2.050      2.597
REMARK  5 active torsions:
REMARK  status: ('A' for Active; 'I' for Inactive)
REMARK    1  A    between atoms: C_1  and  C_2 
REMARK    2  A    between atoms: C_2  and  C_3 
REMARK    3  A    between atoms: N_7  and  C_9 
REMARK    4  A    between atoms: C_9  and  C_10 
REMARK    5  A    between atoms: C_10  and  C_12 
ROOT
ATOM      1  C   LIG d   1       5.088  -1.662  -3.070  0.00  0.00     0.016 A 
ATOM      2  C   LIG d   1       6.470  -1.557  -3.024  0.00  0.00    -0.047 A 
ATOM      3  C   LIG d   1       7.209  -2.116  -4.055  0.00  0.00     0.002 A 
ATOM      4  C   LIG d   1       6.548  -2.754  -5.087  0.00  0.00     0.172 A 
ATOM      5  N   LIG d   1       5.232  -2.835  -5.099  0.00  0.00    -0.196 N 
ATOM      6  C   LIG d   1       4.498  -2.320  -4.132  0.00  0.00     0.175 A 
ATOM      7  H   LIG d   1       6.959  -1.052  -2.204  0.00  0.00     0.062 H 
ATOM      8  H   LIG d   1       8.287  -2.053  -4.051  0.00  0.00     0.068 H 
ATOM      9  H   LIG d   1       7.116  -3.193  -5.894  0.00  0.00     0.138 H 
ATOM     10  H   LIG d   1       3.422  -2.410  -4.173  0.00  0.00     0.138 H 
ENDROOT
BRANCH   5  11
ATOM     11  C   LIG d   1       4.569  -3.519  -6.212  0.00  0.00     0.212 C 
ATOM     12  H   LIG d   1       4.800  -4.583  -6.174  0.00  0.00     0.112 H 
ATOM     13  H   LIG d   1       3.490  -3.377  -6.135  0.00  0.00     0.112 H 
BRANCH  11  14
ATOM     14  C   LIG d   1       5.058  -2.945  -7.517  0.00  0.00     0.228 C 
ATOM     15  O   LIG d   1       5.735  -3.623  -8.262  0.00  0.00    -0.285 OA
BRANCH  14  16
ATOM     16  C   LIG d   1       4.717  -1.563  -7.887  0.00  0.00     0.024 A 
ATOM     17  C   LIG d   1       5.730  -0.616  -8.075  0.00  0.00    -0.050 A 
ATOM     18  C   LIG d   1       5.403   0.675  -8.427  0.00  0.00    -0.043 A 
ATOM     19  H   LIG d   1       6.765  -0.898  -7.950  0.00  0.00     0.062 H 
ATOM     20  C   LIG d   1       4.075   1.040  -8.584  0.00  0.00     0.041 A 
ATOM     21  H   LIG d   1       6.183   1.407  -8.577  0.00  0.00     0.063 H 
ATOM     22  C   LIG d   1       3.067   0.109  -8.393  0.00  0.00    -0.043 A 
ATOM     23 CL   LIG d   1       3.673   2.671  -9.021  0.00  0.00    -0.084 Cl
ATOM     24  C   LIG d   1       3.379  -1.188  -8.047  0.00  0.00    -0.050 A 
ATOM     25  H   LIG d   1       2.034   0.399  -8.517  0.00  0.00     0.063 H 
ATOM     26  H   LIG d   1       2.592  -1.913  -7.900  0.00  0.00     0.062 H 
ENDBRANCH  14  16
ENDBRANCH  11  14
ENDBRANCH   5  11
BRANCH   1  27
ATOM     27  C   LIG d   1       4.241  -1.070  -1.973  0.00  0.00    -0.025 C 
ATOM     28  H   LIG d   1       4.425  -1.607  -1.042  0.00  0.00     0.031 H 
ATOM     29  H   LIG d   1       3.188  -1.157  -2.240  0.00  0.00     0.031 H 
BRANCH  27  30
ATOM     30  C   LIG d   1       4.600   0.406  -1.790  0.00  0.00    -0.061 C 
ATOM     31  H   LIG d   1       5.208   0.523  -0.893  0.00  0.00     0.023 H 
ATOM     32  H   LIG d   1       5.160   0.753  -2.658  0.00  0.00     0.023 H 
ATOM     33  H   LIG d   1       3.686   0.992  -1.689  0.00  0.00     0.023 H 
ENDBRANCH  27  30
ENDBRANCH   1  27
TORSDOF 5
ENDMDL
MODEL 7
REMARK VINA RESULT:      -5.4      3.175      6.206
REMARK  5 active torsions:
REMARK  status: ('A' for Active; 'I' for Inactive)
REMARK    1  A    between atoms: C_1  and  C_2 
REMARK    2  A    between atoms: C_2  and  C_3 
REMARK    3  A    between atoms: N_7  and  C_9 
REMARK    4  A    between atoms: C_9  and  C_10 
REMARK    5  A    between atoms: C_10  and  C_12 
ROOT
ATOM      1  C   LIG d   1       2.402  -2.923  -9.854  0.00  0.00     0.016 A 
ATOM      2  C   LIG d   1       1.377  -2.384 -10.615  0.00  0.00    -0.047 A 
ATOM      3  C   LIG d   1       1.265  -1.005 -10.692  0.00  0.00     0.002 A 
ATOM      4  C   LIG d   1       2.174  -0.217 -10.012  0.00  0.00     0.172 A 
ATOM      5  N   LIG d   1       3.138  -0.763  -9.296  0.00  0.00    -0.196 N 
ATOM      6  C   LIG d   1       3.270  -2.071  -9.196  0.00  0.00     0.175 A 
ATOM      7  H   LIG d   1       0.681  -3.025 -11.137  0.00  0.00     0.062 H 
ATOM      8  H   LIG d   1       0.478  -0.551 -11.277  0.00  0.00     0.068 H 
ATOM      9  H   LIG d   1       2.094   0.859 -10.065  0.00  0.00     0.138 H 
ATOM     10  H   LIG d   1       4.069  -2.482  -8.596  0.00  0.00     0.138 H 
ENDROOT
BRANCH   5  11
ATOM     11  C   LIG d   1       4.083   0.106  -8.590  0.00  0.00     0.212 C 
ATOM     12  H   LIG d   1       4.957  -0.474  -8.293  0.00  0.00     0.112 H 
ATOM     13  H   LIG d   1       4.391   0.918  -9.248  0.00  0.00     0.112 H 
BRANCH  11  14
ATOM     14  C   LIG d   1       3.419   0.678  -7.363  0.00  0.00     0.228 C 
ATOM     15  O   LIG d   1       2.822   1.731  -7.432  0.00  0.00    -0.285 OA
BRANCH  14  16
ATOM     16  C   LIG d   1       3.496  -0.042  -6.083  0.00  0.00     0.024 A 
ATOM     17  C   LIG d   1       2.628   0.291  -5.037  0.00  0.00    -0.050 A 
ATOM     18  C   LIG d   1       2.701  -0.392  -3.842  0.00  0.00    -0.043 A 
ATOM     19  H   LIG d   1       1.899   1.077  -5.167  0.00  0.00     0.062 H 
ATOM     20  C   LIG d   1       3.640  -1.398  -3.672  0.00  0.00     0.041 A 
ATOM     21  H   LIG d   1       2.029  -0.140  -3.035  0.00  0.00     0.063 H 
ATOM     22  C   LIG d   1       4.505  -1.728  -4.700  0.00  0.00    -0.043 A 
ATOM     23 CL   LIG d   1       3.729  -2.247  -2.161  0.00  0.00    -0.084 Cl
ATOM     24  C   LIG d   1       4.440  -1.058  -5.904  0.00  0.00    -0.050 A 
ATOM     25  H   LIG d   1       5.234  -2.514  -4.562  0.00  0.00     0.063 H 
ATOM     26  H   LIG d   1       5.115  -1.318  -6.705  0.00  0.00     0.062 H 
ENDBRANCH  14  16
ENDBRANCH  11  14
ENDBRANCH   5  11
BRANCH   1  27
ATOM     27  C   LIG d   1       2.566  -4.416  -9.739  0.00  0.00    -0.025 C 
ATOM     28  H   LIG d   1       2.624  -4.853 -10.736  0.00  0.00     0.031 H 
ATOM     29  H   LIG d   1       1.712  -4.835  -9.209  0.00  0.00     0.031 H 
BRANCH  27  30
ATOM     30  C   LIG d   1       3.849  -4.731  -8.968  0.00  0.00    -0.061 C 
ATOM     31  H   LIG d   1       3.756  -5.708  -8.492  0.00  0.00     0.023 H 
ATOM     32  H   LIG d   1       4.694  -4.741  -9.657  0.00  0.00     0.023 H 
ATOM     33  H   LIG d   1       4.010  -3.969  -8.205  0.00  0.00     0.023 H 
ENDBRANCH  27  30
ENDBRANCH   1  27
TORSDOF 5
ENDMDL
MODEL 8
REMARK VINA RESULT:      -5.4      3.727      5.086
REMARK  5 active torsions:
REMARK  status: ('A' for Active; 'I' for Inactive)
REMARK    1  A    between atoms: C_1  and  C_2 
REMARK    2  A    between atoms: C_2  and  C_3 
REMARK    3  A    between atoms: N_7  and  C_9 
REMARK    4  A    between atoms: C_9  and  C_10 
REMARK    5  A    between atoms: C_10  and  C_12 
ROOT
ATOM      1  C   LIG d   1       3.508   0.127  -4.050  0.00  0.00     0.016 A 
ATOM      2  C   LIG d   1       2.550   0.423  -5.008  0.00  0.00    -0.047 A 
ATOM      3  C   LIG d   1       2.872   0.235  -6.343  0.00  0.00     0.002 A 
ATOM      4  C   LIG d   1       4.128  -0.236  -6.673  0.00  0.00     0.172 A 
ATOM      5  N   LIG d   1       5.015  -0.508  -5.736  0.00  0.00    -0.196 N 
ATOM      6  C   LIG d   1       4.745  -0.336  -4.456  0.00  0.00     0.175 A 
ATOM      7  H   LIG d   1       1.576   0.790  -4.721  0.00  0.00     0.062 H 
ATOM      8  H   LIG d   1       2.151   0.456  -7.116  0.00  0.00     0.068 H 
ATOM      9  H   LIG d   1       4.388  -0.384  -7.711  0.00  0.00     0.138 H 
ATOM     10  H   LIG d   1       5.499  -0.564  -3.717  0.00  0.00     0.138 H 
ENDROOT
BRANCH   5  11
ATOM     11  C   LIG d   1       6.336  -1.007  -6.126  0.00  0.00     0.212 C 
ATOM     12  H   LIG d   1       6.852  -1.394  -5.246  0.00  0.00     0.112 H 
ATOM     13  H   LIG d   1       6.221  -1.805  -6.859  0.00  0.00     0.112 H 
BRANCH  11  14
ATOM     14  C   LIG d   1       7.141   0.116  -6.727  0.00  0.00     0.228 C 
ATOM     15  O   LIG d   1       7.234   0.218  -7.932  0.00  0.00    -0.285 OA
BRANCH  14  16
ATOM     16  C   LIG d   1       7.814   1.088  -5.852  0.00  0.00     0.024 A 
ATOM     17  C   LIG d   1       7.752   0.942  -4.462  0.00  0.00    -0.050 A 
ATOM     18  C   LIG d   1       8.391   1.853  -3.648  0.00  0.00    -0.043 A 
ATOM     19  H   LIG d   1       7.211   0.114  -4.028  0.00  0.00     0.062 H 
ATOM     20  C   LIG d   1       9.082   2.919  -4.204  0.00  0.00     0.041 A 
ATOM     21  H   LIG d   1       8.349   1.739  -2.575  0.00  0.00     0.063 H 
ATOM     22  C   LIG d   1       9.141   3.073  -5.579  0.00  0.00    -0.043 A 
ATOM     23 CL   LIG d   1       9.876   4.065  -3.171  0.00  0.00    -0.084 Cl
ATOM     24  C   LIG d   1       8.513   2.166  -6.406  0.00  0.00    -0.050 A 
ATOM     25  H   LIG d   1       9.682   3.905  -6.006  0.00  0.00     0.063 H 
ATOM     26  H   LIG d   1       8.561   2.287  -7.477  0.00  0.00     0.062 H 
ENDBRANCH  14  16
ENDBRANCH  11  14
ENDBRANCH   5  11
BRANCH   1  27
ATOM     27  C   LIG d   1       3.206   0.313  -2.586  0.00  0.00    -0.025 C 
ATOM     28  H   LIG d   1       2.959  -0.650  -2.140  0.00  0.00     0.031 H 
ATOM     29  H   LIG d   1       2.362   0.992  -2.472  0.00  0.00     0.031 H 
BRANCH  27  30
ATOM     30  C   LIG d   1       4.431   0.902  -1.883  0.00  0.00    -0.061 C 
ATOM     31  H   LIG d   1       5.223   0.153  -1.847  0.00  0.00     0.023 H 
ATOM     32  H   LIG d   1       4.781   1.775  -2.434  0.00  0.00     0.023 H 
ATOM     33  H   LIG d   1       4.162   1.195  -0.869  0.00  0.00     0.023 H 
ENDBRANCH  27  30
ENDBRANCH   1  27
TORSDOF 5
ENDMDL
MODEL 9
REMARK VINA RESULT:      -5.3      3.216      6.700
REMARK  5 active torsions:
REMARK  status: ('A' for Active; 'I' for Inactive)
REMARK    1  A    between atoms: C_1  and  C_2 
REMARK    2  A    between atoms: C_2  and  C_3 
REMARK    3  A    between atoms: N_7  and  C_9 
REMARK    4  A    between atoms: C_9  and  C_10 
REMARK    5  A    between atoms: C_10  and  C_12 
ROOT
ATOM      1  C   LIG d   1       3.875   0.109 -11.203  0.00  0.00     0.016 A 
ATOM      2  C   LIG d   1       3.854   1.470 -10.939  0.00  0.00    -0.047 A 
ATOM      3  C   LIG d   1       3.741   1.885  -9.621  0.00  0.00     0.002 A 
ATOM      4  C   LIG d   1       3.652   0.935  -8.621  0.00  0.00     0.172 A 
ATOM      5  N   LIG d   1       3.675  -0.352  -8.909  0.00  0.00    -0.196 N 
ATOM      6  C   LIG d   1       3.776  -0.782 -10.151  0.00  0.00     0.175 A 
ATOM      7  H   LIG d   1       3.926   2.190 -11.740  0.00  0.00     0.062 H 
ATOM      8  H   LIG d   1       3.721   2.937  -9.378  0.00  0.00     0.068 H 
ATOM      9  H   LIG d   1       3.562   1.250  -7.592  0.00  0.00     0.138 H 
ATOM     10  H   LIG d   1       3.787  -1.844 -10.348  0.00  0.00     0.138 H 
ENDROOT
BRANCH   5  11
ATOM     11  C   LIG d   1       3.580  -1.328  -7.820  0.00  0.00     0.212 C 
ATOM     12  H   LIG d   1       2.705  -1.106  -7.209  0.00  0.00     0.112 H 
ATOM     13  H   LIG d   1       3.486  -2.331  -8.239  0.00  0.00     0.112 H 
BRANCH  11  14
ATOM     14  C   LIG d   1       4.821  -1.253  -6.969  0.00  0.00     0.228 C 
ATOM     15  O   LIG d   1       5.878  -1.663  -7.400  0.00  0.00    -0.285 OA
BRANCH  14  16
ATOM     16  C   LIG d   1       4.750  -0.684  -5.614  0.00  0.00     0.024 A 
ATOM     17  C   LIG d   1       5.909  -0.569  -4.839  0.00  0.00    -0.050 A 
ATOM     18  C   LIG d   1       5.836  -0.029  -3.573  0.00  0.00    -0.043 A 
ATOM     19  H   LIG d   1       6.859  -0.897  -5.234  0.00  0.00     0.062 H 
ATOM     20  C   LIG d   1       4.616   0.387  -3.063  0.00  0.00     0.041 A 
ATOM     21  H   LIG d   1       6.730   0.065  -2.975  0.00  0.00     0.063 H 
ATOM     22  C   LIG d   1       3.464   0.271  -3.823  0.00  0.00    -0.043 A 
ATOM     23 CL   LIG d   1       4.533   1.059  -1.465  0.00  0.00    -0.084 Cl
ATOM     24  C   LIG d   1       3.523  -0.262  -5.093  0.00  0.00    -0.050 A 
ATOM     25  H   LIG d   1       2.517   0.598  -3.420  0.00  0.00     0.063 H 
ATOM     26  H   LIG d   1       2.624  -0.351  -5.685  0.00  0.00     0.062 H 
ENDBRANCH  14  16
ENDBRANCH  11  14
ENDBRANCH   5  11
BRANCH   1  27
ATOM     27  C   LIG d   1       3.998  -0.392 -12.619  0.00  0.00    -0.025 C 
ATOM     28  H   LIG d   1       4.970  -0.865 -12.754  0.00  0.00     0.031 H 
ATOM     29  H   LIG d   1       3.901   0.445 -13.310  0.00  0.00     0.031 H 
BRANCH  27  30
ATOM     30  C   LIG d   1       2.891  -1.412 -12.896  0.00  0.00    -0.061 C 
ATOM     31  H   LIG d   1       3.240  -2.134 -13.635  0.00  0.00     0.023 H 
ATOM     32  H   LIG d   1       2.635  -1.931 -11.972  0.00  0.00     0.023 H 
ATOM     33  H   LIG d   1       2.011  -0.896 -13.280  0.00  0.00     0.023 H 
ENDBRANCH  27  30
ENDBRANCH   1  27
TORSDOF 5
ENDMDL
