MODEL 1
REMARK VINA RESULT:      -6.5      0.000      0.000
REMARK  6 active torsions:
REMARK  status: ('A' for Active; 'I' for Inactive)
REMARK    1  A    between atoms: C_1  and  C_2 
REMARK    2  A    between atoms: C_3  and  C_23 
REMARK    3  A    between atoms: C_9  and  O_22 
REMARK    4  A    between atoms: C_10  and  C_13 
REMARK    5  A    between atoms: C_13  and  N_14 
REMARK    6  A    between atoms: C_19  and  C_21 
ROOT
ATOM      1  C   LIG d   1       4.561  -1.062  -8.015  0.00  0.00     0.114 C 
ATOM      2  C   LIG d   1       4.492  -0.347  -9.169  0.00  0.00     0.067 C 
ATOM      3  C   LIG d   1       5.327   0.863  -9.288  0.00  0.00     0.200 C 
ATOM      4  O   LIG d   1       5.162   1.676 -10.181  0.00  0.00    -0.286 OA
ATOM      5  C   LIG d   1       6.373   1.031  -8.260  0.00  0.00     0.065 A 
ATOM      6  C   LIG d   1       7.383   1.982  -8.400  0.00  0.00    -0.044 A 
ATOM      7  C   LIG d   1       8.337   2.103  -7.430  0.00  0.00    -0.019 A 
ATOM      8  C   LIG d   1       8.302   1.281  -6.305  0.00  0.00     0.129 A 
ATOM      9  C   LIG d   1       7.304   0.333  -6.152  0.00  0.00     0.081 A 
ATOM     10  C   LIG d   1       6.324   0.200  -7.127  0.00  0.00     0.150 A 
ATOM     11  O   LIG d   1       5.332  -0.702  -6.987  0.00  0.00    -0.459 OA
ATOM     12  H   LIG d   1       7.412   2.620  -9.271  0.00  0.00     0.063 H 
ATOM     13  H   LIG d   1       9.121   2.838  -7.534  0.00  0.00     0.065 H 
ENDROOT
BRANCH   9  14
ATOM     14  C   LIG d   1       7.280  -0.550  -4.931  0.00  0.00     0.001 C 
ATOM     15  H   LIG d   1       7.305  -1.595  -5.239  0.00  0.00     0.087 H 
ATOM     16  H   LIG d   1       8.149  -0.333  -4.309  0.00  0.00     0.087 H 
BRANCH  14  17
ATOM     17  N   LIG d   1       6.053  -0.294  -4.165  0.00  0.00     0.241 N 
ATOM     18  C   LIG d   1       5.761  -1.451  -3.311  0.00  0.00    -0.023 C 
ATOM     19  C   LIG d   1       4.442  -1.223  -2.571  0.00  0.00    -0.010 C 
ATOM     20  H   LIG d   1       6.566  -1.578  -2.586  0.00  0.00     0.085 H 
ATOM     21  C   LIG d   1       4.557   0.035  -1.708  0.00  0.00    -0.043 C 
ATOM     22  H   LIG d   1       4.228  -2.083  -1.936  0.00  0.00     0.032 H 
ATOM     23  H   LIG d   1       3.636  -1.096  -3.295  0.00  0.00     0.032 H 
ATOM     24  C   LIG d   1       4.934   1.222  -2.599  0.00  0.00    -0.012 C 
ATOM     25  H   LIG d   1       5.327  -0.111  -0.950  0.00  0.00     0.027 H 
ATOM     26  H   LIG d   1       3.600   0.234  -1.222  0.00  0.00     0.027 H 
ATOM     27  C   LIG d   1       6.236   0.905  -3.337  0.00  0.00    -0.031 C 
ATOM     28  H   LIG d   1       5.072   2.111  -1.983  0.00  0.00     0.032 H 
ATOM     29  H   LIG d   1       4.139   1.400  -3.323  0.00  0.00     0.032 H 
ATOM     30  H   LIG d   1       7.030   0.727  -2.613  0.00  0.00     0.081 H 
ATOM     31  H   LIG d   1       6.508   1.747  -3.973  0.00  0.00     0.081 H 
ATOM     32  H   LIG d   1       5.285  -0.145  -4.803  0.00  0.00     0.204 HD
BRANCH  18  33
ATOM     33  C   LIG d   1       5.651  -2.708  -4.175  0.00  0.00    -0.022 C 
ATOM     34  H   LIG d   1       5.473  -3.574  -3.537  0.00  0.00     0.028 H 
ATOM     35  H   LIG d   1       4.824  -2.597  -4.875  0.00  0.00     0.028 H 
ATOM     36  H   LIG d   1       6.578  -2.851  -4.729  0.00  0.00     0.028 H 
ENDBRANCH  18  33
ENDBRANCH  14  17
ENDBRANCH   9  14
BRANCH   8  37
ATOM     37  O   LIG d   1       9.258   1.408  -5.349  0.00  0.00    -0.506 OA
ATOM     38  H   LIG d   1      10.099   0.987  -5.576  0.00  0.00     0.292 HD
ENDBRANCH   8  37
BRANCH   1  39
ATOM     39  C   LIG d   1       3.727  -2.311  -7.888  0.00  0.00    -0.006 C 
ATOM     40  H   LIG d   1       3.537  -2.724  -8.878  0.00  0.00     0.031 H 
ATOM     41  H   LIG d   1       4.260  -3.044  -7.284  0.00  0.00     0.031 H 
ATOM     42  H   LIG d   1       2.778  -2.066  -7.409  0.00  0.00     0.031 H 
ENDBRANCH   1  39
BRANCH   2  43
ATOM     43  C   LIG d   1       3.604  -0.773 -10.277  0.00  0.00    -0.011 A 
ATOM     44  C   LIG d   1       4.130  -1.457 -11.371  0.00  0.00    -0.054 A 
ATOM     45  C   LIG d   1       3.298  -1.856 -12.397  0.00  0.00    -0.061 A 
ATOM     46  H   LIG d   1       5.186  -1.678 -11.415  0.00  0.00     0.062 H 
ATOM     47  C   LIG d   1       1.946  -1.567 -12.347  0.00  0.00    -0.062 A 
ATOM     48  H   LIG d   1       3.704  -2.390 -13.244  0.00  0.00     0.062 H 
ATOM     49  C   LIG d   1       1.420  -0.883 -11.266  0.00  0.00    -0.061 A 
ATOM     50  H   LIG d   1       1.299  -1.877 -13.154  0.00  0.00     0.062 H 
ATOM     51  C   LIG d   1       2.241  -0.485 -10.231  0.00  0.00    -0.054 A 
ATOM     52  H   LIG d   1       0.363  -0.661 -11.232  0.00  0.00     0.062 H 
ATOM     53  H   LIG d   1       1.829   0.049  -9.388  0.00  0.00     0.062 H 
ENDBRANCH   2  43
TORSDOF 6
ENDMDL
MODEL 2
REMARK VINA RESULT:      -6.4      1.436      1.748
REMARK  6 active torsions:
REMARK  status: ('A' for Active; 'I' for Inactive)
REMARK    1  A    between atoms: C_1  and  C_2 
REMARK    2  A    between atoms: C_3  and  C_23 
REMARK    3  A    between atoms: C_9  and  O_22 
REMARK    4  A    between atoms: C_10  and  C_13 
REMARK    5  A    between atoms: C_13  and  N_14 
REMARK    6  A    between atoms: C_19  and  C_21 
ROOT
ATOM      1  C   LIG d   1       5.782  -0.361  -7.792  0.00  0.00     0.114 C 
ATOM      2  C   LIG d   1       6.131   0.417  -8.850  0.00  0.00     0.067 C 
ATOM      3  C   LIG d   1       7.047   1.548  -8.610  0.00  0.00     0.200 C 
ATOM      4  O   LIG d   1       7.230   2.419  -9.443  0.00  0.00    -0.286 OA
ATOM      5  C   LIG d   1       7.726   1.563  -7.300  0.00  0.00     0.065 A 
ATOM      6  C   LIG d   1       8.795   2.421  -7.045  0.00  0.00    -0.044 A 
ATOM      7  C   LIG d   1       9.402   2.400  -5.821  0.00  0.00    -0.019 A 
ATOM      8  C   LIG d   1       8.956   1.527  -4.831  0.00  0.00     0.129 A 
ATOM      9  C   LIG d   1       7.894   0.671  -5.070  0.00  0.00     0.081 A 
ATOM     10  C   LIG d   1       7.264   0.681  -6.306  0.00  0.00     0.150 A 
ATOM     11  O   LIG d   1       6.215  -0.130  -6.551  0.00  0.00    -0.459 OA
ATOM     12  H   LIG d   1       9.143   3.098  -7.811  0.00  0.00     0.063 H 
ATOM     13  H   LIG d   1      10.231   3.062  -5.620  0.00  0.00     0.065 H 
ENDROOT
BRANCH   9  14
ATOM     14  C   LIG d   1       7.424  -0.270  -3.990  0.00  0.00     0.001 C 
ATOM     15  H   LIG d   1       7.607  -1.298  -4.300  0.00  0.00     0.087 H 
ATOM     16  H   LIG d   1       7.969  -0.065  -3.068  0.00  0.00     0.087 H 
BRANCH  14  17
ATOM     17  N   LIG d   1       5.986  -0.074  -3.762  0.00  0.00     0.241 N 
ATOM     18  C   LIG d   1       5.428  -1.266  -3.112  0.00  0.00    -0.023 C 
ATOM     19  C   LIG d   1       3.917  -1.101  -2.946  0.00  0.00    -0.010 C 
ATOM     20  H   LIG d   1       5.889  -1.393  -2.132  0.00  0.00     0.085 H 
ATOM     21  C   LIG d   1       3.635   0.132  -2.084  0.00  0.00    -0.043 C 
ATOM     22  H   LIG d   1       3.505  -1.986  -2.461  0.00  0.00     0.032 H 
ATOM     23  H   LIG d   1       3.455  -0.974  -3.925  0.00  0.00     0.032 H 
ATOM     24  C   LIG d   1       4.284   1.358  -2.733  0.00  0.00    -0.012 C 
ATOM     25  H   LIG d   1       4.052  -0.017  -1.087  0.00  0.00     0.027 H 
ATOM     26  H   LIG d   1       2.558   0.287  -2.009  0.00  0.00     0.027 H 
ATOM     27  C   LIG d   1       5.782   1.102  -2.907  0.00  0.00    -0.031 C 
ATOM     28  H   LIG d   1       4.135   2.229  -2.096  0.00  0.00     0.032 H 
ATOM     29  H   LIG d   1       3.830   1.536  -3.708  0.00  0.00     0.032 H 
ATOM     30  H   LIG d   1       6.236   0.924  -1.932  0.00  0.00     0.081 H 
ATOM     31  H   LIG d   1       6.248   1.972  -3.370  0.00  0.00     0.081 H 
ATOM     32  H   LIG d   1       5.523   0.072  -4.648  0.00  0.00     0.204 HD
BRANCH  18  33
ATOM     33  C   LIG d   1       5.715  -2.497  -3.973  0.00  0.00    -0.022 C 
ATOM     34  H   LIG d   1       6.616  -2.327  -4.563  0.00  0.00     0.028 H 
ATOM     35  H   LIG d   1       5.861  -3.365  -3.330  0.00  0.00     0.028 H 
ATOM     36  H   LIG d   1       4.873  -2.678  -4.641  0.00  0.00     0.028 H 
ENDBRANCH  18  33
ENDBRANCH  14  17
ENDBRANCH   9  14
BRANCH   8  37
ATOM     37  O   LIG d   1       9.570   1.514  -3.620  0.00  0.00    -0.506 OA
ATOM     38  H   LIG d   1       9.371   2.284  -3.070  0.00  0.00     0.292 HD
ENDBRANCH   8  37
BRANCH   1  39
ATOM     39  C   LIG d   1       4.861  -1.530  -8.028  0.00  0.00    -0.006 C 
ATOM     40  H   LIG d   1       4.966  -2.247  -7.214  0.00  0.00     0.031 H 
ATOM     41  H   LIG d   1       3.830  -1.178  -8.071  0.00  0.00     0.031 H 
ATOM     42  H   LIG d   1       5.120  -2.011  -8.972  0.00  0.00     0.031 H 
ENDBRANCH   1  39
BRANCH   2  43
ATOM     43  C   LIG d   1       5.607   0.136 -10.208  0.00  0.00    -0.011 A 
ATOM     44  C   LIG d   1       6.344  -0.650 -11.093  0.00  0.00    -0.054 A 
ATOM     45  C   LIG d   1       5.849  -0.913 -12.354  0.00  0.00    -0.061 A 
ATOM     46  H   LIG d   1       7.299  -1.055 -10.791  0.00  0.00     0.062 H 
ATOM     47  C   LIG d   1       4.630  -0.389 -12.745  0.00  0.00    -0.062 A 
ATOM     48  H   LIG d   1       6.417  -1.525 -13.039  0.00  0.00     0.062 H 
ATOM     49  C   LIG d   1       3.897   0.396 -11.873  0.00  0.00    -0.061 A 
ATOM     50  H   LIG d   1       4.248  -0.594 -13.734  0.00  0.00     0.062 H 
ATOM     51  C   LIG d   1       4.379   0.660 -10.607  0.00  0.00    -0.054 A 
ATOM     52  H   LIG d   1       2.946   0.802 -12.184  0.00  0.00     0.062 H 
ATOM     53  H   LIG d   1       3.806   1.273  -9.928  0.00  0.00     0.062 H 
ENDBRANCH   2  43
TORSDOF 6
ENDMDL
MODEL 3
REMARK VINA RESULT:      -6.3      3.241      4.580
REMARK  6 active torsions:
REMARK  status: ('A' for Active; 'I' for Inactive)
REMARK    1  A    between atoms: C_1  and  C_2 
REMARK    2  A    between atoms: C_3  and  C_23 
REMARK    3  A    between atoms: C_9  and  O_22 
REMARK    4  A    between atoms: C_10  and  C_13 
REMARK    5  A    between atoms: C_13  and  N_14 
REMARK    6  A    between atoms: C_19  and  C_21 
ROOT
ATOM      1  C   LIG d   1       3.570  -4.120  -8.709  0.00  0.00     0.114 C 
ATOM      2  C   LIG d   1       2.710  -4.225  -9.757  0.00  0.00     0.067 C 
ATOM      3  C   LIG d   1       1.908  -3.041 -10.120  0.00  0.00     0.200 C 
ATOM      4  O   LIG d   1       0.964  -3.111 -10.887  0.00  0.00    -0.286 OA
ATOM      5  C   LIG d   1       2.316  -1.768  -9.496  0.00  0.00     0.065 A 
ATOM      6  C   LIG d   1       1.815  -0.546  -9.942  0.00  0.00    -0.044 A 
ATOM      7  C   LIG d   1       2.223   0.613  -9.343  0.00  0.00    -0.019 A 
ATOM      8  C   LIG d   1       3.136   0.575  -8.291  0.00  0.00     0.129 A 
ATOM      9  C   LIG d   1       3.641  -0.632  -7.836  0.00  0.00     0.081 A 
ATOM     10  C   LIG d   1       3.234  -1.818  -8.432  0.00  0.00     0.150 A 
ATOM     11  O   LIG d   1       3.699  -3.004  -7.989  0.00  0.00    -0.459 OA
ATOM     12  H   LIG d   1       1.107  -0.514 -10.758  0.00  0.00     0.063 H 
ATOM     13  H   LIG d   1       1.836   1.561  -9.686  0.00  0.00     0.065 H 
ENDROOT
BRANCH   9  14
ATOM     14  C   LIG d   1       4.629  -0.656  -6.699  0.00  0.00     0.001 C 
ATOM     15  H   LIG d   1       5.479  -1.283  -6.970  0.00  0.00     0.087 H 
ATOM     16  H   LIG d   1       4.975   0.357  -6.495  0.00  0.00     0.087 H 
BRANCH  14  17
ATOM     17  N   LIG d   1       3.981  -1.203  -5.499  0.00  0.00     0.241 N 
ATOM     18  C   LIG d   1       4.992  -1.841  -4.646  0.00  0.00    -0.023 C 
ATOM     19  C   LIG d   1       4.311  -2.482  -3.436  0.00  0.00    -0.010 C 
ATOM     20  H   LIG d   1       5.705  -1.090  -4.306  0.00  0.00     0.085 H 
ATOM     21  C   LIG d   1       3.576  -1.402  -2.638  0.00  0.00    -0.043 C 
ATOM     22  H   LIG d   1       5.063  -2.953  -2.803  0.00  0.00     0.032 H 
ATOM     23  H   LIG d   1       3.598  -3.233  -3.775  0.00  0.00     0.032 H 
ATOM     24  C   LIG d   1       2.576  -0.693  -3.557  0.00  0.00    -0.012 C 
ATOM     25  H   LIG d   1       4.296  -0.678  -2.255  0.00  0.00     0.027 H 
ATOM     26  H   LIG d   1       3.043  -1.862  -1.806  0.00  0.00     0.027 H 
ATOM     27  C   LIG d   1       3.321  -0.118  -4.764  0.00  0.00    -0.031 C 
ATOM     28  H   LIG d   1       2.089   0.115  -3.011  0.00  0.00     0.032 H 
ATOM     29  H   LIG d   1       1.827  -1.407  -3.899  0.00  0.00     0.032 H 
ATOM     30  H   LIG d   1       4.070   0.596  -4.421  0.00  0.00     0.081 H 
ATOM     31  H   LIG d   1       2.613   0.387  -5.421  0.00  0.00     0.081 H 
ATOM     32  H   LIG d   1       3.292  -1.888  -5.773  0.00  0.00     0.204 HD
BRANCH  18  33
ATOM     33  C   LIG d   1       5.728  -2.917  -5.447  0.00  0.00    -0.022 C 
ATOM     34  H   LIG d   1       5.481  -2.817  -6.504  0.00  0.00     0.028 H 
ATOM     35  H   LIG d   1       6.803  -2.799  -5.312  0.00  0.00     0.028 H 
ATOM     36  H   LIG d   1       5.424  -3.902  -5.095  0.00  0.00     0.028 H 
ENDBRANCH  18  33
ENDBRANCH  14  17
ENDBRANCH   9  14
BRANCH   8  37
ATOM     37  O   LIG d   1       3.535   1.733  -7.707  0.00  0.00    -0.506 OA
ATOM     38  H   LIG d   1       2.807   2.312  -7.442  0.00  0.00     0.292 HD
ENDBRANCH   8  37
BRANCH   1  39
ATOM     39  C   LIG d   1       4.408  -5.318  -8.341  0.00  0.00    -0.006 C 
ATOM     40  H   LIG d   1       5.119  -5.523  -9.140  0.00  0.00     0.031 H 
ATOM     41  H   LIG d   1       4.948  -5.112  -7.417  0.00  0.00     0.031 H 
ATOM     42  H   LIG d   1       3.760  -6.183  -8.199  0.00  0.00     0.031 H 
ENDBRANCH   1  39
BRANCH   2  43
ATOM     43  C   LIG d   1       2.583  -5.492 -10.515  0.00  0.00    -0.011 A 
ATOM     44  C   LIG d   1       3.379  -5.720 -11.637  0.00  0.00    -0.054 A 
ATOM     45  C   LIG d   1       3.260  -6.904 -12.335  0.00  0.00    -0.061 A 
ATOM     46  H   LIG d   1       4.089  -4.971 -11.957  0.00  0.00     0.062 H 
ATOM     47  C   LIG d   1       2.346  -7.860 -11.931  0.00  0.00    -0.062 A 
ATOM     48  H   LIG d   1       3.879  -7.082 -13.203  0.00  0.00     0.062 H 
ATOM     49  C   LIG d   1       1.551  -7.638 -10.822  0.00  0.00    -0.061 A 
ATOM     50  H   LIG d   1       2.254  -8.783 -12.483  0.00  0.00     0.062 H 
ATOM     51  C   LIG d   1       1.664  -6.460 -10.112  0.00  0.00    -0.054 A 
ATOM     52  H   LIG d   1       0.838  -8.388 -10.511  0.00  0.00     0.062 H 
ATOM     53  H   LIG d   1       1.043  -6.288  -9.246  0.00  0.00     0.062 H 
ENDBRANCH   2  43
TORSDOF 6
ENDMDL
MODEL 4
REMARK VINA RESULT:      -6.3      2.989      7.137
REMARK  6 active torsions:
REMARK  status: ('A' for Active; 'I' for Inactive)
REMARK    1  A    between atoms: C_1  and  C_2 
REMARK    2  A    between atoms: C_3  and  C_23 
REMARK    3  A    between atoms: C_9  and  O_22 
REMARK    4  A    between atoms: C_10  and  C_13 
REMARK    5  A    between atoms: C_13  and  N_14 
REMARK    6  A    between atoms: C_19  and  C_21 
ROOT
ATOM      1  C   LIG d   1       4.459  -2.000  -6.137  0.00  0.00     0.114 C 
ATOM      2  C   LIG d   1       4.033  -0.746  -5.834  0.00  0.00     0.067 C 
ATOM      3  C   LIG d   1       3.366   0.037  -6.892  0.00  0.00     0.200 C 
ATOM      4  O   LIG d   1       3.158   1.233  -6.777  0.00  0.00    -0.286 OA
ATOM      5  C   LIG d   1       2.968  -0.714  -8.098  0.00  0.00     0.065 A 
ATOM      6  C   LIG d   1       2.113  -0.159  -9.050  0.00  0.00    -0.044 A 
ATOM      7  C   LIG d   1       1.762  -0.889 -10.150  0.00  0.00    -0.019 A 
ATOM      8  C   LIG d   1       2.254  -2.181 -10.322  0.00  0.00     0.129 A 
ATOM      9  C   LIG d   1       3.105  -2.744  -9.385  0.00  0.00     0.081 A 
ATOM     10  C   LIG d   1       3.475  -2.015  -8.263  0.00  0.00     0.150 A 
ATOM     11  O   LIG d   1       4.318  -2.537  -7.350  0.00  0.00    -0.459 OA
ATOM     12  H   LIG d   1       1.730   0.842  -8.919  0.00  0.00     0.063 H 
ATOM     13  H   LIG d   1       1.101  -0.463 -10.890  0.00  0.00     0.065 H 
ENDROOT
BRANCH   9  14
ATOM     14  C   LIG d   1       3.628  -4.143  -9.584  0.00  0.00     0.001 C 
ATOM     15  H   LIG d   1       3.246  -4.788  -8.793  0.00  0.00     0.087 H 
ATOM     16  H   LIG d   1       3.299  -4.520 -10.552  0.00  0.00     0.087 H 
BRANCH  14  17
ATOM     17  N   LIG d   1       5.097  -4.128  -9.538  0.00  0.00     0.241 N 
ATOM     18  C   LIG d   1       5.587  -5.466  -9.186  0.00  0.00    -0.023 C 
ATOM     19  C   LIG d   1       7.111  -5.437  -9.057  0.00  0.00    -0.010 C 
ATOM     20  H   LIG d   1       5.302  -6.173  -9.966  0.00  0.00     0.085 H 
ATOM     21  C   LIG d   1       7.722  -5.002 -10.392  0.00  0.00    -0.043 C 
ATOM     22  H   LIG d   1       7.473  -6.432  -8.799  0.00  0.00     0.032 H 
ATOM     23  H   LIG d   1       7.397  -4.731  -8.278  0.00  0.00     0.032 H 
ATOM     24  C   LIG d   1       7.148  -3.638 -10.785  0.00  0.00    -0.012 C 
ATOM     25  H   LIG d   1       7.480  -5.735 -11.161  0.00  0.00     0.027 H 
ATOM     26  H   LIG d   1       8.806  -4.924 -10.289  0.00  0.00     0.027 H 
ATOM     27  C   LIG d   1       5.622  -3.733 -10.850  0.00  0.00    -0.031 C 
ATOM     28  H   LIG d   1       7.537  -3.346 -11.761  0.00  0.00     0.032 H 
ATOM     29  H   LIG d   1       7.434  -2.894 -10.041  0.00  0.00     0.032 H 
ATOM     30  H   LIG d   1       5.336  -4.477 -11.594  0.00  0.00     0.081 H 
ATOM     31  H   LIG d   1       5.209  -2.764 -11.129  0.00  0.00     0.081 H 
ATOM     32  H   LIG d   1       5.403  -3.465  -8.841  0.00  0.00     0.204 HD
BRANCH  18  33
ATOM     33  C   LIG d   1       4.971  -5.902  -7.855  0.00  0.00    -0.022 C 
ATOM     34  H   LIG d   1       4.074  -6.490  -8.045  0.00  0.00     0.028 H 
ATOM     35  H   LIG d   1       5.691  -6.504  -7.301  0.00  0.00     0.028 H 
ATOM     36  H   LIG d   1       4.710  -5.020  -7.270  0.00  0.00     0.028 H 
ENDBRANCH  18  33
ENDBRANCH  14  17
ENDBRANCH   9  14
BRANCH   8  37
ATOM     37  O   LIG d   1       1.895  -2.897 -11.418  0.00  0.00    -0.506 OA
ATOM     38  H   LIG d   1       2.484  -2.777 -12.177  0.00  0.00     0.292 HD
ENDBRANCH   8  37
BRANCH   1  39
ATOM     39  C   LIG d   1       5.126  -2.817  -5.060  0.00  0.00    -0.006 C 
ATOM     40  H   LIG d   1       4.425  -2.979  -4.241  0.00  0.00     0.031 H 
ATOM     41  H   LIG d   1       5.434  -3.778  -5.470  0.00  0.00     0.031 H 
ATOM     42  H   LIG d   1       6.001  -2.282  -4.689  0.00  0.00     0.031 H 
ENDBRANCH   1  39
BRANCH   2  43
ATOM     43  C   LIG d   1       4.230  -0.181  -4.478  0.00  0.00    -0.011 A 
ATOM     44  C   LIG d   1       3.160  -0.106  -3.588  0.00  0.00    -0.054 A 
ATOM     45  C   LIG d   1       3.351   0.415  -2.325  0.00  0.00    -0.061 A 
ATOM     46  H   LIG d   1       2.183  -0.459  -3.886  0.00  0.00     0.062 H 
ATOM     47  C   LIG d   1       4.599   0.874  -1.944  0.00  0.00    -0.062 A 
ATOM     48  H   LIG d   1       2.522   0.470  -1.633  0.00  0.00     0.062 H 
ATOM     49  C   LIG d   1       5.663   0.808  -2.825  0.00  0.00    -0.061 A 
ATOM     50  H   LIG d   1       4.743   1.285  -0.956  0.00  0.00     0.062 H 
ATOM     51  C   LIG d   1       5.486   0.282  -4.088  0.00  0.00    -0.054 A 
ATOM     52  H   LIG d   1       6.636   1.168  -2.522  0.00  0.00     0.062 H 
ATOM     53  H   LIG d   1       6.318   0.231  -4.775  0.00  0.00     0.062 H 
ENDBRANCH   2  43
TORSDOF 6
ENDMDL
MODEL 5
REMARK VINA RESULT:      -6.1      2.086      5.871
REMARK  6 active torsions:
REMARK  status: ('A' for Active; 'I' for Inactive)
REMARK    1  A    between atoms: C_1  and  C_2 
REMARK    2  A    between atoms: C_3  and  C_23 
REMARK    3  A    between atoms: C_9  and  O_22 
REMARK    4  A    between atoms: C_10  and  C_13 
REMARK    5  A    between atoms: C_13  and  N_14 
REMARK    6  A    between atoms: C_19  and  C_21 
ROOT
ATOM      1  C   LIG d   1       8.002   1.266  -6.324  0.00  0.00     0.114 C 
ATOM      2  C   LIG d   1       8.384   1.947  -7.436  0.00  0.00     0.067 C 
ATOM      3  C   LIG d   1       7.582   1.781  -8.663  0.00  0.00     0.200 C 
ATOM      4  O   LIG d   1       7.976   2.169  -9.749  0.00  0.00    -0.286 OA
ATOM      5  C   LIG d   1       6.275   1.116  -8.496  0.00  0.00     0.065 A 
ATOM      6  C   LIG d   1       5.320   1.125  -9.512  0.00  0.00    -0.044 A 
ATOM      7  C   LIG d   1       4.119   0.504  -9.317  0.00  0.00    -0.019 A 
ATOM      8  C   LIG d   1       3.848  -0.136  -8.109  0.00  0.00     0.129 A 
ATOM      9  C   LIG d   1       4.788  -0.155  -7.093  0.00  0.00     0.081 A 
ATOM     10  C   LIG d   1       6.015   0.469  -7.276  0.00  0.00     0.150 A 
ATOM     11  O   LIG d   1       6.951   0.444  -6.305  0.00  0.00    -0.459 OA
ATOM     12  H   LIG d   1       5.528   1.622 -10.449  0.00  0.00     0.063 H 
ATOM     13  H   LIG d   1       3.377   0.509 -10.101  0.00  0.00     0.065 H 
ENDROOT
BRANCH   9  14
ATOM     14  C   LIG d   1       4.480  -0.850  -5.791  0.00  0.00     0.001 C 
ATOM     15  H   LIG d   1       3.465  -1.244  -5.822  0.00  0.00     0.087 H 
ATOM     16  H   LIG d   1       5.184  -1.668  -5.640  0.00  0.00     0.087 H 
BRANCH  14  17
ATOM     17  N   LIG d   1       4.599   0.109  -4.684  0.00  0.00     0.241 N 
ATOM     18  C   LIG d   1       3.332   0.159  -3.944  0.00  0.00    -0.023 C 
ATOM     19  C   LIG d   1       3.424   1.215  -2.841  0.00  0.00    -0.010 C 
ATOM     20  H   LIG d   1       3.134  -0.816  -3.499  0.00  0.00     0.085 H 
ATOM     21  C   LIG d   1       4.561   0.848  -1.884  0.00  0.00    -0.043 C 
ATOM     22  H   LIG d   1       2.483   1.249  -2.291  0.00  0.00     0.032 H 
ATOM     23  H   LIG d   1       3.622   2.190  -3.285  0.00  0.00     0.032 H 
ATOM     24  C   LIG d   1       5.865   0.725  -2.678  0.00  0.00    -0.012 C 
ATOM     25  H   LIG d   1       4.339  -0.103  -1.400  0.00  0.00     0.027 H 
ATOM     26  H   LIG d   1       4.668   1.626  -1.128  0.00  0.00     0.027 H 
ATOM     27  C   LIG d   1       5.683  -0.312  -3.788  0.00  0.00    -0.031 C 
ATOM     28  H   LIG d   1       6.669   0.410  -2.013  0.00  0.00     0.032 H 
ATOM     29  H   LIG d   1       6.114   1.690  -3.120  0.00  0.00     0.032 H 
ATOM     30  H   LIG d   1       5.434  -1.277  -3.347  0.00  0.00     0.081 H 
ATOM     31  H   LIG d   1       6.609  -0.402  -4.357  0.00  0.00     0.081 H 
ATOM     32  H   LIG d   1       4.808   1.024  -5.055  0.00  0.00     0.204 HD
BRANCH  18  33
ATOM     33  C   LIG d   1       2.197   0.522  -4.903  0.00  0.00    -0.022 C 
ATOM     34  H   LIG d   1       2.227   1.591  -5.116  0.00  0.00     0.028 H 
ATOM     35  H   LIG d   1       2.312  -0.037  -5.831  0.00  0.00     0.028 H 
ATOM     36  H   LIG d   1       1.240   0.271  -4.445  0.00  0.00     0.028 H 
ENDBRANCH  18  33
ENDBRANCH  14  17
ENDBRANCH   9  14
BRANCH   8  37
ATOM     37  O   LIG d   1       2.650  -0.747  -7.927  0.00  0.00    -0.506 OA
ATOM     38  H   LIG d   1       1.889  -0.209  -8.190  0.00  0.00     0.292 HD
ENDBRANCH   8  37
BRANCH   1  39
ATOM     39  C   LIG d   1       8.803   1.441  -5.059  0.00  0.00    -0.006 C 
ATOM     40  H   LIG d   1       9.201   2.454  -5.018  0.00  0.00     0.031 H 
ATOM     41  H   LIG d   1       8.161   1.267  -4.195  0.00  0.00     0.031 H 
ATOM     42  H   LIG d   1       9.626   0.726  -5.050  0.00  0.00     0.031 H 
ENDBRANCH   1  39
BRANCH   2  43
ATOM     43  C   LIG d   1       9.573   2.832  -7.416  0.00  0.00    -0.011 A 
ATOM     44  C   LIG d   1       9.430   4.189  -7.131  0.00  0.00    -0.054 A 
ATOM     45  C   LIG d   1      10.540   5.008  -7.109  0.00  0.00    -0.061 A 
ATOM     46  H   LIG d   1       8.452   4.599  -6.925  0.00  0.00     0.062 H 
ATOM     47  C   LIG d   1      11.793   4.487  -7.380  0.00  0.00    -0.062 A 
ATOM     48  H   LIG d   1      10.431   6.059  -6.885  0.00  0.00     0.062 H 
ATOM     49  C   LIG d   1      11.940   3.142  -7.669  0.00  0.00    -0.061 A 
ATOM     50  H   LIG d   1      12.658   5.132  -7.365  0.00  0.00     0.062 H 
ATOM     51  C   LIG d   1      10.837   2.313  -7.688  0.00  0.00    -0.054 A 
ATOM     52  H   LIG d   1      12.920   2.741  -7.879  0.00  0.00     0.062 H 
ATOM     53  H   LIG d   1      10.954   1.263  -7.913  0.00  0.00     0.062 H 
ENDBRANCH   2  43
TORSDOF 6
ENDMDL
MODEL 6
REMARK VINA RESULT:      -6.0      3.119      7.679
REMARK  6 active torsions:
REMARK  status: ('A' for Active; 'I' for Inactive)
REMARK    1  A    between atoms: C_1  and  C_2 
REMARK    2  A    between atoms: C_3  and  C_23 
REMARK    3  A    between atoms: C_9  and  O_22 
REMARK    4  A    between atoms: C_10  and  C_13 
REMARK    5  A    between atoms: C_13  and  N_14 
REMARK    6  A    between atoms: C_19  and  C_21 
ROOT
ATOM      1  C   LIG d   1       4.807  -2.066  -6.563  0.00  0.00     0.114 C 
ATOM      2  C   LIG d   1       4.195  -0.998  -5.986  0.00  0.00     0.067 C 
ATOM      3  C   LIG d   1       3.394  -0.107  -6.847  0.00  0.00     0.200 C 
ATOM      4  O   LIG d   1       3.004   0.982  -6.463  0.00  0.00    -0.286 OA
ATOM      5  C   LIG d   1       3.096  -0.612  -8.201  0.00  0.00     0.065 A 
ATOM      6  C   LIG d   1       2.147   0.006  -9.015  0.00  0.00    -0.044 A 
ATOM      7  C   LIG d   1       1.894  -0.496 -10.260  0.00  0.00    -0.019 A 
ATOM      8  C   LIG d   1       2.579  -1.620 -10.716  0.00  0.00     0.129 A 
ATOM      9  C   LIG d   1       3.525  -2.243  -9.919  0.00  0.00     0.081 A 
ATOM     10  C   LIG d   1       3.797  -1.744  -8.652  0.00  0.00     0.150 A 
ATOM     11  O   LIG d   1       4.729  -2.324  -7.870  0.00  0.00    -0.459 OA
ATOM     12  H   LIG d   1       1.614   0.877  -8.663  0.00  0.00     0.063 H 
ATOM     13  H   LIG d   1       1.160  -0.020 -10.893  0.00  0.00     0.065 H 
ENDROOT
BRANCH   9  14
ATOM     14  C   LIG d   1       4.257  -3.460 -10.425  0.00  0.00     0.001 C 
ATOM     15  H   LIG d   1       4.872  -3.183 -11.281  0.00  0.00     0.087 H 
ATOM     16  H   LIG d   1       4.893  -3.857  -9.634  0.00  0.00     0.087 H 
BRANCH  14  17
ATOM     17  N   LIG d   1       3.284  -4.483 -10.831  0.00  0.00     0.241 N 
ATOM     18  C   LIG d   1       3.933  -5.443 -11.732  0.00  0.00    -0.023 C 
ATOM     19  C   LIG d   1       2.904  -6.463 -12.222  0.00  0.00    -0.010 C 
ATOM     20  H   LIG d   1       4.731  -5.959 -11.198  0.00  0.00     0.085 H 
ATOM     21  C   LIG d   1       2.317  -7.206 -11.019  0.00  0.00    -0.043 C 
ATOM     22  H   LIG d   1       3.388  -7.177 -12.889  0.00  0.00     0.032 H 
ATOM     23  H   LIG d   1       2.106  -5.948 -12.756  0.00  0.00     0.032 H 
ATOM     24  C   LIG d   1       1.708  -6.190 -10.049  0.00  0.00    -0.012 C 
ATOM     25  H   LIG d   1       3.107  -7.764 -10.514  0.00  0.00     0.027 H 
ATOM     26  H   LIG d   1       1.543  -7.896 -11.357  0.00  0.00     0.027 H 
ATOM     27  C   LIG d   1       2.781  -5.178  -9.640  0.00  0.00    -0.031 C 
ATOM     28  H   LIG d   1       1.338  -6.706  -9.164  0.00  0.00     0.032 H 
ATOM     29  H   LIG d   1       0.885  -5.668 -10.539  0.00  0.00     0.032 H 
ATOM     30  H   LIG d   1       3.604  -5.700  -9.151  0.00  0.00     0.081 H 
ATOM     31  H   LIG d   1       2.352  -4.452  -8.950  0.00  0.00     0.081 H 
ATOM     32  H   LIG d   1       2.513  -4.041 -11.310  0.00  0.00     0.204 HD
BRANCH  18  33
ATOM     33  C   LIG d   1       4.522  -4.698 -12.931  0.00  0.00    -0.022 C 
ATOM     34  H   LIG d   1       4.266  -3.640 -12.865  0.00  0.00     0.028 H 
ATOM     35  H   LIG d   1       5.606  -4.809 -12.932  0.00  0.00     0.028 H 
ATOM     36  H   LIG d   1       4.114  -5.112 -13.853  0.00  0.00     0.028 H 
ENDBRANCH  18  33
ENDBRANCH  14  17
ENDBRANCH   9  14
BRANCH   8  37
ATOM     37  O   LIG d   1       2.317  -2.111 -11.954  0.00  0.00    -0.506 OA
ATOM     38  H   LIG d   1       1.867  -1.485 -12.539  0.00  0.00     0.292 HD
ENDBRANCH   8  37
BRANCH   1  39
ATOM     39  C   LIG d   1       5.613  -2.994  -5.691  0.00  0.00    -0.006 C 
ATOM     40  H   LIG d   1       6.313  -3.556  -6.308  0.00  0.00     0.031 H 
ATOM     41  H   LIG d   1       6.165  -2.412  -4.953  0.00  0.00     0.031 H 
ATOM     42  H   LIG d   1       4.942  -3.685  -5.180  0.00  0.00     0.031 H 
ENDBRANCH   1  39
BRANCH   2  43
ATOM     43  C   LIG d   1       4.327  -0.738  -4.533  0.00  0.00    -0.011 A 
ATOM     44  C   LIG d   1       3.399  -1.271  -3.639  0.00  0.00    -0.054 A 
ATOM     45  C   LIG d   1       3.530  -1.030  -2.287  0.00  0.00    -0.061 A 
ATOM     46  H   LIG d   1       2.581  -1.875  -4.004  0.00  0.00     0.062 H 
ATOM     47  C   LIG d   1       4.572  -0.251  -1.818  0.00  0.00    -0.062 A 
ATOM     48  H   LIG d   1       2.814  -1.446  -1.593  0.00  0.00     0.062 H 
ATOM     49  C   LIG d   1       5.492   0.286  -2.701  0.00  0.00    -0.061 A 
ATOM     50  H   LIG d   1       4.669  -0.061  -0.760  0.00  0.00     0.062 H 
ATOM     51  C   LIG d   1       5.375   0.046  -4.055  0.00  0.00    -0.054 A 
ATOM     52  H   LIG d   1       6.304   0.894  -2.329  0.00  0.00     0.062 H 
ATOM     53  H   LIG d   1       6.095   0.466  -4.742  0.00  0.00     0.062 H 
ENDBRANCH   2  43
TORSDOF 6
ENDMDL
MODEL 7
REMARK VINA RESULT:      -6.0      4.224      7.889
REMARK  6 active torsions:
REMARK  status: ('A' for Active; 'I' for Inactive)
REMARK    1  A    between atoms: C_1  and  C_2 
REMARK    2  A    between atoms: C_3  and  C_23 
REMARK    3  A    between atoms: C_9  and  O_22 
REMARK    4  A    between atoms: C_10  and  C_13 
REMARK    5  A    between atoms: C_13  and  N_14 
REMARK    6  A    between atoms: C_19  and  C_21 
ROOT
ATOM      1  C   LIG d   1       8.755  -3.222  -4.929  0.00  0.00     0.114 C 
ATOM      2  C   LIG d   1       9.427  -4.403  -4.906  0.00  0.00     0.067 C 
ATOM      3  C   LIG d   1       8.642  -5.652  -4.913  0.00  0.00     0.200 C 
ATOM      4  O   LIG d   1       9.147  -6.734  -4.669  0.00  0.00    -0.286 OA
ATOM      5  C   LIG d   1       7.208  -5.512  -5.231  0.00  0.00     0.065 A 
ATOM      6  C   LIG d   1       6.416  -6.622  -5.519  0.00  0.00    -0.044 A 
ATOM      7  C   LIG d   1       5.093  -6.451  -5.816  0.00  0.00    -0.019 A 
ATOM      8  C   LIG d   1       4.537  -5.173  -5.830  0.00  0.00     0.129 A 
ATOM      9  C   LIG d   1       5.311  -4.062  -5.544  0.00  0.00     0.081 A 
ATOM     10  C   LIG d   1       6.656  -4.218  -5.237  0.00  0.00     0.150 A 
ATOM     11  O   LIG d   1       7.422  -3.150  -4.936  0.00  0.00    -0.459 OA
ATOM     12  H   LIG d   1       6.845  -7.614  -5.509  0.00  0.00     0.063 H 
ATOM     13  H   LIG d   1       4.476  -7.308  -6.040  0.00  0.00     0.065 H 
ENDROOT
BRANCH   9  14
ATOM     14  C   LIG d   1       4.696  -2.686  -5.565  0.00  0.00     0.001 C 
ATOM     15  H   LIG d   1       5.104  -2.120  -6.402  0.00  0.00     0.087 H 
ATOM     16  H   LIG d   1       3.615  -2.773  -5.677  0.00  0.00     0.087 H 
BRANCH  14  17
ATOM     17  N   LIG d   1       5.004  -1.992  -4.307  0.00  0.00     0.241 N 
ATOM     18  C   LIG d   1       5.017  -0.543  -4.540  0.00  0.00    -0.023 C 
ATOM     19  C   LIG d   1       5.416   0.180  -3.253  0.00  0.00    -0.010 C 
ATOM     20  H   LIG d   1       4.023  -0.217  -4.846  0.00  0.00     0.085 H 
ATOM     21  C   LIG d   1       4.406  -0.153  -2.152  0.00  0.00    -0.043 C 
ATOM     22  H   LIG d   1       5.423   1.256  -3.427  0.00  0.00     0.032 H 
ATOM     23  H   LIG d   1       6.410  -0.146  -2.945  0.00  0.00     0.032 H 
ATOM     24  C   LIG d   1       4.346  -1.672  -1.968  0.00  0.00    -0.012 C 
ATOM     25  H   LIG d   1       3.421   0.218  -2.435  0.00  0.00     0.027 H 
ATOM     26  H   LIG d   1       4.717   0.314  -1.217  0.00  0.00     0.027 H 
ATOM     27  C   LIG d   1       3.987  -2.328  -3.303  0.00  0.00    -0.031 C 
ATOM     28  H   LIG d   1       3.589  -1.921  -1.225  0.00  0.00     0.032 H 
ATOM     29  H   LIG d   1       5.318  -2.037  -1.635  0.00  0.00     0.032 H 
ATOM     30  H   LIG d   1       3.015  -1.963  -3.637  0.00  0.00     0.081 H 
ATOM     31  H   LIG d   1       3.944  -3.410  -3.178  0.00  0.00     0.081 H 
ATOM     32  H   LIG d   1       5.911  -2.287  -3.976  0.00  0.00     0.204 HD
BRANCH  18  33
ATOM     33  C   LIG d   1       6.024  -0.213  -5.643  0.00  0.00    -0.022 C 
ATOM     34  H   LIG d   1       6.662   0.609  -5.319  0.00  0.00     0.028 H 
ATOM     35  H   LIG d   1       6.638  -1.089  -5.850  0.00  0.00     0.028 H 
ATOM     36  H   LIG d   1       5.490   0.077  -6.548  0.00  0.00     0.028 H 
ENDBRANCH  18  33
ENDBRANCH  14  17
ENDBRANCH   9  14
BRANCH   8  37
ATOM     37  O   LIG d   1       3.222  -5.016  -6.129  0.00  0.00    -0.506 OA
ATOM     38  H   LIG d   1       2.980  -4.112  -6.376  0.00  0.00     0.292 HD
ENDBRANCH   8  37
BRANCH   1  39
ATOM     39  C   LIG d   1       9.546  -1.940  -4.941  0.00  0.00    -0.006 C 
ATOM     40  H   LIG d   1       8.995  -1.177  -5.489  0.00  0.00     0.031 H 
ATOM     41  H   LIG d   1       9.711  -1.605  -3.917  0.00  0.00     0.031 H 
ATOM     42  H   LIG d   1      10.508  -2.112  -5.425  0.00  0.00     0.031 H 
ENDBRANCH   1  39
BRANCH   2  43
ATOM     43  C   LIG d   1      10.909  -4.435  -4.877  0.00  0.00    -0.011 A 
ATOM     44  C   LIG d   1      11.630  -4.559  -6.064  0.00  0.00    -0.054 A 
ATOM     45  C   LIG d   1      13.009  -4.583  -6.031  0.00  0.00    -0.061 A 
ATOM     46  H   LIG d   1      11.110  -4.634  -7.007  0.00  0.00     0.062 H 
ATOM     47  C   LIG d   1      13.677  -4.495  -4.823  0.00  0.00    -0.062 A 
ATOM     48  H   LIG d   1      13.569  -4.675  -6.950  0.00  0.00     0.062 H 
ATOM     49  C   LIG d   1      12.967  -4.377  -3.642  0.00  0.00    -0.061 A 
ATOM     50  H   LIG d   1      14.756  -4.518  -4.802  0.00  0.00     0.062 H 
ATOM     51  C   LIG d   1      11.588  -4.346  -3.662  0.00  0.00    -0.054 A 
ATOM     52  H   LIG d   1      13.494  -4.309  -2.701  0.00  0.00     0.062 H 
ATOM     53  H   LIG d   1      11.035  -4.254  -2.739  0.00  0.00     0.062 H 
ENDBRANCH   2  43
TORSDOF 6
ENDMDL
MODEL 8
REMARK VINA RESULT:      -6.0      3.356      7.162
REMARK  6 active torsions:
REMARK  status: ('A' for Active; 'I' for Inactive)
REMARK    1  A    between atoms: C_1  and  C_2 
REMARK    2  A    between atoms: C_3  and  C_23 
REMARK    3  A    between atoms: C_9  and  O_22 
REMARK    4  A    between atoms: C_10  and  C_13 
REMARK    5  A    between atoms: C_13  and  N_14 
REMARK    6  A    between atoms: C_19  and  C_21 
ROOT
ATOM      1  C   LIG d   1       9.539   3.477  -4.380  0.00  0.00     0.114 C 
ATOM      2  C   LIG d   1       9.702   4.311  -5.440  0.00  0.00     0.067 C 
ATOM      3  C   LIG d   1       9.373   3.801  -6.784  0.00  0.00     0.200 C 
ATOM      4  O   LIG d   1       9.699   4.395  -7.798  0.00  0.00    -0.286 OA
ATOM      5  C   LIG d   1       8.628   2.528  -6.828  0.00  0.00     0.065 A 
ATOM      6  C   LIG d   1       8.038   2.071  -8.006  0.00  0.00    -0.044 A 
ATOM      7  C   LIG d   1       7.350   0.891  -8.004  0.00  0.00    -0.019 A 
ATOM      8  C   LIG d   1       7.238   0.145  -6.832  0.00  0.00     0.129 A 
ATOM      9  C   LIG d   1       7.821   0.586  -5.656  0.00  0.00     0.081 A 
ATOM     10  C   LIG d   1       8.526   1.782  -5.640  0.00  0.00     0.150 A 
ATOM     11  O   LIG d   1       9.117   2.218  -4.510  0.00  0.00    -0.459 OA
ATOM     12  H   LIG d   1       8.123   2.648  -8.916  0.00  0.00     0.063 H 
ATOM     13  H   LIG d   1       6.892   0.534  -8.914  0.00  0.00     0.065 H 
ENDROOT
BRANCH   9  14
ATOM     14  C   LIG d   1       7.689  -0.230  -4.395  0.00  0.00     0.001 C 
ATOM     15  H   LIG d   1       7.956  -1.265  -4.604  0.00  0.00     0.087 H 
ATOM     16  H   LIG d   1       8.355   0.171  -3.631  0.00  0.00     0.087 H 
BRANCH  14  17
ATOM     17  N   LIG d   1       6.301  -0.169  -3.915  0.00  0.00     0.241 N 
ATOM     18  C   LIG d   1       6.023  -1.343  -3.080  0.00  0.00    -0.023 C 
ATOM     19  C   LIG d   1       4.556  -1.327  -2.644  0.00  0.00    -0.010 C 
ATOM     20  H   LIG d   1       6.663  -1.322  -2.199  0.00  0.00     0.085 H 
ATOM     21  C   LIG d   1       4.282  -0.052  -1.843  0.00  0.00    -0.043 C 
ATOM     22  H   LIG d   1       4.352  -2.199  -2.023  0.00  0.00     0.032 H 
ATOM     23  H   LIG d   1       3.914  -1.349  -3.525  0.00  0.00     0.032 H 
ATOM     24  C   LIG d   1       4.646   1.166  -2.697  0.00  0.00    -0.012 C 
ATOM     25  H   LIG d   1       4.886  -0.054  -0.935  0.00  0.00     0.027 H 
ATOM     26  H   LIG d   1       3.225  -0.007  -1.578  0.00  0.00     0.027 H 
ATOM     27  C   LIG d   1       6.109   1.057  -3.132  0.00  0.00    -0.031 C 
ATOM     28  H   LIG d   1       4.506   2.076  -2.114  0.00  0.00     0.032 H 
ATOM     29  H   LIG d   1       4.007   1.196  -3.580  0.00  0.00     0.032 H 
ATOM     30  H   LIG d   1       6.749   1.027  -2.249  0.00  0.00     0.081 H 
ATOM     31  H   LIG d   1       6.373   1.922  -3.741  0.00  0.00     0.081 H 
ATOM     32  H   LIG d   1       5.674  -0.162  -4.706  0.00  0.00     0.204 HD
BRANCH  18  33
ATOM     33  C   LIG d   1       6.302  -2.616  -3.881  0.00  0.00    -0.022 C 
ATOM     34  H   LIG d   1       5.369  -3.158  -4.041  0.00  0.00     0.028 H 
ATOM     35  H   LIG d   1       6.737  -2.352  -4.845  0.00  0.00     0.028 H 
ATOM     36  H   LIG d   1       6.998  -3.248  -3.330  0.00  0.00     0.028 H 
ENDBRANCH  18  33
ENDBRANCH  14  17
ENDBRANCH   9  14
BRANCH   8  37
ATOM     37  O   LIG d   1       6.550  -1.024  -6.843  0.00  0.00    -0.506 OA
ATOM     38  H   LIG d   1       5.913  -1.100  -7.568  0.00  0.00     0.292 HD
ENDBRANCH   8  37
BRANCH   1  39
ATOM     39  C   LIG d   1       9.855   3.993  -2.999  0.00  0.00    -0.006 C 
ATOM     40  H   LIG d   1       9.473   5.008  -2.894  0.00  0.00     0.031 H 
ATOM     41  H   LIG d   1       9.387   3.349  -2.255  0.00  0.00     0.031 H 
ATOM     42  H   LIG d   1      10.935   3.994  -2.851  0.00  0.00     0.031 H 
ENDBRANCH   1  39
BRANCH   2  43
ATOM     43  C   LIG d   1      10.195   5.697  -5.250  0.00  0.00    -0.011 A 
ATOM     44  C   LIG d   1      11.565   5.953  -5.217  0.00  0.00    -0.054 A 
ATOM     45  C   LIG d   1      12.019   7.245  -5.046  0.00  0.00    -0.061 A 
ATOM     46  H   LIG d   1      12.270   5.143  -5.328  0.00  0.00     0.062 H 
ATOM     47  C   LIG d   1      11.117   8.284  -4.896  0.00  0.00    -0.062 A 
ATOM     48  H   LIG d   1      13.080   7.446  -5.024  0.00  0.00     0.062 H 
ATOM     49  C   LIG d   1       9.757   8.034  -4.923  0.00  0.00    -0.061 A 
ATOM     50  H   LIG d   1      11.476   9.292  -4.759  0.00  0.00     0.062 H 
ATOM     51  C   LIG d   1       9.292   6.747  -5.099  0.00  0.00    -0.054 A 
ATOM     52  H   LIG d   1       9.057   8.849  -4.805  0.00  0.00     0.062 H 
ATOM     53  H   LIG d   1       8.229   6.554  -5.120  0.00  0.00     0.062 H 
ENDBRANCH   2  43
TORSDOF 6
ENDMDL
MODEL 9
REMARK VINA RESULT:      -5.9      2.891      7.559
REMARK  6 active torsions:
REMARK  status: ('A' for Active; 'I' for Inactive)
REMARK    1  A    between atoms: C_1  and  C_2 
REMARK    2  A    between atoms: C_3  and  C_23 
REMARK    3  A    between atoms: C_9  and  O_22 
REMARK    4  A    between atoms: C_10  and  C_13 
REMARK    5  A    between atoms: C_13  and  N_14 
REMARK    6  A    between atoms: C_19  and  C_21 
ROOT
ATOM      1  C   LIG d   1       4.235  -1.199  -6.572  0.00  0.00     0.114 C 
ATOM      2  C   LIG d   1       4.394  -1.641  -5.296  0.00  0.00     0.067 C 
ATOM      3  C   LIG d   1       4.550  -3.091  -5.076  0.00  0.00     0.200 C 
ATOM      4  O   LIG d   1       4.472  -3.588  -3.966  0.00  0.00    -0.286 OA
ATOM      5  C   LIG d   1       4.804  -3.904  -6.281  0.00  0.00     0.065 A 
ATOM      6  C   LIG d   1       5.220  -5.232  -6.188  0.00  0.00    -0.044 A 
ATOM      7  C   LIG d   1       5.451  -5.950  -7.327  0.00  0.00    -0.019 A 
ATOM      8  C   LIG d   1       5.274  -5.360  -8.577  0.00  0.00     0.129 A 
ATOM      9  C   LIG d   1       4.860  -4.043  -8.684  0.00  0.00     0.081 A 
ATOM     10  C   LIG d   1       4.617  -3.300  -7.537  0.00  0.00     0.150 A 
ATOM     11  O   LIG d   1       4.193  -2.023  -7.621  0.00  0.00    -0.459 OA
ATOM     12  H   LIG d   1       5.359  -5.691  -5.220  0.00  0.00     0.063 H 
ATOM     13  H   LIG d   1       5.773  -6.978  -7.259  0.00  0.00     0.065 H 
ENDROOT
BRANCH   9  14
ATOM     14  C   LIG d   1       4.674  -3.418 -10.043  0.00  0.00     0.001 C 
ATOM     15  H   LIG d   1       5.401  -2.617 -10.176  0.00  0.00     0.087 H 
ATOM     16  H   LIG d   1       4.820  -4.174 -10.814  0.00  0.00     0.087 H 
BRANCH  14  17
ATOM     17  N   LIG d   1       3.316  -2.868 -10.147  0.00  0.00     0.241 N 
ATOM     18  C   LIG d   1       3.301  -1.789 -11.142  0.00  0.00    -0.023 C 
ATOM     19  C   LIG d   1       1.908  -1.159 -11.196  0.00  0.00    -0.010 C 
ATOM     20  H   LIG d   1       3.555  -2.195 -12.122  0.00  0.00     0.085 H 
ATOM     21  C   LIG d   1       0.885  -2.229 -11.587  0.00  0.00    -0.043 C 
ATOM     22  H   LIG d   1       1.899  -0.359 -11.937  0.00  0.00     0.032 H 
ATOM     23  H   LIG d   1       1.654  -0.752 -10.218  0.00  0.00     0.032 H 
ATOM     24  C   LIG d   1       0.960  -3.384 -10.585  0.00  0.00    -0.012 C 
ATOM     25  H   LIG d   1       1.109  -2.599 -12.588  0.00  0.00     0.027 H 
ATOM     26  H   LIG d   1      -0.117  -1.799 -11.572  0.00  0.00     0.027 H 
ATOM     27  C   LIG d   1       2.389  -3.932 -10.552  0.00  0.00    -0.031 C 
ATOM     28  H   LIG d   1       0.274  -4.175 -10.888  0.00  0.00     0.032 H 
ATOM     29  H   LIG d   1       0.687  -3.024  -9.593  0.00  0.00     0.032 H 
ATOM     30  H   LIG d   1       2.662  -4.292 -11.544  0.00  0.00     0.081 H 
ATOM     31  H   LIG d   1       2.447  -4.754  -9.840  0.00  0.00     0.081 H 
ATOM     32  H   LIG d   1       3.033  -2.502  -9.250  0.00  0.00     0.204 HD
BRANCH  18  33
ATOM     33  C   LIG d   1       4.327  -0.723 -10.752  0.00  0.00    -0.022 C 
ATOM     34  H   LIG d   1       5.116  -0.685 -11.504  0.00  0.00     0.028 H 
ATOM     35  H   LIG d   1       3.838   0.249 -10.691  0.00  0.00     0.028 H 
ATOM     36  H   LIG d   1       4.761  -0.973  -9.784  0.00  0.00     0.028 H 
ENDBRANCH  18  33
ENDBRANCH  14  17
ENDBRANCH   9  14
BRANCH   8  37
ATOM     37  O   LIG d   1       5.511  -6.083  -9.701  0.00  0.00    -0.506 OA
ATOM     38  H   LIG d   1       6.437  -6.084  -9.980  0.00  0.00     0.292 HD
ENDBRANCH   8  37
BRANCH   1  39
ATOM     39  C   LIG d   1       4.093   0.282  -6.811  0.00  0.00    -0.006 C 
ATOM     40  H   LIG d   1       4.962   0.647  -7.358  0.00  0.00     0.031 H 
ATOM     41  H   LIG d   1       3.192   0.471  -7.393  0.00  0.00     0.031 H 
ATOM     42  H   LIG d   1       4.023   0.799  -5.853  0.00  0.00     0.031 H 
ENDBRANCH   1  39
BRANCH   2  43
ATOM     43  C   LIG d   1       4.413  -0.691  -4.158  0.00  0.00    -0.011 A 
ATOM     44  C   LIG d   1       5.619  -0.144  -3.722  0.00  0.00    -0.054 A 
ATOM     45  C   LIG d   1       5.629   0.743  -2.666  0.00  0.00    -0.061 A 
ATOM     46  H   LIG d   1       6.543  -0.413  -4.212  0.00  0.00     0.062 H 
ATOM     47  C   LIG d   1       4.448   1.083  -2.032  0.00  0.00    -0.062 A 
ATOM     48  H   LIG d   1       6.563   1.170  -2.330  0.00  0.00     0.062 H 
ATOM     49  C   LIG d   1       3.249   0.539  -2.457  0.00  0.00    -0.061 A 
ATOM     50  H   LIG d   1       4.461   1.774  -1.203  0.00  0.00     0.062 H 
ATOM     51  C   LIG d   1       3.225  -0.345  -3.516  0.00  0.00    -0.054 A 
ATOM     52  H   LIG d   1       2.329   0.808  -1.958  0.00  0.00     0.062 H 
ATOM     53  H   LIG d   1       2.288  -0.768  -3.846  0.00  0.00     0.062 H 
ENDBRANCH   2  43
TORSDOF 6
ENDMDL
MODEL 10
REMARK VINA RESULT:      -5.9      2.751      6.992
REMARK  6 active torsions:
REMARK  status: ('A' for Active; 'I' for Inactive)
REMARK    1  A    between atoms: C_1  and  C_2 
REMARK    2  A    between atoms: C_3  and  C_23 
REMARK    3  A    between atoms: C_9  and  O_22 
REMARK    4  A    between atoms: C_10  and  C_13 
REMARK    5  A    between atoms: C_13  and  N_14 
REMARK    6  A    between atoms: C_19  and  C_21 
ROOT
ATOM      1  C   LIG d   1       5.347  -1.694  -6.564  0.00  0.00     0.114 C 
ATOM      2  C   LIG d   1       4.466  -0.924  -5.872  0.00  0.00     0.067 C 
ATOM      3  C   LIG d   1       3.487  -0.128  -6.637  0.00  0.00     0.200 C 
ATOM      4  O   LIG d   1       2.821   0.749  -6.116  0.00  0.00    -0.286 OA
ATOM      5  C   LIG d   1       3.366  -0.457  -8.070  0.00  0.00     0.065 A 
ATOM      6  C   LIG d   1       2.313   0.033  -8.842  0.00  0.00    -0.044 A 
ATOM      7  C   LIG d   1       2.231  -0.299 -10.164  0.00  0.00    -0.019 A 
ATOM      8  C   LIG d   1       3.195  -1.125 -10.741  0.00  0.00     0.129 A 
ATOM      9  C   LIG d   1       4.246  -1.618  -9.987  0.00  0.00     0.081 A 
ATOM     10  C   LIG d   1       4.346  -1.287  -8.643  0.00  0.00     0.150 A 
ATOM     11  O   LIG d   1       5.374  -1.740  -7.897  0.00  0.00    -0.459 OA
ATOM     12  H   LIG d   1       1.565   0.673  -8.396  0.00  0.00     0.063 H 
ATOM     13  H   LIG d   1       1.418   0.079 -10.765  0.00  0.00     0.065 H 
ENDROOT
BRANCH   9  14
ATOM     14  C   LIG d   1       5.279  -2.512 -10.625  0.00  0.00     0.001 C 
ATOM     15  H   LIG d   1       5.219  -3.507 -10.185  0.00  0.00     0.087 H 
ATOM     16  H   LIG d   1       5.093  -2.575 -11.697  0.00  0.00     0.087 H 
BRANCH  14  17
ATOM     17  N   LIG d   1       6.619  -1.954 -10.393  0.00  0.00     0.241 N 
ATOM     18  C   LIG d   1       7.618  -3.023 -10.503  0.00  0.00    -0.023 C 
ATOM     19  C   LIG d   1       9.005  -2.465 -10.184  0.00  0.00    -0.010 C 
ATOM     20  H   LIG d   1       7.612  -3.422 -11.518  0.00  0.00     0.085 H 
ATOM     21  C   LIG d   1       9.340  -1.347 -11.174  0.00  0.00    -0.043 C 
ATOM     22  H   LIG d   1       9.746  -3.260 -10.268  0.00  0.00     0.032 H 
ATOM     23  H   LIG d   1       9.013  -2.066  -9.169  0.00  0.00     0.032 H 
ATOM     24  C   LIG d   1       8.253  -0.271 -11.104  0.00  0.00    -0.012 C 
ATOM     25  H   LIG d   1       9.385  -1.755 -12.184  0.00  0.00     0.027 H 
ATOM     26  H   LIG d   1      10.304  -0.906 -10.916  0.00  0.00     0.027 H 
ATOM     27  C   LIG d   1       6.892  -0.911 -11.389  0.00  0.00    -0.031 C 
ATOM     28  H   LIG d   1       8.455   0.501 -11.846  0.00  0.00     0.032 H 
ATOM     29  H   LIG d   1       8.243   0.173 -10.108  0.00  0.00     0.032 H 
ATOM     30  H   LIG d   1       6.901  -1.355 -12.385  0.00  0.00     0.081 H 
ATOM     31  H   LIG d   1       6.114  -0.149 -11.340  0.00  0.00     0.081 H 
ATOM     32  H   LIG d   1       6.659  -1.551  -9.468  0.00  0.00     0.204 HD
BRANCH  18  33
ATOM     33  C   LIG d   1       7.279  -4.141  -9.516  0.00  0.00    -0.022 C 
ATOM     34  H   LIG d   1       8.200  -4.589  -9.142  0.00  0.00     0.028 H 
ATOM     35  H   LIG d   1       6.711  -3.730  -8.682  0.00  0.00     0.028 H 
ATOM     36  H   LIG d   1       6.684  -4.903 -10.019  0.00  0.00     0.028 H 
ENDBRANCH  18  33
ENDBRANCH  14  17
ENDBRANCH   9  14
BRANCH   8  37
ATOM     37  O   LIG d   1       3.100  -1.450 -12.055  0.00  0.00    -0.506 OA
ATOM     38  H   LIG d   1       3.449  -0.775 -12.654  0.00  0.00     0.292 HD
ENDBRANCH   8  37
BRANCH   1  39
ATOM     39  C   LIG d   1       6.340  -2.526  -5.793  0.00  0.00    -0.006 C 
ATOM     40  H   LIG d   1       5.838  -3.007  -4.955  0.00  0.00     0.031 H 
ATOM     41  H   LIG d   1       6.764  -3.286  -6.449  0.00  0.00     0.031 H 
ATOM     42  H   LIG d   1       7.137  -1.883  -5.418  0.00  0.00     0.031 H 
ENDBRANCH   1  39
BRANCH   2  43
ATOM     43  C   LIG d   1       4.487  -0.887  -4.390  0.00  0.00    -0.011 A 
ATOM     44  C   LIG d   1       3.858  -1.891  -3.656  0.00  0.00    -0.054 A 
ATOM     45  C   LIG d   1       3.885  -1.854  -2.277  0.00  0.00    -0.061 A 
ATOM     46  H   LIG d   1       3.352  -2.698  -4.165  0.00  0.00     0.062 H 
ATOM     47  C   LIG d   1       4.526  -0.817  -1.622  0.00  0.00    -0.062 A 
ATOM     48  H   LIG d   1       3.400  -2.633  -1.707  0.00  0.00     0.062 H 
ATOM     49  C   LIG d   1       5.148   0.184  -2.346  0.00  0.00    -0.061 A 
ATOM     50  H   LIG d   1       4.541  -0.790  -0.543  0.00  0.00     0.062 H 
ATOM     51  C   LIG d   1       5.132   0.155  -3.725  0.00  0.00    -0.054 A 
ATOM     52  H   LIG d   1       5.646   0.991  -1.829  0.00  0.00     0.062 H 
ATOM     53  H   LIG d   1       5.618   0.937  -4.288  0.00  0.00     0.062 H 
ENDBRANCH   2  43
TORSDOF 6
ENDMDL
