MODEL 1
REMARK VINA RESULT:      -6.3      0.000      0.000
REMARK  7 active torsions:
REMARK  status: ('A' for Active; 'I' for Inactive)
REMARK    1  A    between atoms: C_1  and  N_2 
REMARK    2  A    between atoms: N_2  and  C_3 
REMARK    3  A    between atoms: N_2  and  C_25 
REMARK    4  A    between atoms: C_6  and  C_7 
REMARK    5  A    between atoms: N_10  and  C_13 
REMARK    6  A    between atoms: C_13  and  C_14 
REMARK    7  A    between atoms: C_14  and  C_16 
ROOT
ATOM      1  C   LIG d   1      10.044   4.737  -2.813  0.00  0.00    -0.015 A 
ATOM      2  C   LIG d   1       9.360   4.853  -4.039  0.00  0.00    -0.038 A 
ATOM      3  C   LIG d   1       9.207   3.754  -4.818  0.00  0.00     0.006 A 
ATOM      4  N   LIG d   1       9.699   2.561  -4.429  0.00  0.00    -0.346 N 
ATOM      5  C   LIG d   1      10.358   2.417  -3.263  0.00  0.00     0.006 A 
ATOM      6  C   LIG d   1      10.551   3.478  -2.441  0.00  0.00    -0.038 A 
ATOM      7  H   LIG d   1       8.963   5.807  -4.356  0.00  0.00     0.064 H 
ATOM      8  H   LIG d   1       8.684   3.834  -5.760  0.00  0.00     0.081 H 
ATOM      9  H   LIG d   1      10.739   1.446  -2.981  0.00  0.00     0.081 H 
ATOM     10  H   LIG d   1      11.083   3.357  -1.509  0.00  0.00     0.064 H 
ENDROOT
BRANCH   1  11
ATOM     11  C   LIG d   1      10.230   5.910  -1.944  0.00  0.00    -0.017 A 
ATOM     12  C   LIG d   1      10.747   5.747  -0.651  0.00  0.00    -0.048 A 
ATOM     13  C   LIG d   1      10.922   6.828   0.156  0.00  0.00     0.010 A 
ATOM     14  H   LIG d   1      11.007   4.761  -0.294  0.00  0.00     0.063 H 
ATOM     15  C   LIG d   1      10.582   8.115  -0.311  0.00  0.00     0.202 A 
ATOM     16  H   LIG d   1      11.320   6.702   1.151  0.00  0.00     0.068 H 
ATOM     17  C   LIG d   1      10.058   8.274  -1.611  0.00  0.00     0.010 A 
ATOM     18  C   LIG d   1       9.891   7.188  -2.412  0.00  0.00    -0.048 A 
ATOM     19  H   LIG d   1       9.792   9.258  -1.970  0.00  0.00     0.068 H 
ATOM     20  H   LIG d   1       9.493   7.309  -3.408  0.00  0.00     0.063 H 
BRANCH  15  21
ATOM     21  N   LIG d   1      10.751   9.179   0.478  0.00  0.00    -0.234 N 
BRANCH  21  22
ATOM     22  C   LIG d   1      11.683   9.114   1.606  0.00  0.00     0.135 C 
ATOM     23  H   LIG d   1      11.618  10.036   2.184  0.00  0.00     0.099 H 
ATOM     24  H   LIG d   1      11.425   8.268   2.242  0.00  0.00     0.099 H 
ATOM     25  H   LIG d   1      12.699   8.991   1.231  0.00  0.00     0.099 H 
ENDBRANCH  21  22
BRANCH  21  26
ATOM     26  C   LIG d   1      10.004  10.412   0.214  0.00  0.00     0.135 C 
ATOM     27  H   LIG d   1      10.663  11.270   0.341  0.00  0.00     0.099 H 
ATOM     28  H   LIG d   1       9.622  10.395  -0.807  0.00  0.00     0.099 H 
ATOM     29  H   LIG d   1       9.170  10.487   0.912  0.00  0.00     0.099 H 
ENDBRANCH  21  26
ENDBRANCH  15  21
ENDBRANCH   1  11
BRANCH   4  30
ATOM     30  C   LIG d   1       9.515   1.393  -5.295  0.00  0.00     0.086 C 
ATOM     31  H   LIG d   1      10.074   1.534  -6.219  0.00  0.00     0.057 H 
ATOM     32  H   LIG d   1       9.876   0.501  -4.784  0.00  0.00     0.057 H 
BRANCH  30  33
ATOM     33  C   LIG d   1       8.050   1.231  -5.615  0.00  0.00     0.183 C 
ATOM     34  O   LIG d   1       7.609   1.649  -6.664  0.00  0.00    -0.290 OA
BRANCH  33  35
ATOM     35  C   LIG d   1       7.158   0.564  -4.654  0.00  0.00     0.019 A 
ATOM     36  C   LIG d   1       6.914  -0.810  -4.759  0.00  0.00    -0.050 A 
ATOM     37  C   LIG d   1       6.081  -1.429  -3.853  0.00  0.00    -0.043 A 
ATOM     38  H   LIG d   1       7.382  -1.385  -5.545  0.00  0.00     0.062 H 
ATOM     39  C   LIG d   1       5.476  -0.692  -2.847  0.00  0.00     0.041 A 
ATOM     40  H   LIG d   1       5.896  -2.491  -3.929  0.00  0.00     0.063 H 
ATOM     41  C   LIG d   1       5.708   0.669  -2.742  0.00  0.00    -0.043 A 
ATOM     42 CL   LIG d   1       4.423  -1.480  -1.713  0.00  0.00    -0.084 Cl
ATOM     43  C   LIG d   1       6.544   1.302  -3.637  0.00  0.00    -0.050 A 
ATOM     44  H   LIG d   1       5.233   1.238  -1.955  0.00  0.00     0.063 H 
ATOM     45  H   LIG d   1       6.724   2.363  -3.553  0.00  0.00     0.062 H 
ENDBRANCH  33  35
ENDBRANCH  30  33
ENDBRANCH   4  30
TORSDOF 7
ENDMDL
MODEL 2
REMARK VINA RESULT:      -6.3      0.268      1.232
REMARK  7 active torsions:
REMARK  status: ('A' for Active; 'I' for Inactive)
REMARK    1  A    between atoms: C_1  and  N_2 
REMARK    2  A    between atoms: N_2  and  C_3 
REMARK    3  A    between atoms: N_2  and  C_25 
REMARK    4  A    between atoms: C_6  and  C_7 
REMARK    5  A    between atoms: N_10  and  C_13 
REMARK    6  A    between atoms: C_13  and  C_14 
REMARK    7  A    between atoms: C_14  and  C_16 
ROOT
ATOM      1  C   LIG d   1      10.113   4.714  -2.697  0.00  0.00    -0.015 A 
ATOM      2  C   LIG d   1       9.392   4.835  -3.901  0.00  0.00    -0.038 A 
ATOM      3  C   LIG d   1       9.233   3.743  -4.689  0.00  0.00     0.006 A 
ATOM      4  N   LIG d   1       9.755   2.553  -4.331  0.00  0.00    -0.346 N 
ATOM      5  C   LIG d   1      10.451   2.405  -3.186  0.00  0.00     0.006 A 
ATOM      6  C   LIG d   1      10.651   3.458  -2.356  0.00  0.00    -0.038 A 
ATOM      7  H   LIG d   1       8.971   5.786  -4.193  0.00  0.00     0.064 H 
ATOM      8  H   LIG d   1       8.681   3.827  -5.614  0.00  0.00     0.081 H 
ATOM      9  H   LIG d   1      10.855   1.437  -2.929  0.00  0.00     0.081 H 
ATOM     10  H   LIG d   1      11.213   3.334  -1.442  0.00  0.00     0.064 H 
ENDROOT
BRANCH   1  11
ATOM     11  C   LIG d   1      10.307   5.878  -1.819  0.00  0.00    -0.017 A 
ATOM     12  C   LIG d   1      11.301   5.851  -0.830  0.00  0.00    -0.048 A 
ATOM     13  C   LIG d   1      11.484   6.925  -0.016  0.00  0.00     0.010 A 
ATOM     14  H   LIG d   1      11.923   4.975  -0.714  0.00  0.00     0.063 H 
ATOM     15  C   LIG d   1      10.672   8.068  -0.168  0.00  0.00     0.202 A 
ATOM     16  H   LIG d   1      12.250   6.903   0.745  0.00  0.00     0.068 H 
ATOM     17  C   LIG d   1       9.670   8.090  -1.160  0.00  0.00     0.010 A 
ATOM     18  C   LIG d   1       9.497   7.014  -1.973  0.00  0.00    -0.048 A 
ATOM     19  H   LIG d   1       9.044   8.962  -1.276  0.00  0.00     0.068 H 
ATOM     20  H   LIG d   1       8.733   7.031  -2.735  0.00  0.00     0.063 H 
BRANCH  15  21
ATOM     21  N   LIG d   1      10.848   9.125   0.630  0.00  0.00    -0.234 N 
BRANCH  21  22
ATOM     22  C   LIG d   1      10.140  10.377   0.353  0.00  0.00     0.135 C 
ATOM     23  H   LIG d   1       9.258  10.169  -0.254  0.00  0.00     0.099 H 
ATOM     24  H   LIG d   1       9.834  10.837   1.293  0.00  0.00     0.099 H 
ATOM     25  H   LIG d   1      10.800  11.056  -0.186  0.00  0.00     0.099 H 
ENDBRANCH  21  22
BRANCH  21  26
ATOM     26  C   LIG d   1      11.749   9.031   1.782  0.00  0.00     0.135 C 
ATOM     27  H   LIG d   1      11.419   8.225   2.436  0.00  0.00     0.099 H 
ATOM     28  H   LIG d   1      12.762   8.828   1.435  0.00  0.00     0.099 H 
ATOM     29  H   LIG d   1      11.735   9.973   2.330  0.00  0.00     0.099 H 
ENDBRANCH  21  26
ENDBRANCH  15  21
ENDBRANCH   1  11
BRANCH   4  30
ATOM     30  C   LIG d   1       9.563   1.394  -5.207  0.00  0.00     0.086 C 
ATOM     31  H   LIG d   1      10.132   1.534  -6.125  0.00  0.00     0.057 H 
ATOM     32  H   LIG d   1       9.908   0.494  -4.699  0.00  0.00     0.057 H 
BRANCH  30  33
ATOM     33  C   LIG d   1       8.099   1.252  -5.539  0.00  0.00     0.183 C 
ATOM     34  O   LIG d   1       7.670   1.688  -6.587  0.00  0.00    -0.290 OA
BRANCH  33  35
ATOM     35  C   LIG d   1       7.192   0.584  -4.593  0.00  0.00     0.019 A 
ATOM     36  C   LIG d   1       6.548   1.325  -3.596  0.00  0.00    -0.050 A 
ATOM     37  C   LIG d   1       5.696   0.693  -2.716  0.00  0.00    -0.043 A 
ATOM     38  H   LIG d   1       6.714   2.389  -3.519  0.00  0.00     0.062 H 
ATOM     39  C   LIG d   1       5.486  -0.673  -2.810  0.00  0.00     0.041 A 
ATOM     40  H   LIG d   1       5.193   1.265  -1.949  0.00  0.00     0.063 H 
ATOM     41  C   LIG d   1       6.126  -1.413  -3.790  0.00  0.00    -0.043 A 
ATOM     42 CL   LIG d   1       4.415  -1.461  -1.693  0.00  0.00    -0.084 Cl
ATOM     43  C   LIG d   1       6.977  -0.795  -4.681  0.00  0.00    -0.050 A 
ATOM     44  H   LIG d   1       5.958  -2.479  -3.857  0.00  0.00     0.063 H 
ATOM     45  H   LIG d   1       7.474  -1.373  -5.446  0.00  0.00     0.062 H 
ENDBRANCH  33  35
ENDBRANCH  30  33
ENDBRANCH   4  30
TORSDOF 7
ENDMDL
MODEL 3
REMARK VINA RESULT:      -6.1      1.178      1.647
REMARK  7 active torsions:
REMARK  status: ('A' for Active; 'I' for Inactive)
REMARK    1  A    between atoms: C_1  and  N_2 
REMARK    2  A    between atoms: N_2  and  C_3 
REMARK    3  A    between atoms: N_2  and  C_25 
REMARK    4  A    between atoms: C_6  and  C_7 
REMARK    5  A    between atoms: N_10  and  C_13 
REMARK    6  A    between atoms: C_13  and  C_14 
REMARK    7  A    between atoms: C_14  and  C_16 
ROOT
ATOM      1  C   LIG d   1       9.960   5.116  -3.404  0.00  0.00    -0.015 A 
ATOM      2  C   LIG d   1       9.606   4.811  -4.732  0.00  0.00    -0.038 A 
ATOM      3  C   LIG d   1       9.657   3.522  -5.152  0.00  0.00     0.006 A 
ATOM      4  N   LIG d   1      10.040   2.540  -4.312  0.00  0.00    -0.346 N 
ATOM      5  C   LIG d   1      10.385   2.800  -3.035  0.00  0.00     0.006 A 
ATOM      6  C   LIG d   1      10.361   4.067  -2.555  0.00  0.00    -0.038 A 
ATOM      7  H   LIG d   1       9.298   5.594  -5.410  0.00  0.00     0.064 H 
ATOM      8  H   LIG d   1       9.387   3.279  -6.169  0.00  0.00     0.081 H 
ATOM      9  H   LIG d   1      10.686   1.988  -2.389  0.00  0.00     0.081 H 
ATOM     10  H   LIG d   1      10.644   4.269  -1.532  0.00  0.00     0.064 H 
ENDROOT
BRANCH   1  11
ATOM     11  C   LIG d   1       9.918   6.504  -2.916  0.00  0.00    -0.017 A 
ATOM     12  C   LIG d   1      10.251   7.560  -3.777  0.00  0.00    -0.048 A 
ATOM     13  C   LIG d   1      10.213   8.843  -3.330  0.00  0.00     0.010 A 
ATOM     14  H   LIG d   1      10.538   7.352  -4.798  0.00  0.00     0.063 H 
ATOM     15  C   LIG d   1       9.838   9.112  -1.998  0.00  0.00     0.202 A 
ATOM     16  H   LIG d   1      10.469   9.655  -3.995  0.00  0.00     0.068 H 
ATOM     17  C   LIG d   1       9.508   8.048  -1.133  0.00  0.00     0.010 A 
ATOM     18  C   LIG d   1       9.544   6.767  -1.589  0.00  0.00    -0.048 A 
ATOM     19  H   LIG d   1       9.225   8.250  -0.111  0.00  0.00     0.068 H 
ATOM     20  H   LIG d   1       9.289   5.952  -0.930  0.00  0.00     0.063 H 
BRANCH  15  21
ATOM     21  N   LIG d   1       9.800  10.371  -1.555  0.00  0.00    -0.234 N 
BRANCH  21  22
ATOM     22  C   LIG d   1       9.946  10.649  -0.123  0.00  0.00     0.135 C 
ATOM     23  H   LIG d   1      10.388   9.783   0.371  0.00  0.00     0.099 H 
ATOM     24  H   LIG d   1      10.593  11.515   0.014  0.00  0.00     0.099 H 
ATOM     25  H   LIG d   1       8.966  10.854   0.308  0.00  0.00     0.099 H 
ENDBRANCH  21  22
BRANCH  21  26
ATOM     26  C   LIG d   1       9.611  11.475  -2.500  0.00  0.00     0.135 C 
ATOM     27  H   LIG d   1      10.243  12.315  -2.208  0.00  0.00     0.099 H 
ATOM     28  H   LIG d   1       9.884  11.146  -3.502  0.00  0.00     0.099 H 
ATOM     29  H   LIG d   1       8.567  11.786  -2.492  0.00  0.00     0.099 H 
ENDBRANCH  21  26
ENDBRANCH  15  21
ENDBRANCH   1  11
BRANCH   4  30
ATOM     30  C   LIG d   1      10.083   1.159  -4.798  0.00  0.00     0.086 C 
ATOM     31  H   LIG d   1      10.836   1.072  -5.580  0.00  0.00     0.057 H 
ATOM     32  H   LIG d   1      10.335   0.491  -3.974  0.00  0.00     0.057 H 
BRANCH  30  33
ATOM     33  C   LIG d   1       8.734   0.780  -5.356  0.00  0.00     0.183 C 
ATOM     34  O   LIG d   1       8.540   0.821  -6.553  0.00  0.00    -0.290 OA
BRANCH  33  35
ATOM     35  C   LIG d   1       7.655   0.360  -4.449  0.00  0.00     0.019 A 
ATOM     36  C   LIG d   1       7.406  -1.000  -4.236  0.00  0.00    -0.050 A 
ATOM     37  C   LIG d   1       6.397  -1.386  -3.381  0.00  0.00    -0.043 A 
ATOM     38  H   LIG d   1       8.007  -1.746  -4.736  0.00  0.00     0.062 H 
ATOM     39  C   LIG d   1       5.622  -0.432  -2.742  0.00  0.00     0.041 A 
ATOM     40  H   LIG d   1       6.207  -2.437  -3.211  0.00  0.00     0.063 H 
ATOM     41  C   LIG d   1       5.858   0.916  -2.954  0.00  0.00    -0.043 A 
ATOM     42 CL   LIG d   1       4.348  -0.928  -1.672  0.00  0.00    -0.084 Cl
ATOM     43  C   LIG d   1       6.869   1.318  -3.802  0.00  0.00    -0.050 A 
ATOM     44  H   LIG d   1       5.250   1.655  -2.453  0.00  0.00     0.063 H 
ATOM     45  H   LIG d   1       7.052   2.370  -3.965  0.00  0.00     0.062 H 
ENDBRANCH  33  35
ENDBRANCH  30  33
ENDBRANCH   4  30
TORSDOF 7
ENDMDL
MODEL 4
REMARK VINA RESULT:      -5.8      7.335     10.908
REMARK  7 active torsions:
REMARK  status: ('A' for Active; 'I' for Inactive)
REMARK    1  A    between atoms: C_1  and  N_2 
REMARK    2  A    between atoms: N_2  and  C_3 
REMARK    3  A    between atoms: N_2  and  C_25 
REMARK    4  A    between atoms: C_6  and  C_7 
REMARK    5  A    between atoms: N_10  and  C_13 
REMARK    6  A    between atoms: C_13  and  C_14 
REMARK    7  A    between atoms: C_14  and  C_16 
ROOT
ATOM      1  C   LIG d   1       9.574  -5.862  -3.381  0.00  0.00    -0.015 A 
ATOM      2  C   LIG d   1       8.791  -6.547  -4.330  0.00  0.00    -0.038 A 
ATOM      3  C   LIG d   1       7.874  -5.858  -5.054  0.00  0.00     0.006 A 
ATOM      4  N   LIG d   1       7.710  -4.532  -4.872  0.00  0.00    -0.346 N 
ATOM      5  C   LIG d   1       8.443  -3.848  -3.972  0.00  0.00     0.006 A 
ATOM      6  C   LIG d   1       9.373  -4.479  -3.213  0.00  0.00    -0.038 A 
ATOM      7  H   LIG d   1       8.918  -7.610  -4.480  0.00  0.00     0.064 H 
ATOM      8  H   LIG d   1       7.269  -6.376  -5.783  0.00  0.00     0.081 H 
ATOM      9  H   LIG d   1       8.287  -2.786  -3.853  0.00  0.00     0.081 H 
ATOM     10  H   LIG d   1       9.955  -3.925  -2.490  0.00  0.00     0.064 H 
ENDROOT
BRANCH   1  11
ATOM     11  C   LIG d   1      10.577  -6.579  -2.578  0.00  0.00    -0.017 A 
ATOM     12  C   LIG d   1      11.866  -6.786  -3.090  0.00  0.00    -0.048 A 
ATOM     13  C   LIG d   1      12.796  -7.447  -2.350  0.00  0.00     0.010 A 
ATOM     14  H   LIG d   1      12.121  -6.420  -4.073  0.00  0.00     0.063 H 
ATOM     15  C   LIG d   1      12.462  -7.925  -1.066  0.00  0.00     0.202 A 
ATOM     16  H   LIG d   1      13.789  -7.606  -2.745  0.00  0.00     0.068 H 
ATOM     17  C   LIG d   1      11.164  -7.719  -0.556  0.00  0.00     0.010 A 
ATOM     18  C   LIG d   1      10.241  -7.052  -1.300  0.00  0.00    -0.048 A 
ATOM     19  H   LIG d   1      10.904  -8.087   0.426  0.00  0.00     0.068 H 
ATOM     20  H   LIG d   1       9.248  -6.891  -0.910  0.00  0.00     0.063 H 
BRANCH  15  21
ATOM     21  N   LIG d   1      13.372  -8.575  -0.336  0.00  0.00    -0.234 N 
BRANCH  21  22
ATOM     22  C   LIG d   1      14.561  -9.140  -0.981  0.00  0.00     0.135 C 
ATOM     23  H   LIG d   1      15.433  -8.966  -0.350  0.00  0.00     0.099 H 
ATOM     24  H   LIG d   1      14.423 -10.212  -1.122  0.00  0.00     0.099 H 
ATOM     25  H   LIG d   1      14.710  -8.662  -1.949  0.00  0.00     0.099 H 
ENDBRANCH  21  22
BRANCH  21  26
ATOM     26  C   LIG d   1      13.182  -8.725   1.109  0.00  0.00     0.135 C 
ATOM     27  H   LIG d   1      12.175  -8.407   1.378  0.00  0.00     0.099 H 
ATOM     28  H   LIG d   1      13.320  -9.769   1.388  0.00  0.00     0.099 H 
ATOM     29  H   LIG d   1      13.910  -8.109   1.637  0.00  0.00     0.099 H 
ENDBRANCH  21  26
ENDBRANCH  15  21
ENDBRANCH   1  11
BRANCH   4  30
ATOM     30  C   LIG d   1       6.710  -3.819  -5.672  0.00  0.00     0.086 C 
ATOM     31  H   LIG d   1       7.084  -2.826  -5.919  0.00  0.00     0.057 H 
ATOM     32  H   LIG d   1       6.516  -4.374  -6.590  0.00  0.00     0.057 H 
BRANCH  30  33
ATOM     33  C   LIG d   1       5.432  -3.692  -4.882  0.00  0.00     0.183 C 
ATOM     34  O   LIG d   1       4.592  -4.565  -4.946  0.00  0.00    -0.290 OA
BRANCH  33  35
ATOM     35  C   LIG d   1       5.205  -2.512  -4.035  0.00  0.00     0.019 A 
ATOM     36  C   LIG d   1       4.234  -2.546  -3.028  0.00  0.00    -0.050 A 
ATOM     37  C   LIG d   1       4.030  -1.438  -2.235  0.00  0.00    -0.043 A 
ATOM     38  H   LIG d   1       3.649  -3.440  -2.870  0.00  0.00     0.062 H 
ATOM     39  C   LIG d   1       4.776  -0.288  -2.440  0.00  0.00     0.041 A 
ATOM     40  H   LIG d   1       3.284  -1.465  -1.453  0.00  0.00     0.063 H 
ATOM     41  C   LIG d   1       5.734  -0.245  -3.439  0.00  0.00    -0.043 A 
ATOM     42 CL   LIG d   1       4.508   1.105  -1.439  0.00  0.00    -0.084 Cl
ATOM     43  C   LIG d   1       5.954  -1.348  -4.237  0.00  0.00    -0.050 A 
ATOM     44  H   LIG d   1       6.312   0.655  -3.593  0.00  0.00     0.063 H 
ATOM     45  H   LIG d   1       6.702  -1.313  -5.014  0.00  0.00     0.062 H 
ENDBRANCH  33  35
ENDBRANCH  30  33
ENDBRANCH   4  30
TORSDOF 7
ENDMDL
MODEL 5
REMARK VINA RESULT:      -5.8      4.480      7.378
REMARK  7 active torsions:
REMARK  status: ('A' for Active; 'I' for Inactive)
REMARK    1  A    between atoms: C_1  and  N_2 
REMARK    2  A    between atoms: N_2  and  C_3 
REMARK    3  A    between atoms: N_2  and  C_25 
REMARK    4  A    between atoms: C_6  and  C_7 
REMARK    5  A    between atoms: N_10  and  C_13 
REMARK    6  A    between atoms: C_13  and  C_14 
REMARK    7  A    between atoms: C_14  and  C_16 
ROOT
ATOM      1  C   LIG d   1      11.436   7.525   3.143  0.00  0.00    -0.015 A 
ATOM      2  C   LIG d   1      11.707   8.709   2.429  0.00  0.00    -0.038 A 
ATOM      3  C   LIG d   1      11.650   8.693   1.074  0.00  0.00     0.006 A 
ATOM      4  N   LIG d   1      11.339   7.561   0.412  0.00  0.00    -0.346 N 
ATOM      5  C   LIG d   1      11.075   6.412   1.065  0.00  0.00     0.006 A 
ATOM      6  C   LIG d   1      11.120   6.359   2.419  0.00  0.00    -0.038 A 
ATOM      7  H   LIG d   1      11.956   9.619   2.955  0.00  0.00     0.064 H 
ATOM      8  H   LIG d   1      11.857   9.597   0.520  0.00  0.00     0.081 H 
ATOM      9  H   LIG d   1      10.828   5.524   0.503  0.00  0.00     0.081 H 
ATOM     10  H   LIG d   1      10.911   5.434   2.936  0.00  0.00     0.064 H 
ENDROOT
BRANCH   1  11
ATOM     11  C   LIG d   1      11.490   7.505   4.613  0.00  0.00    -0.017 A 
ATOM     12  C   LIG d   1      11.213   6.318   5.308  0.00  0.00    -0.048 A 
ATOM     13  C   LIG d   1      11.262   6.296   6.666  0.00  0.00     0.010 A 
ATOM     14  H   LIG d   1      10.961   5.421   4.762  0.00  0.00     0.063 H 
ATOM     15  C   LIG d   1      11.592   7.469   7.377  0.00  0.00     0.202 A 
ATOM     16  H   LIG d   1      11.050   5.382   7.200  0.00  0.00     0.068 H 
ATOM     17  C   LIG d   1      11.864   8.661   6.675  0.00  0.00     0.010 A 
ATOM     18  C   LIG d   1      11.818   8.674   5.316  0.00  0.00    -0.048 A 
ATOM     19  H   LIG d   1      12.113   9.562   7.217  0.00  0.00     0.068 H 
ATOM     20  H   LIG d   1      12.029   9.585   4.778  0.00  0.00     0.063 H 
BRANCH  15  21
ATOM     21  N   LIG d   1      11.640   7.451   8.712  0.00  0.00    -0.234 N 
BRANCH  21  22
ATOM     22  C   LIG d   1      10.522   6.897   9.478  0.00  0.00     0.135 C 
ATOM     23  H   LIG d   1       9.583   7.143   8.981  0.00  0.00     0.099 H 
ATOM     24  H   LIG d   1      10.626   5.814   9.541  0.00  0.00     0.099 H 
ATOM     25  H   LIG d   1      10.524   7.322  10.482  0.00  0.00     0.099 H 
ENDBRANCH  21  22
BRANCH  21  26
ATOM     26  C   LIG d   1      12.813   7.987   9.409  0.00  0.00     0.135 C 
ATOM     27  H   LIG d   1      13.689   7.389   9.159  0.00  0.00     0.099 H 
ATOM     28  H   LIG d   1      12.978   9.020   9.102  0.00  0.00     0.099 H 
ATOM     29  H   LIG d   1      12.643   7.951  10.485  0.00  0.00     0.099 H 
ENDBRANCH  21  26
ENDBRANCH  15  21
ENDBRANCH   1  11
BRANCH   4  30
ATOM     30  C   LIG d   1      11.287   7.580  -1.052  0.00  0.00     0.086 C 
ATOM     31  H   LIG d   1      11.503   8.586  -1.411  0.00  0.00     0.057 H 
ATOM     32  H   LIG d   1      12.026   6.885  -1.451  0.00  0.00     0.057 H 
BRANCH  30  33
ATOM     33  C   LIG d   1       9.911   7.167  -1.512  0.00  0.00     0.183 C 
ATOM     34  O   LIG d   1       8.928   7.668  -1.007  0.00  0.00    -0.290 OA
BRANCH  33  35
ATOM     35  C   LIG d   1       9.762   6.159  -2.572  0.00  0.00     0.019 A 
ATOM     36  C   LIG d   1       9.345   6.542  -3.851  0.00  0.00    -0.050 A 
ATOM     37  C   LIG d   1       9.212   5.592  -4.841  0.00  0.00    -0.043 A 
ATOM     38  H   LIG d   1       9.133   7.579  -4.065  0.00  0.00     0.062 H 
ATOM     39  C   LIG d   1       9.479   4.260  -4.569  0.00  0.00     0.041 A 
ATOM     40  H   LIG d   1       8.896   5.887  -5.832  0.00  0.00     0.063 H 
ATOM     41  C   LIG d   1       9.885   3.873  -3.302  0.00  0.00    -0.043 A 
ATOM     42 CL   LIG d   1       9.302   3.070  -5.820  0.00  0.00    -0.084 Cl
ATOM     43  C   LIG d   1      10.029   4.813  -2.303  0.00  0.00    -0.050 A 
ATOM     44  H   LIG d   1      10.091   2.833  -3.096  0.00  0.00     0.063 H 
ATOM     45  H   LIG d   1      10.347   4.510  -1.317  0.00  0.00     0.062 H 
ENDBRANCH  33  35
ENDBRANCH  30  33
ENDBRANCH   4  30
TORSDOF 7
ENDMDL
MODEL 6
REMARK VINA RESULT:      -5.7      7.307     10.599
REMARK  7 active torsions:
REMARK  status: ('A' for Active; 'I' for Inactive)
REMARK    1  A    between atoms: C_1  and  N_2 
REMARK    2  A    between atoms: N_2  and  C_3 
REMARK    3  A    between atoms: N_2  and  C_25 
REMARK    4  A    between atoms: C_6  and  C_7 
REMARK    5  A    between atoms: N_10  and  C_13 
REMARK    6  A    between atoms: C_13  and  C_14 
REMARK    7  A    between atoms: C_14  and  C_16 
ROOT
ATOM      1  C   LIG d   1       5.172  -4.216  -5.212  0.00  0.00    -0.015 A 
ATOM      2  C   LIG d   1       6.483  -4.730  -5.207  0.00  0.00    -0.038 A 
ATOM      3  C   LIG d   1       6.724  -5.934  -5.783  0.00  0.00     0.006 A 
ATOM      4  N   LIG d   1       5.726  -6.635  -6.356  0.00  0.00    -0.346 N 
ATOM      5  C   LIG d   1       4.461  -6.171  -6.376  0.00  0.00     0.006 A 
ATOM      6  C   LIG d   1       4.152  -4.977  -5.814  0.00  0.00    -0.038 A 
ATOM      7  H   LIG d   1       7.288  -4.172  -4.749  0.00  0.00     0.064 H 
ATOM      8  H   LIG d   1       7.727  -6.336  -5.783  0.00  0.00     0.081 H 
ATOM      9  H   LIG d   1       3.684  -6.758  -6.845  0.00  0.00     0.081 H 
ATOM     10  H   LIG d   1       3.135  -4.612  -5.830  0.00  0.00     0.064 H 
ENDROOT
BRANCH   1  11
ATOM     11  C   LIG d   1       4.874  -2.914  -4.595  0.00  0.00    -0.017 A 
ATOM     12  C   LIG d   1       4.296  -2.860  -3.318  0.00  0.00    -0.048 A 
ATOM     13  C   LIG d   1       4.020  -1.659  -2.744  0.00  0.00     0.010 A 
ATOM     14  H   LIG d   1       4.071  -3.775  -2.789  0.00  0.00     0.063 H 
ATOM     15  C   LIG d   1       4.316  -0.465  -3.435  0.00  0.00     0.202 A 
ATOM     16  H   LIG d   1       3.576  -1.618  -1.760  0.00  0.00     0.068 H 
ATOM     17  C   LIG d   1       4.892  -0.523  -4.720  0.00  0.00     0.010 A 
ATOM     18  C   LIG d   1       5.170  -1.729  -5.285  0.00  0.00    -0.048 A 
ATOM     19  H   LIG d   1       5.116   0.389  -5.254  0.00  0.00     0.068 H 
ATOM     20  H   LIG d   1       5.614  -1.774  -6.268  0.00  0.00     0.063 H 
BRANCH  15  21
ATOM     21  N   LIG d   1       4.045   0.717  -2.875  0.00  0.00    -0.234 N 
BRANCH  21  22
ATOM     22  C   LIG d   1       4.612   1.055  -1.566  0.00  0.00     0.135 C 
ATOM     23  H   LIG d   1       3.843   0.951  -0.800  0.00  0.00     0.099 H 
ATOM     24  H   LIG d   1       5.439   0.381  -1.344  0.00  0.00     0.099 H 
ATOM     25  H   LIG d   1       4.974   2.083  -1.582  0.00  0.00     0.099 H 
ENDBRANCH  21  22
BRANCH  21  26
ATOM     26  C   LIG d   1       3.182   1.676  -3.569  0.00  0.00     0.135 C 
ATOM     27  H   LIG d   1       2.144   1.501  -3.287  0.00  0.00     0.099 H 
ATOM     28  H   LIG d   1       3.468   2.690  -3.291  0.00  0.00     0.099 H 
ATOM     29  H   LIG d   1       3.292   1.550  -4.646  0.00  0.00     0.099 H 
ENDBRANCH  21  26
ENDBRANCH  15  21
ENDBRANCH   1  11
BRANCH   4  30
ATOM     30  C   LIG d   1       6.022  -7.932  -6.969  0.00  0.00     0.086 C 
ATOM     31  H   LIG d   1       5.847  -7.875  -8.042  0.00  0.00     0.057 H 
ATOM     32  H   LIG d   1       7.064  -8.192  -6.783  0.00  0.00     0.057 H 
BRANCH  30  33
ATOM     33  C   LIG d   1       5.128  -8.988  -6.370  0.00  0.00     0.183 C 
ATOM     34  O   LIG d   1       4.197  -9.429  -7.011  0.00  0.00    -0.290 OA
BRANCH  33  35
ATOM     35  C   LIG d   1       5.385  -9.483  -5.009  0.00  0.00     0.019 A 
ATOM     36  C   LIG d   1       4.326  -9.936  -4.214  0.00  0.00    -0.050 A 
ATOM     37  C   LIG d   1       4.575 -10.403  -2.942  0.00  0.00    -0.043 A 
ATOM     38  H   LIG d   1       3.316  -9.924  -4.599  0.00  0.00     0.062 H 
ATOM     39  C   LIG d   1       5.869 -10.415  -2.445  0.00  0.00     0.041 A 
ATOM     40  H   LIG d   1       3.759 -10.758  -2.329  0.00  0.00     0.063 H 
ATOM     41  C   LIG d   1       6.921  -9.961  -3.224  0.00  0.00    -0.043 A 
ATOM     42 CL   LIG d   1       6.172 -10.999  -0.839  0.00  0.00    -0.084 Cl
ATOM     43  C   LIG d   1       6.688  -9.497  -4.501  0.00  0.00    -0.050 A 
ATOM     44  H   LIG d   1       7.927  -9.973  -2.830  0.00  0.00     0.063 H 
ATOM     45  H   LIG d   1       7.509  -9.145  -5.107  0.00  0.00     0.062 H 
ENDBRANCH  33  35
ENDBRANCH  30  33
ENDBRANCH   4  30
TORSDOF 7
ENDMDL
MODEL 7
REMARK VINA RESULT:      -5.7      7.265     11.835
REMARK  7 active torsions:
REMARK  status: ('A' for Active; 'I' for Inactive)
REMARK    1  A    between atoms: C_1  and  N_2 
REMARK    2  A    between atoms: N_2  and  C_3 
REMARK    3  A    between atoms: N_2  and  C_25 
REMARK    4  A    between atoms: C_6  and  C_7 
REMARK    5  A    between atoms: N_10  and  C_13 
REMARK    6  A    between atoms: C_13  and  C_14 
REMARK    7  A    between atoms: C_14  and  C_16 
ROOT
ATOM      1  C   LIG d   1       9.623  -6.653  -2.260  0.00  0.00    -0.015 A 
ATOM      2  C   LIG d   1       9.183  -6.886  -3.578  0.00  0.00    -0.038 A 
ATOM      3  C   LIG d   1       8.843  -5.831  -4.359  0.00  0.00     0.006 A 
ATOM      4  N   LIG d   1       8.923  -4.571  -3.887  0.00  0.00    -0.346 N 
ATOM      5  C   LIG d   1       9.340  -4.314  -2.631  0.00  0.00     0.006 A 
ATOM      6  C   LIG d   1       9.690  -5.324  -1.797  0.00  0.00    -0.038 A 
ATOM      7  H   LIG d   1       9.117  -7.894  -3.962  0.00  0.00     0.064 H 
ATOM      8  H   LIG d   1       8.504  -6.001  -5.370  0.00  0.00     0.081 H 
ATOM      9  H   LIG d   1       9.394  -3.293  -2.285  0.00  0.00     0.081 H 
ATOM     10  H   LIG d   1      10.019  -5.112  -0.790  0.00  0.00     0.064 H 
ENDROOT
BRANCH   1  11
ATOM     11  C   LIG d   1       9.998  -7.773  -1.385  0.00  0.00    -0.017 A 
ATOM     12  C   LIG d   1      11.025  -7.612  -0.442  0.00  0.00    -0.048 A 
ATOM     13  C   LIG d   1      11.374  -8.646   0.370  0.00  0.00     0.010 A 
ATOM     14  H   LIG d   1      11.538  -6.665  -0.361  0.00  0.00     0.063 H 
ATOM     15  C   LIG d   1      10.703  -9.881   0.263  0.00  0.00     0.202 A 
ATOM     16  H   LIG d   1      12.164  -8.520   1.096  0.00  0.00     0.068 H 
ATOM     17  C   LIG d   1       9.675 -10.042  -0.689  0.00  0.00     0.010 A 
ATOM     18  C   LIG d   1       9.328  -9.001  -1.494  0.00  0.00    -0.048 A 
ATOM     19  H   LIG d   1       9.162 -10.988  -0.777  0.00  0.00     0.068 H 
ATOM     20  H   LIG d   1       8.539  -9.122  -2.221  0.00  0.00     0.063 H 
BRANCH  15  21
ATOM     21  N   LIG d   1      11.044 -10.899   1.058  0.00  0.00    -0.234 N 
BRANCH  21  22
ATOM     22  C   LIG d   1      11.452 -10.643   2.442  0.00  0.00     0.135 C 
ATOM     23  H   LIG d   1      12.091  -9.760   2.474  0.00  0.00     0.099 H 
ATOM     24  H   LIG d   1      10.567 -10.474   3.056  0.00  0.00     0.099 H 
ATOM     25  H   LIG d   1      12.001 -11.504   2.823  0.00  0.00     0.099 H 
ENDBRANCH  21  22
BRANCH  21  26
ATOM     26  C   LIG d   1      11.009 -12.272   0.546  0.00  0.00     0.135 C 
ATOM     27  H   LIG d   1      11.397 -12.952   1.304  0.00  0.00     0.099 H 
ATOM     28  H   LIG d   1       9.982 -12.544   0.304  0.00  0.00     0.099 H 
ATOM     29  H   LIG d   1      11.623 -12.339  -0.352  0.00  0.00     0.099 H 
ENDBRANCH  21  26
ENDBRANCH  15  21
ENDBRANCH   1  11
BRANCH   4  30
ATOM     30  C   LIG d   1       8.548  -3.455  -4.758  0.00  0.00     0.086 C 
ATOM     31  H   LIG d   1       8.999  -2.536  -4.386  0.00  0.00     0.057 H 
ATOM     32  H   LIG d   1       8.903  -3.649  -5.771  0.00  0.00     0.057 H 
BRANCH  30  33
ATOM     33  C   LIG d   1       7.048  -3.310  -4.772  0.00  0.00     0.183 C 
ATOM     34  O   LIG d   1       6.371  -4.078  -5.423  0.00  0.00    -0.290 OA
BRANCH  33  35
ATOM     35  C   LIG d   1       6.405  -2.238  -3.996  0.00  0.00     0.019 A 
ATOM     36  C   LIG d   1       7.055  -1.012  -3.820  0.00  0.00    -0.050 A 
ATOM     37  C   LIG d   1       6.446  -0.011  -3.096  0.00  0.00    -0.043 A 
ATOM     38  H   LIG d   1       8.031  -0.848  -4.255  0.00  0.00     0.062 H 
ATOM     39  C   LIG d   1       5.197  -0.221  -2.533  0.00  0.00     0.041 A 
ATOM     40  H   LIG d   1       6.944   0.939  -2.964  0.00  0.00     0.063 H 
ATOM     41  C   LIG d   1       4.551  -1.435  -2.697  0.00  0.00    -0.043 A 
ATOM     42 CL   LIG d   1       4.439   1.044  -1.616  0.00  0.00    -0.084 Cl
ATOM     43  C   LIG d   1       5.146  -2.444  -3.424  0.00  0.00    -0.050 A 
ATOM     44  H   LIG d   1       3.577  -1.592  -2.255  0.00  0.00     0.063 H 
ATOM     45  H   LIG d   1       4.640  -3.389  -3.553  0.00  0.00     0.062 H 
ENDBRANCH  33  35
ENDBRANCH  30  33
ENDBRANCH   4  30
TORSDOF 7
ENDMDL
MODEL 8
REMARK VINA RESULT:      -5.6      8.648     14.172
REMARK  7 active torsions:
REMARK  status: ('A' for Active; 'I' for Inactive)
REMARK    1  A    between atoms: C_1  and  N_2 
REMARK    2  A    between atoms: N_2  and  C_3 
REMARK    3  A    between atoms: N_2  and  C_25 
REMARK    4  A    between atoms: C_6  and  C_7 
REMARK    5  A    between atoms: N_10  and  C_13 
REMARK    6  A    between atoms: C_13  and  C_14 
REMARK    7  A    between atoms: C_14  and  C_16 
ROOT
ATOM      1  C   LIG d   1       1.419  -2.483 -10.538  0.00  0.00    -0.015 A 
ATOM      2  C   LIG d   1       2.486  -3.008  -9.784  0.00  0.00    -0.038 A 
ATOM      3  C   LIG d   1       3.348  -2.156  -9.174  0.00  0.00     0.006 A 
ATOM      4  N   LIG d   1       3.191  -0.822  -9.285  0.00  0.00    -0.346 N 
ATOM      5  C   LIG d   1       2.180  -0.288 -10.000  0.00  0.00     0.006 A 
ATOM      6  C   LIG d   1       1.288  -1.084 -10.638  0.00  0.00    -0.038 A 
ATOM      7  H   LIG d   1       2.617  -4.076  -9.691  0.00  0.00     0.064 H 
ATOM      8  H   LIG d   1       4.169  -2.550  -8.594  0.00  0.00     0.081 H 
ATOM      9  H   LIG d   1       2.083   0.785 -10.066  0.00  0.00     0.081 H 
ATOM     10  H   LIG d   1       0.482  -0.650 -11.213  0.00  0.00     0.064 H 
ENDROOT
BRANCH   1  11
ATOM     11  C   LIG d   1       0.466  -3.377 -11.214  0.00  0.00    -0.017 A 
ATOM     12  C   LIG d   1       0.054  -3.099 -12.526  0.00  0.00    -0.048 A 
ATOM     13  C   LIG d   1      -0.826  -3.923 -13.154  0.00  0.00     0.010 A 
ATOM     14  H   LIG d   1       0.437  -2.228 -13.037  0.00  0.00     0.063 H 
ATOM     15  C   LIG d   1      -1.324  -5.060 -12.485  0.00  0.00     0.202 A 
ATOM     16  H   LIG d   1      -1.142  -3.709 -14.164  0.00  0.00     0.068 H 
ATOM     17  C   LIG d   1      -0.912  -5.334 -11.164  0.00  0.00     0.010 A 
ATOM     18  C   LIG d   1      -0.027  -4.507 -10.545  0.00  0.00    -0.048 A 
ATOM     19  H   LIG d   1      -1.294  -6.202 -10.647  0.00  0.00     0.068 H 
ATOM     20  H   LIG d   1       0.292  -4.718  -9.535  0.00  0.00     0.063 H 
BRANCH  15  21
ATOM     21  N   LIG d   1      -2.189  -5.873 -13.098  0.00  0.00    -0.234 N 
BRANCH  21  22
ATOM     22  C   LIG d   1      -2.436  -7.215 -12.566  0.00  0.00     0.135 C 
ATOM     23  H   LIG d   1      -3.060  -7.144 -11.675  0.00  0.00     0.099 H 
ATOM     24  H   LIG d   1      -2.946  -7.816 -13.319  0.00  0.00     0.099 H 
ATOM     25  H   LIG d   1      -1.487  -7.684 -12.308  0.00  0.00     0.099 H 
ENDBRANCH  21  22
BRANCH  21  26
ATOM     26  C   LIG d   1      -2.891  -5.421 -14.302  0.00  0.00     0.135 C 
ATOM     27  H   LIG d   1      -2.744  -6.146 -15.102  0.00  0.00     0.099 H 
ATOM     28  H   LIG d   1      -3.956  -5.325 -14.088  0.00  0.00     0.099 H 
ATOM     29  H   LIG d   1      -2.495  -4.454 -14.611  0.00  0.00     0.099 H 
ENDBRANCH  21  26
ENDBRANCH  15  21
ENDBRANCH   1  11
BRANCH   4  30
ATOM     30  C   LIG d   1       4.140   0.069  -8.613  0.00  0.00     0.086 C 
ATOM     31  H   LIG d   1       5.021  -0.498  -8.313  0.00  0.00     0.057 H 
ATOM     32  H   LIG d   1       4.435   0.866  -9.295  0.00  0.00     0.057 H 
BRANCH  30  33
ATOM     33  C   LIG d   1       3.489   0.669  -7.392  0.00  0.00     0.183 C 
ATOM     34  O   LIG d   1       2.923   1.739  -7.472  0.00  0.00    -0.290 OA
BRANCH  33  35
ATOM     35  C   LIG d   1       3.540  -0.043  -6.107  0.00  0.00     0.019 A 
ATOM     36  C   LIG d   1       2.668   0.312  -5.072  0.00  0.00    -0.050 A 
ATOM     37  C   LIG d   1       2.718  -0.364  -3.872  0.00  0.00    -0.043 A 
ATOM     38  H   LIG d   1       1.953   1.109  -5.215  0.00  0.00     0.062 H 
ATOM     39  C   LIG d   1       3.637  -1.384  -3.684  0.00  0.00     0.041 A 
ATOM     40  H   LIG d   1       2.040  -0.095  -3.074  0.00  0.00     0.063 H 
ATOM     41  C   LIG d   1       4.508  -1.735  -4.702  0.00  0.00    -0.043 A 
ATOM     42 CL   LIG d   1       3.697  -2.224  -2.166  0.00  0.00    -0.084 Cl
ATOM     43  C   LIG d   1       4.466  -1.073  -5.910  0.00  0.00    -0.050 A 
ATOM     44  H   LIG d   1       5.223  -2.531  -4.549  0.00  0.00     0.063 H 
ATOM     45  H   LIG d   1       5.145  -1.349  -6.703  0.00  0.00     0.062 H 
ENDBRANCH  33  35
ENDBRANCH  30  33
ENDBRANCH   4  30
TORSDOF 7
ENDMDL
MODEL 9
REMARK VINA RESULT:      -5.6      3.697      5.264
REMARK  7 active torsions:
REMARK  status: ('A' for Active; 'I' for Inactive)
REMARK    1  A    between atoms: C_1  and  N_2 
REMARK    2  A    between atoms: N_2  and  C_3 
REMARK    3  A    between atoms: N_2  and  C_25 
REMARK    4  A    between atoms: C_6  and  C_7 
REMARK    5  A    between atoms: N_10  and  C_13 
REMARK    6  A    between atoms: C_13  and  C_14 
REMARK    7  A    between atoms: C_14  and  C_16 
ROOT
ATOM      1  C   LIG d   1       8.175   1.365  -4.355  0.00  0.00    -0.015 A 
ATOM      2  C   LIG d   1       7.095   1.284  -3.454  0.00  0.00    -0.038 A 
ATOM      3  C   LIG d   1       6.455   0.099  -3.294  0.00  0.00     0.006 A 
ATOM      4  N   LIG d   1       6.842  -0.992  -3.985  0.00  0.00    -0.346 N 
ATOM      5  C   LIG d   1       7.870  -0.946  -4.855  0.00  0.00     0.006 A 
ATOM      6  C   LIG d   1       8.549   0.208  -5.065  0.00  0.00    -0.038 A 
ATOM      7  H   LIG d   1       6.781   2.154  -2.897  0.00  0.00     0.064 H 
ATOM      8  H   LIG d   1       5.625   0.028  -2.606  0.00  0.00     0.081 H 
ATOM      9  H   LIG d   1       8.155  -1.840  -5.391  0.00  0.00     0.081 H 
ATOM     10  H   LIG d   1       9.370   0.238  -5.767  0.00  0.00     0.064 H 
ENDROOT
BRANCH   1  11
ATOM     11  C   LIG d   1       8.892   2.634  -4.555  0.00  0.00    -0.017 A 
ATOM     12  C   LIG d   1       9.352   3.360  -3.446  0.00  0.00    -0.048 A 
ATOM     13  C   LIG d   1      10.016   4.533  -3.627  0.00  0.00     0.010 A 
ATOM     14  H   LIG d   1       9.179   2.986  -2.448  0.00  0.00     0.063 H 
ATOM     15  C   LIG d   1      10.241   5.019  -4.931  0.00  0.00     0.202 A 
ATOM     16  H   LIG d   1      10.370   5.091  -2.773  0.00  0.00     0.068 H 
ATOM     17  C   LIG d   1       9.773   4.290  -6.043  0.00  0.00     0.010 A 
ATOM     18  C   LIG d   1       9.114   3.115  -5.854  0.00  0.00    -0.048 A 
ATOM     19  H   LIG d   1       9.940   4.661  -7.043  0.00  0.00     0.068 H 
ATOM     20  H   LIG d   1       8.758   2.553  -6.705  0.00  0.00     0.063 H 
BRANCH  15  21
ATOM     21  N   LIG d   1      10.892   6.172  -5.113  0.00  0.00    -0.234 N 
BRANCH  21  22
ATOM     22  C   LIG d   1      10.359   7.177  -6.035  0.00  0.00     0.135 C 
ATOM     23  H   LIG d   1       9.328   6.926  -6.289  0.00  0.00     0.099 H 
ATOM     24  H   LIG d   1      10.387   8.157  -5.561  0.00  0.00     0.099 H 
ATOM     25  H   LIG d   1      10.963   7.194  -6.942  0.00  0.00     0.099 H 
ENDBRANCH  21  22
BRANCH  21  26
ATOM     26  C   LIG d   1      12.140   6.430  -4.389  0.00  0.00     0.135 C 
ATOM     27  H   LIG d   1      12.839   6.950  -5.044  0.00  0.00     0.099 H 
ATOM     28  H   LIG d   1      11.932   7.048  -3.515  0.00  0.00     0.099 H 
ATOM     29  H   LIG d   1      12.576   5.484  -4.069  0.00  0.00     0.099 H 
ENDBRANCH  21  26
ENDBRANCH  15  21
ENDBRANCH   1  11
BRANCH   4  30
ATOM     30  C   LIG d   1       6.127  -2.255  -3.787  0.00  0.00     0.086 C 
ATOM     31  H   LIG d   1       6.468  -2.985  -4.521  0.00  0.00     0.057 H 
ATOM     32  H   LIG d   1       6.323  -2.630  -2.783  0.00  0.00     0.057 H 
BRANCH  30  33
ATOM     33  C   LIG d   1       4.646  -2.027  -3.956  0.00  0.00     0.183 C 
ATOM     34  O   LIG d   1       3.870  -2.440  -3.120  0.00  0.00    -0.290 OA
BRANCH  33  35
ATOM     35  C   LIG d   1       4.143  -1.304  -5.134  0.00  0.00     0.019 A 
ATOM     36  C   LIG d   1       3.280  -0.215  -4.974  0.00  0.00    -0.050 A 
ATOM     37  C   LIG d   1       2.817   0.460  -6.082  0.00  0.00    -0.043 A 
ATOM     38  H   LIG d   1       2.981   0.098  -3.985  0.00  0.00     0.062 H 
ATOM     39  C   LIG d   1       3.194   0.057  -7.353  0.00  0.00     0.041 A 
ATOM     40  H   LIG d   1       2.154   1.305  -5.960  0.00  0.00     0.063 H 
ATOM     41  C   LIG d   1       4.044  -1.025  -7.519  0.00  0.00    -0.043 A 
ATOM     42 CL   LIG d   1       2.600   0.910  -8.743  0.00  0.00    -0.084 Cl
ATOM     43  C   LIG d   1       4.520  -1.707  -6.419  0.00  0.00    -0.050 A 
ATOM     44  H   LIG d   1       4.334  -1.335  -8.512  0.00  0.00     0.063 H 
ATOM     45  H   LIG d   1       5.183  -2.549  -6.551  0.00  0.00     0.062 H 
ENDBRANCH  33  35
ENDBRANCH  30  33
ENDBRANCH   4  30
TORSDOF 7
ENDMDL
