MODEL 1
REMARK VINA RESULT:      -5.7      0.000      0.000
REMARK  6 active torsions:
REMARK  status: ('A' for Active; 'I' for Inactive)
REMARK    1  A    between atoms: C_1  and  C_2 
REMARK    2  A    between atoms: C_2  and  O_3 
REMARK    3  A    between atoms: O_3  and  C_4 
REMARK    4  A    between atoms: C_4  and  C_6 
REMARK    5  A    between atoms: C_8  and  O_15 
REMARK    6  A    between atoms: O_15  and  C_16 
ROOT
ATOM      1  C   LIG d   1       3.446  -0.038  -6.670  0.00  0.00     0.295 A 
ATOM      2  C   LIG d   1       4.090  -1.270  -6.832  0.00  0.00     0.059 A 
ATOM      3  C   LIG d   1       4.547  -1.952  -5.719  0.00  0.00     0.140 A 
ATOM      4  C   LIG d   1       4.341  -1.367  -4.449  0.00  0.00     0.088 A 
ATOM      5  C   LIG d   1       4.777  -1.999  -3.277  0.00  0.00    -0.045 A 
ATOM      6  C   LIG d   1       4.561  -1.405  -2.070  0.00  0.00    -0.061 A 
ATOM      7  C   LIG d   1       3.912  -0.174  -1.985  0.00  0.00    -0.056 A 
ATOM      8  C   LIG d   1       3.475   0.468  -3.101  0.00  0.00     0.010 A 
ATOM      9  C   LIG d   1       3.680  -0.114  -4.367  0.00  0.00     0.217 A 
ATOM     10  H   LIG d   1       4.229  -1.686  -7.819  0.00  0.00     0.072 H 
ATOM     11  H   LIG d   1       5.281  -2.953  -3.329  0.00  0.00     0.063 H 
ATOM     12  H   LIG d   1       4.898  -1.894  -1.167  0.00  0.00     0.062 H 
ATOM     13  H   LIG d   1       3.754   0.276  -1.017  0.00  0.00     0.062 H 
ATOM     14  H   LIG d   1       2.975   1.421  -3.018  0.00  0.00     0.068 H 
ATOM     15  N   LIG d   1       3.225   0.565  -5.472  0.00  0.00    -0.198 N 
ATOM     16  H   LIG d   1       2.748   1.471  -5.396  0.00  0.00     0.454 HD
ENDROOT
BRANCH   1  17
ATOM     17  C   LIG d   1       2.959   0.686  -7.869  0.00  0.00     0.404 C 
ATOM     18  O   LIG d   1       2.378   0.083  -8.748  0.00  0.00    -0.238 OA
BRANCH  17  19
ATOM     19  O   LIG d   1       3.164   2.012  -7.983  0.00  0.00    -0.457 OA
BRANCH  19  20
ATOM     20  C   LIG d   1       3.816   2.476  -9.195  0.00  0.00     0.090 C 
ATOM     21  H   LIG d   1       3.355   2.001 -10.061  0.00  0.00     0.070 H 
ATOM     22  H   LIG d   1       3.708   3.558  -9.274  0.00  0.00     0.070 H 
BRANCH  20  23
ATOM     23  C   LIG d   1       5.302   2.114  -9.145  0.00  0.00    -0.031 C 
ATOM     24  H   LIG d   1       5.866   2.950  -8.734  0.00  0.00     0.026 H 
ATOM     25  H   LIG d   1       5.440   1.235  -8.515  0.00  0.00     0.026 H 
ATOM     26  H   LIG d   1       5.657   1.896 -10.153  0.00  0.00     0.026 H 
ENDBRANCH  20  23
ENDBRANCH  19  20
ENDBRANCH  17  19
ENDBRANCH   1  17
BRANCH   3  27
ATOM     27  O   LIG d   1       5.174  -3.149  -5.842  0.00  0.00    -0.494 OA
BRANCH  27  28
ATOM     28  C   LIG d   1       4.434  -4.208  -6.451  0.00  0.00     0.079 C 
ATOM     29  H   LIG d   1       4.579  -4.178  -7.531  0.00  0.00     0.066 H 
ATOM     30  H   LIG d   1       4.783  -5.165  -6.064  0.00  0.00     0.066 H 
ATOM     31  H   LIG d   1       3.374  -4.089  -6.223  0.00  0.00     0.066 H 
ENDBRANCH  27  28
ENDBRANCH   3  27
TORSDOF 6
ENDMDL
MODEL 2
REMARK VINA RESULT:      -5.4      3.532      4.399
REMARK  6 active torsions:
REMARK  status: ('A' for Active; 'I' for Inactive)
REMARK    1  A    between atoms: C_1  and  C_2 
REMARK    2  A    between atoms: C_2  and  O_3 
REMARK    3  A    between atoms: O_3  and  C_4 
REMARK    4  A    between atoms: C_4  and  C_6 
REMARK    5  A    between atoms: C_8  and  O_15 
REMARK    6  A    between atoms: O_15  and  C_16 
ROOT
ATOM      1  C   LIG d   1       4.892  -3.409  -4.834  0.00  0.00     0.295 A 
ATOM      2  C   LIG d   1       6.224  -3.001  -4.699  0.00  0.00     0.059 A 
ATOM      3  C   LIG d   1       6.516  -1.838  -4.012  0.00  0.00     0.140 A 
ATOM      4  C   LIG d   1       5.440  -1.100  -3.466  0.00  0.00     0.088 A 
ATOM      5  C   LIG d   1       5.659   0.089  -2.757  0.00  0.00    -0.045 A 
ATOM      6  C   LIG d   1       4.598   0.774  -2.246  0.00  0.00    -0.061 A 
ATOM      7  C   LIG d   1       3.296   0.308  -2.419  0.00  0.00    -0.056 A 
ATOM      8  C   LIG d   1       3.046  -0.842  -3.101  0.00  0.00     0.010 A 
ATOM      9  C   LIG d   1       4.117  -1.578  -3.645  0.00  0.00     0.217 A 
ATOM     10  H   LIG d   1       7.019  -3.591  -5.130  0.00  0.00     0.072 H 
ATOM     11  H   LIG d   1       6.663   0.460  -2.616  0.00  0.00     0.063 H 
ATOM     12  H   LIG d   1       4.768   1.690  -1.700  0.00  0.00     0.062 H 
ATOM     13  H   LIG d   1       2.472   0.869  -2.005  0.00  0.00     0.062 H 
ATOM     14  H   LIG d   1       2.032  -1.189  -3.227  0.00  0.00     0.068 H 
ATOM     15  N   LIG d   1       3.824  -2.734  -4.328  0.00  0.00    -0.198 N 
ATOM     16  H   LIG d   1       2.861  -3.067  -4.449  0.00  0.00     0.454 HD
ENDROOT
BRANCH   1  17
ATOM     17  C   LIG d   1       4.588  -4.658  -5.573  0.00  0.00     0.404 C 
ATOM     18  O   LIG d   1       4.055  -5.586  -5.002  0.00  0.00    -0.238 OA
BRANCH  17  19
ATOM     19  O   LIG d   1       4.906  -4.761  -6.878  0.00  0.00    -0.457 OA
BRANCH  19  20
ATOM     20  C   LIG d   1       3.813  -4.677  -7.830  0.00  0.00     0.090 C 
ATOM     21  H   LIG d   1       3.989  -5.376  -8.648  0.00  0.00     0.070 H 
ATOM     22  H   LIG d   1       2.877  -4.927  -7.332  0.00  0.00     0.070 H 
BRANCH  20  23
ATOM     23  C   LIG d   1       3.730  -3.254  -8.386  0.00  0.00    -0.031 C 
ATOM     24  H   LIG d   1       3.028  -2.671  -7.790  0.00  0.00     0.026 H 
ATOM     25  H   LIG d   1       4.716  -2.790  -8.344  0.00  0.00     0.026 H 
ATOM     26  H   LIG d   1       3.389  -3.287  -9.421  0.00  0.00     0.026 H 
ENDBRANCH  20  23
ENDBRANCH  19  20
ENDBRANCH  17  19
ENDBRANCH   1  17
BRANCH   3  27
ATOM     27  O   LIG d   1       7.797  -1.416  -3.864  0.00  0.00    -0.494 OA
BRANCH  27  28
ATOM     28  C   LIG d   1       8.504  -1.063  -5.053  0.00  0.00     0.079 C 
ATOM     29  H   LIG d   1       7.928  -0.325  -5.612  0.00  0.00     0.066 H 
ATOM     30  H   LIG d   1       9.474  -0.643  -4.789  0.00  0.00     0.066 H 
ATOM     31  H   LIG d   1       8.649  -1.952  -5.668  0.00  0.00     0.066 H 
ENDBRANCH  27  28
ENDBRANCH   3  27
TORSDOF 6
ENDMDL
MODEL 3
REMARK VINA RESULT:      -5.2      4.227      6.107
REMARK  6 active torsions:
REMARK  status: ('A' for Active; 'I' for Inactive)
REMARK    1  A    between atoms: C_1  and  C_2 
REMARK    2  A    between atoms: C_2  and  O_3 
REMARK    3  A    between atoms: O_3  and  C_4 
REMARK    4  A    between atoms: C_4  and  C_6 
REMARK    5  A    between atoms: C_8  and  O_15 
REMARK    6  A    between atoms: O_15  and  C_16 
ROOT
ATOM      1  C   LIG d   1       7.897  -1.490  -4.521  0.00  0.00     0.295 A 
ATOM      2  C   LIG d   1       8.147  -0.128  -4.724  0.00  0.00     0.059 A 
ATOM      3  C   LIG d   1       7.320   0.813  -4.138  0.00  0.00     0.140 A 
ATOM      4  C   LIG d   1       6.244   0.351  -3.347  0.00  0.00     0.088 A 
ATOM      5  C   LIG d   1       5.363   1.246  -2.722  0.00  0.00    -0.045 A 
ATOM      6  C   LIG d   1       4.336   0.764  -1.968  0.00  0.00    -0.061 A 
ATOM      7  C   LIG d   1       4.148  -0.607  -1.809  0.00  0.00    -0.056 A 
ATOM      8  C   LIG d   1       4.982  -1.504  -2.400  0.00  0.00     0.010 A 
ATOM      9  C   LIG d   1       6.055  -1.046  -3.189  0.00  0.00     0.217 A 
ATOM     10  H   LIG d   1       8.980   0.187  -5.335  0.00  0.00     0.072 H 
ATOM     11  H   LIG d   1       5.499   2.310  -2.837  0.00  0.00     0.063 H 
ATOM     12  H   LIG d   1       3.659   1.455  -1.487  0.00  0.00     0.062 H 
ATOM     13  H   LIG d   1       3.325  -0.964  -1.207  0.00  0.00     0.062 H 
ATOM     14  H   LIG d   1       4.821  -2.564  -2.268  0.00  0.00     0.068 H 
ATOM     15  N   LIG d   1       6.876  -1.982  -3.770  0.00  0.00    -0.198 N 
ATOM     16  H   LIG d   1       6.726  -2.991  -3.646  0.00  0.00     0.454 HD
ENDROOT
BRANCH   1  17
ATOM     17  C   LIG d   1       8.789  -2.491  -5.154  0.00  0.00     0.404 C 
ATOM     18  O   LIG d   1       9.331  -2.238  -6.210  0.00  0.00    -0.238 OA
BRANCH  17  19
ATOM     19  O   LIG d   1       8.996  -3.680  -4.557  0.00  0.00    -0.457 OA
BRANCH  19  20
ATOM     20  C   LIG d   1      10.132  -3.777  -3.658  0.00  0.00     0.090 C 
ATOM     21  H   LIG d   1      10.856  -4.484  -4.063  0.00  0.00     0.070 H 
ATOM     22  H   LIG d   1      10.597  -2.797  -3.554  0.00  0.00     0.070 H 
BRANCH  20  23
ATOM     23  C   LIG d   1       9.657  -4.264  -2.287  0.00  0.00    -0.031 C 
ATOM     24  H   LIG d   1      10.503  -4.302  -1.602  0.00  0.00     0.026 H 
ATOM     25  H   LIG d   1       8.904  -3.577  -1.899  0.00  0.00     0.026 H 
ATOM     26  H   LIG d   1       9.223  -5.259  -2.385  0.00  0.00     0.026 H 
ENDBRANCH  20  23
ENDBRANCH  19  20
ENDBRANCH  17  19
ENDBRANCH   1  17
BRANCH   3  27
ATOM     27  O   LIG d   1       7.537   2.141  -4.315  0.00  0.00    -0.494 OA
BRANCH  27  28
ATOM     28  C   LIG d   1       8.610   2.512  -5.181  0.00  0.00     0.079 C 
ATOM     29  H   LIG d   1       8.487   2.020  -6.145  0.00  0.00     0.066 H 
ATOM     30  H   LIG d   1       8.608   3.593  -5.320  0.00  0.00     0.066 H 
ATOM     31  H   LIG d   1       9.558   2.206  -4.736  0.00  0.00     0.066 H 
ENDBRANCH  27  28
ENDBRANCH   3  27
TORSDOF 6
ENDMDL
MODEL 4
REMARK VINA RESULT:      -5.1      1.635      2.056
REMARK  6 active torsions:
REMARK  status: ('A' for Active; 'I' for Inactive)
REMARK    1  A    between atoms: C_1  and  C_2 
REMARK    2  A    between atoms: C_2  and  O_3 
REMARK    3  A    between atoms: O_3  and  C_4 
REMARK    4  A    between atoms: C_4  and  C_6 
REMARK    5  A    between atoms: C_8  and  O_15 
REMARK    6  A    between atoms: O_15  and  C_16 
ROOT
ATOM      1  C   LIG d   1       4.712  -0.307  -7.038  0.00  0.00     0.295 A 
ATOM      2  C   LIG d   1       5.548  -1.416  -6.867  0.00  0.00     0.059 A 
ATOM      3  C   LIG d   1       5.504  -2.128  -5.683  0.00  0.00     0.140 A 
ATOM      4  C   LIG d   1       4.603  -1.699  -4.682  0.00  0.00     0.088 A 
ATOM      5  C   LIG d   1       4.503  -2.370  -3.455  0.00  0.00    -0.045 A 
ATOM      6  C   LIG d   1       3.624  -1.927  -2.514  0.00  0.00    -0.061 A 
ATOM      7  C   LIG d   1       2.821  -0.813  -2.753  0.00  0.00    -0.056 A 
ATOM      8  C   LIG d   1       2.891  -0.137  -3.931  0.00  0.00     0.010 A 
ATOM      9  C   LIG d   1       3.788  -0.564  -4.929  0.00  0.00     0.217 A 
ATOM     10  H   LIG d   1       6.223  -1.715  -7.655  0.00  0.00     0.072 H 
ATOM     11  H   LIG d   1       5.119  -3.235  -3.258  0.00  0.00     0.063 H 
ATOM     12  H   LIG d   1       3.548  -2.446  -1.569  0.00  0.00     0.062 H 
ATOM     13  H   LIG d   1       2.133  -0.481  -1.990  0.00  0.00     0.062 H 
ATOM     14  H   LIG d   1       2.263   0.724  -4.100  0.00  0.00     0.068 H 
ATOM     15  N   LIG d   1       3.830   0.145  -6.106  0.00  0.00    -0.198 N 
ATOM     16  H   LIG d   1       3.234   0.964  -6.270  0.00  0.00     0.454 HD
ENDROOT
BRANCH   1  17
ATOM     17  C   LIG d   1       4.766   0.451  -8.311  0.00  0.00     0.404 C 
ATOM     18  O   LIG d   1       5.193   1.587  -8.323  0.00  0.00    -0.238 OA
BRANCH  17  19
ATOM     19  O   LIG d   1       4.341  -0.122  -9.453  0.00  0.00    -0.457 OA
BRANCH  19  20
ATOM     20  C   LIG d   1       3.125   0.409 -10.044  0.00  0.00     0.090 C 
ATOM     21  H   LIG d   1       3.012   1.456  -9.762  0.00  0.00     0.070 H 
ATOM     22  H   LIG d   1       3.184   0.329 -11.129  0.00  0.00     0.070 H 
BRANCH  20  23
ATOM     23  C   LIG d   1       1.922  -0.388  -9.537  0.00  0.00    -0.031 C 
ATOM     24  H   LIG d   1       1.019  -0.043 -10.040  0.00  0.00     0.026 H 
ATOM     25  H   LIG d   1       2.074  -1.448  -9.748  0.00  0.00     0.026 H 
ATOM     26  H   LIG d   1       1.817  -0.244  -8.462  0.00  0.00     0.026 H 
ENDBRANCH  20  23
ENDBRANCH  19  20
ENDBRANCH  17  19
ENDBRANCH   1  17
BRANCH   3  27
ATOM     27  O   LIG d   1       6.301  -3.209  -5.487  0.00  0.00    -0.494 OA
BRANCH  27  28
ATOM     28  C   LIG d   1       7.703  -2.966  -5.370  0.00  0.00     0.079 C 
ATOM     29  H   LIG d   1       7.972  -2.885  -4.317  0.00  0.00     0.066 H 
ATOM     30  H   LIG d   1       8.254  -3.789  -5.824  0.00  0.00     0.066 H 
ATOM     31  H   LIG d   1       7.955  -2.036  -5.882  0.00  0.00     0.066 H 
ENDBRANCH  27  28
ENDBRANCH   3  27
TORSDOF 6
ENDMDL
MODEL 5
REMARK VINA RESULT:      -5.1      1.969      4.945
REMARK  6 active torsions:
REMARK  status: ('A' for Active; 'I' for Inactive)
REMARK    1  A    between atoms: C_1  and  C_2 
REMARK    2  A    between atoms: C_2  and  O_3 
REMARK    3  A    between atoms: O_3  and  C_4 
REMARK    4  A    between atoms: C_4  and  C_6 
REMARK    5  A    between atoms: C_8  and  O_15 
REMARK    6  A    between atoms: O_15  and  C_16 
ROOT
ATOM      1  C   LIG d   1       4.243  -3.251  -6.004  0.00  0.00     0.295 A 
ATOM      2  C   LIG d   1       4.349  -2.054  -6.722  0.00  0.00     0.059 A 
ATOM      3  C   LIG d   1       4.403  -0.852  -6.040  0.00  0.00     0.140 A 
ATOM      4  C   LIG d   1       4.350  -0.885  -4.628  0.00  0.00     0.088 A 
ATOM      5  C   LIG d   1       4.399   0.293  -3.870  0.00  0.00    -0.045 A 
ATOM      6  C   LIG d   1       4.345   0.223  -2.511  0.00  0.00    -0.061 A 
ATOM      7  C   LIG d   1       4.239  -1.006  -1.862  0.00  0.00    -0.056 A 
ATOM      8  C   LIG d   1       4.189  -2.169  -2.565  0.00  0.00     0.010 A 
ATOM      9  C   LIG d   1       4.242  -2.138  -3.972  0.00  0.00     0.217 A 
ATOM     10  H   LIG d   1       4.387  -2.068  -7.801  0.00  0.00     0.072 H 
ATOM     11  H   LIG d   1       4.482   1.252  -4.361  0.00  0.00     0.063 H 
ATOM     12  H   LIG d   1       4.383   1.132  -1.928  0.00  0.00     0.062 H 
ATOM     13  H   LIG d   1       4.197  -1.035  -0.784  0.00  0.00     0.062 H 
ATOM     14  H   LIG d   1       4.106  -3.113  -2.048  0.00  0.00     0.068 H 
ATOM     15  N   LIG d   1       4.188  -3.334  -4.648  0.00  0.00    -0.198 N 
ATOM     16  H   LIG d   1       4.110  -4.233  -4.158  0.00  0.00     0.454 HD
ENDROOT
BRANCH   1  17
ATOM     17  C   LIG d   1       4.184  -4.534  -6.743  0.00  0.00     0.404 C 
ATOM     18  O   LIG d   1       4.434  -4.562  -7.931  0.00  0.00    -0.238 OA
BRANCH  17  19
ATOM     19  O   LIG d   1       3.854  -5.669  -6.096  0.00  0.00    -0.457 OA
BRANCH  19  20
ATOM     20  C   LIG d   1       4.501  -6.891  -6.539  0.00  0.00     0.090 C 
ATOM     21  H   LIG d   1       3.772  -7.525  -7.045  0.00  0.00     0.070 H 
ATOM     22  H   LIG d   1       5.309  -6.645  -7.227  0.00  0.00     0.070 H 
BRANCH  20  23
ATOM     23  C   LIG d   1       5.069  -7.634  -5.328  0.00  0.00    -0.031 C 
ATOM     24  H   LIG d   1       4.421  -7.476  -4.467  0.00  0.00     0.026 H 
ATOM     25  H   LIG d   1       5.127  -8.700  -5.550  0.00  0.00     0.026 H 
ATOM     26  H   LIG d   1       6.068  -7.256  -5.106  0.00  0.00     0.026 H 
ENDBRANCH  20  23
ENDBRANCH  19  20
ENDBRANCH  17  19
ENDBRANCH   1  17
BRANCH   3  27
ATOM     27  O   LIG d   1       4.507   0.325  -6.707  0.00  0.00    -0.494 OA
BRANCH  27  28
ATOM     28  C   LIG d   1       3.478   0.627  -7.651  0.00  0.00     0.079 C 
ATOM     29  H   LIG d   1       2.531   0.756  -7.127  0.00  0.00     0.066 H 
ATOM     30  H   LIG d   1       3.728   1.546  -8.181  0.00  0.00     0.066 H 
ATOM     31  H   LIG d   1       3.389  -0.191  -8.367  0.00  0.00     0.066 H 
ENDBRANCH  27  28
ENDBRANCH   3  27
TORSDOF 6
ENDMDL
MODEL 6
REMARK VINA RESULT:      -5.1      4.242      4.734
REMARK  6 active torsions:
REMARK  status: ('A' for Active; 'I' for Inactive)
REMARK    1  A    between atoms: C_1  and  C_2 
REMARK    2  A    between atoms: C_2  and  O_3 
REMARK    3  A    between atoms: O_3  and  C_4 
REMARK    4  A    between atoms: C_4  and  C_6 
REMARK    5  A    between atoms: C_8  and  O_15 
REMARK    6  A    between atoms: O_15  and  C_16 
ROOT
ATOM      1  C   LIG d   1       7.865   1.066  -4.609  0.00  0.00     0.295 A 
ATOM      2  C   LIG d   1       8.099  -0.305  -4.761  0.00  0.00     0.059 A 
ATOM      3  C   LIG d   1       7.269  -1.213  -4.131  0.00  0.00     0.140 A 
ATOM      4  C   LIG d   1       6.204  -0.710  -3.349  0.00  0.00     0.088 A 
ATOM      5  C   LIG d   1       5.322  -1.569  -2.679  0.00  0.00    -0.045 A 
ATOM      6  C   LIG d   1       4.308  -1.048  -1.934  0.00  0.00    -0.061 A 
ATOM      7  C   LIG d   1       4.135   0.331  -1.827  0.00  0.00    -0.056 A 
ATOM      8  C   LIG d   1       4.971   1.195  -2.462  0.00  0.00     0.010 A 
ATOM      9  C   LIG d   1       6.032   0.694  -3.242  0.00  0.00     0.217 A 
ATOM     10  H   LIG d   1       8.923  -0.653  -5.367  0.00  0.00     0.072 H 
ATOM     11  H   LIG d   1       5.445  -2.639  -2.755  0.00  0.00     0.063 H 
ATOM     12  H   LIG d   1       3.629  -1.713  -1.420  0.00  0.00     0.062 H 
ATOM     13  H   LIG d   1       3.324   0.719  -1.230  0.00  0.00     0.062 H 
ATOM     14  H   LIG d   1       4.824   2.260  -2.369  0.00  0.00     0.068 H 
ATOM     15  N   LIG d   1       6.856   1.599  -3.868  0.00  0.00    -0.198 N 
ATOM     16  H   LIG d   1       6.719   2.613  -3.781  0.00  0.00     0.454 HD
ENDROOT
BRANCH   1  17
ATOM     17  C   LIG d   1       8.761   2.032  -5.288  0.00  0.00     0.404 C 
ATOM     18  O   LIG d   1       8.590   2.298  -6.461  0.00  0.00    -0.238 OA
BRANCH  17  19
ATOM     19  O   LIG d   1       9.765   2.615  -4.605  0.00  0.00    -0.457 OA
BRANCH  19  20
ATOM     20  C   LIG d   1       9.632   4.032  -4.319  0.00  0.00     0.090 C 
ATOM     21  H   LIG d   1      10.334   4.595  -4.935  0.00  0.00     0.070 H 
ATOM     22  H   LIG d   1       8.614   4.353  -4.542  0.00  0.00     0.070 H 
BRANCH  20  23
ATOM     23  C   LIG d   1       9.935   4.285  -2.841  0.00  0.00    -0.031 C 
ATOM     24  H   LIG d   1       9.439   5.200  -2.520  0.00  0.00     0.026 H 
ATOM     25  H   LIG d   1       9.572   3.446  -2.247  0.00  0.00     0.026 H 
ATOM     26  H   LIG d   1      11.012   4.387  -2.704  0.00  0.00     0.026 H 
ENDBRANCH  20  23
ENDBRANCH  19  20
ENDBRANCH  17  19
ENDBRANCH   1  17
BRANCH   3  27
ATOM     27  O   LIG d   1       7.468  -2.549  -4.259  0.00  0.00    -0.494 OA
BRANCH  27  28
ATOM     28  C   LIG d   1       7.245  -3.116  -5.551  0.00  0.00     0.079 C 
ATOM     29  H   LIG d   1       6.744  -4.078  -5.445  0.00  0.00     0.066 H 
ATOM     30  H   LIG d   1       6.622  -2.444  -6.141  0.00  0.00     0.066 H 
ATOM     31  H   LIG d   1       8.202  -3.258  -6.056  0.00  0.00     0.066 H 
ENDBRANCH  27  28
ENDBRANCH   3  27
TORSDOF 6
ENDMDL
MODEL 7
REMARK VINA RESULT:      -5.1      1.992      5.264
REMARK  6 active torsions:
REMARK  status: ('A' for Active; 'I' for Inactive)
REMARK    1  A    between atoms: C_1  and  C_2 
REMARK    2  A    between atoms: C_2  and  O_3 
REMARK    3  A    between atoms: O_3  and  C_4 
REMARK    4  A    between atoms: C_4  and  C_6 
REMARK    5  A    between atoms: C_8  and  O_15 
REMARK    6  A    between atoms: O_15  and  C_16 
ROOT
ATOM      1  C   LIG d   1       3.983  -0.419  -6.283  0.00  0.00     0.295 A 
ATOM      2  C   LIG d   1       4.425  -1.532  -7.008  0.00  0.00     0.059 A 
ATOM      3  C   LIG d   1       4.528  -1.453  -8.385  0.00  0.00     0.140 A 
ATOM      4  C   LIG d   1       4.177  -0.234  -9.009  0.00  0.00     0.088 A 
ATOM      5  C   LIG d   1       4.255  -0.080 -10.400  0.00  0.00    -0.045 A 
ATOM      6  C   LIG d   1       3.909   1.110 -10.967  0.00  0.00    -0.061 A 
ATOM      7  C   LIG d   1       3.476   2.177 -10.181  0.00  0.00    -0.056 A 
ATOM      8  C   LIG d   1       3.388   2.063  -8.829  0.00  0.00     0.010 A 
ATOM      9  C   LIG d   1       3.737   0.849  -8.206  0.00  0.00     0.217 A 
ATOM     10  H   LIG d   1       4.684  -2.447  -6.496  0.00  0.00     0.072 H 
ATOM     11  H   LIG d   1       4.589  -0.899 -11.019  0.00  0.00     0.063 H 
ATOM     12  H   LIG d   1       3.970   1.227 -12.039  0.00  0.00     0.062 H 
ATOM     13  H   LIG d   1       3.207   3.109 -10.654  0.00  0.00     0.062 H 
ATOM     14  H   LIG d   1       3.051   2.899  -8.235  0.00  0.00     0.068 H 
ATOM     15  N   LIG d   1       3.635   0.773  -6.837  0.00  0.00    -0.198 N 
ATOM     16  H   LIG d   1       3.314   1.566  -6.269  0.00  0.00     0.454 HD
ENDROOT
BRANCH   1  17
ATOM     17  C   LIG d   1       3.876  -0.514  -4.808  0.00  0.00     0.404 C 
ATOM     18  O   LIG d   1       3.706  -1.593  -4.279  0.00  0.00    -0.238 OA
BRANCH  17  19
ATOM     19  O   LIG d   1       3.966   0.599  -4.054  0.00  0.00    -0.457 OA
BRANCH  19  20
ATOM     20  C   LIG d   1       3.418   0.531  -2.711  0.00  0.00     0.090 C 
ATOM     21  H   LIG d   1       2.605   1.250  -2.613  0.00  0.00     0.070 H 
ATOM     22  H   LIG d   1       3.039  -0.474  -2.524  0.00  0.00     0.070 H 
BRANCH  20  23
ATOM     23  C   LIG d   1       4.514   0.859  -1.695  0.00  0.00    -0.031 C 
ATOM     24  H   LIG d   1       4.487   0.133  -0.884  0.00  0.00     0.026 H 
ATOM     25  H   LIG d   1       5.487   0.822  -2.186  0.00  0.00     0.026 H 
ATOM     26  H   LIG d   1       4.349   1.859  -1.293  0.00  0.00     0.026 H 
ENDBRANCH  20  23
ENDBRANCH  19  20
ENDBRANCH  17  19
ENDBRANCH   1  17
BRANCH   3  27
ATOM     27  O   LIG d   1       4.953  -2.514  -9.116  0.00  0.00    -0.494 OA
BRANCH  27  28
ATOM     28  C   LIG d   1       5.446  -3.643  -8.392  0.00  0.00     0.079 C 
ATOM     29  H   LIG d   1       6.525  -3.553  -8.268  0.00  0.00     0.066 H 
ATOM     30  H   LIG d   1       4.969  -3.684  -7.413  0.00  0.00     0.066 H 
ATOM     31  H   LIG d   1       5.218  -4.555  -8.944  0.00  0.00     0.066 H 
ENDBRANCH  27  28
ENDBRANCH   3  27
TORSDOF 6
ENDMDL
MODEL 8
REMARK VINA RESULT:      -4.8      2.373      5.967
REMARK  6 active torsions:
REMARK  status: ('A' for Active; 'I' for Inactive)
REMARK    1  A    between atoms: C_1  and  C_2 
REMARK    2  A    between atoms: C_2  and  O_3 
REMARK    3  A    between atoms: O_3  and  C_4 
REMARK    4  A    between atoms: C_4  and  C_6 
REMARK    5  A    between atoms: C_8  and  O_15 
REMARK    6  A    between atoms: O_15  and  C_16 
ROOT
ATOM      1  C   LIG d   1       3.673  -0.578  -6.632  0.00  0.00     0.295 A 
ATOM      2  C   LIG d   1       3.387   0.682  -7.168  0.00  0.00     0.059 A 
ATOM      3  C   LIG d   1       2.958   0.785  -8.479  0.00  0.00     0.140 A 
ATOM      4  C   LIG d   1       2.826  -0.405  -9.230  0.00  0.00     0.088 A 
ATOM      5  C   LIG d   1       2.397  -0.380 -10.565  0.00  0.00    -0.045 A 
ATOM      6  C   LIG d   1       2.281  -1.547 -11.258  0.00  0.00    -0.061 A 
ATOM      7  C   LIG d   1       2.584  -2.768 -10.658  0.00  0.00    -0.056 A 
ATOM      8  C   LIG d   1       3.002  -2.830  -9.366  0.00  0.00     0.010 A 
ATOM      9  C   LIG d   1       3.135  -1.646  -8.616  0.00  0.00     0.217 A 
ATOM     10  H   LIG d   1       3.500   1.570  -6.563  0.00  0.00     0.072 H 
ATOM     11  H   LIG d   1       2.159   0.560 -11.041  0.00  0.00     0.063 H 
ATOM     12  H   LIG d   1       1.951  -1.525 -12.287  0.00  0.00     0.062 H 
ATOM     13  H   LIG d   1       2.485  -3.679 -11.229  0.00  0.00     0.062 H 
ATOM     14  H   LIG d   1       3.233  -3.785  -8.916  0.00  0.00     0.068 H 
ATOM     15  N   LIG d   1       3.561  -1.750  -7.313  0.00  0.00    -0.198 N 
ATOM     16  H   LIG d   1       3.781  -2.656  -6.882  0.00  0.00     0.454 HD
ENDROOT
BRANCH   1  17
ATOM     17  C   LIG d   1       4.132  -0.678  -5.226  0.00  0.00     0.404 C 
ATOM     18  O   LIG d   1       4.429  -1.759  -4.760  0.00  0.00    -0.238 OA
BRANCH  17  19
ATOM     19  O   LIG d   1       4.218   0.430  -4.465  0.00  0.00    -0.457 OA
BRANCH  19  20
ATOM     20  C   LIG d   1       3.356   0.497  -3.298  0.00  0.00     0.090 C 
ATOM     21  H   LIG d   1       2.534   1.186  -3.493  0.00  0.00     0.070 H 
ATOM     22  H   LIG d   1       2.956  -0.494  -3.086  0.00  0.00     0.070 H 
BRANCH  20  23
ATOM     23  C   LIG d   1       4.163   0.991  -2.096  0.00  0.00    -0.031 C 
ATOM     24  H   LIG d   1       3.687   0.653  -1.176  0.00  0.00     0.026 H 
ATOM     25  H   LIG d   1       5.176   0.593  -2.151  0.00  0.00     0.026 H 
ATOM     26  H   LIG d   1       4.200   2.081  -2.107  0.00  0.00     0.026 H 
ENDBRANCH  20  23
ENDBRANCH  19  20
ENDBRANCH  17  19
ENDBRANCH   1  17
BRANCH   3  27
ATOM     27  O   LIG d   1       2.673   1.992  -9.028  0.00  0.00    -0.494 OA
BRANCH  27  28
ATOM     28  C   LIG d   1       3.779   2.837  -9.346  0.00  0.00     0.079 C 
ATOM     29  H   LIG d   1       4.481   2.294  -9.978  0.00  0.00     0.066 H 
ATOM     30  H   LIG d   1       3.422   3.721  -9.874  0.00  0.00     0.066 H 
ATOM     31  H   LIG d   1       4.280   3.142  -8.426  0.00  0.00     0.066 H 
ENDBRANCH  27  28
ENDBRANCH   3  27
TORSDOF 6
ENDMDL
MODEL 9
REMARK VINA RESULT:      -4.7      8.568     10.549
REMARK  6 active torsions:
REMARK  status: ('A' for Active; 'I' for Inactive)
REMARK    1  A    between atoms: C_1  and  C_2 
REMARK    2  A    between atoms: C_2  and  O_3 
REMARK    3  A    between atoms: O_3  and  C_4 
REMARK    4  A    between atoms: C_4  and  C_6 
REMARK    5  A    between atoms: C_8  and  O_15 
REMARK    6  A    between atoms: O_15  and  C_16 
ROOT
ATOM      1  C   LIG d   1       9.660   6.579  -2.624  0.00  0.00     0.295 A 
ATOM      2  C   LIG d   1       9.895   5.242  -2.967  0.00  0.00     0.059 A 
ATOM      3  C   LIG d   1       9.959   4.881  -4.300  0.00  0.00     0.140 A 
ATOM      4  C   LIG d   1       9.784   5.892  -5.272  0.00  0.00     0.088 A 
ATOM      5  C   LIG d   1       9.836   5.601  -6.642  0.00  0.00    -0.045 A 
ATOM      6  C   LIG d   1       9.663   6.601  -7.551  0.00  0.00    -0.061 A 
ATOM      7  C   LIG d   1       9.432   7.912  -7.137  0.00  0.00    -0.056 A 
ATOM      8  C   LIG d   1       9.375   8.231  -5.816  0.00  0.00     0.010 A 
ATOM      9  C   LIG d   1       9.550   7.224  -4.846  0.00  0.00     0.217 A 
ATOM     10  H   LIG d   1      10.023   4.498  -2.195  0.00  0.00     0.072 H 
ATOM     11  H   LIG d   1      10.014   4.590  -6.976  0.00  0.00     0.063 H 
ATOM     12  H   LIG d   1       9.703   6.375  -8.607  0.00  0.00     0.062 H 
ATOM     13  H   LIG d   1       9.297   8.686  -7.876  0.00  0.00     0.062 H 
ATOM     14  H   LIG d   1       9.196   9.251  -5.511  0.00  0.00     0.068 H 
ATOM     15  N   LIG d   1       9.485   7.586  -3.521  0.00  0.00    -0.198 N 
ATOM     16  H   LIG d   1       9.315   8.555  -3.228  0.00  0.00     0.454 HD
ENDROOT
BRANCH   1  17
ATOM     17  C   LIG d   1       9.592   6.957  -1.192  0.00  0.00     0.404 C 
ATOM     18  O   LIG d   1       9.033   7.983  -0.861  0.00  0.00    -0.238 OA
BRANCH  17  19
ATOM     19  O   LIG d   1      10.150   6.162  -0.259  0.00  0.00    -0.457 OA
BRANCH  19  20
ATOM     20  C   LIG d   1      11.011   6.801   0.721  0.00  0.00     0.090 C 
ATOM     21  H   LIG d   1      12.024   6.866   0.326  0.00  0.00     0.070 H 
ATOM     22  H   LIG d   1      10.638   7.803   0.932  0.00  0.00     0.070 H 
BRANCH  20  23
ATOM     23  C   LIG d   1      11.017   5.976   2.009  0.00  0.00    -0.031 C 
ATOM     24  H   LIG d   1      10.131   6.214   2.598  0.00  0.00     0.026 H 
ATOM     25  H   LIG d   1      11.014   4.914   1.761  0.00  0.00     0.026 H 
ATOM     26  H   LIG d   1      11.911   6.211   2.587  0.00  0.00     0.026 H 
ENDBRANCH  20  23
ENDBRANCH  19  20
ENDBRANCH  17  19
ENDBRANCH   1  17
BRANCH   3  27
ATOM     27  O   LIG d   1      10.186   3.594  -4.665  0.00  0.00    -0.494 OA
BRANCH  27  28
ATOM     28  C   LIG d   1      10.004   2.595  -3.660  0.00  0.00     0.079 C 
ATOM     29  H   LIG d   1       9.894   3.073  -2.687  0.00  0.00     0.066 H 
ATOM     30  H   LIG d   1       9.110   2.013  -3.883  0.00  0.00     0.066 H 
ATOM     31  H   LIG d   1      10.871   1.933  -3.644  0.00  0.00     0.066 H 
ENDBRANCH  27  28
ENDBRANCH   3  27
TORSDOF 6
ENDMDL
MODEL 10
REMARK VINA RESULT:      -4.6     10.400     11.686
REMARK  6 active torsions:
REMARK  status: ('A' for Active; 'I' for Inactive)
REMARK    1  A    between atoms: C_1  and  C_2 
REMARK    2  A    between atoms: C_2  and  O_3 
REMARK    3  A    between atoms: O_3  and  C_4 
REMARK    4  A    between atoms: C_4  and  C_6 
REMARK    5  A    between atoms: C_8  and  O_15 
REMARK    6  A    between atoms: O_15  and  C_16 
ROOT
ATOM      1  C   LIG d   1       9.709   8.449  -1.379  0.00  0.00     0.295 A 
ATOM      2  C   LIG d   1      10.332   7.646  -0.417  0.00  0.00     0.059 A 
ATOM      3  C   LIG d   1      10.594   6.319  -0.702  0.00  0.00     0.140 A 
ATOM      4  C   LIG d   1      10.215   5.824  -1.970  0.00  0.00     0.088 A 
ATOM      5  C   LIG d   1      10.448   4.489  -2.330  0.00  0.00    -0.045 A 
ATOM      6  C   LIG d   1      10.069   4.047  -3.561  0.00  0.00    -0.061 A 
ATOM      7  C   LIG d   1       9.452   4.904  -4.470  0.00  0.00    -0.056 A 
ATOM      8  C   LIG d   1       9.211   6.205  -4.156  0.00  0.00     0.010 A 
ATOM      9  C   LIG d   1       9.587   6.700  -2.892  0.00  0.00     0.217 A 
ATOM     10  H   LIG d   1      10.607   8.060   0.542  0.00  0.00     0.072 H 
ATOM     11  H   LIG d   1      10.925   3.815  -1.635  0.00  0.00     0.063 H 
ATOM     12  H   LIG d   1      10.249   3.017  -3.836  0.00  0.00     0.062 H 
ATOM     13  H   LIG d   1       9.161   4.529  -5.440  0.00  0.00     0.062 H 
ATOM     14  H   LIG d   1       8.731   6.856  -4.871  0.00  0.00     0.068 H 
ATOM     15  N   LIG d   1       9.326   8.020  -2.611  0.00  0.00    -0.198 N 
ATOM     16  H   LIG d   1       8.871   8.642  -3.290  0.00  0.00     0.454 HD
ENDROOT
BRANCH   1  17
ATOM     17  C   LIG d   1       9.432   9.872  -1.065  0.00  0.00     0.404 C 
ATOM     18  O   LIG d   1       9.222  10.662  -1.962  0.00  0.00    -0.238 OA
BRANCH  17  19
ATOM     19  O   LIG d   1       9.414  10.286   0.217  0.00  0.00    -0.457 OA
BRANCH  19  20
ATOM     20  C   LIG d   1      10.308  11.375   0.569  0.00  0.00     0.090 C 
ATOM     21  H   LIG d   1      10.614  11.901  -0.335  0.00  0.00     0.070 H 
ATOM     22  H   LIG d   1       9.792  12.067   1.235  0.00  0.00     0.070 H 
BRANCH  20  23
ATOM     23  C   LIG d   1      11.543  10.813   1.275  0.00  0.00    -0.031 C 
ATOM     24  H   LIG d   1      11.307   9.838   1.699  0.00  0.00     0.026 H 
ATOM     25  H   LIG d   1      12.357  10.710   0.556  0.00  0.00     0.026 H 
ATOM     26  H   LIG d   1      11.847  11.492   2.072  0.00  0.00     0.026 H 
ENDBRANCH  20  23
ENDBRANCH  19  20
ENDBRANCH  17  19
ENDBRANCH   1  17
BRANCH   3  27
ATOM     27  O   LIG d   1      11.197   5.515   0.209  0.00  0.00    -0.494 OA
BRANCH  27  28
ATOM     28  C   LIG d   1      11.007   5.841   1.587  0.00  0.00     0.079 C 
ATOM     29  H   LIG d   1      11.516   6.778   1.812  0.00  0.00     0.066 H 
ATOM     30  H   LIG d   1       9.942   5.946   1.793  0.00  0.00     0.066 H 
ATOM     31  H   LIG d   1      11.419   5.045   2.209  0.00  0.00     0.066 H 
ENDBRANCH  27  28
ENDBRANCH   3  27
TORSDOF 6
ENDMDL
