MODEL 1
REMARK VINA RESULT:      -6.4      0.000      0.000
REMARK  10 active torsions:
REMARK  status: ('A' for Active; 'I' for Inactive)
REMARK    1  A    between atoms: C_5  and  O_7 
REMARK    2  A    between atoms: C_13  and  C_17 
REMARK    3  A    between atoms: C_15  and  O_16 
REMARK    4  A    between atoms: C_17  and  O_18 
REMARK    5  A    between atoms: C_19  and  C_21 
REMARK    6  A    between atoms: C_23  and  O_36 
REMARK    7  A    between atoms: C_25  and  O_35 
REMARK    8  A    between atoms: C_27  and  O_34 
REMARK    9  A    between atoms: C_29  and  C_32 
REMARK   10  A    between atoms: C_32  and  O_33 
ROOT
ATOM      1  C   LIG d   1       2.222  -1.178  -9.341  0.00  0.00    -0.058 A 
ATOM      2  C   LIG d   1       3.173  -1.577  -8.419  0.00  0.00    -0.057 A 
ATOM      3  C   LIG d   1       4.260  -0.769  -8.134  0.00  0.00    -0.023 A 
ATOM      4  C   LIG d   1       4.386   0.452  -8.795  0.00  0.00     0.068 A 
ATOM      5  C   LIG d   1       3.421   0.859  -9.726  0.00  0.00     0.128 A 
ATOM      6  C   LIG d   1       2.339   0.033  -9.994  0.00  0.00    -0.019 A 
ATOM      7  C   LIG d   1       5.554   1.315  -8.519  0.00  0.00     0.201 C 
ATOM      8  O   LIG d   1       5.552   2.493  -8.823  0.00  0.00    -0.286 OA
ATOM      9  C   LIG d   1       6.723   0.698  -7.861  0.00  0.00     0.068 A 
ATOM     10  C   LIG d   1       6.580  -0.526  -7.208  0.00  0.00    -0.023 A 
ATOM     11  C   LIG d   1       7.688  -1.101  -6.610  0.00  0.00    -0.052 A 
ATOM     12  C   LIG d   1       8.917  -0.469  -6.650  0.00  0.00    -0.018 A 
ATOM     13  C   LIG d   1       9.063   0.748  -7.287  0.00  0.00    -0.014 A 
ATOM     14  C   LIG d   1       7.967   1.341  -7.898  0.00  0.00     0.128 A 
ATOM     15  C   LIG d   1       5.261  -1.232  -7.119  0.00  0.00     0.040 C 
ATOM     16  H   LIG d   1       5.427  -2.301  -7.256  0.00  0.00     0.042 H 
ATOM     17  H   LIG d   1       1.382  -1.823  -9.557  0.00  0.00     0.062 H 
ATOM     18  H   LIG d   1       3.065  -2.525  -7.916  0.00  0.00     0.062 H 
ATOM     19  H   LIG d   1       1.590   0.336 -10.712  0.00  0.00     0.065 H 
ATOM     20  H   LIG d   1       7.591  -2.052  -6.108  0.00  0.00     0.062 H 
ATOM     21  H   LIG d   1      10.026   1.237  -7.308  0.00  0.00     0.066 H 
ENDROOT
BRANCH  15  22
ATOM     22  C   LIG d   1       4.680  -1.007  -5.722  0.00  0.00     0.098 C 
ATOM     23  H   LIG d   1       3.645  -0.673  -5.807  0.00  0.00     0.063 H 
ATOM     24  O   LIG d   1       5.446  -0.012  -5.040  0.00  0.00    -0.365 OA
ATOM     25  C   LIG d   1       4.971   0.295  -3.728  0.00  0.00     0.110 C 
ATOM     26  C   LIG d   1       5.033  -0.963  -2.858  0.00  0.00     0.112 C 
ATOM     27  H   LIG d   1       5.594   1.072  -3.288  0.00  0.00     0.065 H 
ATOM     28  C   LIG d   1       4.202  -2.070  -3.515  0.00  0.00     0.112 C 
ATOM     29  H   LIG d   1       6.068  -1.291  -2.765  0.00  0.00     0.065 H 
ATOM     30  C   LIG d   1       4.730  -2.318  -4.931  0.00  0.00     0.110 C 
ATOM     31  H   LIG d   1       4.287  -2.986  -2.929  0.00  0.00     0.065 H 
ATOM     32  H   LIG d   1       5.759  -2.673  -4.880  0.00  0.00     0.065 H 
BRANCH  25  33
ATOM     33  C   LIG d   1       3.524   0.786  -3.812  0.00  0.00     0.073 C 
ATOM     34  H   LIG d   1       3.428   1.494  -4.636  0.00  0.00     0.058 H 
ATOM     35  H   LIG d   1       2.861  -0.061  -3.982  0.00  0.00     0.058 H 
BRANCH  33  36
ATOM     36  O   LIG d   1       3.168   1.430  -2.587  0.00  0.00    -0.392 OA
ATOM     37  H   LIG d   1       3.850   1.380  -1.903  0.00  0.00     0.209 HD
ENDBRANCH  33  36
ENDBRANCH  25  33
BRANCH  26  38
ATOM     38  O   LIG d   1       4.504  -0.675  -1.562  0.00  0.00    -0.387 OA
ATOM     39  H   LIG d   1       3.542  -0.576  -1.542  0.00  0.00     0.210 HD
ENDBRANCH  26  38
BRANCH  28  40
ATOM     40  O   LIG d   1       2.832  -1.670  -3.578  0.00  0.00    -0.387 OA
ATOM     41  H   LIG d   1       2.217  -2.308  -3.191  0.00  0.00     0.210 HD
ENDBRANCH  28  40
BRANCH  30  42
ATOM     42  O   LIG d   1       3.918  -3.298  -5.580  0.00  0.00    -0.387 OA
ATOM     43  H   LIG d   1       4.273  -3.608  -6.424  0.00  0.00     0.210 HD
ENDBRANCH  30  42
ENDBRANCH  15  22
BRANCH   5  44
ATOM     44  O   LIG d   1       3.543   2.052 -10.359  0.00  0.00    -0.506 OA
ATOM     45  H   LIG d   1       2.948   2.737 -10.025  0.00  0.00     0.292 HD
ENDBRANCH   5  44
BRANCH  14  46
ATOM     46  O   LIG d   1       8.100   2.535  -8.527  0.00  0.00    -0.506 OA
ATOM     47  H   LIG d   1       7.285   3.054  -8.560  0.00  0.00     0.292 HD
ENDBRANCH  14  46
BRANCH  12  48
ATOM     48  C   LIG d   1      10.110  -1.113  -5.991  0.00  0.00     0.069 C 
ATOM     49  H   LIG d   1      10.197  -2.146  -6.327  0.00  0.00     0.061 H 
ATOM     50  H   LIG d   1      11.014  -0.566  -6.260  0.00  0.00     0.061 H 
BRANCH  48  51
ATOM     51  O   LIG d   1       9.942  -1.087  -4.572  0.00  0.00    -0.390 OA
ATOM     52  H   LIG d   1       9.977  -1.959  -4.156  0.00  0.00     0.210 HD
ENDBRANCH  48  51
ENDBRANCH  12  48
TORSDOF 10
ENDMDL
MODEL 2
REMARK VINA RESULT:      -6.1      2.510      5.686
REMARK  10 active torsions:
REMARK  status: ('A' for Active; 'I' for Inactive)
REMARK    1  A    between atoms: C_5  and  O_7 
REMARK    2  A    between atoms: C_13  and  C_17 
REMARK    3  A    between atoms: C_15  and  O_16 
REMARK    4  A    between atoms: C_17  and  O_18 
REMARK    5  A    between atoms: C_19  and  C_21 
REMARK    6  A    between atoms: C_23  and  O_36 
REMARK    7  A    between atoms: C_25  and  O_35 
REMARK    8  A    between atoms: C_27  and  O_34 
REMARK    9  A    between atoms: C_29  and  C_32 
REMARK   10  A    between atoms: C_32  and  O_33 
ROOT
ATOM      1  C   LIG d   1       4.132  -1.617  -2.080  0.00  0.00    -0.058 A 
ATOM      2  C   LIG d   1       3.920  -2.214  -3.310  0.00  0.00    -0.057 A 
ATOM      3  C   LIG d   1       4.498  -1.694  -4.455  0.00  0.00    -0.023 A 
ATOM      4  C   LIG d   1       5.295  -0.554  -4.351  0.00  0.00     0.068 A 
ATOM      5  C   LIG d   1       5.514   0.048  -3.106  0.00  0.00     0.128 A 
ATOM      6  C   LIG d   1       4.926  -0.491  -1.972  0.00  0.00    -0.019 A 
ATOM      7  C   LIG d   1       5.900   0.027  -5.569  0.00  0.00     0.201 C 
ATOM      8  O   LIG d   1       6.828   0.809  -5.498  0.00  0.00    -0.286 OA
ATOM      9  C   LIG d   1       5.338  -0.376  -6.874  0.00  0.00     0.068 A 
ATOM     10  C   LIG d   1       4.539  -1.517  -6.958  0.00  0.00    -0.023 A 
ATOM     11  C   LIG d   1       4.006  -1.873  -8.184  0.00  0.00    -0.052 A 
ATOM     12  C   LIG d   1       4.267  -1.117  -9.312  0.00  0.00    -0.018 A 
ATOM     13  C   LIG d   1       5.065   0.007  -9.237  0.00  0.00    -0.014 A 
ATOM     14  C   LIG d   1       5.607   0.387  -8.017  0.00  0.00     0.128 A 
ATOM     15  C   LIG d   1       4.253  -2.379  -5.765  0.00  0.00     0.040 C 
ATOM     16  H   LIG d   1       3.210  -2.692  -5.805  0.00  0.00     0.042 H 
ATOM     17  H   LIG d   1       3.669  -2.031  -1.197  0.00  0.00     0.062 H 
ATOM     18  H   LIG d   1       3.299  -3.094  -3.377  0.00  0.00     0.062 H 
ATOM     19  H   LIG d   1       5.087  -0.033  -1.007  0.00  0.00     0.065 H 
ATOM     20  H   LIG d   1       3.380  -2.750  -8.261  0.00  0.00     0.062 H 
ATOM     21  H   LIG d   1       5.268   0.589 -10.125  0.00  0.00     0.066 H 
ENDROOT
BRANCH  15  22
ATOM     22  C   LIG d   1       5.138  -3.625  -5.839  0.00  0.00     0.098 C 
ATOM     23  H   LIG d   1       5.287  -4.024  -4.836  0.00  0.00     0.063 H 
ATOM     24  O   LIG d   1       6.403  -3.279  -6.406  0.00  0.00    -0.365 OA
ATOM     25  C   LIG d   1       7.320  -4.370  -6.498  0.00  0.00     0.110 C 
ATOM     26  C   LIG d   1       6.729  -5.457  -7.400  0.00  0.00     0.112 C 
ATOM     27  H   LIG d   1       8.261  -4.020  -6.920  0.00  0.00     0.065 H 
ATOM     28  C   LIG d   1       5.377  -5.902  -6.832  0.00  0.00     0.112 C 
ATOM     29  H   LIG d   1       6.589  -5.060  -8.405  0.00  0.00     0.065 H 
ATOM     30  C   LIG d   1       4.459  -4.681  -6.715  0.00  0.00     0.110 C 
ATOM     31  H   LIG d   1       4.925  -6.635  -7.500  0.00  0.00     0.065 H 
ATOM     32  H   LIG d   1       4.273  -4.268  -7.706  0.00  0.00     0.065 H 
BRANCH  25  33
ATOM     33  C   LIG d   1       7.569  -4.946  -5.102  0.00  0.00     0.073 C 
ATOM     34  H   LIG d   1       7.712  -4.130  -4.392  0.00  0.00     0.058 H 
ATOM     35  H   LIG d   1       6.711  -5.545  -4.798  0.00  0.00     0.058 H 
BRANCH  33  36
ATOM     36  O   LIG d   1       8.738  -5.767  -5.126  0.00  0.00    -0.392 OA
ATOM     37  H   LIG d   1       9.514  -5.337  -5.512  0.00  0.00     0.209 HD
ENDBRANCH  33  36
ENDBRANCH  25  33
BRANCH  26  38
ATOM     38  O   LIG d   1       7.618  -6.575  -7.447  0.00  0.00    -0.387 OA
ATOM     39  H   LIG d   1       7.195  -7.422  -7.251  0.00  0.00     0.210 HD
ENDBRANCH  26  38
BRANCH  28  40
ATOM     40  O   LIG d   1       5.567  -6.484  -5.541  0.00  0.00    -0.387 OA
ATOM     41  H   LIG d   1       6.449  -6.855  -5.402  0.00  0.00     0.210 HD
ENDBRANCH  28  40
BRANCH  30  42
ATOM     42  O   LIG d   1       3.220  -5.071  -6.120  0.00  0.00    -0.387 OA
ATOM     43  H   LIG d   1       3.262  -5.186  -5.160  0.00  0.00     0.210 HD
ENDBRANCH  30  42
ENDBRANCH  15  22
BRANCH   5  44
ATOM     44  O   LIG d   1       6.298   1.151  -3.010  0.00  0.00    -0.506 OA
ATOM     45  H   LIG d   1       6.000   1.789  -2.346  0.00  0.00     0.292 HD
ENDBRANCH   5  44
BRANCH  14  46
ATOM     46  O   LIG d   1       6.390   1.491  -7.933  0.00  0.00    -0.506 OA
ATOM     47  H   LIG d   1       6.697   1.686  -7.037  0.00  0.00     0.292 HD
ENDBRANCH  14  46
BRANCH  12  48
ATOM     48  C   LIG d   1       3.676  -1.525 -10.638  0.00  0.00     0.069 C 
ATOM     49  H   LIG d   1       4.402  -1.345 -11.431  0.00  0.00     0.061 H 
ATOM     50  H   LIG d   1       3.421  -2.584 -10.612  0.00  0.00     0.061 H 
BRANCH  48  51
ATOM     51  O   LIG d   1       2.497  -0.757 -10.890  0.00  0.00    -0.390 OA
ATOM     52  H   LIG d   1       1.717  -1.290 -11.096  0.00  0.00     0.210 HD
ENDBRANCH  48  51
ENDBRANCH  12  48
TORSDOF 10
ENDMDL
MODEL 3
REMARK VINA RESULT:      -6.0      2.641      6.000
REMARK  10 active torsions:
REMARK  status: ('A' for Active; 'I' for Inactive)
REMARK    1  A    between atoms: C_5  and  O_7 
REMARK    2  A    between atoms: C_13  and  C_17 
REMARK    3  A    between atoms: C_15  and  O_16 
REMARK    4  A    between atoms: C_17  and  O_18 
REMARK    5  A    between atoms: C_19  and  C_21 
REMARK    6  A    between atoms: C_23  and  O_36 
REMARK    7  A    between atoms: C_25  and  O_35 
REMARK    8  A    between atoms: C_27  and  O_34 
REMARK    9  A    between atoms: C_29  and  C_32 
REMARK   10  A    between atoms: C_32  and  O_33 
ROOT
ATOM      1  C   LIG d   1       4.504   1.216  -2.339  0.00  0.00    -0.058 A 
ATOM      2  C   LIG d   1       5.768   0.807  -2.727  0.00  0.00    -0.057 A 
ATOM      3  C   LIG d   1       5.938  -0.350  -3.466  0.00  0.00    -0.023 A 
ATOM      4  C   LIG d   1       4.815  -1.102  -3.812  0.00  0.00     0.068 A 
ATOM      5  C   LIG d   1       3.535  -0.686  -3.425  0.00  0.00     0.128 A 
ATOM      6  C   LIG d   1       3.389   0.478  -2.685  0.00  0.00    -0.019 A 
ATOM      7  C   LIG d   1       4.983  -2.353  -4.582  0.00  0.00     0.201 C 
ATOM      8  O   LIG d   1       4.045  -2.865  -5.162  0.00  0.00    -0.286 OA
ATOM      9  C   LIG d   1       6.330  -2.959  -4.622  0.00  0.00     0.068 A 
ATOM     10  C   LIG d   1       7.441  -2.193  -4.269  0.00  0.00    -0.023 A 
ATOM     11  C   LIG d   1       8.694  -2.778  -4.296  0.00  0.00    -0.052 A 
ATOM     12  C   LIG d   1       8.847  -4.100  -4.676  0.00  0.00    -0.018 A 
ATOM     13  C   LIG d   1       7.751  -4.859  -5.037  0.00  0.00    -0.014 A 
ATOM     14  C   LIG d   1       6.484  -4.295  -5.013  0.00  0.00     0.128 A 
ATOM     15  C   LIG d   1       7.323  -0.751  -3.876  0.00  0.00     0.040 C 
ATOM     16  H   LIG d   1       8.001  -0.560  -3.045  0.00  0.00     0.042 H 
ATOM     17  H   LIG d   1       4.389   2.119  -1.757  0.00  0.00     0.062 H 
ATOM     18  H   LIG d   1       6.629   1.396  -2.450  0.00  0.00     0.062 H 
ATOM     19  H   LIG d   1       2.406   0.807  -2.379  0.00  0.00     0.065 H 
ATOM     20  H   LIG d   1       9.561  -2.199  -4.017  0.00  0.00     0.062 H 
ATOM     21  H   LIG d   1       7.881  -5.889  -5.337  0.00  0.00     0.066 H 
ENDROOT
BRANCH  15  22
ATOM     22  C   LIG d   1       7.752   0.115  -5.062  0.00  0.00     0.098 C 
ATOM     23  H   LIG d   1       7.068   0.958  -5.163  0.00  0.00     0.063 H 
ATOM     24  O   LIG d   1       7.723  -0.666  -6.259  0.00  0.00    -0.365 OA
ATOM     25  C   LIG d   1       8.084   0.057  -7.437  0.00  0.00     0.110 C 
ATOM     26  C   LIG d   1       9.518   0.574  -7.297  0.00  0.00     0.112 C 
ATOM     27  H   LIG d   1       8.018  -0.601  -8.302  0.00  0.00     0.065 H 
ATOM     28  C   LIG d   1       9.617   1.451  -6.045  0.00  0.00     0.112 C 
ATOM     29  H   LIG d   1      10.202  -0.269  -7.207  0.00  0.00     0.065 H 
ATOM     30  C   LIG d   1       9.173   0.634  -4.827  0.00  0.00     0.110 C 
ATOM     31  H   LIG d   1      10.648   1.777  -5.908  0.00  0.00     0.065 H 
ATOM     32  H   LIG d   1       9.850  -0.208  -4.686  0.00  0.00     0.065 H 
BRANCH  25  33
ATOM     33  C   LIG d   1       7.131   1.240  -7.621  0.00  0.00     0.073 C 
ATOM     34  H   LIG d   1       6.107   0.915  -7.436  0.00  0.00     0.058 H 
ATOM     35  H   LIG d   1       7.393   2.031  -6.919  0.00  0.00     0.058 H 
BRANCH  33  36
ATOM     36  O   LIG d   1       7.239   1.736  -8.958  0.00  0.00    -0.392 OA
ATOM     37  H   LIG d   1       7.351   2.694  -9.014  0.00  0.00     0.209 HD
ENDBRANCH  33  36
ENDBRANCH  25  33
BRANCH  26  38
ATOM     38  O   LIG d   1       9.862   1.347  -8.449  0.00  0.00    -0.387 OA
ATOM     39  H   LIG d   1      10.183   0.821  -9.194  0.00  0.00     0.210 HD
ENDBRANCH  26  38
BRANCH  28  40
ATOM     40  O   LIG d   1       8.770   2.593  -6.189  0.00  0.00    -0.387 OA
ATOM     41  H   LIG d   1       8.009   2.448  -6.769  0.00  0.00     0.210 HD
ENDBRANCH  28  40
BRANCH  30  42
ATOM     42  O   LIG d   1       9.192   1.462  -3.663  0.00  0.00    -0.387 OA
ATOM     43  H   LIG d   1       8.698   1.101  -2.914  0.00  0.00     0.210 HD
ENDBRANCH  30  42
ENDBRANCH  15  22
BRANCH   5  44
ATOM     44  O   LIG d   1       2.446  -1.415  -3.772  0.00  0.00    -0.506 OA
ATOM     45  H   LIG d   1       2.079  -1.942  -3.049  0.00  0.00     0.292 HD
ENDBRANCH   5  44
BRANCH  14  46
ATOM     46  O   LIG d   1       5.402  -5.034  -5.363  0.00  0.00    -0.506 OA
ATOM     47  H   LIG d   1       5.602  -5.963  -5.539  0.00  0.00     0.292 HD
ENDBRANCH  14  46
BRANCH  12  48
ATOM     48  C   LIG d   1      10.222  -4.716  -4.699  0.00  0.00     0.069 C 
ATOM     49  H   LIG d   1      10.418  -5.203  -3.743  0.00  0.00     0.061 H 
ATOM     50  H   LIG d   1      10.277  -5.453  -5.500  0.00  0.00     0.061 H 
BRANCH  48  51
ATOM     51  O   LIG d   1      11.197  -3.695  -4.922  0.00  0.00    -0.390 OA
ATOM     52  H   LIG d   1      11.920  -3.963  -5.506  0.00  0.00     0.210 HD
ENDBRANCH  48  51
ENDBRANCH  12  48
TORSDOF 10
ENDMDL
MODEL 4
REMARK VINA RESULT:      -5.9      2.492      5.518
REMARK  10 active torsions:
REMARK  status: ('A' for Active; 'I' for Inactive)
REMARK    1  A    between atoms: C_5  and  O_7 
REMARK    2  A    between atoms: C_13  and  C_17 
REMARK    3  A    between atoms: C_15  and  O_16 
REMARK    4  A    between atoms: C_17  and  O_18 
REMARK    5  A    between atoms: C_19  and  C_21 
REMARK    6  A    between atoms: C_23  and  O_36 
REMARK    7  A    between atoms: C_25  and  O_35 
REMARK    8  A    between atoms: C_27  and  O_34 
REMARK    9  A    between atoms: C_29  and  C_32 
REMARK   10  A    between atoms: C_32  and  O_33 
ROOT
ATOM      1  C   LIG d   1       9.205   1.427  -6.518  0.00  0.00    -0.058 A 
ATOM      2  C   LIG d   1       7.993   0.768  -6.624  0.00  0.00    -0.057 A 
ATOM      3  C   LIG d   1       7.832  -0.501  -6.096  0.00  0.00    -0.023 A 
ATOM      4  C   LIG d   1       8.912  -1.109  -5.458  0.00  0.00     0.068 A 
ATOM      5  C   LIG d   1      10.138  -0.441  -5.345  0.00  0.00     0.128 A 
ATOM      6  C   LIG d   1      10.276   0.830  -5.881  0.00  0.00    -0.019 A 
ATOM      7  C   LIG d   1       8.762  -2.474  -4.909  0.00  0.00     0.201 C 
ATOM      8  O   LIG d   1       9.549  -2.914  -4.093  0.00  0.00    -0.286 OA
ATOM      9  C   LIG d   1       7.623  -3.284  -5.387  0.00  0.00     0.068 A 
ATOM     10  C   LIG d   1       6.552  -2.659  -6.026  0.00  0.00    -0.023 A 
ATOM     11  C   LIG d   1       5.500  -3.432  -6.482  0.00  0.00    -0.052 A 
ATOM     12  C   LIG d   1       5.502  -4.804  -6.300  0.00  0.00    -0.018 A 
ATOM     13  C   LIG d   1       6.554  -5.427  -5.658  0.00  0.00    -0.014 A 
ATOM     14  C   LIG d   1       7.623  -4.671  -5.196  0.00  0.00     0.128 A 
ATOM     15  C   LIG d   1       6.498  -1.174  -6.222  0.00  0.00     0.040 C 
ATOM     16  H   LIG d   1       6.096  -0.968  -7.213  0.00  0.00     0.042 H 
ATOM     17  H   LIG d   1       9.316   2.414  -6.941  0.00  0.00     0.062 H 
ATOM     18  H   LIG d   1       7.165   1.249  -7.123  0.00  0.00     0.062 H 
ATOM     19  H   LIG d   1      11.218   1.353  -5.802  0.00  0.00     0.065 H 
ATOM     20  H   LIG d   1       4.669  -2.962  -6.987  0.00  0.00     0.062 H 
ATOM     21  H   LIG d   1       6.545  -6.498  -5.515  0.00  0.00     0.066 H 
ENDROOT
BRANCH  15  22
ATOM     22  C   LIG d   1       5.549  -0.579  -5.180  0.00  0.00     0.098 C 
ATOM     23  H   LIG d   1       5.831   0.456  -4.981  0.00  0.00     0.063 H 
ATOM     24  O   LIG d   1       5.633  -1.335  -3.970  0.00  0.00    -0.365 OA
ATOM     25  C   LIG d   1       4.802  -0.846  -2.916  0.00  0.00     0.110 C 
ATOM     26  C   LIG d   1       3.337  -0.903  -3.356  0.00  0.00     0.112 C 
ATOM     27  H   LIG d   1       4.939  -1.462  -2.029  0.00  0.00     0.065 H 
ATOM     28  C   LIG d   1       3.164  -0.083  -4.638  0.00  0.00     0.112 C 
ATOM     29  H   LIG d   1       3.053  -1.938  -3.545  0.00  0.00     0.065 H 
ATOM     30  C   LIG d   1       4.114  -0.625  -5.711  0.00  0.00     0.110 C 
ATOM     31  H   LIG d   1       2.135  -0.164  -4.989  0.00  0.00     0.065 H 
ATOM     32  H   LIG d   1       3.846  -1.655  -5.947  0.00  0.00     0.065 H 
BRANCH  25  33
ATOM     33  C   LIG d   1       5.182   0.601  -2.597  0.00  0.00     0.073 C 
ATOM     34  H   LIG d   1       6.268   0.697  -2.577  0.00  0.00     0.058 H 
ATOM     35  H   LIG d   1       4.774   1.262  -3.361  0.00  0.00     0.058 H 
BRANCH  33  36
ATOM     36  O   LIG d   1       4.649   0.964  -1.321  0.00  0.00    -0.392 OA
ATOM     37  H   LIG d   1       3.717   0.736  -1.204  0.00  0.00     0.209 HD
ENDBRANCH  33  36
ENDBRANCH  25  33
BRANCH  26  38
ATOM     38  O   LIG d   1       2.506  -0.361  -2.327  0.00  0.00    -0.387 OA
ATOM     39  H   LIG d   1       2.256  -1.000  -1.646  0.00  0.00     0.210 HD
ENDBRANCH  26  38
BRANCH  28  40
ATOM     40  O   LIG d   1       3.471   1.288  -4.377  0.00  0.00    -0.387 OA
ATOM     41  H   LIG d   1       3.615   1.819  -5.173  0.00  0.00     0.210 HD
ENDBRANCH  28  40
BRANCH  30  42
ATOM     42  O   LIG d   1       4.014   0.177  -6.889  0.00  0.00    -0.387 OA
ATOM     43  H   LIG d   1       3.260   0.783  -6.890  0.00  0.00     0.210 HD
ENDBRANCH  30  42
ENDBRANCH  15  22
BRANCH   5  44
ATOM     44  O   LIG d   1      11.183  -1.034  -4.716  0.00  0.00    -0.506 OA
ATOM     45  H   LIG d   1      11.270  -1.979  -4.902  0.00  0.00     0.292 HD
ENDBRANCH   5  44
BRANCH  14  46
ATOM     46  O   LIG d   1       8.662  -5.275  -4.567  0.00  0.00    -0.506 OA
ATOM     47  H   LIG d   1       9.522  -4.877  -4.760  0.00  0.00     0.292 HD
ENDBRANCH  14  46
BRANCH  12  48
ATOM     48  C   LIG d   1       4.344  -5.626  -6.804  0.00  0.00     0.069 C 
ATOM     49  H   LIG d   1       4.302  -5.567  -7.892  0.00  0.00     0.061 H 
ATOM     50  H   LIG d   1       4.476  -6.665  -6.502  0.00  0.00     0.061 H 
BRANCH  48  51
ATOM     51  O   LIG d   1       3.126  -5.121  -6.253  0.00  0.00    -0.390 OA
ATOM     52  H   LIG d   1       2.511  -4.771  -6.913  0.00  0.00     0.210 HD
ENDBRANCH  48  51
ENDBRANCH  12  48
TORSDOF 10
ENDMDL
MODEL 5
REMARK VINA RESULT:      -5.9      2.482      4.138
REMARK  10 active torsions:
REMARK  status: ('A' for Active; 'I' for Inactive)
REMARK    1  A    between atoms: C_5  and  O_7 
REMARK    2  A    between atoms: C_13  and  C_17 
REMARK    3  A    between atoms: C_15  and  O_16 
REMARK    4  A    between atoms: C_17  and  O_18 
REMARK    5  A    between atoms: C_19  and  C_21 
REMARK    6  A    between atoms: C_23  and  O_36 
REMARK    7  A    between atoms: C_25  and  O_35 
REMARK    8  A    between atoms: C_27  and  O_34 
REMARK    9  A    between atoms: C_29  and  C_32 
REMARK   10  A    between atoms: C_32  and  O_33 
ROOT
ATOM      1  C   LIG d   1       2.866   2.005  -8.994  0.00  0.00    -0.058 A 
ATOM      2  C   LIG d   1       2.985   0.980  -8.073  0.00  0.00    -0.057 A 
ATOM      3  C   LIG d   1       3.758  -0.133  -8.354  0.00  0.00    -0.023 A 
ATOM      4  C   LIG d   1       4.413  -0.208  -9.583  0.00  0.00     0.068 A 
ATOM      5  C   LIG d   1       4.298   0.832 -10.513  0.00  0.00     0.128 A 
ATOM      6  C   LIG d   1       3.518   1.938 -10.210  0.00  0.00    -0.019 A 
ATOM      7  C   LIG d   1       5.224  -1.401  -9.906  0.00  0.00     0.201 C 
ATOM      8  O   LIG d   1       6.044  -1.380 -10.804  0.00  0.00    -0.286 OA
ATOM      9  C   LIG d   1       5.004  -2.620  -9.101  0.00  0.00     0.068 A 
ATOM     10  C   LIG d   1       4.343  -2.527  -7.876  0.00  0.00    -0.023 A 
ATOM     11  C   LIG d   1       4.129  -3.679  -7.140  0.00  0.00    -0.052 A 
ATOM     12  C   LIG d   1       4.571  -4.904  -7.606  0.00  0.00    -0.018 A 
ATOM     13  C   LIG d   1       5.235  -5.001  -8.813  0.00  0.00    -0.014 A 
ATOM     14  C   LIG d   1       5.456  -3.859  -9.570  0.00  0.00     0.128 A 
ATOM     15  C   LIG d   1       3.871  -1.216  -7.323  0.00  0.00     0.040 C 
ATOM     16  H   LIG d   1       2.893  -1.363  -6.864  0.00  0.00     0.042 H 
ATOM     17  H   LIG d   1       2.254   2.865  -8.762  0.00  0.00     0.062 H 
ATOM     18  H   LIG d   1       2.471   1.049  -7.126  0.00  0.00     0.062 H 
ATOM     19  H   LIG d   1       3.420   2.745 -10.922  0.00  0.00     0.065 H 
ATOM     20  H   LIG d   1       3.612  -3.621  -6.194  0.00  0.00     0.062 H 
ATOM     21  H   LIG d   1       5.581  -5.962  -9.166  0.00  0.00     0.066 H 
ENDROOT
BRANCH  15  22
ATOM     22  C   LIG d   1       4.852  -0.761  -6.241  0.00  0.00     0.098 C 
ATOM     23  H   LIG d   1       5.002   0.317  -6.316  0.00  0.00     0.063 H 
ATOM     24  O   LIG d   1       6.102  -1.429  -6.417  0.00  0.00    -0.365 OA
ATOM     25  C   LIG d   1       7.103  -1.056  -5.469  0.00  0.00     0.110 C 
ATOM     26  C   LIG d   1       6.625  -1.409  -4.058  0.00  0.00     0.112 C 
ATOM     27  H   LIG d   1       8.027  -1.592  -5.684  0.00  0.00     0.065 H 
ATOM     28  C   LIG d   1       5.296  -0.697  -3.785  0.00  0.00     0.112 C 
ATOM     29  H   LIG d   1       6.484  -2.487  -3.981  0.00  0.00     0.065 H 
ATOM     30  C   LIG d   1       4.282  -1.102  -4.861  0.00  0.00     0.110 C 
ATOM     31  H   LIG d   1       4.921  -0.988  -2.804  0.00  0.00     0.065 H 
ATOM     32  H   LIG d   1       4.094  -2.173  -4.799  0.00  0.00     0.065 H 
BRANCH  25  33
ATOM     33  C   LIG d   1       7.355   0.451  -5.560  0.00  0.00     0.073 C 
ATOM     34  H   LIG d   1       7.230   0.779  -6.593  0.00  0.00     0.058 H 
ATOM     35  H   LIG d   1       6.646   0.977  -4.923  0.00  0.00     0.058 H 
BRANCH  33  36
ATOM     36  O   LIG d   1       8.687   0.738  -5.127  0.00  0.00    -0.392 OA
ATOM     37  H   LIG d   1       8.761   1.534  -4.583  0.00  0.00     0.209 HD
ENDBRANCH  33  36
ENDBRANCH  25  33
BRANCH  26  38
ATOM     38  O   LIG d   1       7.599  -0.984  -3.103  0.00  0.00    -0.387 OA
ATOM     39  H   LIG d   1       8.439  -0.706  -3.493  0.00  0.00     0.210 HD
ENDBRANCH  26  38
BRANCH  28  40
ATOM     40  O   LIG d   1       5.492   0.718  -3.821  0.00  0.00    -0.387 OA
ATOM     41  H   LIG d   1       4.672   1.229  -3.807  0.00  0.00     0.210 HD
ENDBRANCH  28  40
BRANCH  30  42
ATOM     42  O   LIG d   1       3.061  -0.390  -4.658  0.00  0.00    -0.387 OA
ATOM     43  H   LIG d   1       2.405  -0.525  -5.357  0.00  0.00     0.210 HD
ENDBRANCH  30  42
ENDBRANCH  15  22
BRANCH   5  44
ATOM     44  O   LIG d   1       4.944   0.758 -11.703  0.00  0.00    -0.506 OA
ATOM     45  H   LIG d   1       5.747   1.296 -11.749  0.00  0.00     0.292 HD
ENDBRANCH   5  44
BRANCH  14  46
ATOM     46  O   LIG d   1       6.105  -3.945 -10.758  0.00  0.00    -0.506 OA
ATOM     47  H   LIG d   1       6.993  -3.561 -10.749  0.00  0.00     0.292 HD
ENDBRANCH  14  46
BRANCH  12  48
ATOM     48  C   LIG d   1       4.328  -6.146  -6.787  0.00  0.00     0.069 C 
ATOM     49  H   LIG d   1       3.515  -6.721  -7.230  0.00  0.00     0.061 H 
ATOM     50  H   LIG d   1       5.234  -6.752  -6.767  0.00  0.00     0.061 H 
BRANCH  48  51
ATOM     51  O   LIG d   1       3.975  -5.774  -5.452  0.00  0.00    -0.390 OA
ATOM     52  H   LIG d   1       4.588  -5.147  -5.043  0.00  0.00     0.210 HD
ENDBRANCH  48  51
ENDBRANCH  12  48
TORSDOF 10
ENDMDL
MODEL 6
REMARK VINA RESULT:      -5.8      1.797      2.632
REMARK  10 active torsions:
REMARK  status: ('A' for Active; 'I' for Inactive)
REMARK    1  A    between atoms: C_5  and  O_7 
REMARK    2  A    between atoms: C_13  and  C_17 
REMARK    3  A    between atoms: C_15  and  O_16 
REMARK    4  A    between atoms: C_17  and  O_18 
REMARK    5  A    between atoms: C_19  and  C_21 
REMARK    6  A    between atoms: C_23  and  O_36 
REMARK    7  A    between atoms: C_25  and  O_35 
REMARK    8  A    between atoms: C_27  and  O_34 
REMARK    9  A    between atoms: C_29  and  C_32 
REMARK   10  A    between atoms: C_32  and  O_33 
ROOT
ATOM      1  C   LIG d   1       3.923  -4.557  -7.569  0.00  0.00    -0.058 A 
ATOM      2  C   LIG d   1       4.750  -3.746  -6.812  0.00  0.00    -0.057 A 
ATOM      3  C   LIG d   1       4.942  -2.419  -7.157  0.00  0.00    -0.023 A 
ATOM      4  C   LIG d   1       4.293  -1.912  -8.281  0.00  0.00     0.068 A 
ATOM      5  C   LIG d   1       3.451  -2.731  -9.045  0.00  0.00     0.128 A 
ATOM      6  C   LIG d   1       3.273  -4.057  -8.680  0.00  0.00    -0.019 A 
ATOM      7  C   LIG d   1       4.507  -0.503  -8.674  0.00  0.00     0.201 C 
ATOM      8  O   LIG d   1       3.745   0.060  -9.438  0.00  0.00    -0.286 OA
ATOM      9  C   LIG d   1       5.677   0.198  -8.108  0.00  0.00     0.068 A 
ATOM     10  C   LIG d   1       6.317  -0.326  -6.985  0.00  0.00    -0.023 A 
ATOM     11  C   LIG d   1       7.422   0.332  -6.475  0.00  0.00    -0.052 A 
ATOM     12  C   LIG d   1       7.881   1.498  -7.062  0.00  0.00    -0.018 A 
ATOM     13  C   LIG d   1       7.245   2.027  -8.168  0.00  0.00    -0.014 A 
ATOM     14  C   LIG d   1       6.137   1.381  -8.700  0.00  0.00     0.128 A 
ATOM     15  C   LIG d   1       5.837  -1.571  -6.303  0.00  0.00     0.040 C 
ATOM     16  H   LIG d   1       6.703  -2.164  -6.010  0.00  0.00     0.042 H 
ATOM     17  H   LIG d   1       3.789  -5.592  -7.291  0.00  0.00     0.062 H 
ATOM     18  H   LIG d   1       5.250  -4.151  -5.946  0.00  0.00     0.062 H 
ATOM     19  H   LIG d   1       2.628  -4.698  -9.264  0.00  0.00     0.065 H 
ATOM     20  H   LIG d   1       7.931  -0.068  -5.610  0.00  0.00     0.062 H 
ATOM     21  H   LIG d   1       7.607   2.941  -8.616  0.00  0.00     0.066 H 
ENDROOT
BRANCH  15  22
ATOM     22  C   LIG d   1       5.072  -1.173  -5.039  0.00  0.00     0.098 C 
ATOM     23  H   LIG d   1       4.302  -1.916  -4.830  0.00  0.00     0.063 H 
ATOM     24  O   LIG d   1       4.461   0.104  -5.234  0.00  0.00    -0.365 OA
ATOM     25  C   LIG d   1       3.696   0.562  -4.117  0.00  0.00     0.110 C 
ATOM     26  C   LIG d   1       4.612   0.708  -2.899  0.00  0.00     0.112 C 
ATOM     27  H   LIG d   1       3.249   1.527  -4.354  0.00  0.00     0.065 H 
ATOM     28  C   LIG d   1       5.282  -0.639  -2.610  0.00  0.00     0.112 C 
ATOM     29  H   LIG d   1       5.375   1.458  -3.105  0.00  0.00     0.065 H 
ATOM     30  C   LIG d   1       6.044  -1.097  -3.858  0.00  0.00     0.110 C 
ATOM     31  H   LIG d   1       5.978  -0.530  -1.778  0.00  0.00     0.065 H 
ATOM     32  H   LIG d   1       6.836  -0.383  -4.083  0.00  0.00     0.065 H 
BRANCH  25  33
ATOM     33  C   LIG d   1       2.591  -0.449  -3.807  0.00  0.00     0.073 C 
ATOM     34  H   LIG d   1       2.995  -1.460  -3.868  0.00  0.00     0.058 H 
ATOM     35  H   LIG d   1       2.207  -0.272  -2.803  0.00  0.00     0.058 H 
BRANCH  33  36
ATOM     36  O   LIG d   1       1.530  -0.302  -4.754  0.00  0.00    -0.392 OA
ATOM     37  H   LIG d   1       0.824  -0.956  -4.659  0.00  0.00     0.209 HD
ENDBRANCH  33  36
ENDBRANCH  25  33
BRANCH  26  38
ATOM     38  O   LIG d   1       3.840   1.110  -1.766  0.00  0.00    -0.387 OA
ATOM     39  H   LIG d   1       3.317   1.910  -1.910  0.00  0.00     0.210 HD
ENDBRANCH  26  38
BRANCH  28  40
ATOM     40  O   LIG d   1       4.287  -1.609  -2.275  0.00  0.00    -0.387 OA
ATOM     41  H   LIG d   1       4.498  -2.136  -1.492  0.00  0.00     0.210 HD
ENDBRANCH  28  40
BRANCH  30  42
ATOM     42  O   LIG d   1       6.613  -2.386  -3.624  0.00  0.00    -0.387 OA
ATOM     43  H   LIG d   1       5.992  -3.032  -3.261  0.00  0.00     0.210 HD
ENDBRANCH  30  42
ENDBRANCH  15  22
BRANCH   5  44
ATOM     44  O   LIG d   1       2.814  -2.230 -10.132  0.00  0.00    -0.506 OA
ATOM     45  H   LIG d   1       2.519  -1.315 -10.029  0.00  0.00     0.292 HD
ENDBRANCH   5  44
BRANCH  14  46
ATOM     46  O   LIG d   1       5.508   1.891  -9.787  0.00  0.00    -0.506 OA
ATOM     47  H   LIG d   1       5.899   2.712 -10.117  0.00  0.00     0.292 HD
ENDBRANCH  14  46
BRANCH  12  48
ATOM     48  C   LIG d   1       9.085   2.199  -6.488  0.00  0.00     0.069 C 
ATOM     49  H   LIG d   1       9.874   1.470  -6.298  0.00  0.00     0.061 H 
ATOM     50  H   LIG d   1       9.444   2.945  -7.197  0.00  0.00     0.061 H 
BRANCH  48  51
ATOM     51  O   LIG d   1       8.725   2.839  -5.263  0.00  0.00    -0.390 OA
ATOM     52  H   LIG d   1       7.821   2.654  -4.973  0.00  0.00     0.210 HD
ENDBRANCH  48  51
ENDBRANCH  12  48
TORSDOF 10
ENDMDL
MODEL 7
REMARK VINA RESULT:      -5.8      2.090      5.663
REMARK  10 active torsions:
REMARK  status: ('A' for Active; 'I' for Inactive)
REMARK    1  A    between atoms: C_5  and  O_7 
REMARK    2  A    between atoms: C_13  and  C_17 
REMARK    3  A    between atoms: C_15  and  O_16 
REMARK    4  A    between atoms: C_17  and  O_18 
REMARK    5  A    between atoms: C_19  and  C_21 
REMARK    6  A    between atoms: C_23  and  O_36 
REMARK    7  A    between atoms: C_25  and  O_35 
REMARK    8  A    between atoms: C_27  and  O_34 
REMARK    9  A    between atoms: C_29  and  C_32 
REMARK   10  A    between atoms: C_32  and  O_33 
ROOT
ATOM      1  C   LIG d   1       8.632   1.581  -8.550  0.00  0.00    -0.058 A 
ATOM      2  C   LIG d   1       7.809   0.483  -8.727  0.00  0.00    -0.057 A 
ATOM      3  C   LIG d   1       7.064  -0.017  -7.673  0.00  0.00    -0.023 A 
ATOM      4  C   LIG d   1       7.158   0.601  -6.426  0.00  0.00     0.068 A 
ATOM      5  C   LIG d   1       7.987   1.716  -6.247  0.00  0.00     0.128 A 
ATOM      6  C   LIG d   1       8.723   2.200  -7.318  0.00  0.00    -0.019 A 
ATOM      7  C   LIG d   1       6.387   0.064  -5.286  0.00  0.00     0.201 C 
ATOM      8  O   LIG d   1       6.194   0.731  -4.287  0.00  0.00    -0.286 OA
ATOM      9  C   LIG d   1       5.858  -1.310  -5.401  0.00  0.00     0.068 A 
ATOM     10  C   LIG d   1       5.774  -1.914  -6.655  0.00  0.00    -0.023 A 
ATOM     11  C   LIG d   1       5.292  -3.208  -6.746  0.00  0.00    -0.052 A 
ATOM     12  C   LIG d   1       4.889  -3.890  -5.613  0.00  0.00    -0.018 A 
ATOM     13  C   LIG d   1       4.959  -3.294  -4.369  0.00  0.00    -0.014 A 
ATOM     14  C   LIG d   1       5.444  -1.999  -4.253  0.00  0.00     0.128 A 
ATOM     15  C   LIG d   1       6.176  -1.201  -7.911  0.00  0.00     0.040 C 
ATOM     16  H   LIG d   1       6.699  -1.904  -8.559  0.00  0.00     0.042 H 
ATOM     17  H   LIG d   1       9.211   1.956  -9.381  0.00  0.00     0.062 H 
ATOM     18  H   LIG d   1       7.747   0.012  -9.696  0.00  0.00     0.062 H 
ATOM     19  H   LIG d   1       9.367   3.058  -7.190  0.00  0.00     0.065 H 
ATOM     20  H   LIG d   1       5.230  -3.689  -7.711  0.00  0.00     0.062 H 
ATOM     21  H   LIG d   1       4.637  -3.833  -3.490  0.00  0.00     0.066 H 
ENDROOT
BRANCH  15  22
ATOM     22  C   LIG d   1       4.911  -0.727  -8.630  0.00  0.00     0.098 C 
ATOM     23  H   LIG d   1       5.090   0.254  -9.070  0.00  0.00     0.063 H 
ATOM     24  O   LIG d   1       3.835  -0.640  -7.694  0.00  0.00    -0.365 OA
ATOM     25  C   LIG d   1       2.606  -0.180  -8.259  0.00  0.00     0.110 C 
ATOM     26  C   LIG d   1       2.149  -1.155  -9.347  0.00  0.00     0.112 C 
ATOM     27  H   LIG d   1       1.846  -0.123  -7.480  0.00  0.00     0.065 H 
ATOM     28  C   LIG d   1       3.248  -1.274 -10.408  0.00  0.00     0.112 C 
ATOM     29  H   LIG d   1       1.962  -2.133  -8.905  0.00  0.00     0.065 H 
ATOM     30  C   LIG d   1       4.548  -1.725  -9.733  0.00  0.00     0.110 C 
ATOM     31  H   LIG d   1       2.954  -2.010 -11.158  0.00  0.00     0.065 H 
ATOM     32  H   LIG d   1       4.409  -2.714  -9.299  0.00  0.00     0.065 H 
BRANCH  25  33
ATOM     33  C   LIG d   1       2.814   1.207  -8.871  0.00  0.00     0.073 C 
ATOM     34  H   LIG d   1       3.748   1.221  -9.433  0.00  0.00     0.058 H 
ATOM     35  H   LIG d   1       1.985   1.437  -9.540  0.00  0.00     0.058 H 
BRANCH  33  36
ATOM     36  O   LIG d   1       2.870   2.184  -7.829  0.00  0.00    -0.392 OA
ATOM     37  H   LIG d   1       3.354   1.895  -7.044  0.00  0.00     0.209 HD
ENDBRANCH  33  36
ENDBRANCH  25  33
BRANCH  26  38
ATOM     38  O   LIG d   1       0.951  -0.667  -9.954  0.00  0.00    -0.387 OA
ATOM     39  H   LIG d   1       0.407  -1.356 -10.360  0.00  0.00     0.210 HD
ENDBRANCH  26  38
BRANCH  28  40
ATOM     40  O   LIG d   1       3.450  -0.007 -11.036  0.00  0.00    -0.387 OA
ATOM     41  H   LIG d   1       3.352   0.748 -10.440  0.00  0.00     0.210 HD
ENDBRANCH  28  40
BRANCH  30  42
ATOM     42  O   LIG d   1       5.598  -1.771 -10.701  0.00  0.00    -0.387 OA
ATOM     43  H   LIG d   1       5.363  -1.385 -11.556  0.00  0.00     0.210 HD
ENDBRANCH  30  42
ENDBRANCH  15  22
BRANCH   5  44
ATOM     44  O   LIG d   1       8.068   2.319  -5.035  0.00  0.00    -0.506 OA
ATOM     45  H   LIG d   1       8.377   1.737  -4.327  0.00  0.00     0.292 HD
ENDBRANCH   5  44
BRANCH  14  46
ATOM     46  O   LIG d   1       5.520  -1.406  -3.036  0.00  0.00    -0.506 OA
ATOM     47  H   LIG d   1       5.767  -0.471  -3.069  0.00  0.00     0.292 HD
ENDBRANCH  14  46
BRANCH  12  48
ATOM     48  C   LIG d   1       4.365  -5.298  -5.736  0.00  0.00     0.069 C 
ATOM     49  H   LIG d   1       5.070  -5.900  -6.310  0.00  0.00     0.061 H 
ATOM     50  H   LIG d   1       4.244  -5.730  -4.742  0.00  0.00     0.061 H 
BRANCH  48  51
ATOM     51  O   LIG d   1       3.102  -5.280  -6.404  0.00  0.00    -0.390 OA
ATOM     52  H   LIG d   1       3.090  -4.743  -7.208  0.00  0.00     0.210 HD
ENDBRANCH  48  51
ENDBRANCH  12  48
TORSDOF 10
ENDMDL
MODEL 8
REMARK VINA RESULT:      -5.7      2.011      5.923
REMARK  10 active torsions:
REMARK  status: ('A' for Active; 'I' for Inactive)
REMARK    1  A    between atoms: C_5  and  O_7 
REMARK    2  A    between atoms: C_13  and  C_17 
REMARK    3  A    between atoms: C_15  and  O_16 
REMARK    4  A    between atoms: C_17  and  O_18 
REMARK    5  A    between atoms: C_19  and  C_21 
REMARK    6  A    between atoms: C_23  and  O_36 
REMARK    7  A    between atoms: C_25  and  O_35 
REMARK    8  A    between atoms: C_27  and  O_34 
REMARK    9  A    between atoms: C_29  and  C_32 
REMARK   10  A    between atoms: C_32  and  O_33 
ROOT
ATOM      1  C   LIG d   1       4.952   0.652  -2.579  0.00  0.00    -0.058 A 
ATOM      2  C   LIG d   1       5.708   0.504  -3.729  0.00  0.00    -0.057 A 
ATOM      3  C   LIG d   1       5.763  -0.714  -4.383  0.00  0.00    -0.023 A 
ATOM      4  C   LIG d   1       5.048  -1.793  -3.865  0.00  0.00     0.068 A 
ATOM      5  C   LIG d   1       4.278  -1.643  -2.705  0.00  0.00     0.128 A 
ATOM      6  C   LIG d   1       4.237  -0.412  -2.066  0.00  0.00    -0.019 A 
ATOM      7  C   LIG d   1       5.116  -3.106  -4.541  0.00  0.00     0.201 C 
ATOM      8  O   LIG d   1       4.290  -3.971  -4.319  0.00  0.00    -0.286 OA
ATOM      9  C   LIG d   1       6.220  -3.331  -5.494  0.00  0.00     0.068 A 
ATOM     10  C   LIG d   1       6.928  -2.241  -6.000  0.00  0.00    -0.023 A 
ATOM     11  C   LIG d   1       7.971  -2.468  -6.880  0.00  0.00    -0.052 A 
ATOM     12  C   LIG d   1       8.303  -3.755  -7.262  0.00  0.00    -0.018 A 
ATOM     13  C   LIG d   1       7.600  -4.838  -6.772  0.00  0.00    -0.014 A 
ATOM     14  C   LIG d   1       6.553  -4.635  -5.885  0.00  0.00     0.128 A 
ATOM     15  C   LIG d   1       6.584  -0.829  -5.633  0.00  0.00     0.040 C 
ATOM     16  H   LIG d   1       7.509  -0.270  -5.494  0.00  0.00     0.042 H 
ATOM     17  H   LIG d   1       4.924   1.607  -2.076  0.00  0.00     0.062 H 
ATOM     18  H   LIG d   1       6.259   1.346  -4.119  0.00  0.00     0.062 H 
ATOM     19  H   LIG d   1       3.648  -0.286  -1.169  0.00  0.00     0.065 H 
ATOM     20  H   LIG d   1       8.531  -1.632  -7.272  0.00  0.00     0.062 H 
ATOM     21  H   LIG d   1       7.864  -5.840  -7.080  0.00  0.00     0.066 H 
ENDROOT
BRANCH  15  22
ATOM     22  C   LIG d   1       5.805  -0.199  -6.789  0.00  0.00     0.098 C 
ATOM     23  H   LIG d   1       5.066   0.498  -6.393  0.00  0.00     0.063 H 
ATOM     24  O   LIG d   1       5.143  -1.224  -7.533  0.00  0.00    -0.365 OA
ATOM     25  C   LIG d   1       4.361  -0.740  -8.627  0.00  0.00     0.110 C 
ATOM     26  C   LIG d   1       5.272  -0.011  -9.619  0.00  0.00     0.112 C 
ATOM     27  H   LIG d   1       3.877  -1.577  -9.126  0.00  0.00     0.065 H 
ATOM     28  C   LIG d   1       5.995   1.128  -8.894  0.00  0.00     0.112 C 
ATOM     29  H   LIG d   1       6.004  -0.710 -10.022  0.00  0.00     0.065 H 
ATOM     30  C   LIG d   1       6.774   0.551  -7.708  0.00  0.00     0.110 C 
ATOM     31  H   LIG d   1       6.687   1.617  -9.581  0.00  0.00     0.065 H 
ATOM     32  H   LIG d   1       7.537  -0.136  -8.072  0.00  0.00     0.065 H 
BRANCH  25  33
ATOM     33  C   LIG d   1       3.298   0.228  -8.105  0.00  0.00     0.073 C 
ATOM     34  H   LIG d   1       2.839  -0.185  -7.206  0.00  0.00     0.058 H 
ATOM     35  H   LIG d   1       3.762   1.185  -7.867  0.00  0.00     0.058 H 
BRANCH  33  36
ATOM     36  O   LIG d   1       2.296   0.421  -9.106  0.00  0.00    -0.392 OA
ATOM     37  H   LIG d   1       1.710  -0.338  -9.228  0.00  0.00     0.209 HD
ENDBRANCH  33  36
ENDBRANCH  25  33
BRANCH  26  38
ATOM     38  O   LIG d   1       4.485   0.524 -10.685  0.00  0.00    -0.387 OA
ATOM     39  H   LIG d   1       3.954  -0.135 -11.152  0.00  0.00     0.210 HD
ENDBRANCH  26  38
BRANCH  28  40
ATOM     40  O   LIG d   1       5.040   2.081  -8.422  0.00  0.00    -0.387 OA
ATOM     41  H   LIG d   1       4.886   2.044  -7.468  0.00  0.00     0.210 HD
ENDBRANCH  28  40
BRANCH  30  42
ATOM     42  O   LIG d   1       7.395   1.613  -6.981  0.00  0.00    -0.387 OA
ATOM     43  H   LIG d   1       8.345   1.699  -7.144  0.00  0.00     0.210 HD
ENDBRANCH  30  42
ENDBRANCH  15  22
BRANCH   5  44
ATOM     44  O   LIG d   1       3.577  -2.693  -2.210  0.00  0.00    -0.506 OA
ATOM     45  H   LIG d   1       3.291  -3.327  -2.882  0.00  0.00     0.292 HD
ENDBRANCH   5  44
BRANCH  14  46
ATOM     46  O   LIG d   1       5.858  -5.692  -5.397  0.00  0.00    -0.506 OA
ATOM     47  H   LIG d   1       6.247  -6.551  -5.613  0.00  0.00     0.292 HD
ENDBRANCH  14  46
BRANCH  12  48
ATOM     48  C   LIG d   1       9.443  -3.978  -8.222  0.00  0.00     0.069 C 
ATOM     49  H   LIG d   1       9.415  -5.005  -8.588  0.00  0.00     0.061 H 
ATOM     50  H   LIG d   1       9.351  -3.290  -9.063  0.00  0.00     0.061 H 
BRANCH  48  51
ATOM     51  O   LIG d   1      10.684  -3.746  -7.551  0.00  0.00    -0.390 OA
ATOM     52  H   LIG d   1      11.387  -3.416  -8.127  0.00  0.00     0.210 HD
ENDBRANCH  48  51
ENDBRANCH  12  48
TORSDOF 10
ENDMDL
MODEL 9
REMARK VINA RESULT:      -5.7      2.229      5.570
REMARK  10 active torsions:
REMARK  status: ('A' for Active; 'I' for Inactive)
REMARK    1  A    between atoms: C_5  and  O_7 
REMARK    2  A    between atoms: C_13  and  C_17 
REMARK    3  A    between atoms: C_15  and  O_16 
REMARK    4  A    between atoms: C_17  and  O_18 
REMARK    5  A    between atoms: C_19  and  C_21 
REMARK    6  A    between atoms: C_23  and  O_36 
REMARK    7  A    between atoms: C_25  and  O_35 
REMARK    8  A    between atoms: C_27  and  O_34 
REMARK    9  A    between atoms: C_29  and  C_32 
REMARK   10  A    between atoms: C_32  and  O_33 
ROOT
ATOM      1  C   LIG d   1       4.393  -0.271  -1.934  0.00  0.00    -0.058 A 
ATOM      2  C   LIG d   1       4.955  -1.195  -2.798  0.00  0.00    -0.057 A 
ATOM      3  C   LIG d   1       4.714  -1.124  -4.159  0.00  0.00    -0.023 A 
ATOM      4  C   LIG d   1       3.893  -0.108  -4.648  0.00  0.00     0.068 A 
ATOM      5  C   LIG d   1       3.329   0.830  -3.775  0.00  0.00     0.128 A 
ATOM      6  C   LIG d   1       3.584   0.740  -2.415  0.00  0.00    -0.019 A 
ATOM      7  C   LIG d   1       3.608  -0.034  -6.097  0.00  0.00     0.201 C 
ATOM      8  O   LIG d   1       3.169   0.982  -6.600  0.00  0.00    -0.286 OA
ATOM      9  C   LIG d   1       3.876  -1.236  -6.911  0.00  0.00     0.068 A 
ATOM     10  C   LIG d   1       4.696  -2.244  -6.405  0.00  0.00    -0.023 A 
ATOM     11  C   LIG d   1       4.925  -3.372  -7.173  0.00  0.00    -0.052 A 
ATOM     12  C   LIG d   1       4.357  -3.497  -8.428  0.00  0.00    -0.018 A 
ATOM     13  C   LIG d   1       3.552  -2.498  -8.939  0.00  0.00    -0.014 A 
ATOM     14  C   LIG d   1       3.305  -1.359  -8.185  0.00  0.00     0.128 A 
ATOM     15  C   LIG d   1       5.352  -2.137  -5.061  0.00  0.00     0.040 C 
ATOM     16  H   LIG d   1       5.309  -3.112  -4.574  0.00  0.00     0.042 H 
ATOM     17  H   LIG d   1       4.586  -0.343  -0.874  0.00  0.00     0.062 H 
ATOM     18  H   LIG d   1       5.586  -1.977  -2.406  0.00  0.00     0.062 H 
ATOM     19  H   LIG d   1       3.152   1.458  -1.733  0.00  0.00     0.065 H 
ATOM     20  H   LIG d   1       5.552  -4.163  -6.788  0.00  0.00     0.062 H 
ATOM     21  H   LIG d   1       3.118  -2.602  -9.923  0.00  0.00     0.066 H 
ENDROOT
BRANCH  15  22
ATOM     22  C   LIG d   1       6.820  -1.758  -5.262  0.00  0.00     0.098 C 
ATOM     23  H   LIG d   1       7.167  -1.180  -4.405  0.00  0.00     0.063 H 
ATOM     24  O   LIG d   1       6.952  -0.974  -6.449  0.00  0.00    -0.365 OA
ATOM     25  C   LIG d   1       8.287  -0.542  -6.719  0.00  0.00     0.110 C 
ATOM     26  C   LIG d   1       9.188  -1.765  -6.911  0.00  0.00     0.112 C 
ATOM     27  H   LIG d   1       8.298   0.062  -7.625  0.00  0.00     0.065 H 
ATOM     28  C   LIG d   1       9.120  -2.642  -5.656  0.00  0.00     0.112 C 
ATOM     29  H   LIG d   1       8.846  -2.337  -7.774  0.00  0.00     0.065 H 
ATOM     30  C   LIG d   1       7.662  -3.030  -5.396  0.00  0.00     0.110 C 
ATOM     31  H   LIG d   1       9.716  -3.543  -5.807  0.00  0.00     0.065 H 
ATOM     32  H   LIG d   1       7.289  -3.628  -6.227  0.00  0.00     0.065 H 
BRANCH  25  33
ATOM     33  C   LIG d   1       8.801   0.290  -5.543  0.00  0.00     0.073 C 
ATOM     34  H   LIG d   1       7.964   0.795  -5.060  0.00  0.00     0.058 H 
ATOM     35  H   LIG d   1       9.295  -0.363  -4.824  0.00  0.00     0.058 H 
BRANCH  33  36
ATOM     36  O   LIG d   1       9.733   1.264  -6.019  0.00  0.00    -0.392 OA
ATOM     37  H   LIG d   1      10.108   1.822  -5.325  0.00  0.00     0.209 HD
ENDBRANCH  33  36
ENDBRANCH  25  33
BRANCH  26  38
ATOM     38  O   LIG d   1      10.535  -1.339  -7.124  0.00  0.00    -0.387 OA
ATOM     39  H   LIG d   1      11.196  -1.883  -6.674  0.00  0.00     0.210 HD
ENDBRANCH  26  38
BRANCH  28  40
ATOM     40  O   LIG d   1       9.630  -1.916  -4.536  0.00  0.00    -0.387 OA
ATOM     41  H   LIG d   1       9.582  -0.955  -4.634  0.00  0.00     0.210 HD
ENDBRANCH  28  40
BRANCH  30  42
ATOM     42  O   LIG d   1       7.577  -3.788  -4.187  0.00  0.00    -0.387 OA
ATOM     43  H   LIG d   1       8.276  -3.590  -3.548  0.00  0.00     0.210 HD
ENDBRANCH  30  42
ENDBRANCH  15  22
BRANCH   5  44
ATOM     44  O   LIG d   1       2.538   1.822  -4.257  0.00  0.00    -0.506 OA
ATOM     45  H   LIG d   1       1.656   1.527  -4.523  0.00  0.00     0.292 HD
ENDBRANCH   5  44
BRANCH  14  46
ATOM     46  O   LIG d   1       2.514  -0.374  -8.677  0.00  0.00    -0.506 OA
ATOM     47  H   LIG d   1       2.592  -0.249  -9.633  0.00  0.00     0.292 HD
ENDBRANCH  14  46
BRANCH  12  48
ATOM     48  C   LIG d   1       4.621  -4.734  -9.247  0.00  0.00     0.069 C 
ATOM     49  H   LIG d   1       5.082  -4.452 -10.194  0.00  0.00     0.061 H 
ATOM     50  H   LIG d   1       5.291  -5.397  -8.700  0.00  0.00     0.061 H 
BRANCH  48  51
ATOM     51  O   LIG d   1       3.387  -5.409  -9.501  0.00  0.00    -0.390 OA
ATOM     52  H   LIG d   1       3.221  -6.160  -8.916  0.00  0.00     0.210 HD
ENDBRANCH  48  51
ENDBRANCH  12  48
TORSDOF 10
ENDMDL
