MODEL 1
REMARK VINA RESULT:      -6.0      0.000      0.000
REMARK  1 active torsions:
REMARK  status: ('A' for Active; 'I' for Inactive)
REMARK    1  A    between atoms: C_11  and  C_14 
ROOT
ATOM      1  C   LIG d   1       3.615   0.466  -2.394  0.00  0.00    -0.045 A 
ATOM      2  C   LIG d   1       3.419   0.652  -3.755  0.00  0.00    -0.049 A 
ATOM      3  C   LIG d   1       3.865  -0.336  -4.640  0.00  0.00     0.024 A 
ATOM      4  C   LIG d   1       4.498  -1.490  -4.131  0.00  0.00     0.049 A 
ATOM      5  C   LIG d   1       4.946  -2.484  -5.007  0.00  0.00    -0.037 A 
ATOM      6  C   LIG d   1       4.786  -2.366  -6.351  0.00  0.00    -0.047 A 
ATOM      7  C   LIG d   1       4.165  -1.243  -6.915  0.00  0.00     0.048 A 
ATOM      8  C   LIG d   1       3.689  -0.203  -6.088  0.00  0.00     0.084 A 
ATOM      9  N   LIG d   1       3.098   0.867  -6.620  0.00  0.00    -0.253 NA
ATOM     10  C   LIG d   1       2.924   1.018  -7.910  0.00  0.00     0.041 A 
ATOM     11  C   LIG d   1       3.345   0.060  -8.837  0.00  0.00     0.063 A 
ATOM     12  C   LIG d   1       3.993  -1.114  -8.366  0.00  0.00     0.198 A 
ATOM     13  O   LIG d   1       4.383  -1.980  -9.134  0.00  0.00    -0.286 OA
ATOM     14  N   LIG d   1       4.665  -1.623  -2.780  0.00  0.00    -0.361 N 
ATOM     15  H   LIG d   1       5.100  -2.416  -2.427  0.00  0.00     0.165 HD
ATOM     16  C   LIG d   1       4.237  -0.672  -1.937  0.00  0.00     0.002 A 
ATOM     17  H   LIG d   1       3.280   1.217  -1.693  0.00  0.00     0.063 H 
ATOM     18  H   LIG d   1       2.931   1.543  -4.124  0.00  0.00     0.062 H 
ATOM     19  H   LIG d   1       5.429  -3.363  -4.607  0.00  0.00     0.064 H 
ATOM     20  H   LIG d   1       5.144  -3.152  -6.998  0.00  0.00     0.063 H 
ATOM     21  H   LIG d   1       2.436   1.912  -8.269  0.00  0.00     0.084 H 
ATOM     22  H   LIG d   1       4.382  -0.804  -0.874  0.00  0.00     0.081 H 
ENDROOT
BRANCH  11  23
ATOM     23  C   LIG d   1       3.126   0.264 -10.272  0.00  0.00     0.077 C 
ATOM     24  O   LIG d   1       3.833   1.036 -10.892  0.00  0.00    -0.544 OA
ATOM     25  O   LIG d   1       2.140  -0.403 -10.906  0.00  0.00    -0.544 OA
ENDBRANCH  11  23
TORSDOF 1
ENDMDL
MODEL 2
REMARK VINA RESULT:      -6.0      3.027      5.653
REMARK  1 active torsions:
REMARK  status: ('A' for Active; 'I' for Inactive)
REMARK    1  A    between atoms: C_11  and  C_14 
ROOT
ATOM      1  C   LIG d   1       3.072   2.055  -9.619  0.00  0.00    -0.045 A 
ATOM      2  C   LIG d   1       3.051   1.594  -8.310  0.00  0.00    -0.049 A 
ATOM      3  C   LIG d   1       3.893   0.533  -7.957  0.00  0.00     0.024 A 
ATOM      4  C   LIG d   1       4.738  -0.038  -8.933  0.00  0.00     0.049 A 
ATOM      5  C   LIG d   1       5.584  -1.098  -8.591  0.00  0.00    -0.037 A 
ATOM      6  C   LIG d   1       5.614  -1.598  -7.328  0.00  0.00    -0.047 A 
ATOM      7  C   LIG d   1       4.798  -1.072  -6.316  0.00  0.00     0.048 A 
ATOM      8  C   LIG d   1       3.921  -0.002  -6.594  0.00  0.00     0.084 A 
ATOM      9  N   LIG d   1       3.143   0.501  -5.635  0.00  0.00    -0.253 NA
ATOM     10  C   LIG d   1       3.143   0.047  -4.405  0.00  0.00     0.041 A 
ATOM     11  C   LIG d   1       3.968  -1.005  -3.998  0.00  0.00     0.063 A 
ATOM     12  C   LIG d   1       4.829  -1.613  -4.952  0.00  0.00     0.198 A 
ATOM     13  O   LIG d   1       5.566  -2.537  -4.649  0.00  0.00    -0.286 OA
ATOM     14  N   LIG d   1       4.719   0.456 -10.209  0.00  0.00    -0.361 N 
ATOM     15  H   LIG d   1       5.298   0.065 -10.882  0.00  0.00     0.165 HD
ATOM     16  C   LIG d   1       3.909   1.471 -10.541  0.00  0.00     0.002 A 
ATOM     17  H   LIG d   1       2.429   2.871  -9.913  0.00  0.00     0.063 H 
ATOM     18  H   LIG d   1       2.397   2.045  -7.578  0.00  0.00     0.062 H 
ATOM     19  H   LIG d   1       6.226  -1.527  -9.345  0.00  0.00     0.064 H 
ATOM     20  H   LIG d   1       6.279  -2.416  -7.098  0.00  0.00     0.063 H 
ATOM     21  H   LIG d   1       2.486   0.505  -3.681  0.00  0.00     0.084 H 
ATOM     22  H   LIG d   1       3.915   1.841 -11.556  0.00  0.00     0.081 H 
ENDROOT
BRANCH  11  23
ATOM     23  C   LIG d   1       3.942  -1.479  -2.611  0.00  0.00     0.077 C 
ATOM     24  O   LIG d   1       4.307  -0.746  -1.711  0.00  0.00    -0.544 OA
ATOM     25  O   LIG d   1       3.515  -2.727  -2.333  0.00  0.00    -0.544 OA
ENDBRANCH  11  23
TORSDOF 1
ENDMDL
MODEL 3
REMARK VINA RESULT:      -5.8      4.408      5.941
REMARK  1 active torsions:
REMARK  status: ('A' for Active; 'I' for Inactive)
REMARK    1  A    between atoms: C_11  and  C_14 
ROOT
ATOM      1  C   LIG d   1       4.717  -6.179  -5.872  0.00  0.00    -0.045 A 
ATOM      2  C   LIG d   1       4.425  -4.957  -5.285  0.00  0.00    -0.049 A 
ATOM      3  C   LIG d   1       5.480  -4.092  -4.971  0.00  0.00     0.024 A 
ATOM      4  C   LIG d   1       6.806  -4.480  -5.257  0.00  0.00     0.049 A 
ATOM      5  C   LIG d   1       7.867  -3.624  -4.948  0.00  0.00    -0.037 A 
ATOM      6  C   LIG d   1       7.651  -2.412  -4.373  0.00  0.00    -0.047 A 
ATOM      7  C   LIG d   1       6.357  -1.971  -4.064  0.00  0.00     0.048 A 
ATOM      8  C   LIG d   1       5.241  -2.786  -4.349  0.00  0.00     0.084 A 
ATOM      9  N   LIG d   1       4.008  -2.371  -4.058  0.00  0.00    -0.253 NA
ATOM     10  C   LIG d   1       3.759  -1.211  -3.504  0.00  0.00     0.041 A 
ATOM     11  C   LIG d   1       4.773  -0.307  -3.175  0.00  0.00     0.063 A 
ATOM     12  C   LIG d   1       6.123  -0.663  -3.441  0.00  0.00     0.198 A 
ATOM     13  O   LIG d   1       7.047   0.088  -3.170  0.00  0.00    -0.286 OA
ATOM     14  N   LIG d   1       7.038  -5.698  -5.838  0.00  0.00    -0.361 N 
ATOM     15  H   LIG d   1       7.948  -5.968  -6.036  0.00  0.00     0.165 HD
ATOM     16  C   LIG d   1       6.023  -6.522  -6.135  0.00  0.00     0.002 A 
ATOM     17  H   LIG d   1       3.919  -6.862  -6.122  0.00  0.00     0.063 H 
ATOM     18  H   LIG d   1       3.403  -4.678  -5.074  0.00  0.00     0.062 H 
ATOM     19  H   LIG d   1       8.877  -3.931  -5.172  0.00  0.00     0.064 H 
ATOM     20  H   LIG d   1       8.493  -1.775  -4.148  0.00  0.00     0.063 H 
ATOM     21  H   LIG d   1       2.733  -0.941  -3.297  0.00  0.00     0.084 H 
ATOM     22  H   LIG d   1       6.236  -7.477  -6.593  0.00  0.00     0.081 H 
ENDROOT
BRANCH  11  23
ATOM     23  C   LIG d   1       4.451   0.985  -2.562  0.00  0.00     0.077 C 
ATOM     24  O   LIG d   1       3.950   1.868  -3.231  0.00  0.00    -0.544 OA
ATOM     25  O   LIG d   1       4.710   1.194  -1.255  0.00  0.00    -0.544 OA
ENDBRANCH  11  23
TORSDOF 1
ENDMDL
MODEL 4
REMARK VINA RESULT:      -5.8      4.447      5.236
REMARK  1 active torsions:
REMARK  status: ('A' for Active; 'I' for Inactive)
REMARK    1  A    between atoms: C_11  and  C_14 
ROOT
ATOM      1  C   LIG d   1       2.953  -0.117  -2.718  0.00  0.00    -0.045 A 
ATOM      2  C   LIG d   1       3.342  -1.283  -3.361  0.00  0.00    -0.049 A 
ATOM      3  C   LIG d   1       4.708  -1.523  -3.551  0.00  0.00     0.024 A 
ATOM      4  C   LIG d   1       5.650  -0.579  -3.088  0.00  0.00     0.049 A 
ATOM      5  C   LIG d   1       7.017  -0.809  -3.272  0.00  0.00    -0.037 A 
ATOM      6  C   LIG d   1       7.467  -1.931  -3.893  0.00  0.00    -0.047 A 
ATOM      7  C   LIG d   1       6.579  -2.903  -4.375  0.00  0.00     0.048 A 
ATOM      8  C   LIG d   1       5.187  -2.734  -4.222  0.00  0.00     0.084 A 
ATOM      9  N   LIG d   1       4.339  -3.656  -4.678  0.00  0.00    -0.253 NA
ATOM     10  C   LIG d   1       4.734  -4.751  -5.282  0.00  0.00     0.041 A 
ATOM     11  C   LIG d   1       6.084  -5.041  -5.492  0.00  0.00     0.063 A 
ATOM     12  C   LIG d   1       7.065  -4.114  -5.046  0.00  0.00     0.198 A 
ATOM     13  O   LIG d   1       8.258  -4.319  -5.209  0.00  0.00    -0.286 OA
ATOM     14  N   LIG d   1       5.211   0.554  -2.460  0.00  0.00    -0.361 N 
ATOM     15  H   LIG d   1       5.856   1.205  -2.140  0.00  0.00     0.165 HD
ATOM     16  C   LIG d   1       3.901   0.779  -2.282  0.00  0.00     0.002 A 
ATOM     17  H   LIG d   1       1.904   0.088  -2.562  0.00  0.00     0.063 H 
ATOM     18  H   LIG d   1       2.605  -1.993  -3.708  0.00  0.00     0.062 H 
ATOM     19  H   LIG d   1       7.729  -0.081  -2.914  0.00  0.00     0.064 H 
ATOM     20  H   LIG d   1       8.529  -2.077  -4.018  0.00  0.00     0.063 H 
ATOM     21  H   LIG d   1       3.989  -5.454  -5.625  0.00  0.00     0.084 H 
ATOM     22  H   LIG d   1       3.583   1.682  -1.782  0.00  0.00     0.081 H 
ENDROOT
BRANCH  11  23
ATOM     23  C   LIG d   1       6.484  -6.281  -6.166  0.00  0.00     0.077 C 
ATOM     24  O   LIG d   1       6.577  -6.311  -7.379  0.00  0.00    -0.544 OA
ATOM     25  O   LIG d   1       6.747  -7.387  -5.442  0.00  0.00    -0.544 OA
ENDBRANCH  11  23
TORSDOF 1
ENDMDL
MODEL 5
REMARK VINA RESULT:      -5.6      1.424      2.570
REMARK  1 active torsions:
REMARK  status: ('A' for Active; 'I' for Inactive)
REMARK    1  A    between atoms: C_11  and  C_14 
ROOT
ATOM      1  C   LIG d   1       4.661  -2.676  -3.210  0.00  0.00    -0.045 A 
ATOM      2  C   LIG d   1       4.672  -2.347  -4.558  0.00  0.00    -0.049 A 
ATOM      3  C   LIG d   1       3.930  -1.239  -4.986  0.00  0.00     0.024 A 
ATOM      4  C   LIG d   1       3.195  -0.489  -4.043  0.00  0.00     0.049 A 
ATOM      5  C   LIG d   1       2.452   0.620  -4.459  0.00  0.00    -0.037 A 
ATOM      6  C   LIG d   1       2.418   0.998  -5.764  0.00  0.00    -0.047 A 
ATOM      7  C   LIG d   1       3.127   0.291  -6.746  0.00  0.00     0.048 A 
ATOM      8  C   LIG d   1       3.897  -0.837  -6.394  0.00  0.00     0.084 A 
ATOM      9  N   LIG d   1       4.573  -1.511  -7.325  0.00  0.00    -0.253 NA
ATOM     10  C   LIG d   1       4.566  -1.179  -8.592  0.00  0.00     0.041 A 
ATOM     11  C   LIG d   1       3.848  -0.080  -9.071  0.00  0.00     0.063 A 
ATOM     12  C   LIG d   1       3.090   0.699  -8.155  0.00  0.00     0.198 A 
ATOM     13  O   LIG d   1       2.442   1.666  -8.523  0.00  0.00    -0.286 OA
ATOM     14  N   LIG d   1       3.221  -0.857  -2.725  0.00  0.00    -0.361 N 
ATOM     15  H   LIG d   1       2.717  -0.344  -2.075  0.00  0.00     0.165 HD
ATOM     16  C   LIG d   1       3.932  -1.920  -2.322  0.00  0.00     0.002 A 
ATOM     17  H   LIG d   1       5.226  -3.527  -2.859  0.00  0.00     0.063 H 
ATOM     18  H   LIG d   1       5.241  -2.934  -5.264  0.00  0.00     0.062 H 
ATOM     19  H   LIG d   1       1.894   1.187  -3.730  0.00  0.00     0.064 H 
ATOM     20  H   LIG d   1       1.834   1.859  -6.051  0.00  0.00     0.063 H 
ATOM     21  H   LIG d   1       5.139  -1.772  -9.290  0.00  0.00     0.084 H 
ATOM     22  H   LIG d   1       3.934  -2.188  -1.276  0.00  0.00     0.081 H 
ENDROOT
BRANCH  11  23
ATOM     23  C   LIG d   1       3.873   0.262 -10.497  0.00  0.00     0.077 C 
ATOM     24  O   LIG d   1       3.175  -0.352 -11.282  0.00  0.00    -0.544 OA
ATOM     25  O   LIG d   1       4.668   1.258 -10.938  0.00  0.00    -0.544 OA
ENDBRANCH  11  23
TORSDOF 1
ENDMDL
MODEL 6
REMARK VINA RESULT:      -5.5     12.022     13.502
REMARK  1 active torsions:
REMARK  status: ('A' for Active; 'I' for Inactive)
REMARK    1  A    between atoms: C_11  and  C_14 
ROOT
ATOM      1  C   LIG d   1       9.571   5.471  -3.581  0.00  0.00    -0.045 A 
ATOM      2  C   LIG d   1       9.683   6.732  -3.014  0.00  0.00    -0.049 A 
ATOM      3  C   LIG d   1      10.245   6.848  -1.737  0.00  0.00     0.024 A 
ATOM      4  C   LIG d   1      10.681   5.688  -1.062  0.00  0.00     0.049 A 
ATOM      5  C   LIG d   1      11.245   5.792   0.213  0.00  0.00    -0.037 A 
ATOM      6  C   LIG d   1      11.385   6.996   0.827  0.00  0.00    -0.047 A 
ATOM      7  C   LIG d   1      10.970   8.183   0.206  0.00  0.00     0.048 A 
ATOM      8  C   LIG d   1      10.394   8.149  -1.081  0.00  0.00     0.084 A 
ATOM      9  N   LIG d   1       9.998   9.275  -1.675  0.00  0.00    -0.253 NA
ATOM     10  C   LIG d   1      10.117  10.455  -1.117  0.00  0.00     0.041 A 
ATOM     11  C   LIG d   1      10.675  10.627   0.153  0.00  0.00     0.063 A 
ATOM     12  C   LIG d   1      11.121   9.484   0.869  0.00  0.00     0.198 A 
ATOM     13  O   LIG d   1      11.612   9.579   1.983  0.00  0.00    -0.286 OA
ATOM     14  N   LIG d   1      10.547   4.468  -1.668  0.00  0.00    -0.361 N 
ATOM     15  H   LIG d   1      10.845   3.669  -1.206  0.00  0.00     0.165 HD
ATOM     16  C   LIG d   1      10.006   4.364  -2.891  0.00  0.00     0.002 A 
ATOM     17  H   LIG d   1       9.139   5.358  -4.565  0.00  0.00     0.063 H 
ATOM     18  H   LIG d   1       9.344   7.608  -3.548  0.00  0.00     0.062 H 
ATOM     19  H   LIG d   1      11.575   4.898   0.721  0.00  0.00     0.064 H 
ATOM     20  H   LIG d   1      11.825   7.041   1.811  0.00  0.00     0.063 H 
ATOM     21  H   LIG d   1       9.774  11.324  -1.658  0.00  0.00     0.084 H 
ATOM     22  H   LIG d   1       9.913   3.388  -3.345  0.00  0.00     0.081 H 
ENDROOT
BRANCH  11  23
ATOM     23  C   LIG d   1      10.796  11.966   0.739  0.00  0.00     0.077 C 
ATOM     24  O   LIG d   1       9.858  12.452   1.343  0.00  0.00    -0.544 OA
ATOM     25  O   LIG d   1      11.945  12.658   0.608  0.00  0.00    -0.544 OA
ENDBRANCH  11  23
TORSDOF 1
ENDMDL
MODEL 7
REMARK VINA RESULT:      -5.4      3.403      6.051
REMARK  1 active torsions:
REMARK  status: ('A' for Active; 'I' for Inactive)
REMARK    1  A    between atoms: C_11  and  C_14 
ROOT
ATOM      1  C   LIG d   1       4.758  -3.584  -9.423  0.00  0.00    -0.045 A 
ATOM      2  C   LIG d   1       4.955  -3.084  -8.144  0.00  0.00    -0.049 A 
ATOM      3  C   LIG d   1       4.202  -1.979  -7.730  0.00  0.00     0.024 A 
ATOM      4  C   LIG d   1       3.267  -1.404  -8.616  0.00  0.00     0.049 A 
ATOM      5  C   LIG d   1       2.509  -0.301  -8.212  0.00  0.00    -0.037 A 
ATOM      6  C   LIG d   1       2.651   0.238  -6.973  0.00  0.00    -0.047 A 
ATOM      7  C   LIG d   1       3.564  -0.289  -6.050  0.00  0.00     0.048 A 
ATOM      8  C   LIG d   1       4.361  -1.402  -6.392  0.00  0.00     0.084 A 
ATOM      9  N   LIG d   1       5.230  -1.908  -5.517  0.00  0.00    -0.253 NA
ATOM     10  C   LIG d   1       5.396  -1.417  -4.313  0.00  0.00     0.041 A 
ATOM     11  C   LIG d   1       4.667  -0.319  -3.848  0.00  0.00     0.063 A 
ATOM     12  C   LIG d   1       3.719   0.293  -4.712  0.00  0.00     0.198 A 
ATOM     13  O   LIG d   1       3.059   1.257  -4.355  0.00  0.00    -0.286 OA
ATOM     14  N   LIG d   1       3.112  -1.937  -9.867  0.00  0.00    -0.361 N 
ATOM     15  H   LIG d   1       2.470  -1.544 -10.479  0.00  0.00     0.165 HD
ATOM     16  C   LIG d   1       3.837  -2.995 -10.258  0.00  0.00     0.002 A 
ATOM     17  H   LIG d   1       5.329  -4.435  -9.764  0.00  0.00     0.063 H 
ATOM     18  H   LIG d   1       5.676  -3.539  -7.480  0.00  0.00     0.062 H 
ATOM     19  H   LIG d   1       1.796   0.131  -8.898  0.00  0.00     0.064 H 
ATOM     20  H   LIG d   1       2.050   1.090  -6.694  0.00  0.00     0.063 H 
ATOM     21  H   LIG d   1       6.120  -1.879  -3.658  0.00  0.00     0.084 H 
ATOM     22  H   LIG d   1       3.694  -3.395 -11.252  0.00  0.00     0.081 H 
ENDROOT
BRANCH  11  23
ATOM     23  C   LIG d   1       4.879   0.195  -2.491  0.00  0.00     0.077 C 
ATOM     24  O   LIG d   1       4.447  -0.419  -1.533  0.00  0.00    -0.544 OA
ATOM     25  O   LIG d   1       5.553   1.348  -2.305  0.00  0.00    -0.544 OA
ENDBRANCH  11  23
TORSDOF 1
ENDMDL
MODEL 8
REMARK VINA RESULT:      -5.4      4.870      5.835
REMARK  1 active torsions:
REMARK  status: ('A' for Active; 'I' for Inactive)
REMARK    1  A    between atoms: C_11  and  C_14 
ROOT
ATOM      1  C   LIG d   1       3.552   0.762  -2.354  0.00  0.00    -0.045 A 
ATOM      2  C   LIG d   1       4.836   1.181  -2.674  0.00  0.00    -0.049 A 
ATOM      3  C   LIG d   1       5.657   0.325  -3.418  0.00  0.00     0.024 A 
ATOM      4  C   LIG d   1       5.163  -0.933  -3.823  0.00  0.00     0.049 A 
ATOM      5  C   LIG d   1       5.974  -1.795  -4.568  0.00  0.00    -0.037 A 
ATOM      6  C   LIG d   1       7.241  -1.448  -4.915  0.00  0.00    -0.047 A 
ATOM      7  C   LIG d   1       7.786  -0.212  -4.541  0.00  0.00     0.048 A 
ATOM      8  C   LIG d   1       7.022   0.705  -3.789  0.00  0.00     0.084 A 
ATOM      9  N   LIG d   1       7.537   1.882  -3.432  0.00  0.00    -0.253 NA
ATOM     10  C   LIG d   1       8.753   2.253  -3.747  0.00  0.00     0.041 A 
ATOM     11  C   LIG d   1       9.612   1.441  -4.493  0.00  0.00     0.063 A 
ATOM     12  C   LIG d   1       9.155   0.163  -4.915  0.00  0.00     0.198 A 
ATOM     13  O   LIG d   1       9.867  -0.586  -5.565  0.00  0.00    -0.286 OA
ATOM     14  N   LIG d   1       3.888  -1.296  -3.481  0.00  0.00    -0.361 N 
ATOM     15  H   LIG d   1       3.546  -2.160  -3.758  0.00  0.00     0.165 HD
ATOM     16  C   LIG d   1       3.107  -0.472  -2.767  0.00  0.00     0.002 A 
ATOM     17  H   LIG d   1       2.902   1.406  -1.780  0.00  0.00     0.063 H 
ATOM     18  H   LIG d   1       5.195   2.148  -2.354  0.00  0.00     0.062 H 
ATOM     19  H   LIG d   1       5.586  -2.755  -4.873  0.00  0.00     0.064 H 
ATOM     20  H   LIG d   1       7.840  -2.137  -5.491  0.00  0.00     0.063 H 
ATOM     21  H   LIG d   1       9.102   3.223  -3.423  0.00  0.00     0.084 H 
ATOM     22  H   LIG d   1       2.105  -0.785  -2.512  0.00  0.00     0.081 H 
ENDROOT
BRANCH  11  23
ATOM     23  C   LIG d   1      10.963   1.897  -4.831  0.00  0.00     0.077 C 
ATOM     24  O   LIG d   1      11.159   2.511  -5.863  0.00  0.00    -0.544 OA
ATOM     25  O   LIG d   1      11.991   1.638  -3.996  0.00  0.00    -0.544 OA
ENDBRANCH  11  23
TORSDOF 1
ENDMDL
MODEL 9
REMARK VINA RESULT:      -5.4      4.465      6.068
REMARK  1 active torsions:
REMARK  status: ('A' for Active; 'I' for Inactive)
REMARK    1  A    between atoms: C_11  and  C_14 
ROOT
ATOM      1  C   LIG d   1       9.505  -4.151  -5.758  0.00  0.00    -0.045 A 
ATOM      2  C   LIG d   1       8.855  -3.081  -5.158  0.00  0.00    -0.049 A 
ATOM      3  C   LIG d   1       7.478  -3.176  -4.927  0.00  0.00     0.024 A 
ATOM      4  C   LIG d   1       6.788  -4.347  -5.305  0.00  0.00     0.049 A 
ATOM      5  C   LIG d   1       5.413  -4.453  -5.077  0.00  0.00    -0.037 A 
ATOM      6  C   LIG d   1       4.714  -3.443  -4.494  0.00  0.00    -0.047 A 
ATOM      7  C   LIG d   1       5.344  -2.256  -4.097  0.00  0.00     0.048 A 
ATOM      8  C   LIG d   1       6.730  -2.084  -4.298  0.00  0.00     0.084 A 
ATOM      9  N   LIG d   1       7.334  -0.956  -3.922  0.00  0.00    -0.253 NA
ATOM     10  C   LIG d   1       6.696   0.039  -3.356  0.00  0.00     0.041 A 
ATOM     11  C   LIG d   1       5.323  -0.005  -3.097  0.00  0.00     0.063 A 
ATOM     12  C   LIG d   1       4.590  -1.165  -3.469  0.00  0.00     0.198 A 
ATOM     13  O   LIG d   1       3.389  -1.252  -3.268  0.00  0.00    -0.286 OA
ATOM     14  N   LIG d   1       7.479  -5.373  -5.892  0.00  0.00    -0.361 N 
ATOM     15  H   LIG d   1       7.008  -6.179  -6.153  0.00  0.00     0.165 HD
ATOM     16  C   LIG d   1       8.798  -5.275  -6.112  0.00  0.00     0.002 A 
ATOM     17  H   LIG d   1      10.567  -4.098  -5.947  0.00  0.00     0.063 H 
ATOM     18  H   LIG d   1       9.401  -2.193  -4.876  0.00  0.00     0.062 H 
ATOM     19  H   LIG d   1       4.895  -5.354  -5.370  0.00  0.00     0.064 H 
ATOM     20  H   LIG d   1       3.653  -3.558  -4.332  0.00  0.00     0.063 H 
ATOM     21  H   LIG d   1       7.251   0.923  -3.078  0.00  0.00     0.084 H 
ATOM     22  H   LIG d   1       9.318  -6.100  -6.578  0.00  0.00     0.081 H 
ENDROOT
BRANCH  11  23
ATOM     23  C   LIG d   1       4.649   1.128  -2.457  0.00  0.00     0.077 C 
ATOM     24  O   LIG d   1       4.722   1.278  -1.251  0.00  0.00    -0.544 OA
ATOM     25  O   LIG d   1       3.947   2.005  -3.203  0.00  0.00    -0.544 OA
ENDBRANCH  11  23
TORSDOF 1
ENDMDL
