MODEL 1
REMARK VINA RESULT:      -6.4      0.000      0.000
REMARK  21 active torsions:
REMARK  status: ('A' for Active; 'I' for Inactive)
REMARK    1  A    between atoms: C_1  and  C_2 
REMARK    2  A    between atoms: C_3  and  C_27 
REMARK    3  A    between atoms: C_4  and  O_26 
REMARK    4  A    between atoms: C_6  and  C_17 
REMARK    5  A    between atoms: C_7  and  O_16 
REMARK    6  A    between atoms: C_8  and  O_15 
REMARK    7  A    between atoms: C_9  and  C_12 
REMARK    8  A    between atoms: C_12  and  C_13 
REMARK    9  A    between atoms: C_12  and  C_14 
REMARK   10  A    between atoms: N_18  and  C_19 
REMARK   11  A    between atoms: C_19  and  C_20 
REMARK   12  A    between atoms: C_28  and  O_52 
REMARK   13  A    between atoms: C_30  and  C_43 
REMARK   14  A    between atoms: C_31  and  O_42 
REMARK   15  A    between atoms: C_32  and  O_41 
REMARK   16  A    between atoms: C_33  and  C_38 
REMARK   17  A    between atoms: C_36  and  C_37 
REMARK   18  A    between atoms: C_38  and  C_39 
REMARK   19  A    between atoms: C_38  and  C_40 
REMARK   20  A    between atoms: N_44  and  C_45 
REMARK   21  A    between atoms: C_45  and  C_46 
ROOT
ATOM      1  C   LIG d   1       7.562  -3.187  -6.469  0.00  0.00     0.031 A 
ATOM      2  C   LIG d   1       6.443  -3.303  -7.287  0.00  0.00     0.134 A 
ATOM      3  C   LIG d   1       5.760  -4.526  -7.346  0.00  0.00     0.041 A 
ATOM      4  C   LIG d   1       4.579  -4.696  -8.192  0.00  0.00     0.094 A 
ATOM      5  C   LIG d   1       3.943  -5.935  -8.211  0.00  0.00     0.172 A 
ATOM      6  C   LIG d   1       4.430  -6.991  -7.431  0.00  0.00     0.163 A 
ATOM      7  C   LIG d   1       5.529  -6.847  -6.639  0.00  0.00     0.008 A 
ATOM      8  C   LIG d   1       6.217  -5.623  -6.576  0.00  0.00    -0.006 A 
ATOM      9  C   LIG d   1       7.352  -5.472  -5.758  0.00  0.00    -0.050 A 
ATOM     10  C   LIG d   1       8.007  -4.282  -5.715  0.00  0.00    -0.038 A 
ATOM     11  H   LIG d   1       7.706  -6.304  -5.168  0.00  0.00     0.063 H 
ENDROOT
BRANCH   1  12
ATOM     12  C   LIG d   1       8.291  -1.899  -6.399  0.00  0.00     0.031 A 
ATOM     13  C   LIG d   1       9.298  -1.615  -7.334  0.00  0.00    -0.038 A 
ATOM     14  C   LIG d   1       9.985  -0.444  -7.288  0.00  0.00    -0.050 A 
ATOM     15  C   LIG d   1       9.684   0.511  -6.299  0.00  0.00    -0.006 A 
ATOM     16  H   LIG d   1      10.760  -0.243  -8.013  0.00  0.00     0.063 H 
ATOM     17  C   LIG d   1       8.671   0.238  -5.349  0.00  0.00     0.037 A 
ATOM     18  C   LIG d   1      10.379   1.731  -6.238  0.00  0.00     0.008 A 
ATOM     19  C   LIG d   1       7.974  -0.978  -5.406  0.00  0.00     0.133 A 
ATOM     20  C   LIG d   1       8.372   1.235  -4.322  0.00  0.00     0.049 A 
ATOM     21  C   LIG d   1       9.098   2.425  -4.315  0.00  0.00     0.168 A 
ATOM     22  C   LIG d   1      10.092   2.652  -5.276  0.00  0.00     0.163 A 
BRANCH  13  23
ATOM     23  C   LIG d   1       9.626  -2.627  -8.402  0.00  0.00    -0.039 C 
ATOM     24  H   LIG d   1       8.956  -2.490  -9.250  0.00  0.00     0.028 H 
ATOM     25  H   LIG d   1      10.657  -2.489  -8.728  0.00  0.00     0.028 H 
ATOM     26  H   LIG d   1       9.503  -3.632  -8.000  0.00  0.00     0.028 H 
ENDBRANCH  13  23
BRANCH  19  27
ATOM     27  O   LIG d   1       7.000  -1.253  -4.500  0.00  0.00    -0.505 OA
ATOM     28  H   LIG d   1       7.329  -1.418  -3.606  0.00  0.00     0.292 HD
ENDBRANCH  19  27
BRANCH  20  29
ATOM     29  C   LIG d   1       7.328   0.989  -3.318  0.00  0.00     0.034 C 
ATOM     30  N   LIG d   1       6.258   1.721  -3.303  0.00  0.00    -0.286 NA
ATOM     31  H   LIG d   1       7.451   0.198  -2.593  0.00  0.00     0.083 H 
BRANCH  30  32
ATOM     32  C   LIG d   1       5.217   1.476  -2.301  0.00  0.00     0.065 C 
ATOM     33  H   LIG d   1       5.675   1.386  -1.316  0.00  0.00     0.056 H 
ATOM     34  H   LIG d   1       4.511   2.306  -2.300  0.00  0.00     0.056 H 
BRANCH  32  35
ATOM     35  C   LIG d   1       4.489   0.199  -2.635  0.00  0.00    -0.023 A 
ATOM     36  C   LIG d   1       3.674   0.119  -3.754  0.00  0.00    -0.039 A 
ATOM     37  C   LIG d   1       3.027  -1.071  -4.032  0.00  0.00     0.028 A 
ATOM     38  H   LIG d   1       3.548   0.975  -4.401  0.00  0.00     0.064 H 
ATOM     39  N   LIG d   1       3.172  -2.117  -3.243  0.00  0.00    -0.263 NA
ATOM     40  H   LIG d   1       2.394  -1.142  -4.904  0.00  0.00     0.083 H 
ATOM     41  C   LIG d   1       3.934  -2.076  -2.169  0.00  0.00     0.028 A 
ATOM     42  C   LIG d   1       4.616  -0.922  -1.830  0.00  0.00    -0.039 A 
ATOM     43  H   LIG d   1       4.028  -2.953  -1.546  0.00  0.00     0.083 H 
ATOM     44  H   LIG d   1       5.240  -0.894  -0.949  0.00  0.00     0.064 H 
ENDBRANCH  32  35
ENDBRANCH  30  32
ENDBRANCH  20  29
BRANCH  21  45
ATOM     45  O   LIG d   1       8.841   3.368  -3.374  0.00  0.00    -0.503 OA
ATOM     46  H   LIG d   1       9.400   4.153  -3.441  0.00  0.00     0.292 HD
ENDBRANCH  21  45
BRANCH  22  47
ATOM     47  O   LIG d   1      10.785   3.821  -5.247  0.00  0.00    -0.503 OA
ATOM     48  H   LIG d   1      10.994   4.132  -4.357  0.00  0.00     0.292 HD
ENDBRANCH  22  47
BRANCH  18  49
ATOM     49  C   LIG d   1      11.458   2.024  -7.249  0.00  0.00    -0.017 C 
ATOM     50  H   LIG d   1      11.549   1.185  -7.936  0.00  0.00     0.035 H 
BRANCH  49  51
ATOM     51  C   LIG d   1      11.093   3.289  -8.031  0.00  0.00    -0.059 C 
ATOM     52  H   LIG d   1      10.432   3.911  -7.428  0.00  0.00     0.024 H 
ATOM     53  H   LIG d   1      12.000   3.844  -8.266  0.00  0.00     0.024 H 
ATOM     54  H   LIG d   1      10.587   3.009  -8.955  0.00  0.00     0.024 H 
ENDBRANCH  49  51
BRANCH  49  55
ATOM     55  C   LIG d   1      12.790   2.238  -6.527  0.00  0.00    -0.059 C 
ATOM     56  H   LIG d   1      13.493   2.730  -7.199  0.00  0.00     0.024 H 
ATOM     57  H   LIG d   1      12.632   2.862  -5.647  0.00  0.00     0.024 H 
ATOM     58  H   LIG d   1      13.196   1.274  -6.220  0.00  0.00     0.024 H 
ENDBRANCH  49  55
ENDBRANCH  18  49
ENDBRANCH   1  12
BRANCH  10  59
ATOM     59  C   LIG d   1       9.225  -4.137  -4.840  0.00  0.00    -0.039 C 
ATOM     60  H   LIG d   1       8.930  -3.742  -3.868  0.00  0.00     0.028 H 
ATOM     61  H   LIG d   1       9.697  -5.110  -4.708  0.00  0.00     0.028 H 
ATOM     62  H   LIG d   1       9.930  -3.452  -5.310  0.00  0.00     0.028 H 
ENDBRANCH  10  59
BRANCH   2  63
ATOM     63  O   LIG d   1       6.015  -2.243  -8.020  0.00  0.00    -0.505 OA
ATOM     64  H   LIG d   1       5.397  -2.477  -8.726  0.00  0.00     0.292 HD
ENDBRANCH   2  63
BRANCH   4  65
ATOM     65  C   LIG d   1       4.074  -3.581  -9.006  0.00  0.00     0.176 C 
ATOM     66  N   LIG d   1       2.960  -2.998  -8.686  0.00  0.00    -0.242 N 
ATOM     67  H   LIG d   1       2.519  -3.219  -7.852  0.00  0.00     0.445 HD
ATOM     68  H   LIG d   1       4.629  -3.248  -9.870  0.00  0.00     0.138 H 
BRANCH  66  69
ATOM     69  C   LIG d   1       2.370  -2.003  -9.586  0.00  0.00     0.168 C 
ATOM     70  H   LIG d   1       2.779  -2.132 -10.588  0.00  0.00     0.108 H 
ATOM     71  H   LIG d   1       1.289  -2.136  -9.617  0.00  0.00     0.108 H 
BRANCH  69  72
ATOM     72  C   LIG d   1       2.693  -0.619  -9.084  0.00  0.00     0.019 A 
ATOM     73  C   LIG d   1       2.966   0.411  -9.971  0.00  0.00    -0.034 A 
ATOM     74  C   LIG d   1       3.251   1.669  -9.474  0.00  0.00     0.028 A 
ATOM     75  H   LIG d   1       2.952   0.235 -11.036  0.00  0.00     0.064 H 
ATOM     76  N   LIG d   1       3.276   1.891  -8.174  0.00  0.00    -0.263 NA
ATOM     77  H   LIG d   1       3.460   2.479 -10.158  0.00  0.00     0.083 H 
ATOM     78  C   LIG d   1       3.027   0.935  -7.303  0.00  0.00     0.028 A 
ATOM     79  C   LIG d   1       2.728  -0.347  -7.725  0.00  0.00    -0.034 A 
ATOM     80  H   LIG d   1       3.057   1.155  -6.245  0.00  0.00     0.083 H 
ATOM     81  H   LIG d   1       2.524  -1.127  -7.006  0.00  0.00     0.064 H 
ENDBRANCH  69  72
ENDBRANCH  66  69
ENDBRANCH   4  65
BRANCH   7  82
ATOM     82  C   LIG d   1       6.012  -8.015  -5.818  0.00  0.00    -0.017 C 
ATOM     83  H   LIG d   1       6.839  -7.696  -5.183  0.00  0.00     0.035 H 
BRANCH  82  84
ATOM     84  C   LIG d   1       4.868  -8.534  -4.944  0.00  0.00    -0.059 C 
ATOM     85  H   LIG d   1       5.245  -8.754  -3.945  0.00  0.00     0.024 H 
ATOM     86  H   LIG d   1       4.088  -7.775  -4.880  0.00  0.00     0.024 H 
ATOM     87  H   LIG d   1       4.458  -9.442  -5.386  0.00  0.00     0.024 H 
ENDBRANCH  82  84
BRANCH  82  88
ATOM     88  C   LIG d   1       6.488  -9.131  -6.751  0.00  0.00    -0.059 C 
ATOM     89  H   LIG d   1       6.774 -10.001  -6.161  0.00  0.00     0.024 H 
ATOM     90  H   LIG d   1       5.681  -9.403  -7.433  0.00  0.00     0.024 H 
ATOM     91  H   LIG d   1       7.347  -8.783  -7.325  0.00  0.00     0.024 H 
ENDBRANCH  82  88
ENDBRANCH   7  82
BRANCH   5  92
ATOM     92  O   LIG d   1       2.845  -6.119  -8.986  0.00  0.00    -0.503 OA
ATOM     93  H   LIG d   1       2.013  -6.138  -8.493  0.00  0.00     0.292 HD
ENDBRANCH   5  92
BRANCH   6  94
ATOM     94  O   LIG d   1       3.790  -8.190  -7.466  0.00  0.00    -0.503 OA
ATOM     95  H   LIG d   1       2.938  -8.194  -7.008  0.00  0.00     0.292 HD
ENDBRANCH   6  94
TORSDOF 21
ENDMDL
MODEL 2
REMARK VINA RESULT:      -6.3      3.853      6.441
REMARK  21 active torsions:
REMARK  status: ('A' for Active; 'I' for Inactive)
REMARK    1  A    between atoms: C_1  and  C_2 
REMARK    2  A    between atoms: C_3  and  C_27 
REMARK    3  A    between atoms: C_4  and  O_26 
REMARK    4  A    between atoms: C_6  and  C_17 
REMARK    5  A    between atoms: C_7  and  O_16 
REMARK    6  A    between atoms: C_8  and  O_15 
REMARK    7  A    between atoms: C_9  and  C_12 
REMARK    8  A    between atoms: C_12  and  C_13 
REMARK    9  A    between atoms: C_12  and  C_14 
REMARK   10  A    between atoms: N_18  and  C_19 
REMARK   11  A    between atoms: C_19  and  C_20 
REMARK   12  A    between atoms: C_28  and  O_52 
REMARK   13  A    between atoms: C_30  and  C_43 
REMARK   14  A    between atoms: C_31  and  O_42 
REMARK   15  A    between atoms: C_32  and  O_41 
REMARK   16  A    between atoms: C_33  and  C_38 
REMARK   17  A    between atoms: C_36  and  C_37 
REMARK   18  A    between atoms: C_38  and  C_39 
REMARK   19  A    between atoms: C_38  and  C_40 
REMARK   20  A    between atoms: N_44  and  C_45 
REMARK   21  A    between atoms: C_45  and  C_46 
ROOT
ATOM      1  C   LIG d   1       9.538   1.305  -5.903  0.00  0.00     0.031 A 
ATOM      2  C   LIG d   1       8.314   0.668  -5.729  0.00  0.00     0.134 A 
ATOM      3  C   LIG d   1       8.289  -0.675  -5.329  0.00  0.00     0.041 A 
ATOM      4  C   LIG d   1       7.026  -1.386  -5.134  0.00  0.00     0.094 A 
ATOM      5  C   LIG d   1       7.065  -2.721  -4.737  0.00  0.00     0.172 A 
ATOM      6  C   LIG d   1       8.294  -3.361  -4.531  0.00  0.00     0.163 A 
ATOM      7  C   LIG d   1       9.477  -2.712  -4.709  0.00  0.00     0.008 A 
ATOM      8  C   LIG d   1       9.507  -1.364  -5.110  0.00  0.00    -0.006 A 
ATOM      9  C   LIG d   1      10.729  -0.691  -5.295  0.00  0.00    -0.050 A 
ATOM     10  C   LIG d   1      10.736   0.610  -5.688  0.00  0.00    -0.038 A 
ATOM     11  H   LIG d   1      11.661  -1.210  -5.129  0.00  0.00     0.063 H 
ENDROOT
BRANCH   1  12
ATOM     12  C   LIG d   1       9.576   2.725  -6.325  0.00  0.00     0.031 A 
ATOM     13  C   LIG d   1       9.647   3.045  -7.690  0.00  0.00    -0.038 A 
ATOM     14  C   LIG d   1       9.688   4.340  -8.102  0.00  0.00    -0.050 A 
ATOM     15  C   LIG d   1       9.647   5.382  -7.158  0.00  0.00    -0.006 A 
ATOM     16  H   LIG d   1       9.747   4.569  -9.155  0.00  0.00     0.063 H 
ATOM     17  C   LIG d   1       9.576   5.072  -5.778  0.00  0.00     0.037 A 
ATOM     18  C   LIG d   1       9.683   6.727  -7.564  0.00  0.00     0.008 A 
ATOM     19  C   LIG d   1       9.540   3.732  -5.367  0.00  0.00     0.133 A 
ATOM     20  C   LIG d   1       9.541   6.165  -4.806  0.00  0.00     0.049 A 
ATOM     21  C   LIG d   1       9.580   7.477  -5.274  0.00  0.00     0.168 A 
ATOM     22  C   LIG d   1       9.651   7.735  -6.648  0.00  0.00     0.163 A 
BRANCH  13  23
ATOM     23  C   LIG d   1       9.685   1.939  -8.712  0.00  0.00    -0.039 C 
ATOM     24  H   LIG d   1       8.882   2.085  -9.435  0.00  0.00     0.028 H 
ATOM     25  H   LIG d   1      10.645   1.954  -9.228  0.00  0.00     0.028 H 
ATOM     26  H   LIG d   1       9.554   0.979  -8.213  0.00  0.00     0.028 H 
ENDBRANCH  13  23
BRANCH  19  27
ATOM     27  O   LIG d   1       9.471   3.422  -4.047  0.00  0.00    -0.505 OA
ATOM     28  H   LIG d   1       9.722   2.510  -3.843  0.00  0.00     0.292 HD
ENDBRANCH  19  27
BRANCH  20  29
ATOM     29  C   LIG d   1       9.467   5.885  -3.365  0.00  0.00     0.034 C 
ATOM     30  N   LIG d   1      10.452   6.213  -2.589  0.00  0.00    -0.286 NA
ATOM     31  H   LIG d   1       8.591   5.406  -2.953  0.00  0.00     0.083 H 
BRANCH  30  32
ATOM     32  C   LIG d   1      10.377   5.934  -1.152  0.00  0.00     0.065 C 
ATOM     33  H   LIG d   1       9.392   5.532  -0.912  0.00  0.00     0.056 H 
ATOM     34  H   LIG d   1      11.142   5.205  -0.884  0.00  0.00     0.056 H 
BRANCH  32  35
ATOM     35  C   LIG d   1      10.604   7.208  -0.381  0.00  0.00    -0.023 A 
ATOM     36  C   LIG d   1      11.322   7.201   0.805  0.00  0.00    -0.039 A 
ATOM     37  C   LIG d   1      11.515   8.391   1.483  0.00  0.00     0.028 A 
ATOM     38  H   LIG d   1      11.728   6.278   1.193  0.00  0.00     0.064 H 
ATOM     39  N   LIG d   1      11.017   9.520   1.018  0.00  0.00    -0.263 NA
ATOM     40  H   LIG d   1      12.077   8.394   2.405  0.00  0.00     0.083 H 
ATOM     41  C   LIG d   1      10.325   9.563  -0.103  0.00  0.00     0.028 A 
ATOM     42  C   LIG d   1      10.095   8.414  -0.838  0.00  0.00    -0.039 A 
ATOM     43  H   LIG d   1       9.932  10.507  -0.453  0.00  0.00     0.083 H 
ATOM     44  H   LIG d   1       9.529   8.456  -1.755  0.00  0.00     0.064 H 
ENDBRANCH  32  35
ENDBRANCH  30  32
ENDBRANCH  20  29
BRANCH  21  45
ATOM     45  O   LIG d   1       9.549   8.509  -4.394  0.00  0.00    -0.503 OA
ATOM     46  H   LIG d   1      10.067   8.359  -3.593  0.00  0.00     0.292 HD
ENDBRANCH  21  45
BRANCH  22  47
ATOM     47  O   LIG d   1       9.687   9.024  -7.079  0.00  0.00    -0.503 OA
ATOM     48  H   LIG d   1      10.562   9.432  -7.024  0.00  0.00     0.292 HD
ENDBRANCH  22  47
BRANCH  18  49
ATOM     49  C   LIG d   1       9.759   7.058  -9.033  0.00  0.00    -0.017 C 
ATOM     50  H   LIG d   1       9.606   8.128  -9.172  0.00  0.00     0.035 H 
BRANCH  49  51
ATOM     51  C   LIG d   1      11.136   6.665  -9.573  0.00  0.00    -0.059 C 
ATOM     52  H   LIG d   1      11.164   6.827 -10.650  0.00  0.00     0.024 H 
ATOM     53  H   LIG d   1      11.902   7.273  -9.094  0.00  0.00     0.024 H 
ATOM     54  H   LIG d   1      11.321   5.612  -9.359  0.00  0.00     0.024 H 
ENDBRANCH  49  51
BRANCH  49  55
ATOM     55  C   LIG d   1       8.676   6.285  -9.787  0.00  0.00    -0.059 C 
ATOM     56  H   LIG d   1       7.694   6.579  -9.416  0.00  0.00     0.024 H 
ATOM     57  H   LIG d   1       8.743   6.509 -10.852  0.00  0.00     0.024 H 
ATOM     58  H   LIG d   1       8.816   5.215  -9.631  0.00  0.00     0.024 H 
ENDBRANCH  49  55
ENDBRANCH  18  49
ENDBRANCH   1  12
BRANCH  10  59
ATOM     59  C   LIG d   1      12.053   1.317  -5.888  0.00  0.00    -0.039 C 
ATOM     60  H   LIG d   1      12.145   2.126  -5.165  0.00  0.00     0.028 H 
ATOM     61  H   LIG d   1      12.870   0.609  -5.749  0.00  0.00     0.028 H 
ATOM     62  H   LIG d   1      12.095   1.726  -6.897  0.00  0.00     0.028 H 
ENDBRANCH  10  59
BRANCH   2  63
ATOM     63  O   LIG d   1       7.154   1.341  -5.942  0.00  0.00    -0.505 OA
ATOM     64  H   LIG d   1       6.710   1.626  -5.131  0.00  0.00     0.292 HD
ENDBRANCH   2  63
BRANCH   4  65
ATOM     65  C   LIG d   1       5.742  -0.706  -5.351  0.00  0.00     0.176 C 
ATOM     66  N   LIG d   1       4.998  -1.033  -6.362  0.00  0.00    -0.242 N 
ATOM     67  H   LIG d   1       5.233  -1.798  -6.909  0.00  0.00     0.445 HD
ATOM     68  H   LIG d   1       5.418   0.067  -4.669  0.00  0.00     0.138 H 
BRANCH  66  69
ATOM     69  C   LIG d   1       3.803  -0.245  -6.677  0.00  0.00     0.168 C 
ATOM     70  H   LIG d   1       2.949  -0.911  -6.792  0.00  0.00     0.108 H 
ATOM     71  H   LIG d   1       3.608   0.459  -5.868  0.00  0.00     0.108 H 
BRANCH  69  72
ATOM     72  C   LIG d   1       4.026   0.514  -7.960  0.00  0.00     0.019 A 
ATOM     73  C   LIG d   1       3.133   1.492  -8.370  0.00  0.00    -0.034 A 
ATOM     74  C   LIG d   1       3.374   2.171  -9.550  0.00  0.00     0.028 A 
ATOM     75  H   LIG d   1       2.263   1.722  -7.775  0.00  0.00     0.064 H 
ATOM     76  N   LIG d   1       4.432   1.891 -10.286  0.00  0.00    -0.263 NA
ATOM     77  H   LIG d   1       2.685   2.938  -9.874  0.00  0.00     0.083 H 
ATOM     78  C   LIG d   1       5.298   0.964  -9.929  0.00  0.00     0.028 A 
ATOM     79  C   LIG d   1       5.127   0.247  -8.760  0.00  0.00    -0.034 A 
ATOM     80  H   LIG d   1       6.153   0.762 -10.558  0.00  0.00     0.083 H 
ATOM     81  H   LIG d   1       5.841  -0.510  -8.473  0.00  0.00     0.064 H 
ENDBRANCH  69  72
ENDBRANCH  66  69
ENDBRANCH   4  65
BRANCH   7  82
ATOM     82  C   LIG d   1      10.772  -3.446  -4.474  0.00  0.00    -0.017 C 
ATOM     83  H   LIG d   1      11.608  -2.757  -4.594  0.00  0.00     0.035 H 
BRANCH  82  84
ATOM     84  C   LIG d   1      10.784  -4.018  -3.055  0.00  0.00    -0.059 C 
ATOM     85  H   LIG d   1      11.528  -3.493  -2.457  0.00  0.00     0.024 H 
ATOM     86  H   LIG d   1       9.799  -3.890  -2.604  0.00  0.00     0.024 H 
ATOM     87  H   LIG d   1      11.031  -5.079  -3.093  0.00  0.00     0.024 H 
ENDBRANCH  82  84
BRANCH  82  88
ATOM     88  C   LIG d   1      10.902  -4.587  -5.485  0.00  0.00    -0.059 C 
ATOM     89  H   LIG d   1      11.517  -4.262  -6.324  0.00  0.00     0.024 H 
ATOM     90  H   LIG d   1      11.369  -5.447  -5.005  0.00  0.00     0.024 H 
ATOM     91  H   LIG d   1       9.912  -4.866  -5.847  0.00  0.00     0.024 H 
ENDBRANCH  82  88
ENDBRANCH   7  82
BRANCH   5  92
ATOM     92  O   LIG d   1       5.908  -3.404  -4.548  0.00  0.00    -0.503 OA
ATOM     93  H   LIG d   1       5.978  -4.353  -4.722  0.00  0.00     0.292 HD
ENDBRANCH   5  92
BRANCH   6  94
ATOM     94  O   LIG d   1       8.304  -4.664  -4.142  0.00  0.00    -0.503 OA
ATOM     95  H   LIG d   1       8.168  -4.792  -3.193  0.00  0.00     0.292 HD
ENDBRANCH   6  94
TORSDOF 21
ENDMDL
MODEL 3
REMARK VINA RESULT:      -6.2      0.324      8.436
REMARK  21 active torsions:
REMARK  status: ('A' for Active; 'I' for Inactive)
REMARK    1  A    between atoms: C_1  and  C_2 
REMARK    2  A    between atoms: C_3  and  C_27 
REMARK    3  A    between atoms: C_4  and  O_26 
REMARK    4  A    between atoms: C_6  and  C_17 
REMARK    5  A    between atoms: C_7  and  O_16 
REMARK    6  A    between atoms: C_8  and  O_15 
REMARK    7  A    between atoms: C_9  and  C_12 
REMARK    8  A    between atoms: C_12  and  C_13 
REMARK    9  A    between atoms: C_12  and  C_14 
REMARK   10  A    between atoms: N_18  and  C_19 
REMARK   11  A    between atoms: C_19  and  C_20 
REMARK   12  A    between atoms: C_28  and  O_52 
REMARK   13  A    between atoms: C_30  and  C_43 
REMARK   14  A    between atoms: C_31  and  O_42 
REMARK   15  A    between atoms: C_32  and  O_41 
REMARK   16  A    between atoms: C_33  and  C_38 
REMARK   17  A    between atoms: C_36  and  C_37 
REMARK   18  A    between atoms: C_38  and  C_39 
REMARK   19  A    between atoms: C_38  and  C_40 
REMARK   20  A    between atoms: N_44  and  C_45 
REMARK   21  A    between atoms: C_45  and  C_46 
ROOT
ATOM      1  C   LIG d   1       8.357  -1.971  -6.552  0.00  0.00     0.031 A 
ATOM      2  C   LIG d   1       8.073  -1.019  -5.579  0.00  0.00     0.134 A 
ATOM      3  C   LIG d   1       8.770   0.198  -5.584  0.00  0.00     0.041 A 
ATOM      4  C   LIG d   1       8.506   1.228  -4.581  0.00  0.00     0.094 A 
ATOM      5  C   LIG d   1       9.230   2.417  -4.637  0.00  0.00     0.172 A 
ATOM      6  C   LIG d   1      10.190   2.613  -5.638  0.00  0.00     0.163 A 
ATOM      7  C   LIG d   1      10.446   1.662  -6.578  0.00  0.00     0.008 A 
ATOM      8  C   LIG d   1       9.750   0.440  -6.577  0.00  0.00    -0.006 A 
ATOM      9  C   LIG d   1      10.013  -0.544  -7.548  0.00  0.00    -0.050 A 
ATOM     10  C   LIG d   1       9.333  -1.721  -7.526  0.00  0.00    -0.038 A 
ATOM     11  H   LIG d   1      10.759  -0.366  -8.308  0.00  0.00     0.063 H 
ENDROOT
BRANCH   1  12
ATOM     12  C   LIG d   1       7.626  -3.260  -6.555  0.00  0.00     0.031 A 
ATOM     13  C   LIG d   1       8.053  -4.306  -5.722  0.00  0.00    -0.038 A 
ATOM     14  C   LIG d   1       7.403  -5.499  -5.711  0.00  0.00    -0.050 A 
ATOM     15  C   LIG d   1       6.279  -5.698  -6.533  0.00  0.00    -0.006 A 
ATOM     16  H   LIG d   1       7.747  -6.295  -5.066  0.00  0.00     0.063 H 
ATOM     17  C   LIG d   1       5.839  -4.652  -7.379  0.00  0.00     0.037 A 
ATOM     18  C   LIG d   1       5.590  -6.923  -6.532  0.00  0.00     0.008 A 
ATOM     19  C   LIG d   1       6.523  -3.427  -7.385  0.00  0.00     0.133 A 
ATOM     20  C   LIG d   1       4.673  -4.873  -8.235  0.00  0.00     0.049 A 
ATOM     21  C   LIG d   1       4.034  -6.111  -8.187  0.00  0.00     0.168 A 
ATOM     22  C   LIG d   1       4.506  -7.117  -7.334  0.00  0.00     0.163 A 
BRANCH  13  23
ATOM     23  C   LIG d   1       9.251  -4.104  -4.831  0.00  0.00    -0.039 C 
ATOM     24  H   LIG d   1       8.918  -3.906  -3.813  0.00  0.00     0.028 H 
ATOM     25  H   LIG d   1       9.867  -5.003  -4.843  0.00  0.00     0.028 H 
ATOM     26  H   LIG d   1       9.835  -3.258  -5.194  0.00  0.00     0.028 H 
ENDBRANCH  13  23
BRANCH  19  27
ATOM     27  O   LIG d   1       6.110  -2.416  -8.191  0.00  0.00    -0.505 OA
ATOM     28  H   LIG d   1       5.151  -2.371  -8.308  0.00  0.00     0.292 HD
ENDBRANCH  19  27
BRANCH  20  29
ATOM     29  C   LIG d   1       4.185  -3.812  -9.127  0.00  0.00     0.034 C 
ATOM     30  N   LIG d   1       3.173  -3.083  -8.773  0.00  0.00    -0.286 NA
ATOM     31  H   LIG d   1       4.669  -3.639 -10.077  0.00  0.00     0.083 H 
BRANCH  30  32
ATOM     32  C   LIG d   1       2.686  -2.025  -9.663  0.00  0.00     0.065 C 
ATOM     33  H   LIG d   1       3.282  -2.016 -10.576  0.00  0.00     0.056 H 
ATOM     34  H   LIG d   1       1.642  -2.212  -9.912  0.00  0.00     0.056 H 
BRANCH  32  35
ATOM     35  C   LIG d   1       2.807  -0.692  -8.971  0.00  0.00    -0.023 A 
ATOM     36  C   LIG d   1       2.687   0.491  -9.684  0.00  0.00    -0.039 A 
ATOM     37  C   LIG d   1       2.798   1.696  -9.014  0.00  0.00     0.028 A 
ATOM     38  H   LIG d   1       2.507   0.472 -10.749  0.00  0.00     0.064 H 
ATOM     39  N   LIG d   1       3.024   1.727  -7.716  0.00  0.00    -0.263 NA
ATOM     40  H   LIG d   1       2.701   2.621  -9.562  0.00  0.00     0.083 H 
ATOM     41  C   LIG d   1       3.149   0.622  -7.007  0.00  0.00     0.028 A 
ATOM     42  C   LIG d   1       3.045  -0.619  -7.607  0.00  0.00    -0.039 A 
ATOM     43  H   LIG d   1       3.334   0.687  -5.944  0.00  0.00     0.083 H 
ATOM     44  H   LIG d   1       3.147  -1.520  -7.022  0.00  0.00     0.064 H 
ENDBRANCH  32  35
ENDBRANCH  30  32
ENDBRANCH  20  29
BRANCH  21  45
ATOM     45  O   LIG d   1       2.951  -6.343  -8.970  0.00  0.00    -0.503 OA
ATOM     46  H   LIG d   1       2.512  -5.540  -9.281  0.00  0.00     0.292 HD
ENDBRANCH  21  45
BRANCH  22  47
ATOM     47  O   LIG d   1       3.865  -8.315  -7.306  0.00  0.00    -0.503 OA
ATOM     48  H   LIG d   1       4.370  -9.040  -7.699  0.00  0.00     0.292 HD
ENDBRANCH  22  47
BRANCH  18  49
ATOM     49  C   LIG d   1       6.057  -8.038  -5.632  0.00  0.00    -0.017 C 
ATOM     50  H   LIG d   1       6.810  -7.657  -4.943  0.00  0.00     0.035 H 
BRANCH  49  51
ATOM     51  C   LIG d   1       4.868  -8.584  -4.838  0.00  0.00    -0.059 C 
ATOM     52  H   LIG d   1       4.660  -7.925  -3.995  0.00  0.00     0.024 H 
ATOM     53  H   LIG d   1       3.992  -8.635  -5.484  0.00  0.00     0.024 H 
ATOM     54  H   LIG d   1       5.106  -9.582  -4.468  0.00  0.00     0.024 H 
ENDBRANCH  49  51
BRANCH  49  55
ATOM     55  C   LIG d   1       6.662  -9.159  -6.479  0.00  0.00    -0.059 C 
ATOM     56  H   LIG d   1       6.310 -10.123  -6.112  0.00  0.00     0.024 H 
ATOM     57  H   LIG d   1       6.359  -9.034  -7.519  0.00  0.00     0.024 H 
ATOM     58  H   LIG d   1       7.749  -9.121  -6.411  0.00  0.00     0.024 H 
ENDBRANCH  49  55
ENDBRANCH  18  49
ENDBRANCH   1  12
BRANCH  10  59
ATOM     59  C   LIG d   1       9.630  -2.768  -8.569  0.00  0.00    -0.039 C 
ATOM     60  H   LIG d   1       8.914  -2.681  -9.386  0.00  0.00     0.028 H 
ATOM     61  H   LIG d   1      10.639  -2.623  -8.953  0.00  0.00     0.028 H 
ATOM     62  H   LIG d   1       9.550  -3.759  -8.121  0.00  0.00     0.028 H 
ENDBRANCH  10  59
BRANCH   2  63
ATOM     63  O   LIG d   1       7.130  -1.264  -4.633  0.00  0.00    -0.505 OA
ATOM     64  H   LIG d   1       6.511  -1.969  -4.868  0.00  0.00     0.292 HD
ENDBRANCH   2  63
BRANCH   4  65
ATOM     65  C   LIG d   1       7.496   1.015  -3.534  0.00  0.00     0.176 C 
ATOM     66  N   LIG d   1       6.343   1.603  -3.617  0.00  0.00    -0.242 N 
ATOM     67  H   LIG d   1       6.104   2.091  -4.420  0.00  0.00     0.445 HD
ATOM     68  H   LIG d   1       7.714   0.369  -2.697  0.00  0.00     0.138 H 
BRANCH  66  69
ATOM     69  C   LIG d   1       5.401   1.527  -2.498  0.00  0.00     0.168 C 
ATOM     70  H   LIG d   1       5.954   1.438  -1.563  0.00  0.00     0.108 H 
ATOM     71  H   LIG d   1       4.790   2.429  -2.474  0.00  0.00     0.108 H 
BRANCH  69  72
ATOM     72  C   LIG d   1       4.511   0.323  -2.672  0.00  0.00     0.019 A 
ATOM     73  C   LIG d   1       3.336   0.409  -3.404  0.00  0.00    -0.034 A 
ATOM     74  C   LIG d   1       2.549  -0.718  -3.547  0.00  0.00     0.028 A 
ATOM     75  H   LIG d   1       3.042   1.343  -3.858  0.00  0.00     0.064 H 
ATOM     76  N   LIG d   1       2.898  -1.861  -2.990  0.00  0.00    -0.263 NA
ATOM     77  H   LIG d   1       1.634  -0.661  -4.120  0.00  0.00     0.083 H 
ATOM     78  C   LIG d   1       4.004  -1.978  -2.283  0.00  0.00     0.028 A 
ATOM     79  C   LIG d   1       4.845  -0.896  -2.101  0.00  0.00    -0.034 A 
ATOM     80  H   LIG d   1       4.258  -2.931  -1.842  0.00  0.00     0.083 H 
ATOM     81  H   LIG d   1       5.751  -0.998  -1.522  0.00  0.00     0.064 H 
ENDBRANCH  69  72
ENDBRANCH  66  69
ENDBRANCH   4  65
BRANCH   7  82
ATOM     82  C   LIG d   1      11.489   1.922  -7.636  0.00  0.00    -0.017 C 
ATOM     83  H   LIG d   1      11.558   1.060  -8.299  0.00  0.00     0.035 H 
BRANCH  82  84
ATOM     84  C   LIG d   1      11.096   3.159  -8.446  0.00  0.00    -0.059 C 
ATOM     85  H   LIG d   1      10.717   2.850  -9.421  0.00  0.00     0.024 H 
ATOM     86  H   LIG d   1      10.321   3.711  -7.914  0.00  0.00     0.024 H 
ATOM     87  H   LIG d   1      11.969   3.796  -8.582  0.00  0.00     0.024 H 
ENDBRANCH  82  84
BRANCH  82  88
ATOM     88  C   LIG d   1      12.844   2.160  -6.966  0.00  0.00    -0.059 C 
ATOM     89  H   LIG d   1      13.331   3.019  -7.428  0.00  0.00     0.024 H 
ATOM     90  H   LIG d   1      12.696   2.354  -5.904  0.00  0.00     0.024 H 
ATOM     91  H   LIG d   1      13.471   1.277  -7.091  0.00  0.00     0.024 H 
ENDBRANCH  82  88
ENDBRANCH   7  82
BRANCH   5  92
ATOM     92  O   LIG d   1       9.005   3.390  -3.718  0.00  0.00    -0.503 OA
ATOM     93  H   LIG d   1       8.908   4.274  -4.098  0.00  0.00     0.292 HD
ENDBRANCH   5  92
BRANCH   6  94
ATOM     94  O   LIG d   1      10.883   3.782  -5.672  0.00  0.00    -0.503 OA
ATOM     95  H   LIG d   1      10.339   4.566  -5.511  0.00  0.00     0.292 HD
ENDBRANCH   6  94
TORSDOF 21
ENDMDL
MODEL 4
REMARK VINA RESULT:      -6.2      3.812     10.191
REMARK  21 active torsions:
REMARK  status: ('A' for Active; 'I' for Inactive)
REMARK    1  A    between atoms: C_1  and  C_2 
REMARK    2  A    between atoms: C_3  and  C_27 
REMARK    3  A    between atoms: C_4  and  O_26 
REMARK    4  A    between atoms: C_6  and  C_17 
REMARK    5  A    between atoms: C_7  and  O_16 
REMARK    6  A    between atoms: C_8  and  O_15 
REMARK    7  A    between atoms: C_9  and  C_12 
REMARK    8  A    between atoms: C_12  and  C_13 
REMARK    9  A    between atoms: C_12  and  C_14 
REMARK   10  A    between atoms: N_18  and  C_19 
REMARK   11  A    between atoms: C_19  and  C_20 
REMARK   12  A    between atoms: C_28  and  O_52 
REMARK   13  A    between atoms: C_30  and  C_43 
REMARK   14  A    between atoms: C_31  and  O_42 
REMARK   15  A    between atoms: C_32  and  O_41 
REMARK   16  A    between atoms: C_33  and  C_38 
REMARK   17  A    between atoms: C_36  and  C_37 
REMARK   18  A    between atoms: C_38  and  C_39 
REMARK   19  A    between atoms: C_38  and  C_40 
REMARK   20  A    between atoms: N_44  and  C_45 
REMARK   21  A    between atoms: C_45  and  C_46 
ROOT
ATOM      1  C   LIG d   1       9.615   2.718  -6.418  0.00  0.00     0.031 A 
ATOM      2  C   LIG d   1       9.557   3.745  -5.481  0.00  0.00     0.134 A 
ATOM      3  C   LIG d   1       9.585   5.077  -5.920  0.00  0.00     0.041 A 
ATOM      4  C   LIG d   1       9.526   6.189  -4.973  0.00  0.00     0.094 A 
ATOM      5  C   LIG d   1       9.558   7.491  -5.469  0.00  0.00     0.172 A 
ATOM      6  C   LIG d   1       9.644   7.720  -6.848  0.00  0.00     0.163 A 
ATOM      7  C   LIG d   1       9.699   6.694  -7.741  0.00  0.00     0.008 A 
ATOM      8  C   LIG d   1       9.672   5.357  -7.306  0.00  0.00    -0.006 A 
ATOM      9  C   LIG d   1       9.728   4.295  -8.227  0.00  0.00    -0.050 A 
ATOM     10  C   LIG d   1       9.706   3.009  -7.786  0.00  0.00    -0.038 A 
ATOM     11  H   LIG d   1       9.795   4.501  -9.285  0.00  0.00     0.063 H 
ENDROOT
BRANCH   1  12
ATOM     12  C   LIG d   1       9.587   1.307  -5.965  0.00  0.00     0.031 A 
ATOM     13  C   LIG d   1      10.790   0.637  -5.694  0.00  0.00    -0.038 A 
ATOM     14  C   LIG d   1      10.790  -0.658  -5.283  0.00  0.00    -0.050 A 
ATOM     15  C   LIG d   1       9.574  -1.344  -5.111  0.00  0.00    -0.006 A 
ATOM     16  H   LIG d   1      11.725  -1.160  -5.082  0.00  0.00     0.063 H 
ATOM     17  C   LIG d   1       8.354  -0.680  -5.381  0.00  0.00     0.037 A 
ATOM     18  C   LIG d   1       9.553  -2.682  -4.681  0.00  0.00     0.008 A 
ATOM     19  C   LIG d   1       8.368   0.655  -5.811  0.00  0.00     0.133 A 
ATOM     20  C   LIG d   1       7.095  -1.406  -5.206  0.00  0.00     0.049 A 
ATOM     21  C   LIG d   1       7.143  -2.731  -4.778  0.00  0.00     0.168 A 
ATOM     22  C   LIG d   1       8.375  -3.347  -4.522  0.00  0.00     0.163 A 
BRANCH  13  23
ATOM     23  C   LIG d   1      12.100   1.362  -5.867  0.00  0.00    -0.039 C 
ATOM     24  H   LIG d   1      12.841   0.679  -6.280  0.00  0.00     0.028 H 
ATOM     25  H   LIG d   1      11.962   2.204  -6.546  0.00  0.00     0.028 H 
ATOM     26  H   LIG d   1      12.443   1.728  -4.899  0.00  0.00     0.028 H 
ENDBRANCH  13  23
BRANCH  19  27
ATOM     27  O   LIG d   1       7.204   1.304  -6.073  0.00  0.00    -0.505 OA
ATOM     28  H   LIG d   1       6.955   1.952  -5.400  0.00  0.00     0.292 HD
ENDBRANCH  19  27
BRANCH  20  29
ATOM     29  C   LIG d   1       5.808  -0.752  -5.476  0.00  0.00     0.034 C 
ATOM     30  N   LIG d   1       5.138  -1.055  -6.544  0.00  0.00    -0.286 NA
ATOM     31  H   LIG d   1       5.419  -0.019  -4.785  0.00  0.00     0.083 H 
BRANCH  30  32
ATOM     32  C   LIG d   1       3.853  -0.402  -6.813  0.00  0.00     0.065 C 
ATOM     33  H   LIG d   1       3.084  -1.161  -6.960  0.00  0.00     0.056 H 
ATOM     34  H   LIG d   1       3.583   0.229  -5.967  0.00  0.00     0.056 H 
BRANCH  32  35
ATOM     35  C   LIG d   1       3.970   0.444  -8.054  0.00  0.00    -0.023 A 
ATOM     36  C   LIG d   1       4.964   0.198  -8.989  0.00  0.00    -0.039 A 
ATOM     37  C   LIG d   1       5.037   0.991 -10.120  0.00  0.00     0.028 A 
ATOM     38  H   LIG d   1       5.670  -0.605  -8.838  0.00  0.00     0.064 H 
ATOM     39  N   LIG d   1       4.181   1.976 -10.307  0.00  0.00    -0.263 NA
ATOM     40  H   LIG d   1       5.805   0.802 -10.855  0.00  0.00     0.083 H 
ATOM     41  C   LIG d   1       3.228   2.243  -9.437  0.00  0.00     0.028 A 
ATOM     42  C   LIG d   1       3.090   1.489  -8.286  0.00  0.00    -0.039 A 
ATOM     43  H   LIG d   1       2.545   3.059  -9.625  0.00  0.00     0.083 H 
ATOM     44  H   LIG d   1       2.306   1.711  -7.578  0.00  0.00     0.064 H 
ENDBRANCH  32  35
ENDBRANCH  30  32
ENDBRANCH  20  29
BRANCH  21  45
ATOM     45  O   LIG d   1       5.992  -3.428  -4.607  0.00  0.00    -0.503 OA
ATOM     46  H   LIG d   1       5.730  -3.534  -3.682  0.00  0.00     0.292 HD
ENDBRANCH  21  45
BRANCH  22  47
ATOM     47  O   LIG d   1       8.394  -4.641  -4.105  0.00  0.00    -0.503 OA
ATOM     48  H   LIG d   1       8.040  -4.772  -3.215  0.00  0.00     0.292 HD
ENDBRANCH  22  47
BRANCH  18  49
ATOM     49  C   LIG d   1      10.852  -3.390  -4.393  0.00  0.00    -0.017 C 
ATOM     50  H   LIG d   1      11.673  -2.675  -4.434  0.00  0.00     0.035 H 
BRANCH  49  51
ATOM     51  C   LIG d   1      10.791  -4.019  -2.998  0.00  0.00    -0.059 C 
ATOM     52  H   LIG d   1      11.601  -3.625  -2.386  0.00  0.00     0.024 H 
ATOM     53  H   LIG d   1       9.835  -3.779  -2.534  0.00  0.00     0.024 H 
ATOM     54  H   LIG d   1      10.892  -5.101  -3.084  0.00  0.00     0.024 H 
ENDBRANCH  49  51
BRANCH  49  55
ATOM     55  C   LIG d   1      11.078  -4.486  -5.436  0.00  0.00    -0.059 C 
ATOM     56  H   LIG d   1      10.131  -4.978  -5.658  0.00  0.00     0.024 H 
ATOM     57  H   LIG d   1      11.480  -4.044  -6.347  0.00  0.00     0.024 H 
ATOM     58  H   LIG d   1      11.784  -5.220  -5.046  0.00  0.00     0.024 H 
ENDBRANCH  49  55
ENDBRANCH  18  49
ENDBRANCH   1  12
BRANCH  10  59
ATOM     59  C   LIG d   1       9.774   1.881  -8.783  0.00  0.00    -0.039 C 
ATOM     60  H   LIG d   1      10.446   1.108  -8.413  0.00  0.00     0.028 H 
ATOM     61  H   LIG d   1       8.779   1.461  -8.925  0.00  0.00     0.028 H 
ATOM     62  H   LIG d   1      10.147   2.261  -9.735  0.00  0.00     0.028 H 
ENDBRANCH  10  59
BRANCH   2  63
ATOM     63  O   LIG d   1       9.473   3.462  -4.156  0.00  0.00    -0.505 OA
ATOM     64  H   LIG d   1      10.329   3.426  -3.706  0.00  0.00     0.292 HD
ENDBRANCH   2  63
BRANCH   4  65
ATOM     65  C   LIG d   1       9.435   5.939  -3.527  0.00  0.00     0.176 C 
ATOM     66  N   LIG d   1      10.421   6.266  -2.750  0.00  0.00    -0.242 N 
ATOM     67  H   LIG d   1      11.167   6.775  -3.101  0.00  0.00     0.445 HD
ATOM     68  H   LIG d   1       8.549   5.483  -3.113  0.00  0.00     0.138 H 
BRANCH  66  69
ATOM     69  C   LIG d   1      10.404   5.867  -1.340  0.00  0.00     0.168 C 
ATOM     70  H   LIG d   1       9.435   5.431  -1.098  0.00  0.00     0.108 H 
ATOM     71  H   LIG d   1      11.188   5.133  -1.161  0.00  0.00     0.108 H 
BRANCH  69  72
ATOM     72  C   LIG d   1      10.642   7.078  -0.474  0.00  0.00     0.019 A 
ATOM     73  C   LIG d   1      11.230   6.951   0.776  0.00  0.00    -0.034 A 
ATOM     74  C   LIG d   1      11.438   8.084   1.539  0.00  0.00     0.028 A 
ATOM     75  H   LIG d   1      11.524   5.981   1.146  0.00  0.00     0.064 H 
ATOM     76  N   LIG d   1      11.076   9.272   1.096  0.00  0.00    -0.263 NA
ATOM     77  H   LIG d   1      11.900   7.995   2.512  0.00  0.00     0.083 H 
ATOM     78  C   LIG d   1      10.509   9.429  -0.083  0.00  0.00     0.028 A 
ATOM     79  C   LIG d   1      10.275   8.343  -0.906  0.00  0.00    -0.034 A 
ATOM     80  H   LIG d   1      10.226  10.418  -0.412  0.00  0.00     0.083 H 
ATOM     81  H   LIG d   1       9.811   8.478  -1.872  0.00  0.00     0.064 H 
ENDBRANCH  69  72
ENDBRANCH  66  69
ENDBRANCH   4  65
BRANCH   7  82
ATOM     82  C   LIG d   1       9.790   6.994  -9.215  0.00  0.00    -0.017 C 
ATOM     83  H   LIG d   1       9.664   8.064  -9.377  0.00  0.00     0.035 H 
BRANCH  82  84
ATOM     84  C   LIG d   1      11.158   6.555  -9.742  0.00  0.00    -0.059 C 
ATOM     85  H   LIG d   1      11.782   7.433  -9.907  0.00  0.00     0.024 H 
ATOM     86  H   LIG d   1      11.635   5.901  -9.013  0.00  0.00     0.024 H 
ATOM     87  H   LIG d   1      11.029   6.020 -10.683  0.00  0.00     0.024 H 
ENDBRANCH  82  84
BRANCH  82  88
ATOM     88  C   LIG d   1       8.689   6.233  -9.958  0.00  0.00    -0.059 C 
ATOM     89  H   LIG d   1       8.165   6.914 -10.627  0.00  0.00     0.024 H 
ATOM     90  H   LIG d   1       9.134   5.425 -10.538  0.00  0.00     0.024 H 
ATOM     91  H   LIG d   1       7.985   5.818  -9.237  0.00  0.00     0.024 H 
ENDBRANCH  82  88
ENDBRANCH   7  82
BRANCH   5  92
ATOM     92  O   LIG d   1       9.505   8.542  -4.612  0.00  0.00    -0.503 OA
ATOM     93  H   LIG d   1       8.857   9.217  -4.857  0.00  0.00     0.292 HD
ENDBRANCH   5  92
BRANCH   6  94
ATOM     94  O   LIG d   1       9.672   9.000  -7.306  0.00  0.00    -0.503 OA
ATOM     95  H   LIG d   1      10.170   9.608  -6.743  0.00  0.00     0.292 HD
ENDBRANCH   6  94
TORSDOF 21
ENDMDL
MODEL 5
REMARK VINA RESULT:      -6.0      4.353      7.629
REMARK  21 active torsions:
REMARK  status: ('A' for Active; 'I' for Inactive)
REMARK    1  A    between atoms: C_1  and  C_2 
REMARK    2  A    between atoms: C_3  and  C_27 
REMARK    3  A    between atoms: C_4  and  O_26 
REMARK    4  A    between atoms: C_6  and  C_17 
REMARK    5  A    between atoms: C_7  and  O_16 
REMARK    6  A    between atoms: C_8  and  O_15 
REMARK    7  A    between atoms: C_9  and  C_12 
REMARK    8  A    between atoms: C_12  and  C_13 
REMARK    9  A    between atoms: C_12  and  C_14 
REMARK   10  A    between atoms: N_18  and  C_19 
REMARK   11  A    between atoms: C_19  and  C_20 
REMARK   12  A    between atoms: C_28  and  O_52 
REMARK   13  A    between atoms: C_30  and  C_43 
REMARK   14  A    between atoms: C_31  and  O_42 
REMARK   15  A    between atoms: C_32  and  O_41 
REMARK   16  A    between atoms: C_33  and  C_38 
REMARK   17  A    between atoms: C_36  and  C_37 
REMARK   18  A    between atoms: C_38  and  C_39 
REMARK   19  A    between atoms: C_38  and  C_40 
REMARK   20  A    between atoms: N_44  and  C_45 
REMARK   21  A    between atoms: C_45  and  C_46 
ROOT
ATOM      1  C   LIG d   1      11.833   0.679  -5.378  0.00  0.00     0.031 A 
ATOM      2  C   LIG d   1      10.926  -0.356  -5.171  0.00  0.00     0.134 A 
ATOM      3  C   LIG d   1      11.381  -1.569  -4.635  0.00  0.00     0.041 A 
ATOM      4  C   LIG d   1      10.465  -2.685  -4.400  0.00  0.00     0.094 A 
ATOM      5  C   LIG d   1      10.975  -3.867  -3.866  0.00  0.00     0.172 A 
ATOM      6  C   LIG d   1      12.338  -3.975  -3.563  0.00  0.00     0.163 A 
ATOM      7  C   LIG d   1      13.201  -2.944  -3.776  0.00  0.00     0.008 A 
ATOM      8  C   LIG d   1      12.751  -1.725  -4.313  0.00  0.00    -0.006 A 
ATOM      9  C   LIG d   1      13.641  -0.658  -4.534  0.00  0.00    -0.050 A 
ATOM     10  C   LIG d   1      13.187   0.510  -5.059  0.00  0.00    -0.038 A 
ATOM     11  H   LIG d   1      14.688  -0.770  -4.291  0.00  0.00     0.063 H 
ENDROOT
BRANCH   1  12
ATOM     12  C   LIG d   1      11.363   1.966  -5.943  0.00  0.00     0.031 A 
ATOM     13  C   LIG d   1      11.394   2.170  -7.332  0.00  0.00    -0.038 A 
ATOM     14  C   LIG d   1      10.974   3.343  -7.874  0.00  0.00    -0.050 A 
ATOM     15  C   LIG d   1      10.489   4.371  -7.044  0.00  0.00    -0.006 A 
ATOM     16  H   LIG d   1      11.008   3.485  -8.944  0.00  0.00     0.063 H 
ATOM     17  C   LIG d   1      10.454   4.178  -5.642  0.00  0.00     0.037 A 
ATOM     18  C   LIG d   1      10.046   5.589  -7.587  0.00  0.00     0.008 A 
ATOM     19  C   LIG d   1      10.896   2.964  -5.096  0.00  0.00     0.133 A 
ATOM     20  C   LIG d   1       9.954   5.256  -4.789  0.00  0.00     0.049 A 
ATOM     21  C   LIG d   1       9.529   6.440  -5.389  0.00  0.00     0.168 A 
ATOM     22  C   LIG d   1       9.583   6.586  -6.781  0.00  0.00     0.163 A 
BRANCH  13  23
ATOM     23  C   LIG d   1      11.905   1.075  -8.233  0.00  0.00    -0.039 C 
ATOM     24  H   LIG d   1      12.919   0.807  -7.939  0.00  0.00     0.028 H 
ATOM     25  H   LIG d   1      11.258   0.202  -8.145  0.00  0.00     0.028 H 
ATOM     26  H   LIG d   1      11.906   1.426  -9.265  0.00  0.00     0.028 H 
ENDBRANCH  13  23
BRANCH  19  27
ATOM     27  O   LIG d   1      10.866   2.766  -3.752  0.00  0.00    -0.505 OA
ATOM     28  H   LIG d   1      10.511   3.514  -3.252  0.00  0.00     0.292 HD
ENDBRANCH  19  27
BRANCH  20  29
ATOM     29  C   LIG d   1       9.901   5.095  -3.330  0.00  0.00     0.034 C 
ATOM     30  N   LIG d   1      10.690   5.789  -2.572  0.00  0.00    -0.286 NA
ATOM     31  H   LIG d   1       9.203   4.398  -2.888  0.00  0.00     0.083 H 
BRANCH  30  32
ATOM     32  C   LIG d   1      10.637   5.627  -1.116  0.00  0.00     0.065 C 
ATOM     33  H   LIG d   1       9.709   5.126  -0.840  0.00  0.00     0.056 H 
ATOM     34  H   LIG d   1      11.485   5.028  -0.786  0.00  0.00     0.056 H 
BRANCH  32  35
ATOM     35  C   LIG d   1      10.693   6.982  -0.458  0.00  0.00    -0.023 A 
ATOM     36  C   LIG d   1      11.426   7.178   0.702  0.00  0.00    -0.039 A 
ATOM     37  C   LIG d   1      11.458   8.436   1.274  0.00  0.00     0.028 A 
ATOM     38  H   LIG d   1      11.967   6.359   1.152  0.00  0.00     0.064 H 
ATOM     39  N   LIG d   1      10.795   9.440   0.733  0.00  0.00    -0.263 NA
ATOM     40  H   LIG d   1      12.031   8.598   2.175  0.00  0.00     0.083 H 
ATOM     41  C   LIG d   1      10.083   9.289  -0.366  0.00  0.00     0.028 A 
ATOM     42  C   LIG d   1      10.008   8.060  -0.997  0.00  0.00    -0.039 A 
ATOM     43  H   LIG d   1       9.553  10.134  -0.780  0.00  0.00     0.083 H 
ATOM     44  H   LIG d   1       9.425   7.943  -1.897  0.00  0.00     0.064 H 
ENDBRANCH  32  35
ENDBRANCH  30  32
ENDBRANCH  20  29
BRANCH  21  45
ATOM     45  O   LIG d   1       9.061   7.456  -4.622  0.00  0.00    -0.503 OA
ATOM     46  H   LIG d   1       8.842   7.197  -3.717  0.00  0.00     0.292 HD
ENDBRANCH  21  45
BRANCH  22  47
ATOM     47  O   LIG d   1       9.162   7.750  -7.342  0.00  0.00    -0.503 OA
ATOM     48  H   LIG d   1       9.655   8.528  -7.048  0.00  0.00     0.292 HD
ENDBRANCH  22  47
BRANCH  18  49
ATOM     49  C   LIG d   1      10.083   5.796  -9.079  0.00  0.00    -0.017 C 
ATOM     50  H   LIG d   1      10.509   4.915  -9.557  0.00  0.00     0.035 H 
BRANCH  49  51
ATOM     51  C   LIG d   1       8.660   6.021  -9.598  0.00  0.00    -0.059 C 
ATOM     52  H   LIG d   1       8.409   7.079  -9.525  0.00  0.00     0.024 H 
ATOM     53  H   LIG d   1       8.598   5.703 -10.638  0.00  0.00     0.024 H 
ATOM     54  H   LIG d   1       7.960   5.439  -8.998  0.00  0.00     0.024 H 
ENDBRANCH  49  51
BRANCH  49  55
ATOM     55  C   LIG d   1      10.943   7.018  -9.404  0.00  0.00    -0.059 C 
ATOM     56  H   LIG d   1      10.300   7.848  -9.696  0.00  0.00     0.024 H 
ATOM     57  H   LIG d   1      11.522   7.300  -8.525  0.00  0.00     0.024 H 
ATOM     58  H   LIG d   1      11.621   6.779 -10.224  0.00  0.00     0.024 H 
ENDBRANCH  49  55
ENDBRANCH  18  49
ENDBRANCH   1  12
BRANCH  10  59
ATOM     59  C   LIG d   1      14.154   1.642  -5.297  0.00  0.00    -0.039 C 
ATOM     60  H   LIG d   1      14.997   1.550  -4.613  0.00  0.00     0.028 H 
ATOM     61  H   LIG d   1      14.514   1.603  -6.325  0.00  0.00     0.028 H 
ATOM     62  H   LIG d   1      13.649   2.593  -5.124  0.00  0.00     0.028 H 
ENDBRANCH  10  59
BRANCH   2  63
ATOM     63  O   LIG d   1       9.615  -0.193  -5.483  0.00  0.00    -0.505 OA
ATOM     64  H   LIG d   1       9.233  -0.933  -5.974  0.00  0.00     0.292 HD
ENDBRANCH   2  63
BRANCH   4  65
ATOM     65  C   LIG d   1       9.036  -2.563  -4.721  0.00  0.00     0.176 C 
ATOM     66  N   LIG d   1       8.168  -2.416  -3.768  0.00  0.00    -0.242 N 
ATOM     67  H   LIG d   1       8.468  -2.275  -2.857  0.00  0.00     0.445 HD
ATOM     68  H   LIG d   1       8.708  -2.595  -5.749  0.00  0.00     0.138 H 
BRANCH  66  69
ATOM     69  C   LIG d   1       6.735  -2.463  -4.069  0.00  0.00     0.168 C 
ATOM     70  H   LIG d   1       6.586  -2.358  -5.144  0.00  0.00     0.108 H 
ATOM     71  H   LIG d   1       6.324  -3.416  -3.737  0.00  0.00     0.108 H 
BRANCH  69  72
ATOM     72  C   LIG d   1       6.035  -1.337  -3.352  0.00  0.00     0.019 A 
ATOM     73  C   LIG d   1       4.969  -1.591  -2.503  0.00  0.00    -0.034 A 
ATOM     74  C   LIG d   1       4.356  -0.534  -1.857  0.00  0.00     0.028 A 
ATOM     75  H   LIG d   1       4.624  -2.602  -2.344  0.00  0.00     0.064 H 
ATOM     76  N   LIG d   1       4.767   0.704  -2.050  0.00  0.00    -0.263 NA
ATOM     77  H   LIG d   1       3.527  -0.724  -1.190  0.00  0.00     0.083 H 
ATOM     78  C   LIG d   1       5.773   0.983  -2.854  0.00  0.00     0.028 A 
ATOM     79  C   LIG d   1       6.439  -0.022  -3.529  0.00  0.00    -0.034 A 
ATOM     80  H   LIG d   1       6.082   2.010  -2.986  0.00  0.00     0.083 H 
ATOM     81  H   LIG d   1       7.264   0.213  -4.186  0.00  0.00     0.064 H 
ENDBRANCH  69  72
ENDBRANCH  66  69
ENDBRANCH   4  65
BRANCH   7  82
ATOM     82  C   LIG d   1      14.659  -3.110  -3.431  0.00  0.00    -0.017 C 
ATOM     83  H   LIG d   1      14.810  -4.074  -2.944  0.00  0.00     0.035 H 
BRANCH  82  84
ATOM     84  C   LIG d   1      15.497  -3.050  -4.711  0.00  0.00    -0.059 C 
ATOM     85  H   LIG d   1      16.484  -2.651  -4.480  0.00  0.00     0.024 H 
ATOM     86  H   LIG d   1      15.598  -4.053  -5.126  0.00  0.00     0.024 H 
ATOM     87  H   LIG d   1      15.004  -2.403  -5.436  0.00  0.00     0.024 H 
ENDBRANCH  82  84
BRANCH  82  88
ATOM     88  C   LIG d   1      15.091  -1.987  -2.486  0.00  0.00    -0.059 C 
ATOM     89  H   LIG d   1      16.158  -2.073  -2.283  0.00  0.00     0.024 H 
ATOM     90  H   LIG d   1      14.886  -1.022  -2.950  0.00  0.00     0.024 H 
ATOM     91  H   LIG d   1      14.535  -2.066  -1.551  0.00  0.00     0.024 H 
ENDBRANCH  82  88
ENDBRANCH   7  82
BRANCH   5  92
ATOM     92  O   LIG d   1      10.147  -4.917  -3.638  0.00  0.00    -0.503 OA
ATOM     93  H   LIG d   1       9.921  -5.045  -2.706  0.00  0.00     0.292 HD
ENDBRANCH   5  92
BRANCH   6  94
ATOM     94  O   LIG d   1      12.810  -5.138  -3.041  0.00  0.00    -0.503 OA
ATOM     95  H   LIG d   1      13.735  -5.320  -3.259  0.00  0.00     0.292 HD
ENDBRANCH   6  94
TORSDOF 21
ENDMDL
MODEL 6
REMARK VINA RESULT:      -6.0      2.859      5.307
REMARK  21 active torsions:
REMARK  status: ('A' for Active; 'I' for Inactive)
REMARK    1  A    between atoms: C_1  and  C_2 
REMARK    2  A    between atoms: C_3  and  C_27 
REMARK    3  A    between atoms: C_4  and  O_26 
REMARK    4  A    between atoms: C_6  and  C_17 
REMARK    5  A    between atoms: C_7  and  O_16 
REMARK    6  A    between atoms: C_8  and  O_15 
REMARK    7  A    between atoms: C_9  and  C_12 
REMARK    8  A    between atoms: C_12  and  C_13 
REMARK    9  A    between atoms: C_12  and  C_14 
REMARK   10  A    between atoms: N_18  and  C_19 
REMARK   11  A    between atoms: C_19  and  C_20 
REMARK   12  A    between atoms: C_28  and  O_52 
REMARK   13  A    between atoms: C_30  and  C_43 
REMARK   14  A    between atoms: C_31  and  O_42 
REMARK   15  A    between atoms: C_32  and  O_41 
REMARK   16  A    between atoms: C_33  and  C_38 
REMARK   17  A    between atoms: C_36  and  C_37 
REMARK   18  A    between atoms: C_38  and  C_39 
REMARK   19  A    between atoms: C_38  and  C_40 
REMARK   20  A    between atoms: N_44  and  C_45 
REMARK   21  A    between atoms: C_45  and  C_46 
ROOT
ATOM      1  C   LIG d   1       8.031  -1.536  -6.952  0.00  0.00     0.031 A 
ATOM      2  C   LIG d   1       7.018  -2.162  -6.233  0.00  0.00     0.134 A 
ATOM      3  C   LIG d   1       6.120  -3.005  -6.903  0.00  0.00     0.041 A 
ATOM      4  C   LIG d   1       5.040  -3.685  -6.188  0.00  0.00     0.094 A 
ATOM      5  C   LIG d   1       4.179  -4.510  -6.908  0.00  0.00     0.172 A 
ATOM      6  C   LIG d   1       4.351  -4.680  -8.288  0.00  0.00     0.163 A 
ATOM      7  C   LIG d   1       5.353  -4.053  -8.965  0.00  0.00     0.008 A 
ATOM      8  C   LIG d   1       6.256  -3.207  -8.298  0.00  0.00    -0.006 A 
ATOM      9  C   LIG d   1       7.291  -2.559  -8.996  0.00  0.00    -0.050 A 
ATOM     10  C   LIG d   1       8.151  -1.741  -8.333  0.00  0.00    -0.038 A 
ATOM     11  H   LIG d   1       7.400  -2.708 -10.060  0.00  0.00     0.063 H 
ENDROOT
BRANCH   1  12
ATOM     12  C   LIG d   1       8.985  -0.643  -6.254  0.00  0.00     0.031 A 
ATOM     13  C   LIG d   1       8.695   0.724  -6.125  0.00  0.00    -0.038 A 
ATOM     14  C   LIG d   1       9.557   1.564  -5.494  0.00  0.00    -0.050 A 
ATOM     15  C   LIG d   1      10.754   1.067  -4.948  0.00  0.00    -0.006 A 
ATOM     16  H   LIG d   1       9.320   2.614  -5.407  0.00  0.00     0.063 H 
ATOM     17  C   LIG d   1      11.059  -0.310  -5.071  0.00  0.00     0.037 A 
ATOM     18  C   LIG d   1      11.656   1.919  -4.287  0.00  0.00     0.008 A 
ATOM     19  C   LIG d   1      10.163  -1.165  -5.730  0.00  0.00     0.133 A 
ATOM     20  C   LIG d   1      12.311  -0.814  -4.505  0.00  0.00     0.049 A 
ATOM     21  C   LIG d   1      13.162   0.083  -3.862  0.00  0.00     0.168 A 
ATOM     22  C   LIG d   1      12.818   1.437  -3.764  0.00  0.00     0.163 A 
BRANCH  13  23
ATOM     23  C   LIG d   1       7.413   1.269  -6.699  0.00  0.00    -0.039 C 
ATOM     24  H   LIG d   1       6.567   0.730  -6.275  0.00  0.00     0.028 H 
ATOM     25  H   LIG d   1       7.328   2.328  -6.457  0.00  0.00     0.028 H 
ATOM     26  H   LIG d   1       7.418   1.142  -7.782  0.00  0.00     0.028 H 
ENDBRANCH  13  23
BRANCH  19  27
ATOM     27  O   LIG d   1      10.444  -2.488  -5.855  0.00  0.00    -0.505 OA
ATOM     28  H   LIG d   1      10.967  -2.707  -6.638  0.00  0.00     0.292 HD
ENDBRANCH  19  27
BRANCH  20  29
ATOM     29  C   LIG d   1      12.664  -2.237  -4.612  0.00  0.00     0.034 C 
ATOM     30  N   LIG d   1      12.470  -3.029  -3.605  0.00  0.00    -0.286 NA
ATOM     31  H   LIG d   1      13.083  -2.622  -5.530  0.00  0.00     0.083 H 
BRANCH  30  32
ATOM     32  C   LIG d   1      12.823  -4.448  -3.712  0.00  0.00     0.065 C 
ATOM     33  H   LIG d   1      12.959  -4.710  -4.761  0.00  0.00     0.056 H 
ATOM     34  H   LIG d   1      13.748  -4.634  -3.167  0.00  0.00     0.056 H 
BRANCH  32  35
ATOM     35  C   LIG d   1      11.717  -5.286  -3.124  0.00  0.00    -0.023 A 
ATOM     36  C   LIG d   1      10.539  -4.700  -2.687  0.00  0.00    -0.039 A 
ATOM     37  C   LIG d   1       9.543  -5.501  -2.159  0.00  0.00     0.028 A 
ATOM     38  H   LIG d   1      10.399  -3.631  -2.760  0.00  0.00     0.064 H 
ATOM     39  N   LIG d   1       9.709  -6.805  -2.060  0.00  0.00    -0.263 NA
ATOM     40  H   LIG d   1       8.621  -5.052  -1.821  0.00  0.00     0.083 H 
ATOM     41  C   LIG d   1      10.817  -7.396  -2.461  0.00  0.00     0.028 A 
ATOM     42  C   LIG d   1      11.855  -6.660  -3.004  0.00  0.00    -0.039 A 
ATOM     43  H   LIG d   1      10.917  -8.467  -2.364  0.00  0.00     0.083 H 
ATOM     44  H   LIG d   1      12.759  -7.149  -3.332  0.00  0.00     0.064 H 
ENDBRANCH  32  35
ENDBRANCH  30  32
ENDBRANCH  20  29
BRANCH  21  45
ATOM     45  O   LIG d   1      14.329  -0.358  -3.328  0.00  0.00    -0.503 OA
ATOM     46  H   LIG d   1      15.105  -0.170  -3.871  0.00  0.00     0.292 HD
ENDBRANCH  21  45
BRANCH  22  47
ATOM     47  O   LIG d   1      13.666   2.291  -3.131  0.00  0.00    -0.503 OA
ATOM     48  H   LIG d   1      14.433   1.860  -2.733  0.00  0.00     0.292 HD
ENDBRANCH  22  47
BRANCH  18  49
ATOM     49  C   LIG d   1      11.332   3.385  -4.154  0.00  0.00    -0.017 C 
ATOM     50  H   LIG d   1      10.458   3.620  -4.759  0.00  0.00     0.035 H 
BRANCH  49  51
ATOM     51  C   LIG d   1      11.042   3.712  -2.687  0.00  0.00    -0.059 C 
ATOM     52  H   LIG d   1      11.827   3.293  -2.059  0.00  0.00     0.024 H 
ATOM     53  H   LIG d   1      11.008   4.793  -2.556  0.00  0.00     0.024 H 
ATOM     54  H   LIG d   1      10.081   3.281  -2.403  0.00  0.00     0.024 H 
ENDBRANCH  49  51
BRANCH  49  55
ATOM     55  C   LIG d   1      12.523   4.216  -4.635  0.00  0.00    -0.059 C 
ATOM     56  H   LIG d   1      13.302   3.552  -5.010  0.00  0.00     0.024 H 
ATOM     57  H   LIG d   1      12.202   4.885  -5.433  0.00  0.00     0.024 H 
ATOM     58  H   LIG d   1      12.917   4.803  -3.805  0.00  0.00     0.024 H 
ENDBRANCH  49  55
ENDBRANCH  18  49
ENDBRANCH   1  12
BRANCH  10  59
ATOM     59  C   LIG d   1       9.251  -1.048  -9.095  0.00  0.00    -0.039 C 
ATOM     60  H   LIG d   1      10.105  -0.889  -8.437  0.00  0.00     0.028 H 
ATOM     61  H   LIG d   1       9.554  -1.666  -9.940  0.00  0.00     0.028 H 
ATOM     62  H   LIG d   1       8.890  -0.086  -9.460  0.00  0.00     0.028 H 
ENDBRANCH  10  59
BRANCH   2  63
ATOM     63  O   LIG d   1       6.901  -1.961  -4.895  0.00  0.00    -0.505 OA
ATOM     64  H   LIG d   1       7.262  -1.117  -4.591  0.00  0.00     0.292 HD
ENDBRANCH   2  63
BRANCH   4  65
ATOM     65  C   LIG d   1       4.867  -3.501  -4.740  0.00  0.00     0.176 C 
ATOM     66  N   LIG d   1       3.920  -2.736  -4.293  0.00  0.00    -0.242 N 
ATOM     67  H   LIG d   1       3.259  -2.376  -4.903  0.00  0.00     0.445 HD
ATOM     68  H   LIG d   1       5.529  -4.003  -4.050  0.00  0.00     0.138 H 
BRANCH  66  69
ATOM     69  C   LIG d   1       3.850  -2.418  -2.864  0.00  0.00     0.168 C 
ATOM     70  H   LIG d   1       2.926  -2.818  -2.448  0.00  0.00     0.108 H 
ATOM     71  H   LIG d   1       4.701  -2.863  -2.350  0.00  0.00     0.108 H 
BRANCH  69  72
ATOM     72  C   LIG d   1       3.879  -0.922  -2.681  0.00  0.00     0.019 A 
ATOM     73  C   LIG d   1       3.121  -0.094  -3.495  0.00  0.00    -0.034 A 
ATOM     74  C   LIG d   1       3.168   1.273  -3.293  0.00  0.00     0.028 A 
ATOM     75  H   LIG d   1       2.499  -0.510  -4.272  0.00  0.00     0.064 H 
ATOM     76  N   LIG d   1       3.930   1.790  -2.349  0.00  0.00    -0.263 NA
ATOM     77  H   LIG d   1       2.576   1.926  -3.919  0.00  0.00     0.083 H 
ATOM     78  C   LIG d   1       4.668   1.033  -1.562  0.00  0.00     0.028 A 
ATOM     79  C   LIG d   1       4.668  -0.342  -1.699  0.00  0.00    -0.034 A 
ATOM     80  H   LIG d   1       5.280   1.493  -0.800  0.00  0.00     0.083 H 
ATOM     81  H   LIG d   1       5.274  -0.957  -1.051  0.00  0.00     0.064 H 
ENDBRANCH  69  72
ENDBRANCH  66  69
ENDBRANCH   4  65
BRANCH   7  82
ATOM     82  C   LIG d   1       5.496  -4.271 -10.450  0.00  0.00    -0.017 C 
ATOM     83  H   LIG d   1       6.350  -3.703 -10.820  0.00  0.00     0.035 H 
BRANCH  82  84
ATOM     84  C   LIG d   1       5.713  -5.759 -10.729  0.00  0.00    -0.059 C 
ATOM     85  H   LIG d   1       6.754  -6.017 -10.537  0.00  0.00     0.024 H 
ATOM     86  H   LIG d   1       5.066  -6.349 -10.079  0.00  0.00     0.024 H 
ATOM     87  H   LIG d   1       5.473  -5.972 -11.771  0.00  0.00     0.024 H 
ENDBRANCH  82  84
BRANCH  82  88
ATOM     88  C   LIG d   1       4.225  -3.799 -11.159  0.00  0.00    -0.059 C 
ATOM     89  H   LIG d   1       4.466  -3.504 -12.180  0.00  0.00     0.024 H 
ATOM     90  H   LIG d   1       3.496  -4.610 -11.177  0.00  0.00     0.024 H 
ATOM     91  H   LIG d   1       3.806  -2.946 -10.624  0.00  0.00     0.024 H 
ENDBRANCH  82  88
ENDBRANCH   7  82
BRANCH   5  92
ATOM     92  O   LIG d   1       3.168  -5.152  -6.270  0.00  0.00    -0.503 OA
ATOM     93  H   LIG d   1       3.450  -5.658  -5.495  0.00  0.00     0.292 HD
ENDBRANCH   5  92
BRANCH   6  94
ATOM     94  O   LIG d   1       3.498  -5.492  -8.967  0.00  0.00    -0.503 OA
ATOM     95  H   LIG d   1       3.333  -5.214  -9.879  0.00  0.00     0.292 HD
ENDBRANCH   6  94
TORSDOF 21
ENDMDL
MODEL 7
REMARK VINA RESULT:      -5.8      4.276      9.723
REMARK  21 active torsions:
REMARK  status: ('A' for Active; 'I' for Inactive)
REMARK    1  A    between atoms: C_1  and  C_2 
REMARK    2  A    between atoms: C_3  and  C_27 
REMARK    3  A    between atoms: C_4  and  O_26 
REMARK    4  A    between atoms: C_6  and  C_17 
REMARK    5  A    between atoms: C_7  and  O_16 
REMARK    6  A    between atoms: C_8  and  O_15 
REMARK    7  A    between atoms: C_9  and  C_12 
REMARK    8  A    between atoms: C_12  and  C_13 
REMARK    9  A    between atoms: C_12  and  C_14 
REMARK   10  A    between atoms: N_18  and  C_19 
REMARK   11  A    between atoms: C_19  and  C_20 
REMARK   12  A    between atoms: C_28  and  O_52 
REMARK   13  A    between atoms: C_30  and  C_43 
REMARK   14  A    between atoms: C_31  and  O_42 
REMARK   15  A    between atoms: C_32  and  O_41 
REMARK   16  A    between atoms: C_33  and  C_38 
REMARK   17  A    between atoms: C_36  and  C_37 
REMARK   18  A    between atoms: C_38  and  C_39 
REMARK   19  A    between atoms: C_38  and  C_40 
REMARK   20  A    between atoms: N_44  and  C_45 
REMARK   21  A    between atoms: C_45  and  C_46 
ROOT
ATOM      1  C   LIG d   1      11.201   1.785  -6.039  0.00  0.00     0.031 A 
ATOM      2  C   LIG d   1      10.773   2.810  -5.201  0.00  0.00     0.134 A 
ATOM      3  C   LIG d   1      10.369   4.030  -5.760  0.00  0.00     0.041 A 
ATOM      4  C   LIG d   1       9.912   5.136  -4.919  0.00  0.00     0.094 A 
ATOM      5  C   LIG d   1       9.524   6.325  -5.532  0.00  0.00     0.172 A 
ATOM      6  C   LIG d   1       9.573   6.451  -6.926  0.00  0.00     0.163 A 
ATOM      7  C   LIG d   1       9.996   5.429  -7.721  0.00  0.00     0.008 A 
ATOM      8  C   LIG d   1      10.402   4.203  -7.165  0.00  0.00    -0.006 A 
ATOM      9  C   LIG d   1      10.840   3.147  -7.985  0.00  0.00    -0.050 A 
ATOM     10  C   LIG d   1      11.233   1.971  -7.428  0.00  0.00    -0.038 A 
ATOM     11  H   LIG d   1      10.867   3.272  -9.057  0.00  0.00     0.063 H 
ENDROOT
BRANCH   1  12
ATOM     12  C   LIG d   1      11.630   0.491  -5.458  0.00  0.00     0.031 A 
ATOM     13  C   LIG d   1      12.982   0.280  -5.149  0.00  0.00    -0.038 A 
ATOM     14  C   LIG d   1      13.402  -0.900  -4.621  0.00  0.00    -0.050 A 
ATOM     15  C   LIG d   1      12.475  -1.928  -4.366  0.00  0.00    -0.006 A 
ATOM     16  H   LIG d   1      14.447  -1.048  -4.392  0.00  0.00     0.063 H 
ATOM     17  C   LIG d   1      11.108  -1.728  -4.674  0.00  0.00     0.037 A 
ATOM     18  C   LIG d   1      12.888  -3.154  -3.816  0.00  0.00     0.008 A 
ATOM     19  C   LIG d   1      10.691  -0.507  -5.224  0.00  0.00     0.133 A 
ATOM     20  C   LIG d   1      10.155  -2.807  -4.412  0.00  0.00     0.049 A 
ATOM     21  C   LIG d   1      10.629  -3.998  -3.865  0.00  0.00     0.168 A 
ATOM     22  C   LIG d   1      11.991  -4.150  -3.576  0.00  0.00     0.163 A 
BRANCH  13  23
ATOM     23  C   LIG d   1      13.985   1.374  -5.411  0.00  0.00    -0.039 C 
ATOM     24  H   LIG d   1      14.185   1.435  -6.480  0.00  0.00     0.028 H 
ATOM     25  H   LIG d   1      13.583   2.325  -5.061  0.00  0.00     0.028 H 
ATOM     26  H   LIG d   1      14.910   1.153  -4.880  0.00  0.00     0.028 H 
ENDBRANCH  13  23
BRANCH  19  27
ATOM     27  O   LIG d   1       9.382  -0.303  -5.524  0.00  0.00    -0.505 OA
ATOM     28  H   LIG d   1       9.020  -0.936  -6.159  0.00  0.00     0.292 HD
ENDBRANCH  19  27
BRANCH  20  29
ATOM     29  C   LIG d   1       8.728  -2.638  -4.717  0.00  0.00     0.034 C 
ATOM     30  N   LIG d   1       7.863  -2.565  -3.754  0.00  0.00    -0.286 NA
ATOM     31  H   LIG d   1       8.399  -2.575  -5.744  0.00  0.00     0.083 H 
BRANCH  30  32
ATOM     32  C   LIG d   1       6.440  -2.397  -4.059  0.00  0.00     0.065 C 
ATOM     33  H   LIG d   1       6.311  -2.275  -5.135  0.00  0.00     0.056 H 
ATOM     34  H   LIG d   1       5.891  -3.277  -3.725  0.00  0.00     0.056 H 
BRANCH  32  35
ATOM     35  C   LIG d   1       5.914  -1.177  -3.348  0.00  0.00    -0.023 A 
ATOM     36  C   LIG d   1       4.905  -1.285  -2.404  0.00  0.00    -0.039 A 
ATOM     37  C   LIG d   1       4.452  -0.145  -1.767  0.00  0.00     0.028 A 
ATOM     38  H   LIG d   1       4.479  -2.249  -2.167  0.00  0.00     0.064 H 
ATOM     39  N   LIG d   1       4.963   1.036  -2.056  0.00  0.00    -0.263 NA
ATOM     40  H   LIG d   1       3.669  -0.222  -1.027  0.00  0.00     0.083 H 
ATOM     41  C   LIG d   1       5.920   1.178  -2.952  0.00  0.00     0.028 A 
ATOM     42  C   LIG d   1       6.426   0.081  -3.625  0.00  0.00    -0.039 A 
ATOM     43  H   LIG d   1       6.314   2.162  -3.162  0.00  0.00     0.083 H 
ATOM     44  H   LIG d   1       7.211   0.203  -4.357  0.00  0.00     0.064 H 
ENDBRANCH  32  35
ENDBRANCH  30  32
ENDBRANCH  20  29
BRANCH  21  45
ATOM     45  O   LIG d   1       9.767  -5.014  -3.610  0.00  0.00    -0.503 OA
ATOM     46  H   LIG d   1       9.443  -5.036  -2.700  0.00  0.00     0.292 HD
ENDBRANCH  21  45
BRANCH  22  47
ATOM     47  O   LIG d   1      12.428  -5.322  -3.042  0.00  0.00    -0.503 OA
ATOM     48  H   LIG d   1      13.219  -5.677  -3.469  0.00  0.00     0.292 HD
ENDBRANCH  22  47
BRANCH  18  49
ATOM     49  C   LIG d   1      14.344  -3.368  -3.487  0.00  0.00    -0.017 C 
ATOM     50  H   LIG d   1      14.456  -4.296  -2.928  0.00  0.00     0.035 H 
BRANCH  49  51
ATOM     51  C   LIG d   1      15.152  -3.451  -4.784  0.00  0.00    -0.059 C 
ATOM     52  H   LIG d   1      15.911  -4.228  -4.691  0.00  0.00     0.024 H 
ATOM     53  H   LIG d   1      14.486  -3.690  -5.612  0.00  0.00     0.024 H 
ATOM     54  H   LIG d   1      15.636  -2.492  -4.971  0.00  0.00     0.024 H 
ENDBRANCH  49  51
BRANCH  49  55
ATOM     55  C   LIG d   1      14.854  -2.199  -2.642  0.00  0.00    -0.059 C 
ATOM     56  H   LIG d   1      14.382  -2.227  -1.660  0.00  0.00     0.024 H 
ATOM     57  H   LIG d   1      15.935  -2.276  -2.529  0.00  0.00     0.024 H 
ATOM     58  H   LIG d   1      14.606  -1.258  -3.136  0.00  0.00     0.024 H 
ENDBRANCH  49  55
ENDBRANCH  18  49
ENDBRANCH   1  12
BRANCH  10  59
ATOM     59  C   LIG d   1      11.706   0.850  -8.318  0.00  0.00    -0.039 C 
ATOM     60  H   LIG d   1      10.845   0.303  -8.702  0.00  0.00     0.028 H 
ATOM     61  H   LIG d   1      12.276   1.262  -9.150  0.00  0.00     0.028 H 
ATOM     62  H   LIG d   1      12.339   0.173  -7.744  0.00  0.00     0.028 H 
ENDBRANCH  10  59
BRANCH   2  63
ATOM     63  O   LIG d   1      10.746   2.630  -3.855  0.00  0.00    -0.505 OA
ATOM     64  H   LIG d   1      11.533   2.195  -3.500  0.00  0.00     0.292 HD
ENDBRANCH   2  63
BRANCH   4  65
ATOM     65  C   LIG d   1       9.863   4.995  -3.457  0.00  0.00     0.176 C 
ATOM     66  N   LIG d   1      10.602   5.754  -2.708  0.00  0.00    -0.242 N 
ATOM     67  H   LIG d   1      11.100   6.486  -3.101  0.00  0.00     0.445 HD
ATOM     68  H   LIG d   1       9.213   4.260  -3.007  0.00  0.00     0.138 H 
BRANCH  66  69
ATOM     69  C   LIG d   1      10.682   5.504  -1.266  0.00  0.00     0.168 C 
ATOM     70  H   LIG d   1       9.803   4.945  -0.945  0.00  0.00     0.108 H 
ATOM     71  H   LIG d   1      11.579   4.925  -1.046  0.00  0.00     0.108 H 
BRANCH  69  72
ATOM     72  C   LIG d   1      10.739   6.818  -0.531  0.00  0.00     0.019 A 
ATOM     73  C   LIG d   1      10.139   7.952  -1.059  0.00  0.00    -0.034 A 
ATOM     74  C   LIG d   1      10.207   9.139  -0.353  0.00  0.00     0.028 A 
ATOM     75  H   LIG d   1       9.622   7.908  -2.005  0.00  0.00     0.064 H 
ATOM     76  N   LIG d   1      10.841   9.202   0.801  0.00  0.00    -0.263 NA
ATOM     77  H   LIG d   1       9.737  10.026  -0.754  0.00  0.00     0.083 H 
ATOM     78  C   LIG d   1      11.427   8.147   1.329  0.00  0.00     0.028 A 
ATOM     79  C   LIG d   1      11.396   6.924   0.685  0.00  0.00    -0.034 A 
ATOM     80  H   LIG d   1      11.938   8.238   2.277  0.00  0.00     0.083 H 
ATOM     81  H   LIG d   1      11.878   6.062   1.123  0.00  0.00     0.064 H 
ENDBRANCH  69  72
ENDBRANCH  66  69
ENDBRANCH   4  65
BRANCH   7  82
ATOM     82  C   LIG d   1      10.028   5.615  -9.216  0.00  0.00    -0.017 C 
ATOM     83  H   LIG d   1      10.409   4.708  -9.687  0.00  0.00     0.035 H 
BRANCH  82  84
ATOM     84  C   LIG d   1       8.614   5.900  -9.726  0.00  0.00    -0.059 C 
ATOM     85  H   LIG d   1       8.521   6.959  -9.967  0.00  0.00     0.024 H 
ATOM     86  H   LIG d   1       8.424   5.306 -10.621  0.00  0.00     0.024 H 
ATOM     87  H   LIG d   1       7.891   5.637  -8.955  0.00  0.00     0.024 H 
ENDBRANCH  82  84
BRANCH  82  88
ATOM     88  C   LIG d   1      10.942   6.792  -9.564  0.00  0.00    -0.059 C 
ATOM     89  H   LIG d   1      11.540   7.058  -8.692  0.00  0.00     0.024 H 
ATOM     90  H   LIG d   1      11.603   6.510 -10.384  0.00  0.00     0.024 H 
ATOM     91  H   LIG d   1      10.336   7.647  -9.863  0.00  0.00     0.024 H 
ENDBRANCH  82  88
ENDBRANCH   7  82
BRANCH   5  92
ATOM     92  O   LIG d   1       9.095   7.367  -4.775  0.00  0.00    -0.503 OA
ATOM     93  H   LIG d   1       8.587   8.027  -5.266  0.00  0.00     0.292 HD
ENDBRANCH   5  92
BRANCH   6  94
ATOM     94  O   LIG d   1       9.186   7.622  -7.499  0.00  0.00    -0.503 OA
ATOM     95  H   LIG d   1       9.032   7.560  -8.452  0.00  0.00     0.292 HD
ENDBRANCH   6  94
TORSDOF 21
ENDMDL
MODEL 8
REMARK VINA RESULT:      -5.8      4.504     10.439
REMARK  21 active torsions:
REMARK  status: ('A' for Active; 'I' for Inactive)
REMARK    1  A    between atoms: C_1  and  C_2 
REMARK    2  A    between atoms: C_3  and  C_27 
REMARK    3  A    between atoms: C_4  and  O_26 
REMARK    4  A    between atoms: C_6  and  C_17 
REMARK    5  A    between atoms: C_7  and  O_16 
REMARK    6  A    between atoms: C_8  and  O_15 
REMARK    7  A    between atoms: C_9  and  C_12 
REMARK    8  A    between atoms: C_12  and  C_13 
REMARK    9  A    between atoms: C_12  and  C_14 
REMARK   10  A    between atoms: N_18  and  C_19 
REMARK   11  A    between atoms: C_19  and  C_20 
REMARK   12  A    between atoms: C_28  and  O_52 
REMARK   13  A    between atoms: C_30  and  C_43 
REMARK   14  A    between atoms: C_31  and  O_42 
REMARK   15  A    between atoms: C_32  and  O_41 
REMARK   16  A    between atoms: C_33  and  C_38 
REMARK   17  A    between atoms: C_36  and  C_37 
REMARK   18  A    between atoms: C_38  and  C_39 
REMARK   19  A    between atoms: C_38  and  C_40 
REMARK   20  A    between atoms: N_44  and  C_45 
REMARK   21  A    between atoms: C_45  and  C_46 
ROOT
ATOM      1  C   LIG d   1      10.589   5.406  -3.806  0.00  0.00     0.031 A 
ATOM      2  C   LIG d   1      10.211   6.349  -4.756  0.00  0.00     0.134 A 
ATOM      3  C   LIG d   1      10.062   7.689  -4.373  0.00  0.00     0.041 A 
ATOM      4  C   LIG d   1       9.666   8.715  -5.337  0.00  0.00     0.094 A 
ATOM      5  C   LIG d   1       9.534  10.030  -4.897  0.00  0.00     0.172 A 
ATOM      6  C   LIG d   1       9.778  10.354  -3.557  0.00  0.00     0.163 A 
ATOM      7  C   LIG d   1      10.147   9.410  -2.648  0.00  0.00     0.008 A 
ATOM      8  C   LIG d   1      10.298   8.064  -3.028  0.00  0.00    -0.006 A 
ATOM      9  C   LIG d   1      10.679   7.086  -2.091  0.00  0.00    -0.050 A 
ATOM     10  C   LIG d   1      10.814   5.790  -2.477  0.00  0.00    -0.038 A 
ATOM     11  H   LIG d   1      10.860   7.365  -1.064  0.00  0.00     0.063 H 
ENDROOT
BRANCH   1  12
ATOM     12  C   LIG d   1      10.749   3.987  -4.200  0.00  0.00     0.031 A 
ATOM     13  C   LIG d   1      12.014   3.503  -4.569  0.00  0.00    -0.038 A 
ATOM     14  C   LIG d   1      12.185   2.207  -4.940  0.00  0.00    -0.050 A 
ATOM     15  C   LIG d   1      11.089   1.325  -4.948  0.00  0.00    -0.006 A 
ATOM     16  H   LIG d   1      13.164   1.853  -5.224  0.00  0.00     0.063 H 
ATOM     17  C   LIG d   1       9.807   1.800  -4.579  0.00  0.00     0.037 A 
ATOM     18  C   LIG d   1      11.247  -0.020  -5.323  0.00  0.00     0.008 A 
ATOM     19  C   LIG d   1       9.644   3.142  -4.204  0.00  0.00     0.133 A 
ATOM     20  C   LIG d   1       8.674   0.875  -4.598  0.00  0.00     0.049 A 
ATOM     21  C   LIG d   1       8.897  -0.447  -4.980  0.00  0.00     0.168 A 
ATOM     22  C   LIG d   1      10.183  -0.872  -5.337  0.00  0.00     0.163 A 
BRANCH  13  23
ATOM     23  C   LIG d   1      13.197   4.436  -4.558  0.00  0.00    -0.039 C 
ATOM     24  H   LIG d   1      13.909   4.127  -5.323  0.00  0.00     0.028 H 
ATOM     25  H   LIG d   1      12.861   5.452  -4.763  0.00  0.00     0.028 H 
ATOM     26  H   LIG d   1      13.678   4.402  -3.581  0.00  0.00     0.028 H 
ENDBRANCH  13  23
BRANCH  19  27
ATOM     27  O   LIG d   1       8.420   3.609  -3.847  0.00  0.00    -0.505 OA
ATOM     28  H   LIG d   1       8.279   3.653  -2.891  0.00  0.00     0.292 HD
ENDBRANCH  19  27
BRANCH  20  29
ATOM     29  C   LIG d   1       7.328   1.329  -4.221  0.00  0.00     0.034 C 
ATOM     30  N   LIG d   1       6.840   1.017  -3.062  0.00  0.00    -0.286 NA
ATOM     31  H   LIG d   1       6.746   1.923  -4.910  0.00  0.00     0.083 H 
BRANCH  30  32
ATOM     32  C   LIG d   1       5.497   1.470  -2.687  0.00  0.00     0.065 C 
ATOM     33  H   LIG d   1       5.517   1.858  -1.668  0.00  0.00     0.056 H 
ATOM     34  H   LIG d   1       5.175   2.256  -3.369  0.00  0.00     0.056 H 
BRANCH  32  35
ATOM     35  C   LIG d   1       4.537   0.311  -2.766  0.00  0.00    -0.023 A 
ATOM     36  C   LIG d   1       4.866  -0.922  -2.226  0.00  0.00    -0.039 A 
ATOM     37  C   LIG d   1       3.957  -1.960  -2.312  0.00  0.00     0.028 A 
ATOM     38  H   LIG d   1       5.820  -1.069  -1.741  0.00  0.00     0.064 H 
ATOM     39  N   LIG d   1       2.793  -1.789  -2.907  0.00  0.00    -0.263 NA
ATOM     40  H   LIG d   1       4.205  -2.922  -1.889  0.00  0.00     0.083 H 
ATOM     41  C   LIG d   1       2.448  -0.632  -3.437  0.00  0.00     0.028 A 
ATOM     42  C   LIG d   1       3.304   0.453  -3.385  0.00  0.00    -0.039 A 
ATOM     43  H   LIG d   1       1.486  -0.529  -3.917  0.00  0.00     0.083 H 
ATOM     44  H   LIG d   1       3.016   1.399  -3.819  0.00  0.00     0.064 H 
ENDBRANCH  32  35
ENDBRANCH  30  32
ENDBRANCH  20  29
BRANCH  21  45
ATOM     45  O   LIG d   1       7.865  -1.326  -5.006  0.00  0.00    -0.503 OA
ATOM     46  H   LIG d   1       7.008  -0.933  -4.791  0.00  0.00     0.292 HD
ENDBRANCH  21  45
BRANCH  22  47
ATOM     47  O   LIG d   1      10.374  -2.166  -5.705  0.00  0.00    -0.503 OA
ATOM     48  H   LIG d   1      10.987  -2.277  -6.445  0.00  0.00     0.292 HD
ENDBRANCH  22  47
BRANCH  18  49
ATOM     49  C   LIG d   1      12.611  -0.527  -5.716  0.00  0.00    -0.017 C 
ATOM     50  H   LIG d   1      13.322   0.297  -5.703  0.00  0.00     0.035 H 
BRANCH  49  51
ATOM     51  C   LIG d   1      13.059  -1.604  -4.724  0.00  0.00    -0.059 C 
ATOM     52  H   LIG d   1      12.377  -2.453  -4.776  0.00  0.00     0.024 H 
ATOM     53  H   LIG d   1      14.067  -1.932  -4.975  0.00  0.00     0.024 H 
ATOM     54  H   LIG d   1      13.050  -1.193  -3.715  0.00  0.00     0.024 H 
ENDBRANCH  49  51
BRANCH  49  55
ATOM     55  C   LIG d   1      12.547  -1.125  -7.123  0.00  0.00    -0.059 C 
ATOM     56  H   LIG d   1      11.645  -0.776  -7.626  0.00  0.00     0.024 H 
ATOM     57  H   LIG d   1      13.424  -0.813  -7.691  0.00  0.00     0.024 H 
ATOM     58  H   LIG d   1      12.526  -2.213  -7.055  0.00  0.00     0.024 H 
ENDBRANCH  49  55
ENDBRANCH  18  49
ENDBRANCH   1  12
BRANCH  10  59
ATOM     59  C   LIG d   1      11.217   4.752  -1.461  0.00  0.00    -0.039 C 
ATOM     60  H   LIG d   1      10.493   4.740  -0.646  0.00  0.00     0.028 H 
ATOM     61  H   LIG d   1      11.247   3.771  -1.935  0.00  0.00     0.028 H 
ATOM     62  H   LIG d   1      12.203   4.995  -1.065  0.00  0.00     0.028 H 
ENDBRANCH  10  59
BRANCH   2  63
ATOM     63  O   LIG d   1       9.989   5.975  -6.043  0.00  0.00    -0.505 OA
ATOM     64  H   LIG d   1       9.058   5.816  -6.252  0.00  0.00     0.292 HD
ENDBRANCH   2  63
BRANCH   4  65
ATOM     65  C   LIG d   1       9.413   8.365  -6.743  0.00  0.00     0.176 C 
ATOM     66  N   LIG d   1      10.282   8.677  -7.654  0.00  0.00    -0.242 N 
ATOM     67  H   LIG d   1      11.144   9.038  -7.399  0.00  0.00     0.445 HD
ATOM     68  H   LIG d   1       8.505   7.850  -7.016  0.00  0.00     0.138 H 
BRANCH  66  69
ATOM     69  C   LIG d   1       9.958   8.482  -9.070  0.00  0.00     0.168 C 
ATOM     70  H   LIG d   1       8.968   8.888  -9.276  0.00  0.00     0.108 H 
ATOM     71  H   LIG d   1      10.696   8.995  -9.686  0.00  0.00     0.108 H 
BRANCH  69  72
ATOM     72  C   LIG d   1       9.975   7.009  -9.389  0.00  0.00     0.019 A 
ATOM     73  C   LIG d   1      11.174   6.335  -9.565  0.00  0.00    -0.034 A 
ATOM     74  C   LIG d   1      11.150   4.983  -9.851  0.00  0.00     0.028 A 
ATOM     75  H   LIG d   1      12.114   6.858  -9.476  0.00  0.00     0.064 H 
ATOM     76  N   LIG d   1      10.005   4.338  -9.967  0.00  0.00    -0.263 NA
ATOM     77  H   LIG d   1      12.080   4.448  -9.984  0.00  0.00     0.083 H 
ATOM     78  C   LIG d   1       8.847   4.948  -9.812  0.00  0.00     0.028 A 
ATOM     79  C   LIG d   1       8.792   6.297  -9.519  0.00  0.00    -0.034 A 
ATOM     80  H   LIG d   1       7.930   4.386  -9.915  0.00  0.00     0.083 H 
ATOM     81  H   LIG d   1       7.840   6.791  -9.393  0.00  0.00     0.064 H 
ENDBRANCH  69  72
ENDBRANCH  66  69
ENDBRANCH   4  65
BRANCH   7  82
ATOM     82  C   LIG d   1      10.399   9.811  -1.218  0.00  0.00    -0.017 C 
ATOM     83  H   LIG d   1      10.935   9.013  -0.705  0.00  0.00     0.035 H 
BRANCH  82  84
ATOM     84  C   LIG d   1      11.237  11.091  -1.187  0.00  0.00    -0.059 C 
ATOM     85  H   LIG d   1      10.593  11.951  -1.370  0.00  0.00     0.024 H 
ATOM     86  H   LIG d   1      11.709  11.192  -0.209  0.00  0.00     0.024 H 
ATOM     87  H   LIG d   1      12.005  11.041  -1.959  0.00  0.00     0.024 H 
ENDBRANCH  82  84
BRANCH  82  88
ATOM     88  C   LIG d   1       9.062  10.060  -0.516  0.00  0.00    -0.059 C 
ATOM     89  H   LIG d   1       9.057   9.551   0.448  0.00  0.00     0.024 H 
ATOM     90  H   LIG d   1       8.925  11.130  -0.362  0.00  0.00     0.024 H 
ATOM     91  H   LIG d   1       8.251   9.675  -1.133  0.00  0.00     0.024 H 
ENDBRANCH  82  88
ENDBRANCH   7  82
BRANCH   5  92
ATOM     92  O   LIG d   1       9.168  11.001  -5.771  0.00  0.00    -0.503 OA
ATOM     93  H   LIG d   1       8.968  10.676  -6.660  0.00  0.00     0.292 HD
ENDBRANCH   5  92
BRANCH   6  94
ATOM     94  O   LIG d   1       9.643  11.646  -3.153  0.00  0.00    -0.503 OA
ATOM     95  H   LIG d   1       9.305  11.743  -2.252  0.00  0.00     0.292 HD
ENDBRANCH   6  94
TORSDOF 21
ENDMDL
MODEL 9
REMARK VINA RESULT:      -5.8      2.713      6.496
REMARK  21 active torsions:
REMARK  status: ('A' for Active; 'I' for Inactive)
REMARK    1  A    between atoms: C_1  and  C_2 
REMARK    2  A    between atoms: C_3  and  C_27 
REMARK    3  A    between atoms: C_4  and  O_26 
REMARK    4  A    between atoms: C_6  and  C_17 
REMARK    5  A    between atoms: C_7  and  O_16 
REMARK    6  A    between atoms: C_8  and  O_15 
REMARK    7  A    between atoms: C_9  and  C_12 
REMARK    8  A    between atoms: C_12  and  C_13 
REMARK    9  A    between atoms: C_12  and  C_14 
REMARK   10  A    between atoms: N_18  and  C_19 
REMARK   11  A    between atoms: C_19  and  C_20 
REMARK   12  A    between atoms: C_28  and  O_52 
REMARK   13  A    between atoms: C_30  and  C_43 
REMARK   14  A    between atoms: C_31  and  O_42 
REMARK   15  A    between atoms: C_32  and  O_41 
REMARK   16  A    between atoms: C_33  and  C_38 
REMARK   17  A    between atoms: C_36  and  C_37 
REMARK   18  A    between atoms: C_38  and  C_39 
REMARK   19  A    between atoms: C_38  and  C_40 
REMARK   20  A    between atoms: N_44  and  C_45 
REMARK   21  A    between atoms: C_45  and  C_46 
ROOT
ATOM      1  C   LIG d   1       6.115  -3.265  -7.739  0.00  0.00     0.031 A 
ATOM      2  C   LIG d   1       5.250  -2.199  -7.509  0.00  0.00     0.134 A 
ATOM      3  C   LIG d   1       4.306  -1.857  -8.487  0.00  0.00     0.041 A 
ATOM      4  C   LIG d   1       3.377  -0.745  -8.289  0.00  0.00     0.094 A 
ATOM      5  C   LIG d   1       2.462  -0.451  -9.298  0.00  0.00     0.172 A 
ATOM      6  C   LIG d   1       2.439  -1.211 -10.474  0.00  0.00     0.163 A 
ATOM      7  C   LIG d   1       3.298  -2.249 -10.671  0.00  0.00     0.008 A 
ATOM      8  C   LIG d   1       4.246  -2.597  -9.693  0.00  0.00    -0.006 A 
ATOM      9  C   LIG d   1       5.134  -3.669  -9.895  0.00  0.00    -0.050 A 
ATOM     10  C   LIG d   1       6.047  -3.986  -8.939  0.00  0.00    -0.038 A 
ATOM     11  H   LIG d   1       5.094  -4.237 -10.813  0.00  0.00     0.063 H 
ENDROOT
BRANCH   1  12
ATOM     12  C   LIG d   1       7.116  -3.635  -6.712  0.00  0.00     0.031 A 
ATOM     13  C   LIG d   1       6.817  -4.637  -5.776  0.00  0.00    -0.038 A 
ATOM     14  C   LIG d   1       7.716  -4.991  -4.820  0.00  0.00    -0.050 A 
ATOM     15  C   LIG d   1       8.972  -4.360  -4.766  0.00  0.00    -0.006 A 
ATOM     16  H   LIG d   1       7.468  -5.761  -4.105  0.00  0.00     0.063 H 
ATOM     17  C   LIG d   1       9.286  -3.347  -5.704  0.00  0.00     0.037 A 
ATOM     18  C   LIG d   1       9.918  -4.715  -3.789  0.00  0.00     0.008 A 
ATOM     19  C   LIG d   1       8.346  -2.988  -6.681  0.00  0.00     0.133 A 
ATOM     20  C   LIG d   1      10.593  -2.693  -5.633  0.00  0.00     0.049 A 
ATOM     21  C   LIG d   1      11.486  -3.092  -4.640  0.00  0.00     0.168 A 
ATOM     22  C   LIG d   1      11.132  -4.099  -3.733  0.00  0.00     0.163 A 
BRANCH  13  23
ATOM     23  C   LIG d   1       5.477  -5.326  -5.827  0.00  0.00    -0.039 C 
ATOM     24  H   LIG d   1       5.445  -5.995  -6.686  0.00  0.00     0.028 H 
ATOM     25  H   LIG d   1       5.330  -5.901  -4.912  0.00  0.00     0.028 H 
ATOM     26  H   LIG d   1       4.688  -4.579  -5.918  0.00  0.00     0.028 H 
ENDBRANCH  13  23
BRANCH  19  27
ATOM     27  O   LIG d   1       8.636  -2.019  -7.587  0.00  0.00    -0.505 OA
ATOM     28  H   LIG d   1       9.582  -1.911  -7.758  0.00  0.00     0.292 HD
ENDBRANCH  19  27
BRANCH  20  29
ATOM     29  C   LIG d   1      10.958  -1.639  -6.589  0.00  0.00     0.034 C 
ATOM     30  N   LIG d   1      10.961  -0.398  -6.214  0.00  0.00    -0.286 NA
ATOM     31  H   LIG d   1      11.224  -1.897  -7.603  0.00  0.00     0.083 H 
BRANCH  30  32
ATOM     32  C   LIG d   1      11.324   0.654  -7.168  0.00  0.00     0.065 C 
ATOM     33  H   LIG d   1      11.696   1.524  -6.625  0.00  0.00     0.056 H 
ATOM     34  H   LIG d   1      12.099   0.285  -7.838  0.00  0.00     0.056 H 
BRANCH  32  35
ATOM     35  C   LIG d   1      10.110   1.045  -7.971  0.00  0.00    -0.023 A 
ATOM     36  C   LIG d   1      10.106   0.929  -9.352  0.00  0.00    -0.039 A 
ATOM     37  C   LIG d   1       8.971   1.291 -10.056  0.00  0.00     0.028 A 
ATOM     38  H   LIG d   1      10.976   0.558  -9.873  0.00  0.00     0.064 H 
ATOM     39  N   LIG d   1       7.907   1.751  -9.427  0.00  0.00    -0.263 NA
ATOM     40  H   LIG d   1       8.959   1.199 -11.131  0.00  0.00     0.083 H 
ATOM     41  C   LIG d   1       7.878   1.880  -8.116  0.00  0.00     0.028 A 
ATOM     42  C   LIG d   1       8.973   1.533  -7.346  0.00  0.00    -0.039 A 
ATOM     43  H   LIG d   1       6.987   2.260  -7.636  0.00  0.00     0.083 H 
ATOM     44  H   LIG d   1       8.942   1.639  -6.272  0.00  0.00     0.064 H 
ENDBRANCH  32  35
ENDBRANCH  30  32
ENDBRANCH  20  29
BRANCH  21  45
ATOM     45  O   LIG d   1      12.705  -2.503  -4.551  0.00  0.00    -0.503 OA
ATOM     46  H   LIG d   1      12.930  -2.195  -3.663  0.00  0.00     0.292 HD
ENDBRANCH  21  45
BRANCH  22  47
ATOM     47  O   LIG d   1      12.021  -4.469  -2.774  0.00  0.00    -0.503 OA
ATOM     48  H   LIG d   1      12.652  -5.141  -3.063  0.00  0.00     0.292 HD
ENDBRANCH  22  47
BRANCH  18  49
ATOM     49  C   LIG d   1       9.585  -5.793  -2.789  0.00  0.00    -0.017 C 
ATOM     50  H   LIG d   1       8.598  -6.199  -3.008  0.00  0.00     0.035 H 
BRANCH  49  51
ATOM     51  C   LIG d   1      10.628  -6.910  -2.878  0.00  0.00    -0.059 C 
ATOM     52  H   LIG d   1      10.666  -7.449  -1.932  0.00  0.00     0.024 H 
ATOM     53  H   LIG d   1      10.355  -7.599  -3.678  0.00  0.00     0.024 H 
ATOM     54  H   LIG d   1      11.606  -6.477  -3.089  0.00  0.00     0.024 H 
ENDBRANCH  49  51
BRANCH  49  55
ATOM     55  C   LIG d   1       9.592  -5.201  -1.379  0.00  0.00    -0.059 C 
ATOM     56  H   LIG d   1       9.008  -5.838  -0.714  0.00  0.00     0.024 H 
ATOM     57  H   LIG d   1      10.617  -5.139  -1.014  0.00  0.00     0.024 H 
ATOM     58  H   LIG d   1       9.154  -4.203  -1.401  0.00  0.00     0.024 H 
ENDBRANCH  49  55
ENDBRANCH  18  49
ENDBRANCH   1  12
BRANCH  10  59
ATOM     59  C   LIG d   1       6.997  -5.133  -9.172  0.00  0.00    -0.039 C 
ATOM     60  H   LIG d   1       6.770  -5.940  -8.477  0.00  0.00     0.028 H 
ATOM     61  H   LIG d   1       6.888  -5.493 -10.195  0.00  0.00     0.028 H 
ATOM     62  H   LIG d   1       8.021  -4.794  -9.013  0.00  0.00     0.028 H 
ENDBRANCH  10  59
BRANCH   2  63
ATOM     63  O   LIG d   1       5.318  -1.499  -6.347  0.00  0.00    -0.505 OA
ATOM     64  H   LIG d   1       6.206  -1.183  -6.130  0.00  0.00     0.292 HD
ENDBRANCH   2  63
BRANCH   4  65
ATOM     65  C   LIG d   1       3.409   0.047  -7.051  0.00  0.00     0.176 C 
ATOM     66  N   LIG d   1       2.511  -0.148  -6.135  0.00  0.00    -0.242 N 
ATOM     67  H   LIG d   1       1.889  -0.887  -6.214  0.00  0.00     0.445 HD
ATOM     68  H   LIG d   1       4.178   0.790  -6.905  0.00  0.00     0.138 H 
BRANCH  66  69
ATOM     69  C   LIG d   1       2.438   0.750  -4.979  0.00  0.00     0.168 C 
ATOM     70  H   LIG d   1       2.920   1.697  -5.224  0.00  0.00     0.108 H 
ATOM     71  H   LIG d   1       1.395   0.930  -4.723  0.00  0.00     0.108 H 
BRANCH  69  72
ATOM     72  C   LIG d   1       3.142   0.116  -3.807  0.00  0.00     0.019 A 
ATOM     73  C   LIG d   1       3.076  -1.253  -3.596  0.00  0.00    -0.034 A 
ATOM     74  C   LIG d   1       3.740  -1.799  -2.514  0.00  0.00     0.028 A 
ATOM     75  H   LIG d   1       2.518  -1.884  -4.271  0.00  0.00     0.064 H 
ATOM     76  N   LIG d   1       4.419  -1.034  -1.682  0.00  0.00    -0.263 NA
ATOM     77  H   LIG d   1       3.698  -2.866  -2.345  0.00  0.00     0.083 H 
ATOM     78  C   LIG d   1       4.498   0.271  -1.848  0.00  0.00     0.028 A 
ATOM     79  C   LIG d   1       3.866   0.888  -2.911  0.00  0.00    -0.034 A 
ATOM     80  H   LIG d   1       5.064   0.866  -1.146  0.00  0.00     0.083 H 
ATOM     81  H   LIG d   1       3.935   1.958  -3.043  0.00  0.00     0.064 H 
ENDBRANCH  69  72
ENDBRANCH  66  69
ENDBRANCH   4  65
BRANCH   7  82
ATOM     82  C   LIG d   1       3.231  -3.036 -11.955  0.00  0.00    -0.017 C 
ATOM     83  H   LIG d   1       4.029  -3.778 -11.969  0.00  0.00     0.035 H 
BRANCH  82  84
ATOM     84  C   LIG d   1       1.877  -3.743 -12.050  0.00  0.00    -0.059 C 
ATOM     85  H   LIG d   1       1.627  -3.911 -13.098  0.00  0.00     0.024 H 
ATOM     86  H   LIG d   1       1.930  -4.701 -11.532  0.00  0.00     0.024 H 
ATOM     87  H   LIG d   1       1.110  -3.121 -11.589  0.00  0.00     0.024 H 
ENDBRANCH  82  84
BRANCH  82  88
ATOM     88  C   LIG d   1       3.395  -2.087 -13.144  0.00  0.00    -0.059 C 
ATOM     89  H   LIG d   1       3.406  -2.662 -14.069  0.00  0.00     0.024 H 
ATOM     90  H   LIG d   1       2.564  -1.382 -13.164  0.00  0.00     0.024 H 
ATOM     91  H   LIG d   1       4.333  -1.541 -13.045  0.00  0.00     0.024 H 
ENDBRANCH  82  88
ENDBRANCH   7  82
BRANCH   5  92
ATOM     92  O   LIG d   1       1.589   0.575  -9.139  0.00  0.00    -0.503 OA
ATOM     93  H   LIG d   1       0.661   0.302  -9.114  0.00  0.00     0.292 HD
ENDBRANCH   5  92
BRANCH   6  94
ATOM     94  O   LIG d   1       1.534  -0.905 -11.442  0.00  0.00    -0.503 OA
ATOM     95  H   LIG d   1       1.799  -1.184 -12.329  0.00  0.00     0.292 HD
ENDBRANCH   6  94
TORSDOF 21
ENDMDL
MODEL 10
REMARK VINA RESULT:      -5.7      4.223      7.656
REMARK  21 active torsions:
REMARK  status: ('A' for Active; 'I' for Inactive)
REMARK    1  A    between atoms: C_1  and  C_2 
REMARK    2  A    between atoms: C_3  and  C_27 
REMARK    3  A    between atoms: C_4  and  O_26 
REMARK    4  A    between atoms: C_6  and  C_17 
REMARK    5  A    between atoms: C_7  and  O_16 
REMARK    6  A    between atoms: C_8  and  O_15 
REMARK    7  A    between atoms: C_9  and  C_12 
REMARK    8  A    between atoms: C_12  and  C_13 
REMARK    9  A    between atoms: C_12  and  C_14 
REMARK   10  A    between atoms: N_18  and  C_19 
REMARK   11  A    between atoms: C_19  and  C_20 
REMARK   12  A    between atoms: C_28  and  O_52 
REMARK   13  A    between atoms: C_30  and  C_43 
REMARK   14  A    between atoms: C_31  and  O_42 
REMARK   15  A    between atoms: C_32  and  O_41 
REMARK   16  A    between atoms: C_33  and  C_38 
REMARK   17  A    between atoms: C_36  and  C_37 
REMARK   18  A    between atoms: C_38  and  C_39 
REMARK   19  A    between atoms: C_38  and  C_40 
REMARK   20  A    between atoms: N_44  and  C_45 
REMARK   21  A    between atoms: C_45  and  C_46 
ROOT
ATOM      1  C   LIG d   1      11.022   1.813  -6.016  0.00  0.00     0.031 A 
ATOM      2  C   LIG d   1      10.046   0.830  -5.896  0.00  0.00     0.134 A 
ATOM      3  C   LIG d   1      10.405  -0.442  -5.428  0.00  0.00     0.041 A 
ATOM      4  C   LIG d   1       9.413  -1.507  -5.286  0.00  0.00     0.094 A 
ATOM      5  C   LIG d   1       9.830  -2.750  -4.816  0.00  0.00     0.172 A 
ATOM      6  C   LIG d   1      11.174  -2.967  -4.489  0.00  0.00     0.163 A 
ATOM      7  C   LIG d   1      12.109  -1.985  -4.617  0.00  0.00     0.008 A 
ATOM      8  C   LIG d   1      11.753  -0.708  -5.085  0.00  0.00    -0.006 A 
ATOM      9  C   LIG d   1      12.717   0.309  -5.218  0.00  0.00    -0.050 A 
ATOM     10  C   LIG d   1      12.354   1.535  -5.678  0.00  0.00    -0.038 A 
ATOM     11  H   LIG d   1      13.747   0.112  -4.958  0.00  0.00     0.063 H 
ENDROOT
BRANCH   1  12
ATOM     12  C   LIG d   1      10.653   3.161  -6.509  0.00  0.00     0.031 A 
ATOM     13  C   LIG d   1      10.634   3.417  -7.889  0.00  0.00    -0.038 A 
ATOM     14  C   LIG d   1      10.305   4.646  -8.366  0.00  0.00    -0.050 A 
ATOM     15  C   LIG d   1       9.964   5.681  -7.475  0.00  0.00    -0.006 A 
ATOM     16  H   LIG d   1      10.299   4.828  -9.431  0.00  0.00     0.063 H 
ATOM     17  C   LIG d   1       9.981   5.435  -6.081  0.00  0.00     0.037 A 
ATOM     18  C   LIG d   1       9.616   6.957  -7.949  0.00  0.00     0.008 A 
ATOM     19  C   LIG d   1      10.329   4.164  -5.603  0.00  0.00     0.133 A 
ATOM     20  C   LIG d   1       9.632   6.521  -5.165  0.00  0.00     0.049 A 
ATOM     21  C   LIG d   1       9.295   7.764  -5.699  0.00  0.00     0.168 A 
ATOM     22  C   LIG d   1       9.293   7.960  -7.085  0.00  0.00     0.163 A 
BRANCH  13  23
ATOM     23  C   LIG d   1      10.990   2.316  -8.855  0.00  0.00    -0.039 C 
ATOM     24  H   LIG d   1      12.037   2.046  -8.727  0.00  0.00     0.028 H 
ATOM     25  H   LIG d   1      10.363   1.446  -8.660  0.00  0.00     0.028 H 
ATOM     26  H   LIG d   1      10.826   2.662  -9.875  0.00  0.00     0.028 H 
ENDBRANCH  13  23
BRANCH  19  27
ATOM     27  O   LIG d   1      10.347   3.915  -4.268  0.00  0.00    -0.505 OA
ATOM     28  H   LIG d   1       9.702   3.254  -3.982  0.00  0.00     0.292 HD
ENDBRANCH  19  27
BRANCH  20  29
ATOM     29  C   LIG d   1       9.636   6.307  -3.711  0.00  0.00     0.034 C 
ATOM     30  N   LIG d   1      10.558   6.849  -2.979  0.00  0.00    -0.286 NA
ATOM     31  H   LIG d   1       8.871   5.698  -3.253  0.00  0.00     0.083 H 
BRANCH  30  32
ATOM     32  C   LIG d   1      10.562   6.634  -1.529  0.00  0.00     0.065 C 
ATOM     33  H   LIG d   1       9.736   5.976  -1.257  0.00  0.00     0.056 H 
ATOM     34  H   LIG d   1      11.505   6.175  -1.232  0.00  0.00     0.056 H 
BRANCH  32  35
ATOM     35  C   LIG d   1      10.404   7.957  -0.825  0.00  0.00    -0.023 A 
ATOM     36  C   LIG d   1      11.326   8.371   0.123  0.00  0.00    -0.039 A 
ATOM     37  C   LIG d   1      11.152   9.594   0.745  0.00  0.00     0.028 A 
ATOM     38  H   LIG d   1      12.172   7.747   0.372  0.00  0.00     0.064 H 
ATOM     39  N   LIG d   1      10.118  10.358   0.450  0.00  0.00    -0.263 NA
ATOM     40  H   LIG d   1      11.869   9.925   1.481  0.00  0.00     0.083 H 
ATOM     41  C   LIG d   1       9.219   9.994  -0.443  0.00  0.00     0.028 A 
ATOM     42  C   LIG d   1       9.330   8.787  -1.108  0.00  0.00    -0.039 A 
ATOM     43  H   LIG d   1       8.385  10.647  -0.658  0.00  0.00     0.083 H 
ATOM     44  H   LIG d   1       8.591   8.495  -1.839  0.00  0.00     0.064 H 
ENDBRANCH  32  35
ENDBRANCH  30  32
ENDBRANCH  20  29
BRANCH  21  45
ATOM     45  O   LIG d   1       8.967   8.788  -4.872  0.00  0.00    -0.503 OA
ATOM     46  H   LIG d   1       8.105   9.183  -5.057  0.00  0.00     0.292 HD
ENDBRANCH  21  45
BRANCH  22  47
ATOM     47  O   LIG d   1       8.961   9.181  -7.581  0.00  0.00    -0.503 OA
ATOM     48  H   LIG d   1       9.265   9.334  -8.485  0.00  0.00     0.292 HD
ENDBRANCH  22  47
BRANCH  18  49
ATOM     49  C   LIG d   1       9.598   7.220  -9.433  0.00  0.00    -0.017 C 
ATOM     50  H   LIG d   1       9.216   8.222  -9.620  0.00  0.00     0.035 H 
BRANCH  49  51
ATOM     51  C   LIG d   1      11.020   7.103  -9.988  0.00  0.00    -0.059 C 
ATOM     52  H   LIG d   1      11.139   6.140 -10.485  0.00  0.00     0.024 H 
ATOM     53  H   LIG d   1      11.197   7.905 -10.704  0.00  0.00     0.024 H 
ATOM     54  H   LIG d   1      11.735   7.180  -9.169  0.00  0.00     0.024 H 
ENDBRANCH  49  51
BRANCH  49  55
ATOM     55  C   LIG d   1       8.696   6.194 -10.123  0.00  0.00    -0.059 C 
ATOM     56  H   LIG d   1       8.380   5.443  -9.399  0.00  0.00     0.024 H 
ATOM     57  H   LIG d   1       7.820   6.696 -10.532  0.00  0.00     0.024 H 
ATOM     58  H   LIG d   1       9.247   5.710 -10.930  0.00  0.00     0.024 H 
ENDBRANCH  49  55
ENDBRANCH  18  49
ENDBRANCH   1  12
BRANCH  10  59
ATOM     59  C   LIG d   1      13.398   2.612  -5.821  0.00  0.00    -0.039 C 
ATOM     60  H   LIG d   1      13.167   3.230  -6.688  0.00  0.00     0.028 H 
ATOM     61  H   LIG d   1      13.407   3.232  -4.925  0.00  0.00     0.028 H 
ATOM     62  H   LIG d   1      14.378   2.153  -5.954  0.00  0.00     0.028 H 
ENDBRANCH  10  59
BRANCH   2  63
ATOM     63  O   LIG d   1       8.756   1.099  -6.227  0.00  0.00    -0.505 OA
ATOM     64  H   LIG d   1       8.168   1.203  -5.466  0.00  0.00     0.292 HD
ENDBRANCH   2  63
BRANCH   4  65
ATOM     65  C   LIG d   1       8.004  -1.269  -5.630  0.00  0.00     0.176 C 
ATOM     66  N   LIG d   1       7.103  -1.251  -4.698  0.00  0.00    -0.242 N 
ATOM     67  H   LIG d   1       7.368  -1.282  -3.766  0.00  0.00     0.445 HD
ATOM     68  H   LIG d   1       7.719  -1.111  -6.660  0.00  0.00     0.138 H 
BRANCH  66  69
ATOM     69  C   LIG d   1       5.683  -1.183  -5.053  0.00  0.00     0.168 C 
ATOM     70  H   LIG d   1       5.571  -0.666  -6.006  0.00  0.00     0.108 H 
ATOM     71  H   LIG d   1       5.280  -2.192  -5.139  0.00  0.00     0.108 H 
BRANCH  69  72
ATOM     72  C   LIG d   1       4.933  -0.433  -3.982  0.00  0.00     0.019 A 
ATOM     73  C   LIG d   1       5.587   0.476  -3.163  0.00  0.00    -0.034 A 
ATOM     74  C   LIG d   1       4.865   1.150  -2.197  0.00  0.00     0.028 A 
ATOM     75  H   LIG d   1       6.644   0.658  -3.282  0.00  0.00     0.064 H 
ATOM     76  N   LIG d   1       3.574   0.929  -2.042  0.00  0.00    -0.263 NA
ATOM     77  H   LIG d   1       5.365   1.864  -1.558  0.00  0.00     0.083 H 
ATOM     78  C   LIG d   1       2.922   0.069  -2.797  0.00  0.00     0.028 A 
ATOM     79  C   LIG d   1       3.575  -0.639  -3.789  0.00  0.00    -0.034 A 
ATOM     80  H   LIG d   1       1.864  -0.086  -2.641  0.00  0.00     0.083 H 
ATOM     81  H   LIG d   1       3.036  -1.342  -4.406  0.00  0.00     0.064 H 
ENDBRANCH  69  72
ENDBRANCH  66  69
ENDBRANCH   4  65
BRANCH   7  82
ATOM     82  C   LIG d   1      13.543  -2.270  -4.250  0.00  0.00    -0.017 C 
ATOM     83  H   LIG d   1      13.591  -3.179  -3.651  0.00  0.00     0.035 H 
BRANCH  82  84
ATOM     84  C   LIG d   1      14.369  -2.453  -5.525  0.00  0.00    -0.059 C 
ATOM     85  H   LIG d   1      14.509  -1.487  -6.009  0.00  0.00     0.024 H 
ATOM     86  H   LIG d   1      15.341  -2.876  -5.269  0.00  0.00     0.024 H 
ATOM     87  H   LIG d   1      13.845  -3.127  -6.202  0.00  0.00     0.024 H 
ENDBRANCH  82  84
BRANCH  82  88
ATOM     88  C   LIG d   1      14.104  -1.097  -3.443  0.00  0.00    -0.059 C 
ATOM     89  H   LIG d   1      13.318  -0.360  -3.277  0.00  0.00     0.024 H 
ATOM     90  H   LIG d   1      14.471  -1.459  -2.482  0.00  0.00     0.024 H 
ATOM     91  H   LIG d   1      14.923  -0.636  -3.994  0.00  0.00     0.024 H 
ENDBRANCH  82  88
ENDBRANCH   7  82
BRANCH   5  92
ATOM     92  O   LIG d   1       8.930  -3.756  -4.674  0.00  0.00    -0.503 OA
ATOM     93  H   LIG d   1       8.140  -3.658  -5.225  0.00  0.00     0.292 HD
ENDBRANCH   5  92
BRANCH   6  94
ATOM     94  O   LIG d   1      11.555  -4.190  -4.031  0.00  0.00    -0.503 OA
ATOM     95  H   LIG d   1      10.829  -4.825  -3.955  0.00  0.00     0.292 HD
ENDBRANCH   6  94
TORSDOF 21
ENDMDL
