MODEL 1
REMARK VINA RESULT:      -5.8      0.000      0.000
REMARK  18 active torsions:
REMARK  status: ('A' for Active; 'I' for Inactive)
REMARK    1  A    between atoms: C_1  and  O_2 
REMARK    2  A    between atoms: O_2  and  C_3 
REMARK    3  A    between atoms: C_6  and  C_11 
REMARK    4  A    between atoms: C_8  and  O_9 
REMARK    5  A    between atoms: O_9  and  C_10 
REMARK    6  A    between atoms: C_11  and  C_12 
REMARK    7  A    between atoms: C_13  and  C_30 
REMARK    8  A    between atoms: C_14  and  N_29 
REMARK    9  A    between atoms: C_16  and  C_18 
REMARK   10  A    between atoms: C_18  and  C_19 
REMARK   11  A    between atoms: C_22  and  O_27 
REMARK   12  A    between atoms: C_23  and  O_25 
REMARK   13  A    between atoms: O_25  and  C_26 
REMARK   14  A    between atoms: O_27  and  C_28 
REMARK   15  A    between atoms: C_33  and  O_38 
REMARK   16  A    between atoms: C_34  and  O_36 
REMARK   17  A    between atoms: O_36  and  C_37 
REMARK   18  A    between atoms: O_38  and  C_39 
ROOT
ATOM      1  C   LIG d   1       9.141  -7.195  -3.874  0.00  0.00     0.059 A 
ATOM      2  C   LIG d   1       9.492  -7.294  -2.530  0.00  0.00     0.043 A 
ATOM      3  C   LIG d   1       9.660  -6.104  -1.799  0.00  0.00     0.128 A 
ATOM      4  N   LIG d   1       9.476  -4.942  -2.417  0.00  0.00    -0.217 NA
ATOM      5  C   LIG d   1       9.144  -4.901  -3.692  0.00  0.00     0.136 A 
ATOM      6  N   LIG d   1       8.974  -5.994  -4.408  0.00  0.00    -0.235 NA
ENDROOT
BRANCH   1   7
ATOM      7  C   LIG d   1       8.948  -8.436  -4.708  0.00  0.00     0.016 C 
ATOM      8  H   LIG d   1       9.721  -8.482  -5.475  0.00  0.00     0.038 H 
ATOM      9  H   LIG d   1       9.016  -9.316  -4.070  0.00  0.00     0.038 H 
BRANCH   7  10
ATOM     10  C   LIG d   1       7.592  -8.394  -5.363  0.00  0.00    -0.038 A 
ATOM     11  C   LIG d   1       7.482  -8.088  -6.707  0.00  0.00    -0.054 A 
ATOM     12  C   LIG d   1       6.240  -8.052  -7.312  0.00  0.00    -0.016 A 
ATOM     13  H   LIG d   1       8.370  -7.878  -7.285  0.00  0.00     0.062 H 
ATOM     14  C   LIG d   1       5.100  -8.315  -6.569  0.00  0.00     0.162 A 
ATOM     15  H   LIG d   1       6.158  -7.816  -8.363  0.00  0.00     0.066 H 
ATOM     16  C   LIG d   1       5.209  -8.618  -5.216  0.00  0.00     0.162 A 
ATOM     17  C   LIG d   1       6.458  -8.656  -4.616  0.00  0.00    -0.013 A 
ATOM     18  H   LIG d   1       6.545  -8.890  -3.565  0.00  0.00     0.066 H 
BRANCH  14  19
ATOM     19  O   LIG d   1       3.877  -8.275  -7.163  0.00  0.00    -0.491 OA
BRANCH  19  20
ATOM     20  C   LIG d   1       3.841  -7.967  -8.557  0.00  0.00     0.079 C 
ATOM     21  H   LIG d   1       3.545  -6.926  -8.691  0.00  0.00     0.066 H 
ATOM     22  H   LIG d   1       4.830  -8.120  -8.989  0.00  0.00     0.066 H 
ATOM     23  H   LIG d   1       3.122  -8.616  -9.055  0.00  0.00     0.066 H 
ENDBRANCH  19  20
ENDBRANCH  14  19
BRANCH  16  24
ATOM     24  O   LIG d   1       4.093  -8.876  -4.483  0.00  0.00    -0.491 OA
BRANCH  24  25
ATOM     25  C   LIG d   1       3.984 -10.178  -3.904  0.00  0.00     0.079 C 
ATOM     26  H   LIG d   1       4.944 -10.689  -3.976  0.00  0.00     0.066 H 
ATOM     27  H   LIG d   1       3.699 -10.086  -2.856  0.00  0.00     0.066 H 
ATOM     28  H   LIG d   1       3.226 -10.751  -4.438  0.00  0.00     0.066 H 
ENDBRANCH  24  25
ENDBRANCH  16  24
ENDBRANCH   7  10
ENDBRANCH   1   7
BRANCH   2  29
ATOM     29  C   LIG d   1       9.685  -8.617  -1.888  0.00  0.00    -0.009 A 
ATOM     30  C   LIG d   1       8.582  -9.343  -1.441  0.00  0.00    -0.008 A 
ATOM     31  C   LIG d   1       8.766 -10.576  -0.842  0.00  0.00     0.162 A 
ATOM     32  H   LIG d   1       7.587  -8.943  -1.561  0.00  0.00     0.066 H 
ATOM     33  C   LIG d   1      10.052 -11.091  -0.688  0.00  0.00     0.162 A 
ATOM     34  C   LIG d   1      11.148 -10.368  -1.134  0.00  0.00    -0.016 A 
ATOM     35  C   LIG d   1      10.969  -9.139  -1.736  0.00  0.00    -0.050 A 
ATOM     36  H   LIG d   1      12.144 -10.769  -1.013  0.00  0.00     0.066 H 
ATOM     37  H   LIG d   1      11.824  -8.581  -2.086  0.00  0.00     0.062 H 
BRANCH  31  38
ATOM     38  O   LIG d   1       7.693 -11.287  -0.404  0.00  0.00    -0.491 OA
BRANCH  38  39
ATOM     39  C   LIG d   1       6.463 -11.106  -1.111  0.00  0.00     0.079 C 
ATOM     40  H   LIG d   1       6.067 -12.078  -1.404  0.00  0.00     0.066 H 
ATOM     41  H   LIG d   1       5.745 -10.600  -0.466  0.00  0.00     0.066 H 
ATOM     42  H   LIG d   1       6.641 -10.502  -2.001  0.00  0.00     0.066 H 
ENDBRANCH  38  39
ENDBRANCH  31  38
BRANCH  33  43
ATOM     43  O   LIG d   1      10.231 -12.303  -0.100  0.00  0.00    -0.491 OA
BRANCH  43  44
ATOM     44  C   LIG d   1      11.138 -12.361   1.004  0.00  0.00     0.079 C 
ATOM     45  H   LIG d   1      10.964 -13.277   1.569  0.00  0.00     0.066 H 
ATOM     46  H   LIG d   1      12.163 -12.353   0.632  0.00  0.00     0.066 H 
ATOM     47  H   LIG d   1      10.979 -11.499   1.651  0.00  0.00     0.066 H 
ENDBRANCH  43  44
ENDBRANCH  33  43
ENDBRANCH   2  29
BRANCH   5  48
ATOM     48  C   LIG d   1       8.946  -3.560  -4.350  0.00  0.00     0.033 C 
ATOM     49  H   LIG d   1       9.214  -3.630  -5.404  0.00  0.00     0.039 H 
ATOM     50  H   LIG d   1       9.580  -2.819  -3.863  0.00  0.00     0.039 H 
BRANCH  48  51
ATOM     51  C   LIG d   1       7.502  -3.146  -4.225  0.00  0.00    -0.036 A 
ATOM     52  C   LIG d   1       6.523  -3.851  -4.899  0.00  0.00    -0.013 A 
ATOM     53  C   LIG d   1       5.194  -3.475  -4.781  0.00  0.00     0.162 A 
ATOM     54  H   LIG d   1       6.791  -4.697  -5.513  0.00  0.00     0.066 H 
ATOM     55  C   LIG d   1       4.851  -2.383  -3.989  0.00  0.00     0.162 A 
ATOM     56  C   LIG d   1       5.839  -1.679  -3.321  0.00  0.00    -0.016 A 
ATOM     57  C   LIG d   1       7.162  -2.059  -3.443  0.00  0.00    -0.054 A 
ATOM     58  H   LIG d   1       5.575  -0.831  -2.705  0.00  0.00     0.066 H 
ATOM     59  H   LIG d   1       7.932  -1.508  -2.921  0.00  0.00     0.062 H 
BRANCH  53  60
ATOM     60  O   LIG d   1       4.228  -4.169  -5.438  0.00  0.00    -0.491 OA
BRANCH  60  61
ATOM     61  C   LIG d   1       4.547  -4.642  -6.749  0.00  0.00     0.079 C 
ATOM     62  H   LIG d   1       3.735  -5.269  -7.117  0.00  0.00     0.066 H 
ATOM     63  H   LIG d   1       4.682  -3.793  -7.418  0.00  0.00     0.066 H 
ATOM     64  H   LIG d   1       5.467  -5.225  -6.711  0.00  0.00     0.066 H 
ENDBRANCH  60  61
ENDBRANCH  53  60
BRANCH  55  65
ATOM     65  O   LIG d   1       3.548  -2.010  -3.869  0.00  0.00    -0.491 OA
BRANCH  65  66
ATOM     66  C   LIG d   1       3.193  -1.258  -2.708  0.00  0.00     0.079 C 
ATOM     67  H   LIG d   1       3.150  -0.199  -2.960  0.00  0.00     0.066 H 
ATOM     68  H   LIG d   1       2.218  -1.586  -2.348  0.00  0.00     0.066 H 
ATOM     69  H   LIG d   1       3.939  -1.417  -1.930  0.00  0.00     0.066 H 
ENDBRANCH  65  66
ENDBRANCH  55  65
ENDBRANCH  48  51
ENDBRANCH   5  48
BRANCH   3  70
ATOM     70  N   LIG d   1      10.008  -6.142  -0.460  0.00  0.00    -0.343 N 
ATOM     71  H   LIG d   1      10.800  -6.625  -0.178  0.00  0.00     0.144 HD
ATOM     72  H   LIG d   1       9.460  -5.684   0.196  0.00  0.00     0.144 HD
ENDBRANCH   3  70
TORSDOF 18
ENDMDL
MODEL 2
REMARK VINA RESULT:      -5.7      0.771      1.661
REMARK  18 active torsions:
REMARK  status: ('A' for Active; 'I' for Inactive)
REMARK    1  A    between atoms: C_1  and  O_2 
REMARK    2  A    between atoms: O_2  and  C_3 
REMARK    3  A    between atoms: C_6  and  C_11 
REMARK    4  A    between atoms: C_8  and  O_9 
REMARK    5  A    between atoms: O_9  and  C_10 
REMARK    6  A    between atoms: C_11  and  C_12 
REMARK    7  A    between atoms: C_13  and  C_30 
REMARK    8  A    between atoms: C_14  and  N_29 
REMARK    9  A    between atoms: C_16  and  C_18 
REMARK   10  A    between atoms: C_18  and  C_19 
REMARK   11  A    between atoms: C_22  and  O_27 
REMARK   12  A    between atoms: C_23  and  O_25 
REMARK   13  A    between atoms: O_25  and  C_26 
REMARK   14  A    between atoms: O_27  and  C_28 
REMARK   15  A    between atoms: C_33  and  O_38 
REMARK   16  A    between atoms: C_34  and  O_36 
REMARK   17  A    between atoms: O_36  and  C_37 
REMARK   18  A    between atoms: O_38  and  C_39 
ROOT
ATOM      1  C   LIG d   1       9.193  -7.157  -4.002  0.00  0.00     0.059 A 
ATOM      2  C   LIG d   1       9.585  -7.333  -2.678  0.00  0.00     0.043 A 
ATOM      3  C   LIG d   1       9.774  -6.188  -1.884  0.00  0.00     0.128 A 
ATOM      4  N   LIG d   1       9.571  -4.992  -2.428  0.00  0.00    -0.217 NA
ATOM      5  C   LIG d   1       9.199  -4.877  -3.687  0.00  0.00     0.136 A 
ATOM      6  N   LIG d   1       9.008  -5.928  -4.460  0.00  0.00    -0.235 NA
ENDROOT
BRANCH   1   7
ATOM      7  C   LIG d   1       8.974  -8.348  -4.901  0.00  0.00     0.016 C 
ATOM      8  H   LIG d   1       9.220  -8.077  -5.928  0.00  0.00     0.038 H 
ATOM      9  H   LIG d   1       9.615  -9.168  -4.578  0.00  0.00     0.038 H 
BRANCH   7  10
ATOM     10  C   LIG d   1       7.532  -8.777  -4.824  0.00  0.00    -0.038 A 
ATOM     11  C   LIG d   1       7.185  -9.904  -4.103  0.00  0.00    -0.054 A 
ATOM     12  C   LIG d   1       5.862 -10.299  -4.026  0.00  0.00    -0.016 A 
ATOM     13  H   LIG d   1       7.948 -10.476  -3.597  0.00  0.00     0.062 H 
ATOM     14  C   LIG d   1       4.882  -9.569  -4.681  0.00  0.00     0.162 A 
ATOM     15  H   LIG d   1       5.593 -11.178  -3.460  0.00  0.00     0.066 H 
ATOM     16  C   LIG d   1       5.232  -8.438  -5.411  0.00  0.00     0.162 A 
ATOM     17  C   LIG d   1       6.560  -8.045  -5.479  0.00  0.00    -0.013 A 
ATOM     18  H   LIG d   1       6.834  -7.167  -6.046  0.00  0.00     0.066 H 
BRANCH  14  19
ATOM     19  O   LIG d   1       3.582  -9.960  -4.610  0.00  0.00    -0.491 OA
BRANCH  19  20
ATOM     20  C   LIG d   1       3.218 -10.816  -3.526  0.00  0.00     0.079 C 
ATOM     21  H   LIG d   1       3.981 -11.585  -3.398  0.00  0.00     0.066 H 
ATOM     22  H   LIG d   1       3.138 -10.230  -2.611  0.00  0.00     0.066 H 
ATOM     23  H   LIG d   1       2.260 -11.288  -3.741  0.00  0.00     0.066 H 
ENDBRANCH  19  20
ENDBRANCH  14  19
BRANCH  16  24
ATOM     24  O   LIG d   1       4.274  -7.719  -6.054  0.00  0.00    -0.491 OA
BRANCH  24  25
ATOM     25  C   LIG d   1       4.300  -7.736  -7.483  0.00  0.00     0.079 C 
ATOM     26  H   LIG d   1       5.279  -7.411  -7.833  0.00  0.00     0.066 H 
ATOM     27  H   LIG d   1       4.106  -8.749  -7.837  0.00  0.00     0.066 H 
ATOM     28  H   LIG d   1       3.534  -7.064  -7.869  0.00  0.00     0.066 H 
ENDBRANCH  24  25
ENDBRANCH  16  24
ENDBRANCH   7  10
ENDBRANCH   1   7
BRANCH   2  29
ATOM     29  C   LIG d   1       9.798  -8.691  -2.120  0.00  0.00    -0.009 A 
ATOM     30  C   LIG d   1       8.789  -9.310  -1.385  0.00  0.00    -0.008 A 
ATOM     31  C   LIG d   1       8.992 -10.576  -0.866  0.00  0.00     0.162 A 
ATOM     32  H   LIG d   1       7.851  -8.801  -1.220  0.00  0.00     0.066 H 
ATOM     33  C   LIG d   1      10.203 -11.230  -1.079  0.00  0.00     0.162 A 
ATOM     34  C   LIG d   1      11.206 -10.614  -1.811  0.00  0.00    -0.016 A 
ATOM     35  C   LIG d   1      11.007  -9.353  -2.336  0.00  0.00    -0.050 A 
ATOM     36  H   LIG d   1      12.144 -11.123  -1.976  0.00  0.00     0.066 H 
ATOM     37  H   LIG d   1      11.788  -8.877  -2.909  0.00  0.00     0.062 H 
BRANCH  31  38
ATOM     38  O   LIG d   1       8.009 -11.183  -0.148  0.00  0.00    -0.491 OA
BRANCH  38  39
ATOM     39  C   LIG d   1       6.948 -11.793  -0.887  0.00  0.00     0.079 C 
ATOM     40  H   LIG d   1       7.338 -12.644  -1.444  0.00  0.00     0.066 H 
ATOM     41  H   LIG d   1       6.175 -12.132  -0.197  0.00  0.00     0.066 H 
ATOM     42  H   LIG d   1       6.524 -11.066  -1.580  0.00  0.00     0.066 H 
ENDBRANCH  38  39
ENDBRANCH  31  38
BRANCH  33  43
ATOM     43  O   LIG d   1      10.401 -12.475  -0.570  0.00  0.00    -0.491 OA
BRANCH  43  44
ATOM     44  C   LIG d   1      11.457 -13.250  -1.142  0.00  0.00     0.079 C 
ATOM     45  H   LIG d   1      12.374 -12.660  -1.155  0.00  0.00     0.066 H 
ATOM     46  H   LIG d   1      11.612 -14.149  -0.546  0.00  0.00     0.066 H 
ATOM     47  H   LIG d   1      11.192 -13.530  -2.161  0.00  0.00     0.066 H 
ENDBRANCH  43  44
ENDBRANCH  33  43
ENDBRANCH   2  29
BRANCH   5  48
ATOM     48  C   LIG d   1       8.981  -3.501  -4.260  0.00  0.00     0.033 C 
ATOM     49  H   LIG d   1       9.273  -3.494  -5.310  0.00  0.00     0.039 H 
ATOM     50  H   LIG d   1       9.585  -2.778  -3.710  0.00  0.00     0.039 H 
BRANCH  48  51
ATOM     51  C   LIG d   1       7.524  -3.132  -4.140  0.00  0.00    -0.036 A 
ATOM     52  C   LIG d   1       6.572  -3.850  -4.839  0.00  0.00    -0.013 A 
ATOM     53  C   LIG d   1       5.231  -3.515  -4.727  0.00  0.00     0.162 A 
ATOM     54  H   LIG d   1       6.871  -4.675  -5.469  0.00  0.00     0.066 H 
ATOM     55  C   LIG d   1       4.850  -2.452  -3.915  0.00  0.00     0.162 A 
ATOM     56  C   LIG d   1       5.809  -1.734  -3.221  0.00  0.00    -0.016 A 
ATOM     57  C   LIG d   1       7.144  -2.073  -3.338  0.00  0.00    -0.054 A 
ATOM     58  H   LIG d   1       5.515  -0.909  -2.590  0.00  0.00     0.066 H 
ATOM     59  H   LIG d   1       7.892  -1.511  -2.797  0.00  0.00     0.062 H 
BRANCH  53  60
ATOM     60  O   LIG d   1       4.293  -4.223  -5.409  0.00  0.00    -0.491 OA
BRANCH  60  61
ATOM     61  C   LIG d   1       4.314  -4.123  -6.835  0.00  0.00     0.079 C 
ATOM     62  H   LIG d   1       3.793  -4.977  -7.267  0.00  0.00     0.066 H 
ATOM     63  H   LIG d   1       3.819  -3.202  -7.142  0.00  0.00     0.066 H 
ATOM     64  H   LIG d   1       5.346  -4.114  -7.183  0.00  0.00     0.066 H 
ENDBRANCH  60  61
ENDBRANCH  53  60
BRANCH  55  65
ATOM     65  O   LIG d   1       3.535  -2.120  -3.801  0.00  0.00    -0.491 OA
BRANCH  65  66
ATOM     66  C   LIG d   1       3.178  -1.246  -2.728  0.00  0.00     0.079 C 
ATOM     67  H   LIG d   1       2.219  -1.554  -2.313  0.00  0.00     0.066 H 
ATOM     68  H   LIG d   1       3.942  -1.293  -1.952  0.00  0.00     0.066 H 
ATOM     69  H   LIG d   1       3.102  -0.225  -3.101  0.00  0.00     0.066 H 
ENDBRANCH  65  66
ENDBRANCH  55  65
ENDBRANCH  48  51
ENDBRANCH   5  48
BRANCH   3  70
ATOM     70  N   LIG d   1      10.164  -6.302  -0.561  0.00  0.00    -0.343 N 
ATOM     71  H   LIG d   1       9.940  -5.604   0.073  0.00  0.00     0.144 HD
ATOM     72  H   LIG d   1      10.662  -7.082  -0.269  0.00  0.00     0.144 HD
ENDBRANCH   3  70
TORSDOF 18
ENDMDL
MODEL 3
REMARK VINA RESULT:      -5.6      3.091      9.306
REMARK  18 active torsions:
REMARK  status: ('A' for Active; 'I' for Inactive)
REMARK    1  A    between atoms: C_1  and  O_2 
REMARK    2  A    between atoms: O_2  and  C_3 
REMARK    3  A    between atoms: C_6  and  C_11 
REMARK    4  A    between atoms: C_8  and  O_9 
REMARK    5  A    between atoms: O_9  and  C_10 
REMARK    6  A    between atoms: C_11  and  C_12 
REMARK    7  A    between atoms: C_13  and  C_30 
REMARK    8  A    between atoms: C_14  and  N_29 
REMARK    9  A    between atoms: C_16  and  C_18 
REMARK   10  A    between atoms: C_18  and  C_19 
REMARK   11  A    between atoms: C_22  and  O_27 
REMARK   12  A    between atoms: C_23  and  O_25 
REMARK   13  A    between atoms: O_25  and  C_26 
REMARK   14  A    between atoms: O_27  and  C_28 
REMARK   15  A    between atoms: C_33  and  O_38 
REMARK   16  A    between atoms: C_34  and  O_36 
REMARK   17  A    between atoms: O_36  and  C_37 
REMARK   18  A    between atoms: O_38  and  C_39 
ROOT
ATOM      1  C   LIG d   1       6.797  -4.024  -4.785  0.00  0.00     0.059 A 
ATOM      2  C   LIG d   1       5.467  -3.831  -5.148  0.00  0.00     0.043 A 
ATOM      3  C   LIG d   1       4.780  -4.904  -5.744  0.00  0.00     0.128 A 
ATOM      4  N   LIG d   1       5.425  -6.050  -5.934  0.00  0.00    -0.217 NA
ATOM      5  C   LIG d   1       6.685  -6.184  -5.572  0.00  0.00     0.136 A 
ATOM      6  N   LIG d   1       7.360  -5.203  -5.007  0.00  0.00    -0.235 NA
ENDROOT
BRANCH   1   7
ATOM      7  C   LIG d   1       7.585  -2.911  -4.143  0.00  0.00     0.016 C 
ATOM      8  H   LIG d   1       6.995  -2.461  -3.346  0.00  0.00     0.038 H 
ATOM      9  H   LIG d   1       8.509  -3.313  -3.728  0.00  0.00     0.038 H 
BRANCH   7  10
ATOM     10  C   LIG d   1       7.913  -1.867  -5.178  0.00  0.00    -0.038 A 
ATOM     11  C   LIG d   1       8.433  -2.246  -6.402  0.00  0.00    -0.054 A 
ATOM     12  C   LIG d   1       8.731  -1.292  -7.356  0.00  0.00    -0.016 A 
ATOM     13  H   LIG d   1       8.604  -3.292  -6.613  0.00  0.00     0.062 H 
ATOM     14  C   LIG d   1       8.519   0.050  -7.083  0.00  0.00     0.162 A 
ATOM     15  H   LIG d   1       9.134  -1.592  -8.312  0.00  0.00     0.066 H 
ATOM     16  C   LIG d   1       8.001   0.434  -5.851  0.00  0.00     0.162 A 
ATOM     17  C   LIG d   1       7.699  -0.529  -4.900  0.00  0.00    -0.013 A 
ATOM     18  H   LIG d   1       7.298  -0.234  -3.942  0.00  0.00     0.066 H 
BRANCH  14  19
ATOM     19  O   LIG d   1       8.817   0.990  -8.020  0.00  0.00    -0.491 OA
BRANCH  19  20
ATOM     20  C   LIG d   1       7.839   1.232  -9.033  0.00  0.00     0.079 C 
ATOM     21  H   LIG d   1       7.723   2.307  -9.177  0.00  0.00     0.066 H 
ATOM     22  H   LIG d   1       8.161   0.774  -9.967  0.00  0.00     0.066 H 
ATOM     23  H   LIG d   1       6.884   0.803  -8.727  0.00  0.00     0.066 H 
ENDBRANCH  19  20
ENDBRANCH  14  19
BRANCH  16  24
ATOM     24  O   LIG d   1       7.790   1.749  -5.579  0.00  0.00    -0.491 OA
BRANCH  24  25
ATOM     25  C   LIG d   1       8.172   2.213  -4.283  0.00  0.00     0.079 C 
ATOM     26  H   LIG d   1       8.435   3.269  -4.337  0.00  0.00     0.066 H 
ATOM     27  H   LIG d   1       7.340   2.082  -3.590  0.00  0.00     0.066 H 
ATOM     28  H   LIG d   1       9.031   1.643  -3.930  0.00  0.00     0.066 H 
ENDBRANCH  24  25
ENDBRANCH  16  24
ENDBRANCH   7  10
ENDBRANCH   1   7
BRANCH   2  29
ATOM     29  C   LIG d   1       4.794  -2.531  -4.914  0.00  0.00    -0.009 A 
ATOM     30  C   LIG d   1       4.614  -1.637  -5.970  0.00  0.00    -0.008 A 
ATOM     31  C   LIG d   1       3.986  -0.425  -5.747  0.00  0.00     0.162 A 
ATOM     32  H   LIG d   1       4.966  -1.891  -6.958  0.00  0.00     0.066 H 
ATOM     33  C   LIG d   1       3.534  -0.100  -4.470  0.00  0.00     0.162 A 
ATOM     34  C   LIG d   1       3.712  -0.989  -3.422  0.00  0.00    -0.016 A 
ATOM     35  C   LIG d   1       4.333  -2.202  -3.640  0.00  0.00    -0.050 A 
ATOM     36  H   LIG d   1       3.359  -0.735  -2.433  0.00  0.00     0.066 H 
ATOM     37  H   LIG d   1       4.467  -2.895  -2.822  0.00  0.00     0.062 H 
BRANCH  31  38
ATOM     38  O   LIG d   1       3.810   0.448  -6.774  0.00  0.00    -0.491 OA
BRANCH  38  39
ATOM     39  C   LIG d   1       2.795   0.131  -7.729  0.00  0.00     0.079 C 
ATOM     40  H   LIG d   1       2.800   0.875  -8.524  0.00  0.00     0.066 H 
ATOM     41  H   LIG d   1       2.990  -0.855  -8.151  0.00  0.00     0.066 H 
ATOM     42  H   LIG d   1       1.822   0.130  -7.237  0.00  0.00     0.066 H 
ENDBRANCH  38  39
ENDBRANCH  31  38
BRANCH  33  43
ATOM     43  O   LIG d   1       2.916   1.091  -4.253  0.00  0.00    -0.491 OA
BRANCH  43  44
ATOM     44  C   LIG d   1       3.372   1.865  -3.141  0.00  0.00     0.079 C 
ATOM     45  H   LIG d   1       3.410   1.236  -2.252  0.00  0.00     0.066 H 
ATOM     46  H   LIG d   1       4.367   2.255  -3.353  0.00  0.00     0.066 H 
ATOM     47  H   LIG d   1       2.686   2.694  -2.969  0.00  0.00     0.066 H 
ENDBRANCH  43  44
ENDBRANCH  33  43
ENDBRANCH   2  29
BRANCH   5  48
ATOM     48  C   LIG d   1       7.375  -7.503  -5.807  0.00  0.00     0.033 C 
ATOM     49  H   LIG d   1       8.443  -7.334  -5.946  0.00  0.00     0.039 H 
ATOM     50  H   LIG d   1       6.963  -7.975  -6.699  0.00  0.00     0.039 H 
BRANCH  48  51
ATOM     51  C   LIG d   1       7.159  -8.402  -4.617  0.00  0.00    -0.036 A 
ATOM     52  C   LIG d   1       6.030  -9.198  -4.550  0.00  0.00    -0.013 A 
ATOM     53  C   LIG d   1       5.832 -10.030  -3.460  0.00  0.00     0.162 A 
ATOM     54  H   LIG d   1       5.305  -9.175  -5.350  0.00  0.00     0.066 H 
ATOM     55  C   LIG d   1       6.769 -10.056  -2.431  0.00  0.00     0.162 A 
ATOM     56  C   LIG d   1       7.895  -9.253  -2.502  0.00  0.00    -0.016 A 
ATOM     57  C   LIG d   1       8.086  -8.426  -3.592  0.00  0.00    -0.054 A 
ATOM     58  H   LIG d   1       8.623  -9.272  -1.704  0.00  0.00     0.066 H 
ATOM     59  H   LIG d   1       8.965  -7.799  -3.646  0.00  0.00     0.062 H 
BRANCH  53  60
ATOM     60  O   LIG d   1       4.726 -10.816  -3.394  0.00  0.00    -0.491 OA
BRANCH  60  61
ATOM     61  C   LIG d   1       3.474 -10.160  -3.182  0.00  0.00     0.079 C 
ATOM     62  H   LIG d   1       2.670 -10.765  -3.601  0.00  0.00     0.066 H 
ATOM     63  H   LIG d   1       3.310 -10.028  -2.113  0.00  0.00     0.066 H 
ATOM     64  H   LIG d   1       3.488  -9.186  -3.670  0.00  0.00     0.066 H 
ENDBRANCH  60  61
ENDBRANCH  53  60
BRANCH  55  65
ATOM     65  O   LIG d   1       6.580 -10.871  -1.358  0.00  0.00    -0.491 OA
BRANCH  65  66
ATOM     66  C   LIG d   1       7.746 -11.447  -0.768  0.00  0.00     0.079 C 
ATOM     67  H   LIG d   1       7.851 -11.087   0.256  0.00  0.00     0.066 H 
ATOM     68  H   LIG d   1       7.651 -12.533  -0.763  0.00  0.00     0.066 H 
ATOM     69  H   LIG d   1       8.624 -11.162  -1.346  0.00  0.00     0.066 H 
ENDBRANCH  65  66
ENDBRANCH  55  65
ENDBRANCH  48  51
ENDBRANCH   5  48
BRANCH   3  70
ATOM     70  N   LIG d   1       3.457  -4.770  -6.125  0.00  0.00    -0.343 N 
ATOM     71  H   LIG d   1       2.931  -4.023  -5.800  0.00  0.00     0.144 HD
ATOM     72  H   LIG d   1       3.055  -5.423  -6.719  0.00  0.00     0.144 HD
ENDBRANCH   3  70
TORSDOF 18
ENDMDL
MODEL 4
REMARK VINA RESULT:      -5.6      8.749     13.437
REMARK  18 active torsions:
REMARK  status: ('A' for Active; 'I' for Inactive)
REMARK    1  A    between atoms: C_1  and  O_2 
REMARK    2  A    between atoms: O_2  and  C_3 
REMARK    3  A    between atoms: C_6  and  C_11 
REMARK    4  A    between atoms: C_8  and  O_9 
REMARK    5  A    between atoms: O_9  and  C_10 
REMARK    6  A    between atoms: C_11  and  C_12 
REMARK    7  A    between atoms: C_13  and  C_30 
REMARK    8  A    between atoms: C_14  and  N_29 
REMARK    9  A    between atoms: C_16  and  C_18 
REMARK   10  A    between atoms: C_18  and  C_19 
REMARK   11  A    between atoms: C_22  and  O_27 
REMARK   12  A    between atoms: C_23  and  O_25 
REMARK   13  A    between atoms: O_25  and  C_26 
REMARK   14  A    between atoms: O_27  and  C_28 
REMARK   15  A    between atoms: C_33  and  O_38 
REMARK   16  A    between atoms: C_34  and  O_36 
REMARK   17  A    between atoms: O_36  and  C_37 
REMARK   18  A    between atoms: O_38  and  C_39 
ROOT
ATOM      1  C   LIG d   1       9.617   4.304  -4.090  0.00  0.00     0.059 A 
ATOM      2  C   LIG d   1      10.786   3.836  -3.495  0.00  0.00     0.043 A 
ATOM      3  C   LIG d   1      11.095   2.470  -3.625  0.00  0.00     0.128 A 
ATOM      4  N   LIG d   1      10.264   1.688  -4.306  0.00  0.00    -0.217 NA
ATOM      5  C   LIG d   1       9.169   2.179  -4.851  0.00  0.00     0.136 A 
ATOM      6  N   LIG d   1       8.849   3.454  -4.755  0.00  0.00    -0.235 NA
ENDROOT
BRANCH   1   7
ATOM      7  C   LIG d   1       9.233   5.758  -3.984  0.00  0.00     0.016 C 
ATOM      8  H   LIG d   1       8.156   5.841  -3.848  0.00  0.00     0.038 H 
ATOM      9  H   LIG d   1       9.743   6.207  -3.131  0.00  0.00     0.038 H 
BRANCH   7  10
ATOM     10  C   LIG d   1       9.638   6.476  -5.245  0.00  0.00    -0.038 A 
ATOM     11  C   LIG d   1      10.159   5.763  -6.309  0.00  0.00    -0.054 A 
ATOM     12  C   LIG d   1      10.528   6.418  -7.470  0.00  0.00    -0.016 A 
ATOM     13  H   LIG d   1      10.277   4.692  -6.234  0.00  0.00     0.062 H 
ATOM     14  C   LIG d   1      10.384   7.793  -7.565  0.00  0.00     0.162 A 
ATOM     15  H   LIG d   1      10.932   5.858  -8.300  0.00  0.00     0.066 H 
ATOM     16  C   LIG d   1       9.865   8.512  -6.493  0.00  0.00     0.162 A 
ATOM     17  C   LIG d   1       9.492   7.848  -5.334  0.00  0.00    -0.013 A 
ATOM     18  H   LIG d   1       9.090   8.404  -4.500  0.00  0.00     0.066 H 
BRANCH  14  19
ATOM     19  O   LIG d   1      10.751   8.438  -8.705  0.00  0.00    -0.491 OA
BRANCH  19  20
ATOM     20  C   LIG d   1      10.040   8.104  -9.898  0.00  0.00     0.079 C 
ATOM     21  H   LIG d   1      10.086   7.026 -10.059  0.00  0.00     0.066 H 
ATOM     22  H   LIG d   1       9.000   8.413  -9.800  0.00  0.00     0.066 H 
ATOM     23  H   LIG d   1      10.493   8.617 -10.747  0.00  0.00     0.066 H 
ENDBRANCH  19  20
ENDBRANCH  14  19
BRANCH  16  24
ATOM     24  O   LIG d   1       9.722   9.860  -6.582  0.00  0.00    -0.491 OA
BRANCH  24  25
ATOM     25  C   LIG d   1       9.462  10.567  -5.368  0.00  0.00     0.079 C 
ATOM     26  H   LIG d   1       8.467  10.313  -5.004  0.00  0.00     0.066 H 
ATOM     27  H   LIG d   1      10.204  10.287  -4.619  0.00  0.00     0.066 H 
ATOM     28  H   LIG d   1       9.520  11.640  -5.551  0.00  0.00     0.066 H 
ENDBRANCH  24  25
ENDBRANCH  16  24
ENDBRANCH   7  10
ENDBRANCH   1   7
BRANCH   2  29
ATOM     29  C   LIG d   1      11.680   4.752  -2.745  0.00  0.00    -0.009 A 
ATOM     30  C   LIG d   1      11.502   4.934  -1.374  0.00  0.00    -0.008 A 
ATOM     31  C   LIG d   1      12.337   5.789  -0.679  0.00  0.00     0.162 A 
ATOM     32  H   LIG d   1      10.712   4.409  -0.857  0.00  0.00     0.066 H 
ATOM     33  C   LIG d   1      13.354   6.466  -1.348  0.00  0.00     0.162 A 
ATOM     34  C   LIG d   1      13.531   6.283  -2.711  0.00  0.00    -0.016 A 
ATOM     35  C   LIG d   1      12.703   5.427  -3.409  0.00  0.00    -0.050 A 
ATOM     36  H   LIG d   1      14.321   6.809  -3.228  0.00  0.00     0.066 H 
ATOM     37  H   LIG d   1      12.846   5.284  -4.469  0.00  0.00     0.062 H 
BRANCH  31  38
ATOM     38  O   LIG d   1      12.166   5.969   0.658  0.00  0.00    -0.491 OA
BRANCH  38  39
ATOM     39  C   LIG d   1      11.058   6.773   1.068  0.00  0.00     0.079 C 
ATOM     40  H   LIG d   1      10.257   6.129   1.430  0.00  0.00     0.066 H 
ATOM     41  H   LIG d   1      11.373   7.445   1.867  0.00  0.00     0.066 H 
ATOM     42  H   LIG d   1      10.700   7.358   0.221  0.00  0.00     0.066 H 
ENDBRANCH  38  39
ENDBRANCH  31  38
BRANCH  33  43
ATOM     43  O   LIG d   1      14.175   7.305  -0.663  0.00  0.00    -0.491 OA
BRANCH  43  44
ATOM     44  C   LIG d   1      13.951   8.708  -0.827  0.00  0.00     0.079 C 
ATOM     45  H   LIG d   1      14.068   8.974  -1.877  0.00  0.00     0.066 H 
ATOM     46  H   LIG d   1      12.941   8.955  -0.500  0.00  0.00     0.066 H 
ATOM     47  H   LIG d   1      14.672   9.264  -0.228  0.00  0.00     0.066 H 
ENDBRANCH  43  44
ENDBRANCH  33  43
ENDBRANCH   2  29
BRANCH   5  48
ATOM     48  C   LIG d   1       8.257   1.254  -5.614  0.00  0.00     0.033 C 
ATOM     49  H   LIG d   1       8.855   0.553  -6.197  0.00  0.00     0.039 H 
ATOM     50  H   LIG d   1       7.626   1.838  -6.286  0.00  0.00     0.039 H 
BRANCH  48  51
ATOM     51  C   LIG d   1       7.389   0.491  -4.646  0.00  0.00    -0.036 A 
ATOM     52  C   LIG d   1       6.620   1.175  -3.723  0.00  0.00    -0.013 A 
ATOM     53  C   LIG d   1       5.818   0.476  -2.836  0.00  0.00     0.162 A 
ATOM     54  H   LIG d   1       6.641   2.255  -3.697  0.00  0.00     0.066 H 
ATOM     55  C   LIG d   1       5.794  -0.914  -2.872  0.00  0.00     0.162 A 
ATOM     56  C   LIG d   1       6.571  -1.594  -3.796  0.00  0.00    -0.016 A 
ATOM     57  C   LIG d   1       7.369  -0.890  -4.678  0.00  0.00    -0.054 A 
ATOM     58  H   LIG d   1       6.554  -2.673  -3.826  0.00  0.00     0.066 H 
ATOM     59  H   LIG d   1       7.975  -1.421  -5.398  0.00  0.00     0.062 H 
BRANCH  53  60
ATOM     60  O   LIG d   1       5.057   1.147  -1.931  0.00  0.00    -0.491 OA
BRANCH  60  61
ATOM     61  C   LIG d   1       3.738   1.515  -2.338  0.00  0.00     0.079 C 
ATOM     62  H   LIG d   1       3.595   2.585  -2.186  0.00  0.00     0.066 H 
ATOM     63  H   LIG d   1       3.603   1.278  -3.393  0.00  0.00     0.066 H 
ATOM     64  H   LIG d   1       3.008   0.964  -1.746  0.00  0.00     0.066 H 
ENDBRANCH  60  61
ENDBRANCH  53  60
BRANCH  55  65
ATOM     65  O   LIG d   1       5.008  -1.606  -2.003  0.00  0.00    -0.491 OA
BRANCH  65  66
ATOM     66  C   LIG d   1       3.823  -2.201  -2.534  0.00  0.00     0.079 C 
ATOM     67  H   LIG d   1       3.052  -2.223  -1.764  0.00  0.00     0.066 H 
ATOM     68  H   LIG d   1       3.472  -1.616  -3.384  0.00  0.00     0.066 H 
ATOM     69  H   LIG d   1       4.042  -3.218  -2.859  0.00  0.00     0.066 H 
ENDBRANCH  65  66
ENDBRANCH  55  65
ENDBRANCH  48  51
ENDBRANCH   5  48
BRANCH   3  70
ATOM     70  N   LIG d   1      12.243   1.949  -3.055  0.00  0.00    -0.343 N 
ATOM     71  H   LIG d   1      12.190   1.169  -2.481  0.00  0.00     0.144 HD
ATOM     72  H   LIG d   1      13.102   2.364  -3.229  0.00  0.00     0.144 HD
ENDBRANCH   3  70
TORSDOF 18
ENDMDL
MODEL 5
REMARK VINA RESULT:      -5.5      3.004      9.116
REMARK  18 active torsions:
REMARK  status: ('A' for Active; 'I' for Inactive)
REMARK    1  A    between atoms: C_1  and  O_2 
REMARK    2  A    between atoms: O_2  and  C_3 
REMARK    3  A    between atoms: C_6  and  C_11 
REMARK    4  A    between atoms: C_8  and  O_9 
REMARK    5  A    between atoms: O_9  and  C_10 
REMARK    6  A    between atoms: C_11  and  C_12 
REMARK    7  A    between atoms: C_13  and  C_30 
REMARK    8  A    between atoms: C_14  and  N_29 
REMARK    9  A    between atoms: C_16  and  C_18 
REMARK   10  A    between atoms: C_18  and  C_19 
REMARK   11  A    between atoms: C_22  and  O_27 
REMARK   12  A    between atoms: C_23  and  O_25 
REMARK   13  A    between atoms: O_25  and  C_26 
REMARK   14  A    between atoms: O_27  and  C_28 
REMARK   15  A    between atoms: C_33  and  O_38 
REMARK   16  A    between atoms: C_34  and  O_36 
REMARK   17  A    between atoms: O_36  and  C_37 
REMARK   18  A    between atoms: O_38  and  C_39 
ROOT
ATOM      1  C   LIG d   1       6.835  -4.067  -4.772  0.00  0.00     0.059 A 
ATOM      2  C   LIG d   1       5.503  -3.865  -5.126  0.00  0.00     0.043 A 
ATOM      3  C   LIG d   1       4.805  -4.935  -5.714  0.00  0.00     0.128 A 
ATOM      4  N   LIG d   1       5.440  -6.086  -5.906  0.00  0.00    -0.217 NA
ATOM      5  C   LIG d   1       6.702  -6.228  -5.553  0.00  0.00     0.136 A 
ATOM      6  N   LIG d   1       7.388  -5.250  -4.995  0.00  0.00    -0.235 NA
ENDROOT
BRANCH   1   7
ATOM      7  C   LIG d   1       7.635  -2.957  -4.138  0.00  0.00     0.016 C 
ATOM      8  H   LIG d   1       7.596  -2.073  -4.773  0.00  0.00     0.038 H 
ATOM      9  H   LIG d   1       7.216  -2.721  -3.160  0.00  0.00     0.038 H 
BRANCH   7  10
ATOM     10  C   LIG d   1       9.066  -3.400  -3.978  0.00  0.00    -0.038 A 
ATOM     11  C   LIG d   1       9.476  -4.001  -2.802  0.00  0.00    -0.054 A 
ATOM     12  C   LIG d   1      10.787  -4.412  -2.652  0.00  0.00    -0.016 A 
ATOM     13  H   LIG d   1       8.768  -4.151  -1.999  0.00  0.00     0.062 H 
ATOM     14  C   LIG d   1      11.697  -4.214  -3.679  0.00  0.00     0.162 A 
ATOM     15  H   LIG d   1      11.103  -4.884  -1.733  0.00  0.00     0.066 H 
ATOM     16  C   LIG d   1      11.287  -3.604  -4.860  0.00  0.00     0.162 A 
ATOM     17  C   LIG d   1       9.969  -3.199  -5.005  0.00  0.00    -0.013 A 
ATOM     18  H   LIG d   1       9.648  -2.724  -5.921  0.00  0.00     0.066 H 
BRANCH  14  19
ATOM     19  O   LIG d   1      12.988  -4.614  -3.530  0.00  0.00    -0.491 OA
BRANCH  19  20
ATOM     20  C   LIG d   1      13.224  -6.017  -3.407  0.00  0.00     0.079 C 
ATOM     21  H   LIG d   1      14.069  -6.300  -4.036  0.00  0.00     0.066 H 
ATOM     22  H   LIG d   1      13.448  -6.259  -2.369  0.00  0.00     0.066 H 
ATOM     23  H   LIG d   1      12.336  -6.565  -3.725  0.00  0.00     0.066 H 
ENDBRANCH  19  20
ENDBRANCH  14  19
BRANCH  16  24
ATOM     24  O   LIG d   1      12.176  -3.408  -5.869  0.00  0.00    -0.491 OA
BRANCH  24  25
ATOM     25  C   LIG d   1      12.025  -2.217  -6.644  0.00  0.00     0.079 C 
ATOM     26  H   LIG d   1      11.264  -2.375  -7.409  0.00  0.00     0.066 H 
ATOM     27  H   LIG d   1      11.720  -1.396  -5.994  0.00  0.00     0.066 H 
ATOM     28  H   LIG d   1      12.973  -1.970  -7.121  0.00  0.00     0.066 H 
ENDBRANCH  24  25
ENDBRANCH  16  24
ENDBRANCH   7  10
ENDBRANCH   1   7
BRANCH   2  29
ATOM     29  C   LIG d   1       4.841  -2.559  -4.890  0.00  0.00    -0.009 A 
ATOM     30  C   LIG d   1       4.758  -1.623  -5.919  0.00  0.00    -0.008 A 
ATOM     31  C   LIG d   1       4.139  -0.406  -5.695  0.00  0.00     0.162 A 
ATOM     32  H   LIG d   1       5.177  -1.847  -6.889  0.00  0.00     0.066 H 
ATOM     33  C   LIG d   1       3.600  -0.119  -4.443  0.00  0.00     0.162 A 
ATOM     34  C   LIG d   1       3.683  -1.052  -3.420  0.00  0.00    -0.016 A 
ATOM     35  C   LIG d   1       4.294  -2.269  -3.640  0.00  0.00    -0.050 A 
ATOM     36  H   LIG d   1       3.263  -0.827  -2.450  0.00  0.00     0.066 H 
ATOM     37  H   LIG d   1       4.353  -2.995  -2.844  0.00  0.00     0.062 H 
BRANCH  31  38
ATOM     38  O   LIG d   1       4.057   0.510  -6.696  0.00  0.00    -0.491 OA
BRANCH  38  39
ATOM     39  C   LIG d   1       2.969   0.372  -7.613  0.00  0.00     0.079 C 
ATOM     40  H   LIG d   1       3.055   1.128  -8.394  0.00  0.00     0.066 H 
ATOM     41  H   LIG d   1       2.996  -0.620  -8.062  0.00  0.00     0.066 H 
ATOM     42  H   LIG d   1       2.027   0.505  -7.081  0.00  0.00     0.066 H 
ENDBRANCH  38  39
ENDBRANCH  31  38
BRANCH  33  43
ATOM     43  O   LIG d   1       2.992   1.077  -4.224  0.00  0.00    -0.491 OA
BRANCH  43  44
ATOM     44  C   LIG d   1       3.343   1.773  -3.026  0.00  0.00     0.079 C 
ATOM     45  H   LIG d   1       3.268   1.094  -2.176  0.00  0.00     0.066 H 
ATOM     46  H   LIG d   1       4.364   2.143  -3.106  0.00  0.00     0.066 H 
ATOM     47  H   LIG d   1       2.662   2.612  -2.881  0.00  0.00     0.066 H 
ENDBRANCH  43  44
ENDBRANCH  33  43
ENDBRANCH   2  29
BRANCH   5  48
ATOM     48  C   LIG d   1       7.381  -7.551  -5.790  0.00  0.00     0.033 C 
ATOM     49  H   LIG d   1       8.440  -7.386  -5.986  0.00  0.00     0.039 H 
ATOM     50  H   LIG d   1       6.925  -8.045  -6.648  0.00  0.00     0.039 H 
BRANCH  48  51
ATOM     51  C   LIG d   1       7.226  -8.422  -4.569  0.00  0.00    -0.036 A 
ATOM     52  C   LIG d   1       6.107  -9.222  -4.431  0.00  0.00    -0.013 A 
ATOM     53  C   LIG d   1       5.965 -10.027  -3.311  0.00  0.00     0.162 A 
ATOM     54  H   LIG d   1       5.346  -9.224  -5.197  0.00  0.00     0.066 H 
ATOM     55  C   LIG d   1       6.947 -10.021  -2.326  0.00  0.00     0.162 A 
ATOM     56  C   LIG d   1       8.063  -9.214  -2.469  0.00  0.00    -0.016 A 
ATOM     57  C   LIG d   1       8.199  -8.413  -3.587  0.00  0.00    -0.054 A 
ATOM     58  H   LIG d   1       8.827  -9.208  -1.705  0.00  0.00     0.066 H 
ATOM     59  H   LIG d   1       9.070  -7.783  -3.697  0.00  0.00     0.062 H 
BRANCH  53  60
ATOM     60  O   LIG d   1       4.868 -10.818  -3.176  0.00  0.00    -0.491 OA
BRANCH  60  61
ATOM     61  C   LIG d   1       3.592 -10.183  -3.286  0.00  0.00     0.079 C 
ATOM     62  H   LIG d   1       2.853 -10.909  -3.626  0.00  0.00     0.066 H 
ATOM     63  H   LIG d   1       3.296  -9.792  -2.313  0.00  0.00     0.066 H 
ATOM     64  H   LIG d   1       3.654  -9.365  -4.003  0.00  0.00     0.066 H 
ENDBRANCH  60  61
ENDBRANCH  53  60
BRANCH  55  65
ATOM     65  O   LIG d   1       6.813 -10.810  -1.225  0.00  0.00    -0.491 OA
BRANCH  65  66
ATOM     66  C   LIG d   1       8.016 -11.252  -0.594  0.00  0.00     0.079 C 
ATOM     67  H   LIG d   1       8.066 -10.845   0.416  0.00  0.00     0.066 H 
ATOM     68  H   LIG d   1       8.023 -12.341  -0.548  0.00  0.00     0.066 H 
ATOM     69  H   LIG d   1       8.876 -10.907  -1.168  0.00  0.00     0.066 H 
ENDBRANCH  65  66
ENDBRANCH  55  65
ENDBRANCH  48  51
ENDBRANCH   5  48
BRANCH   3  70
ATOM     70  N   LIG d   1       3.479  -4.792  -6.086  0.00  0.00    -0.343 N 
ATOM     71  H   LIG d   1       2.819  -5.438  -5.790  0.00  0.00     0.144 HD
ATOM     72  H   LIG d   1       3.210  -4.045  -6.643  0.00  0.00     0.144 HD
ENDBRANCH   3  70
TORSDOF 18
ENDMDL
MODEL 6
REMARK VINA RESULT:      -5.4      6.668     10.599
REMARK  18 active torsions:
REMARK  status: ('A' for Active; 'I' for Inactive)
REMARK    1  A    between atoms: C_1  and  O_2 
REMARK    2  A    between atoms: O_2  and  C_3 
REMARK    3  A    between atoms: C_6  and  C_11 
REMARK    4  A    between atoms: C_8  and  O_9 
REMARK    5  A    between atoms: O_9  and  C_10 
REMARK    6  A    between atoms: C_11  and  C_12 
REMARK    7  A    between atoms: C_13  and  C_30 
REMARK    8  A    between atoms: C_14  and  N_29 
REMARK    9  A    between atoms: C_16  and  C_18 
REMARK   10  A    between atoms: C_18  and  C_19 
REMARK   11  A    between atoms: C_22  and  O_27 
REMARK   12  A    between atoms: C_23  and  O_25 
REMARK   13  A    between atoms: O_25  and  C_26 
REMARK   14  A    between atoms: O_27  and  C_28 
REMARK   15  A    between atoms: C_33  and  O_38 
REMARK   16  A    between atoms: C_34  and  O_36 
REMARK   17  A    between atoms: O_36  and  C_37 
REMARK   18  A    between atoms: O_38  and  C_39 
ROOT
ATOM      1  C   LIG d   1       4.192   0.705  -8.690  0.00  0.00     0.059 A 
ATOM      2  C   LIG d   1       4.336  -0.103  -9.814  0.00  0.00     0.043 A 
ATOM      3  C   LIG d   1       5.540  -0.022 -10.538  0.00  0.00     0.128 A 
ATOM      4  N   LIG d   1       6.482   0.816 -10.121  0.00  0.00    -0.217 NA
ATOM      5  C   LIG d   1       6.298   1.560  -9.048  0.00  0.00     0.136 A 
ATOM      6  N   LIG d   1       5.186   1.508  -8.342  0.00  0.00    -0.235 NA
ENDROOT
BRANCH   1   7
ATOM      7  C   LIG d   1       2.924   0.662  -7.874  0.00  0.00     0.016 C 
ATOM      8  H   LIG d   1       2.534   1.672  -7.756  0.00  0.00     0.038 H 
ATOM      9  H   LIG d   1       2.186   0.043  -8.384  0.00  0.00     0.038 H 
BRANCH   7  10
ATOM     10  C   LIG d   1       3.220   0.075  -6.518  0.00  0.00    -0.038 A 
ATOM     11  C   LIG d   1       2.547   0.538  -5.403  0.00  0.00    -0.054 A 
ATOM     12  C   LIG d   1       2.812  -0.001  -4.158  0.00  0.00    -0.016 A 
ATOM     13  H   LIG d   1       1.810   1.321  -5.505  0.00  0.00     0.062 H 
ATOM     14  C   LIG d   1       3.762  -1.002  -4.024  0.00  0.00     0.162 A 
ATOM     15  H   LIG d   1       2.282   0.360  -3.289  0.00  0.00     0.066 H 
ATOM     16  C   LIG d   1       4.444  -1.464  -5.145  0.00  0.00     0.162 A 
ATOM     17  C   LIG d   1       4.170  -0.923  -6.391  0.00  0.00    -0.013 A 
ATOM     18  H   LIG d   1       4.698  -1.279  -7.263  0.00  0.00     0.066 H 
BRANCH  14  19
ATOM     19  O   LIG d   1       4.027  -1.529  -2.799  0.00  0.00    -0.491 OA
BRANCH  19  20
ATOM     20  C   LIG d   1       4.400  -0.616  -1.765  0.00  0.00     0.079 C 
ATOM     21  H   LIG d   1       5.044   0.160  -2.180  0.00  0.00     0.066 H 
ATOM     22  H   LIG d   1       3.505  -0.157  -1.345  0.00  0.00     0.066 H 
ATOM     23  H   LIG d   1       4.936  -1.152  -0.982  0.00  0.00     0.066 H 
ENDBRANCH  19  20
ENDBRANCH  14  19
BRANCH  16  24
ATOM     24  O   LIG d   1       5.377  -2.445  -5.018  0.00  0.00    -0.491 OA
BRANCH  24  25
ATOM     25  C   LIG d   1       4.967  -3.775  -5.340  0.00  0.00     0.079 C 
ATOM     26  H   LIG d   1       3.884  -3.802  -5.467  0.00  0.00     0.066 H 
ATOM     27  H   LIG d   1       5.448  -4.090  -6.267  0.00  0.00     0.066 H 
ATOM     28  H   LIG d   1       5.255  -4.450  -4.535  0.00  0.00     0.066 H 
ENDBRANCH  24  25
ENDBRANCH  16  24
ENDBRANCH   7  10
ENDBRANCH   1   7
BRANCH   2  29
ATOM     29  C   LIG d   1       3.252  -1.022 -10.238  0.00  0.00    -0.009 A 
ATOM     30  C   LIG d   1       3.237  -2.340  -9.783  0.00  0.00    -0.008 A 
ATOM     31  C   LIG d   1       2.224  -3.194 -10.181  0.00  0.00     0.162 A 
ATOM     32  H   LIG d   1       4.015  -2.693  -9.123  0.00  0.00     0.066 H 
ATOM     33  C   LIG d   1       1.222  -2.736 -11.033  0.00  0.00     0.162 A 
ATOM     34  C   LIG d   1       1.238  -1.425 -11.484  0.00  0.00    -0.016 A 
ATOM     35  C   LIG d   1       2.243  -0.568 -11.086  0.00  0.00    -0.050 A 
ATOM     36  H   LIG d   1       0.459  -1.072 -12.144  0.00  0.00     0.066 H 
ATOM     37  H   LIG d   1       2.250   0.454 -11.435  0.00  0.00     0.062 H 
BRANCH  31  38
ATOM     38  O   LIG d   1       2.206  -4.480  -9.739  0.00  0.00    -0.491 OA
BRANCH  38  39
ATOM     39  C   LIG d   1       3.303  -4.902  -8.926  0.00  0.00     0.079 C 
ATOM     40  H   LIG d   1       4.227  -4.836  -9.500  0.00  0.00     0.066 H 
ATOM     41  H   LIG d   1       3.373  -4.258  -8.049  0.00  0.00     0.066 H 
ATOM     42  H   LIG d   1       3.144  -5.932  -8.608  0.00  0.00     0.066 H 
ENDBRANCH  38  39
ENDBRANCH  31  38
BRANCH  33  43
ATOM     43  O   LIG d   1       0.226  -3.576 -11.422  0.00  0.00    -0.491 OA
BRANCH  43  44
ATOM     44  C   LIG d   1       0.265  -4.047 -12.772  0.00  0.00     0.079 C 
ATOM     45  H   LIG d   1       1.247  -3.841 -13.200  0.00  0.00     0.066 H 
ATOM     46  H   LIG d   1       0.079  -5.120 -12.788  0.00  0.00     0.066 H 
ATOM     47  H   LIG d   1      -0.500  -3.537 -13.357  0.00  0.00     0.066 H 
ENDBRANCH  43  44
ENDBRANCH  33  43
ENDBRANCH   2  29
BRANCH   5  48
ATOM     48  C   LIG d   1       7.395   2.495  -8.613  0.00  0.00     0.033 C 
ATOM     49  H   LIG d   1       6.959   3.357  -8.107  0.00  0.00     0.039 H 
ATOM     50  H   LIG d   1       7.955   2.832  -9.486  0.00  0.00     0.039 H 
BRANCH  48  51
ATOM     51  C   LIG d   1       8.324   1.776  -7.668  0.00  0.00    -0.036 A 
ATOM     52  C   LIG d   1       7.992   1.656  -6.332  0.00  0.00    -0.013 A 
ATOM     53  C   LIG d   1       8.842   0.991  -5.463  0.00  0.00     0.162 A 
ATOM     54  H   LIG d   1       7.067   2.077  -5.966  0.00  0.00     0.066 H 
ATOM     55  C   LIG d   1      10.033   0.450  -5.939  0.00  0.00     0.162 A 
ATOM     56  C   LIG d   1      10.362   0.578  -7.278  0.00  0.00    -0.016 A 
ATOM     57  C   LIG d   1       9.510   1.243  -8.139  0.00  0.00    -0.054 A 
ATOM     58  H   LIG d   1      11.286   0.159  -7.650  0.00  0.00     0.066 H 
ATOM     59  H   LIG d   1       9.769   1.343  -9.184  0.00  0.00     0.062 H 
BRANCH  53  60
ATOM     60  O   LIG d   1       8.515   0.867  -4.150  0.00  0.00    -0.491 OA
BRANCH  60  61
ATOM     61  C   LIG d   1       7.127   0.938  -3.818  0.00  0.00     0.079 C 
ATOM     62  H   LIG d   1       6.542   0.429  -4.585  0.00  0.00     0.066 H 
ATOM     63  H   LIG d   1       6.959   0.456  -2.855  0.00  0.00     0.066 H 
ATOM     64  H   LIG d   1       6.819   1.981  -3.760  0.00  0.00     0.066 H 
ENDBRANCH  60  61
ENDBRANCH  53  60
BRANCH  55  65
ATOM     65  O   LIG d   1      10.871  -0.204  -5.091  0.00  0.00    -0.491 OA
BRANCH  65  66
ATOM     66  C   LIG d   1      10.903  -1.629  -5.182  0.00  0.00     0.079 C 
ATOM     67  H   LIG d   1      10.701  -2.061  -4.202  0.00  0.00     0.066 H 
ATOM     68  H   LIG d   1      10.146  -1.965  -5.891  0.00  0.00     0.066 H 
ATOM     69  H   LIG d   1      11.887  -1.950  -5.524  0.00  0.00     0.066 H 
ENDBRANCH  65  66
ENDBRANCH  55  65
ENDBRANCH  48  51
ENDBRANCH   5  48
BRANCH   3  70
ATOM     70  N   LIG d   1       5.739  -0.801 -11.665  0.00  0.00    -0.343 N 
ATOM     71  H   LIG d   1       6.607  -1.200 -11.832  0.00  0.00     0.144 HD
ATOM     72  H   LIG d   1       5.010  -0.948 -12.287  0.00  0.00     0.144 HD
ENDBRANCH   3  70
TORSDOF 18
ENDMDL
MODEL 7
REMARK VINA RESULT:      -5.4      3.594      6.862
REMARK  18 active torsions:
REMARK  status: ('A' for Active; 'I' for Inactive)
REMARK    1  A    between atoms: C_1  and  O_2 
REMARK    2  A    between atoms: O_2  and  C_3 
REMARK    3  A    between atoms: C_6  and  C_11 
REMARK    4  A    between atoms: C_8  and  O_9 
REMARK    5  A    between atoms: O_9  and  C_10 
REMARK    6  A    between atoms: C_11  and  C_12 
REMARK    7  A    between atoms: C_13  and  C_30 
REMARK    8  A    between atoms: C_14  and  N_29 
REMARK    9  A    between atoms: C_16  and  C_18 
REMARK   10  A    between atoms: C_18  and  C_19 
REMARK   11  A    between atoms: C_22  and  O_27 
REMARK   12  A    between atoms: C_23  and  O_25 
REMARK   13  A    between atoms: O_25  and  C_26 
REMARK   14  A    between atoms: O_27  and  C_28 
REMARK   15  A    between atoms: C_33  and  O_38 
REMARK   16  A    between atoms: C_34  and  O_36 
REMARK   17  A    between atoms: O_36  and  C_37 
REMARK   18  A    between atoms: O_38  and  C_39 
ROOT
ATOM      1  C   LIG d   1       4.532  -4.946  -6.431  0.00  0.00     0.059 A 
ATOM      2  C   LIG d   1       5.001  -6.188  -6.852  0.00  0.00     0.043 A 
ATOM      3  C   LIG d   1       4.769  -6.566  -8.187  0.00  0.00     0.128 A 
ATOM      4  N   LIG d   1       4.116  -5.728  -8.985  0.00  0.00    -0.217 NA
ATOM      5  C   LIG d   1       3.692  -4.563  -8.539  0.00  0.00     0.136 A 
ATOM      6  N   LIG d   1       3.895  -4.172  -7.297  0.00  0.00    -0.235 NA
ENDROOT
BRANCH   1   7
ATOM      7  C   LIG d   1       4.751  -4.486  -5.012  0.00  0.00     0.016 C 
ATOM      8  H   LIG d   1       3.807  -4.518  -4.470  0.00  0.00     0.038 H 
ATOM      9  H   LIG d   1       5.473  -5.142  -4.525  0.00  0.00     0.038 H 
BRANCH   7  10
ATOM     10  C   LIG d   1       5.281  -3.076  -5.018  0.00  0.00    -0.038 A 
ATOM     11  C   LIG d   1       6.605  -2.836  -5.334  0.00  0.00    -0.054 A 
ATOM     12  C   LIG d   1       7.094  -1.543  -5.345  0.00  0.00    -0.016 A 
ATOM     13  H   LIG d   1       7.259  -3.662  -5.574  0.00  0.00     0.062 H 
ATOM     14  C   LIG d   1       6.258  -0.484  -5.030  0.00  0.00     0.162 A 
ATOM     15  H   LIG d   1       8.129  -1.359  -5.595  0.00  0.00     0.066 H 
ATOM     16  C   LIG d   1       4.926  -0.724  -4.708  0.00  0.00     0.162 A 
ATOM     17  C   LIG d   1       4.441  -2.023  -4.703  0.00  0.00    -0.013 A 
ATOM     18  H   LIG d   1       3.408  -2.213  -4.453  0.00  0.00     0.066 H 
BRANCH  14  19
ATOM     19  O   LIG d   1       6.739   0.788  -5.036  0.00  0.00    -0.491 OA
BRANCH  19  20
ATOM     20  C   LIG d   1       7.530   1.189  -3.916  0.00  0.00     0.079 C 
ATOM     21  H   LIG d   1       7.062   0.837  -2.996  0.00  0.00     0.066 H 
ATOM     22  H   LIG d   1       8.527   0.760  -4.003  0.00  0.00     0.066 H 
ATOM     23  H   LIG d   1       7.602   2.277  -3.893  0.00  0.00     0.066 H 
ENDBRANCH  19  20
ENDBRANCH  14  19
BRANCH  16  24
ATOM     24  O   LIG d   1       4.102   0.312  -4.399  0.00  0.00    -0.491 OA
BRANCH  24  25
ATOM     25  C   LIG d   1       2.784   0.280  -4.950  0.00  0.00     0.079 C 
ATOM     26  H   LIG d   1       2.054   0.439  -4.157  0.00  0.00     0.066 H 
ATOM     27  H   LIG d   1       2.684   1.066  -5.699  0.00  0.00     0.066 H 
ATOM     28  H   LIG d   1       2.608  -0.689  -5.417  0.00  0.00     0.066 H 
ENDBRANCH  24  25
ENDBRANCH  16  24
ENDBRANCH   7  10
ENDBRANCH   1   7
BRANCH   2  29
ATOM     29  C   LIG d   1       5.725  -7.086  -5.920  0.00  0.00    -0.009 A 
ATOM     30  C   LIG d   1       5.066  -8.169  -5.341  0.00  0.00    -0.008 A 
ATOM     31  C   LIG d   1       5.744  -9.004  -4.472  0.00  0.00     0.162 A 
ATOM     32  H   LIG d   1       4.027  -8.355  -5.570  0.00  0.00     0.066 H 
ATOM     33  C   LIG d   1       7.084  -8.762  -4.178  0.00  0.00     0.162 A 
ATOM     34  C   LIG d   1       7.739  -7.685  -4.755  0.00  0.00    -0.016 A 
ATOM     35  C   LIG d   1       7.068  -6.852  -5.626  0.00  0.00    -0.050 A 
ATOM     36  H   LIG d   1       8.778  -7.500  -4.525  0.00  0.00     0.066 H 
ATOM     37  H   LIG d   1       7.582  -6.017  -6.078  0.00  0.00     0.062 H 
BRANCH  31  38
ATOM     38  O   LIG d   1       5.103 -10.061  -3.905  0.00  0.00    -0.491 OA
BRANCH  38  39
ATOM     39  C   LIG d   1       3.772  -9.838  -3.436  0.00  0.00     0.079 C 
ATOM     40  H   LIG d   1       3.171  -9.413  -4.239  0.00  0.00     0.066 H 
ATOM     41  H   LIG d   1       3.336 -10.785  -3.117  0.00  0.00     0.066 H 
ATOM     42  H   LIG d   1       3.795  -9.146  -2.594  0.00  0.00     0.066 H 
ENDBRANCH  38  39
ENDBRANCH  31  38
BRANCH  33  43
ATOM     43  O   LIG d   1       7.750  -9.584  -3.324  0.00  0.00    -0.491 OA
BRANCH  43  44
ATOM     44  C   LIG d   1       9.151  -9.353  -3.161  0.00  0.00     0.079 C 
ATOM     45  H   LIG d   1       9.536  -9.998  -2.370  0.00  0.00     0.066 H 
ATOM     46  H   LIG d   1       9.667  -9.577  -4.095  0.00  0.00     0.066 H 
ATOM     47  H   LIG d   1       9.319  -8.310  -2.894  0.00  0.00     0.066 H 
ENDBRANCH  43  44
ENDBRANCH  33  43
ENDBRANCH   2  29
BRANCH   5  48
ATOM     48  C   LIG d   1       2.956  -3.645  -9.481  0.00  0.00     0.033 C 
ATOM     49  H   LIG d   1       1.883  -3.804  -9.378  0.00  0.00     0.039 H 
ATOM     50  H   LIG d   1       3.259  -3.859 -10.507  0.00  0.00     0.039 H 
BRANCH  48  51
ATOM     51  C   LIG d   1       3.287  -2.213  -9.148  0.00  0.00    -0.036 A 
ATOM     52  C   LIG d   1       4.604  -1.830  -8.982  0.00  0.00    -0.013 A 
ATOM     53  C   LIG d   1       4.910  -0.512  -8.681  0.00  0.00     0.162 A 
ATOM     54  H   LIG d   1       5.396  -2.556  -9.092  0.00  0.00     0.066 H 
ATOM     55  C   LIG d   1       3.887   0.421  -8.541  0.00  0.00     0.162 A 
ATOM     56  C   LIG d   1       2.569   0.029  -8.704  0.00  0.00    -0.016 A 
ATOM     57  C   LIG d   1       2.271  -1.287  -9.004  0.00  0.00    -0.054 A 
ATOM     58  H   LIG d   1       1.774   0.752  -8.595  0.00  0.00     0.066 H 
ATOM     59  H   LIG d   1       1.242  -1.591  -9.129  0.00  0.00     0.062 H 
BRANCH  53  60
ATOM     60  O   LIG d   1       6.205  -0.132  -8.522  0.00  0.00    -0.491 OA
BRANCH  60  61
ATOM     61  C   LIG d   1       6.966   0.094  -9.711  0.00  0.00     0.079 C 
ATOM     62  H   LIG d   1       6.693  -0.645 -10.464  0.00  0.00     0.066 H 
ATOM     63  H   LIG d   1       6.757   1.094 -10.090  0.00  0.00     0.066 H 
ATOM     64  H   LIG d   1       8.028   0.006  -9.485  0.00  0.00     0.066 H 
ENDBRANCH  60  61
ENDBRANCH  53  60
BRANCH  55  65
ATOM     65  O   LIG d   1       4.182   1.716  -8.246  0.00  0.00    -0.491 OA
BRANCH  65  66
ATOM     66  C   LIG d   1       4.074   2.664  -9.309  0.00  0.00     0.079 C 
ATOM     67  H   LIG d   1       3.512   2.223 -10.132  0.00  0.00     0.066 H 
ATOM     68  H   LIG d   1       3.556   3.554  -8.950  0.00  0.00     0.066 H 
ATOM     69  H   LIG d   1       5.071   2.938  -9.654  0.00  0.00     0.066 H 
ENDBRANCH  65  66
ENDBRANCH  55  65
ENDBRANCH  48  51
ENDBRANCH   5  48
BRANCH   3  70
ATOM     70  N   LIG d   1       5.212  -7.788  -8.661  0.00  0.00    -0.343 N 
ATOM     71  H   LIG d   1       4.871  -8.611  -8.277  0.00  0.00     0.144 HD
ATOM     72  H   LIG d   1       5.865  -7.822  -9.378  0.00  0.00     0.144 HD
ENDBRANCH   3  70
TORSDOF 18
ENDMDL
MODEL 8
REMARK VINA RESULT:      -5.4      2.164      3.631
REMARK  18 active torsions:
REMARK  status: ('A' for Active; 'I' for Inactive)
REMARK    1  A    between atoms: C_1  and  O_2 
REMARK    2  A    between atoms: O_2  and  C_3 
REMARK    3  A    between atoms: C_6  and  C_11 
REMARK    4  A    between atoms: C_8  and  O_9 
REMARK    5  A    between atoms: O_9  and  C_10 
REMARK    6  A    between atoms: C_11  and  C_12 
REMARK    7  A    between atoms: C_13  and  C_30 
REMARK    8  A    between atoms: C_14  and  N_29 
REMARK    9  A    between atoms: C_16  and  C_18 
REMARK   10  A    between atoms: C_18  and  C_19 
REMARK   11  A    between atoms: C_22  and  O_27 
REMARK   12  A    between atoms: C_23  and  O_25 
REMARK   13  A    between atoms: O_25  and  C_26 
REMARK   14  A    between atoms: O_27  and  C_28 
REMARK   15  A    between atoms: C_33  and  O_38 
REMARK   16  A    between atoms: C_34  and  O_36 
REMARK   17  A    between atoms: O_36  and  C_37 
REMARK   18  A    between atoms: O_38  and  C_39 
ROOT
ATOM      1  C   LIG d   1       8.575  -6.049  -4.620  0.00  0.00     0.059 A 
ATOM      2  C   LIG d   1       9.305  -5.677  -3.494  0.00  0.00     0.043 A 
ATOM      3  C   LIG d   1       9.222  -4.341  -3.063  0.00  0.00     0.128 A 
ATOM      4  N   LIG d   1       8.455  -3.495  -3.743  0.00  0.00    -0.217 NA
ATOM      5  C   LIG d   1       7.783  -3.896  -4.803  0.00  0.00     0.136 A 
ATOM      6  N   LIG d   1       7.832  -5.141  -5.235  0.00  0.00    -0.235 NA
ENDROOT
BRANCH   1   7
ATOM      7  C   LIG d   1       8.624  -7.467  -5.130  0.00  0.00     0.016 C 
ATOM      8  H   LIG d   1       8.873  -7.464  -6.191  0.00  0.00     0.038 H 
ATOM      9  H   LIG d   1       9.383  -8.024  -4.581  0.00  0.00     0.038 H 
BRANCH   7  10
ATOM     10  C   LIG d   1       7.281  -8.119  -4.930  0.00  0.00    -0.038 A 
ATOM     11  C   LIG d   1       7.086  -8.990  -3.874  0.00  0.00    -0.054 A 
ATOM     12  C   LIG d   1       5.854  -9.587  -3.684  0.00  0.00    -0.016 A 
ATOM     13  H   LIG d   1       7.899  -9.203  -3.195  0.00  0.00     0.062 H 
ATOM     14  C   LIG d   1       4.813  -9.320  -4.559  0.00  0.00     0.162 A 
ATOM     15  H   LIG d   1       5.704 -10.265  -2.857  0.00  0.00     0.066 H 
ATOM     16  C   LIG d   1       5.009  -8.448  -5.625  0.00  0.00     0.162 A 
ATOM     17  C   LIG d   1       6.246  -7.849  -5.806  0.00  0.00    -0.013 A 
ATOM     18  H   LIG d   1       6.402  -7.172  -6.633  0.00  0.00     0.066 H 
BRANCH  14  19
ATOM     19  O   LIG d   1       3.602  -9.911  -4.376  0.00  0.00    -0.491 OA
BRANCH  19  20
ATOM     20  C   LIG d   1       3.557 -11.337  -4.444  0.00  0.00     0.079 C 
ATOM     21  H   LIG d   1       3.092 -11.730  -3.539  0.00  0.00     0.066 H 
ATOM     22  H   LIG d   1       2.972 -11.641  -5.313  0.00  0.00     0.066 H 
ATOM     23  H   LIG d   1       4.570 -11.729  -4.533  0.00  0.00     0.066 H 
ENDBRANCH  19  20
ENDBRANCH  14  19
BRANCH  16  24
ATOM     24  O   LIG d   1       3.991  -8.183  -6.485  0.00  0.00    -0.491 OA
BRANCH  24  25
ATOM     25  C   LIG d   1       4.293  -7.362  -7.615  0.00  0.00     0.079 C 
ATOM     26  H   LIG d   1       4.091  -6.319  -7.371  0.00  0.00     0.066 H 
ATOM     27  H   LIG d   1       5.346  -7.475  -7.875  0.00  0.00     0.066 H 
ATOM     28  H   LIG d   1       3.675  -7.663  -8.460  0.00  0.00     0.066 H 
ENDBRANCH  24  25
ENDBRANCH  16  24
ENDBRANCH   7  10
ENDBRANCH   1   7
BRANCH   2  29
ATOM     29  C   LIG d   1      10.146  -6.661  -2.771  0.00  0.00    -0.009 A 
ATOM     30  C   LIG d   1      11.510  -6.748  -3.044  0.00  0.00    -0.008 A 
ATOM     31  C   LIG d   1      12.291  -7.667  -2.367  0.00  0.00     0.162 A 
ATOM     32  H   LIG d   1      11.956  -6.099  -3.783  0.00  0.00     0.066 H 
ATOM     33  C   LIG d   1      11.714  -8.504  -1.414  0.00  0.00     0.162 A 
ATOM     34  C   LIG d   1      10.357  -8.416  -1.143  0.00  0.00    -0.016 A 
ATOM     35  C   LIG d   1       9.575  -7.497  -1.812  0.00  0.00    -0.050 A 
ATOM     36  H   LIG d   1       9.912  -9.066  -0.403  0.00  0.00     0.066 H 
ATOM     37  H   LIG d   1       8.519  -7.428  -1.595  0.00  0.00     0.062 H 
BRANCH  31  38
ATOM     38  O   LIG d   1      13.622  -7.754  -2.631  0.00  0.00    -0.491 OA
BRANCH  38  39
ATOM     39  C   LIG d   1      13.999  -8.320  -3.889  0.00  0.00     0.079 C 
ATOM     40  H   LIG d   1      14.813  -9.028  -3.739  0.00  0.00     0.066 H 
ATOM     41  H   LIG d   1      13.143  -8.836  -4.325  0.00  0.00     0.066 H 
ATOM     42  H   LIG d   1      14.325  -7.526  -4.560  0.00  0.00     0.066 H 
ENDBRANCH  38  39
ENDBRANCH  31  38
BRANCH  33  43
ATOM     43  O   LIG d   1      12.483  -9.406  -0.749  0.00  0.00    -0.491 OA
BRANCH  43  44
ATOM     44  C   LIG d   1      12.445 -10.758  -1.214  0.00  0.00     0.079 C 
ATOM     45  H   LIG d   1      12.715 -10.787  -2.270  0.00  0.00     0.066 H 
ATOM     46  H   LIG d   1      13.151 -11.359  -0.642  0.00  0.00     0.066 H 
ATOM     47  H   LIG d   1      11.439 -11.158  -1.086  0.00  0.00     0.066 H 
ENDBRANCH  43  44
ENDBRANCH  33  43
ENDBRANCH   2  29
BRANCH   5  48
ATOM     48  C   LIG d   1       6.926  -2.902  -5.542  0.00  0.00     0.033 C 
ATOM     49  H   LIG d   1       6.126  -3.428  -6.063  0.00  0.00     0.039 H 
ATOM     50  H   LIG d   1       7.538  -2.363  -6.267  0.00  0.00     0.039 H 
BRANCH  48  51
ATOM     51  C   LIG d   1       6.331  -1.924  -4.562  0.00  0.00    -0.036 A 
ATOM     52  C   LIG d   1       6.787  -0.620  -4.525  0.00  0.00    -0.013 A 
ATOM     53  C   LIG d   1       6.237   0.282  -3.628  0.00  0.00     0.162 A 
ATOM     54  H   LIG d   1       7.569  -0.302  -5.199  0.00  0.00     0.066 H 
ATOM     55  C   LIG d   1       5.230  -0.132  -2.761  0.00  0.00     0.162 A 
ATOM     56  C   LIG d   1       4.781  -1.441  -2.800  0.00  0.00    -0.016 A 
ATOM     57  C   LIG d   1       5.334  -2.335  -3.697  0.00  0.00    -0.054 A 
ATOM     58  H   LIG d   1       3.999  -1.764  -2.128  0.00  0.00     0.066 H 
ATOM     59  H   LIG d   1       4.983  -3.357  -3.726  0.00  0.00     0.062 H 
BRANCH  53  60
ATOM     60  O   LIG d   1       6.681   1.566  -3.594  0.00  0.00    -0.491 OA
BRANCH  60  61
ATOM     61  C   LIG d   1       8.078   1.776  -3.812  0.00  0.00     0.079 C 
ATOM     62  H   LIG d   1       8.381   1.281  -4.734  0.00  0.00     0.066 H 
ATOM     63  H   LIG d   1       8.276   2.845  -3.891  0.00  0.00     0.066 H 
ATOM     64  H   LIG d   1       8.642   1.363  -2.976  0.00  0.00     0.066 H 
ENDBRANCH  60  61
ENDBRANCH  53  60
BRANCH  55  65
ATOM     65  O   LIG d   1       4.686   0.750  -1.879  0.00  0.00    -0.491 OA
BRANCH  65  66
ATOM     66  C   LIG d   1       3.535   1.475  -2.313  0.00  0.00     0.079 C 
ATOM     67  H   LIG d   1       2.767   1.434  -1.540  0.00  0.00     0.066 H 
ATOM     68  H   LIG d   1       3.809   2.514  -2.498  0.00  0.00     0.066 H 
ATOM     69  H   LIG d   1       3.151   1.032  -3.231  0.00  0.00     0.066 H 
ENDBRANCH  65  66
ENDBRANCH  55  65
ENDBRANCH  48  51
ENDBRANCH   5  48
BRANCH   3  70
ATOM     70  N   LIG d   1       9.925  -3.914  -1.950  0.00  0.00    -0.343 N 
ATOM     71  H   LIG d   1       9.786  -4.346  -1.093  0.00  0.00     0.144 HD
ATOM     72  H   LIG d   1      10.557  -3.183  -2.027  0.00  0.00     0.144 HD
ENDBRANCH   3  70
TORSDOF 18
ENDMDL
MODEL 9
REMARK VINA RESULT:      -5.4      9.281     14.188
REMARK  18 active torsions:
REMARK  status: ('A' for Active; 'I' for Inactive)
REMARK    1  A    between atoms: C_1  and  O_2 
REMARK    2  A    between atoms: O_2  and  C_3 
REMARK    3  A    between atoms: C_6  and  C_11 
REMARK    4  A    between atoms: C_8  and  O_9 
REMARK    5  A    between atoms: O_9  and  C_10 
REMARK    6  A    between atoms: C_11  and  C_12 
REMARK    7  A    between atoms: C_13  and  C_30 
REMARK    8  A    between atoms: C_14  and  N_29 
REMARK    9  A    between atoms: C_16  and  C_18 
REMARK   10  A    between atoms: C_18  and  C_19 
REMARK   11  A    between atoms: C_22  and  O_27 
REMARK   12  A    between atoms: C_23  and  O_25 
REMARK   13  A    between atoms: O_25  and  C_26 
REMARK   14  A    between atoms: O_27  and  C_28 
REMARK   15  A    between atoms: C_33  and  O_38 
REMARK   16  A    between atoms: C_34  and  O_36 
REMARK   17  A    between atoms: O_36  and  C_37 
REMARK   18  A    between atoms: O_38  and  C_39 
ROOT
ATOM      1  C   LIG d   1       9.457   5.261  -4.415  0.00  0.00     0.059 A 
ATOM      2  C   LIG d   1      10.087   5.183  -3.176  0.00  0.00     0.043 A 
ATOM      3  C   LIG d   1      10.416   3.909  -2.678  0.00  0.00     0.128 A 
ATOM      4  N   LIG d   1      10.115   2.840  -3.408  0.00  0.00    -0.217 NA
ATOM      5  C   LIG d   1       9.518   2.966  -4.576  0.00  0.00     0.136 A 
ATOM      6  N   LIG d   1       9.198   4.143  -5.077  0.00  0.00    -0.235 NA
ENDROOT
BRANCH   1   7
ATOM      7  C   LIG d   1       9.080   6.599  -4.999  0.00  0.00     0.016 C 
ATOM      8  H   LIG d   1       8.038   6.576  -5.317  0.00  0.00     0.038 H 
ATOM      9  H   LIG d   1       9.213   7.375  -4.245  0.00  0.00     0.038 H 
BRANCH   7  10
ATOM     10  C   LIG d   1       9.962   6.895  -6.185  0.00  0.00    -0.038 A 
ATOM     11  C   LIG d   1      11.198   7.484  -5.996  0.00  0.00    -0.054 A 
ATOM     12  C   LIG d   1      12.012   7.753  -7.081  0.00  0.00    -0.016 A 
ATOM     13  H   LIG d   1      11.530   7.732  -4.998  0.00  0.00     0.062 H 
ATOM     14  C   LIG d   1      11.585   7.441  -8.362  0.00  0.00     0.162 A 
ATOM     15  H   LIG d   1      12.979   8.210  -6.930  0.00  0.00     0.066 H 
ATOM     16  C   LIG d   1      10.338   6.853  -8.553  0.00  0.00     0.162 A 
ATOM     17  C   LIG d   1       9.529   6.581  -7.460  0.00  0.00    -0.013 A 
ATOM     18  H   LIG d   1       8.561   6.126  -7.606  0.00  0.00     0.066 H 
BRANCH  14  19
ATOM     19  O   LIG d   1      12.383   7.710  -9.429  0.00  0.00    -0.491 OA
BRANCH  19  20
ATOM     20  C   LIG d   1      13.405   8.691  -9.246  0.00  0.00     0.079 C 
ATOM     21  H   LIG d   1      13.264   9.188  -8.286  0.00  0.00     0.066 H 
ATOM     22  H   LIG d   1      14.381   8.207  -9.263  0.00  0.00     0.066 H 
ATOM     23  H   LIG d   1      13.351   9.427 -10.048  0.00  0.00     0.066 H 
ENDBRANCH  19  20
ENDBRANCH  14  19
BRANCH  16  24
ATOM     24  O   LIG d   1       9.915   6.545  -9.807  0.00  0.00    -0.491 OA
BRANCH  24  25
ATOM     25  C   LIG d   1       8.621   5.953  -9.928  0.00  0.00     0.079 C 
ATOM     26  H   LIG d   1       8.563   5.071  -9.291  0.00  0.00     0.066 H 
ATOM     27  H   LIG d   1       7.862   6.673  -9.621  0.00  0.00     0.066 H 
ATOM     28  H   LIG d   1       8.448   5.664 -10.965  0.00  0.00     0.066 H 
ENDBRANCH  24  25
ENDBRANCH  16  24
ENDBRANCH   7  10
ENDBRANCH   1   7
BRANCH   2  29
ATOM     29  C   LIG d   1      10.402   6.409  -2.401  0.00  0.00    -0.009 A 
ATOM     30  C   LIG d   1      11.670   6.980  -2.485  0.00  0.00    -0.008 A 
ATOM     31  C   LIG d   1      11.960   8.123  -1.761  0.00  0.00     0.162 A 
ATOM     32  H   LIG d   1      12.426   6.531  -3.112  0.00  0.00     0.066 H 
ATOM     33  C   LIG d   1      10.984   8.700  -0.952  0.00  0.00     0.162 A 
ATOM     34  C   LIG d   1       9.723   8.131  -0.871  0.00  0.00    -0.016 A 
ATOM     35  C   LIG d   1       9.427   6.994  -1.595  0.00  0.00    -0.050 A 
ATOM     36  H   LIG d   1       8.967   8.582  -0.243  0.00  0.00     0.066 H 
ATOM     37  H   LIG d   1       8.442   6.556  -1.533  0.00  0.00     0.062 H 
BRANCH  31  38
ATOM     38  O   LIG d   1      13.197   8.683  -1.840  0.00  0.00    -0.491 OA
BRANCH  38  39
ATOM     39  C   LIG d   1      14.120   8.091  -2.757  0.00  0.00     0.079 C 
ATOM     40  H   LIG d   1      14.945   8.779  -2.935  0.00  0.00     0.066 H 
ATOM     41  H   LIG d   1      14.504   7.162  -2.335  0.00  0.00     0.066 H 
ATOM     42  H   LIG d   1      13.612   7.880  -3.698  0.00  0.00     0.066 H 
ENDBRANCH  38  39
ENDBRANCH  31  38
BRANCH  33  43
ATOM     43  O   LIG d   1      11.270   9.824  -0.241  0.00  0.00    -0.491 OA
BRANCH  43  44
ATOM     44  C   LIG d   1      10.161  10.605   0.211  0.00  0.00     0.079 C 
ATOM     45  H   LIG d   1       9.911  11.351  -0.544  0.00  0.00     0.066 H 
ATOM     46  H   LIG d   1       9.303   9.955   0.377  0.00  0.00     0.066 H 
ATOM     47  H   LIG d   1      10.425  11.105   1.143  0.00  0.00     0.066 H 
ENDBRANCH  43  44
ENDBRANCH  33  43
ENDBRANCH   2  29
BRANCH   5  48
ATOM     48  C   LIG d   1       9.196   1.726  -5.368  0.00  0.00     0.033 C 
ATOM     49  H   LIG d   1      10.104   1.142  -5.514  0.00  0.00     0.039 H 
ATOM     50  H   LIG d   1       8.786   2.009  -6.338  0.00  0.00     0.039 H 
BRANCH  48  51
ATOM     51  C   LIG d   1       8.182   0.899  -4.617  0.00  0.00    -0.036 A 
ATOM     52  C   LIG d   1       7.260   1.519  -3.796  0.00  0.00    -0.013 A 
ATOM     53  C   LIG d   1       6.324   0.762  -3.109  0.00  0.00     0.162 A 
ATOM     54  H   LIG d   1       7.265   2.594  -3.692  0.00  0.00     0.066 H 
ATOM     55  C   LIG d   1       6.321  -0.623  -3.244  0.00  0.00     0.162 A 
ATOM     56  C   LIG d   1       7.251  -1.238  -4.066  0.00  0.00    -0.016 A 
ATOM     57  C   LIG d   1       8.182  -0.477  -4.748  0.00  0.00    -0.054 A 
ATOM     58  H   LIG d   1       7.251  -2.313  -4.173  0.00  0.00     0.066 H 
ATOM     59  H   LIG d   1       8.908  -0.958  -5.388  0.00  0.00     0.062 H 
BRANCH  53  60
ATOM     60  O   LIG d   1       5.414   1.370  -2.304  0.00  0.00    -0.491 OA
BRANCH  60  61
ATOM     61  C   LIG d   1       4.112   1.595  -2.850  0.00  0.00     0.079 C 
ATOM     62  H   LIG d   1       4.033   1.099  -3.817  0.00  0.00     0.066 H 
ATOM     63  H   LIG d   1       3.359   1.193  -2.173  0.00  0.00     0.066 H 
ATOM     64  H   LIG d   1       3.952   2.665  -2.977  0.00  0.00     0.066 H 
ENDBRANCH  60  61
ENDBRANCH  53  60
BRANCH  55  65
ATOM     65  O   LIG d   1       5.405  -1.371  -2.573  0.00  0.00    -0.491 OA
BRANCH  65  66
ATOM     66  C   LIG d   1       4.552  -2.208  -3.356  0.00  0.00     0.079 C 
ATOM     67  H   LIG d   1       5.096  -2.566  -4.230  0.00  0.00     0.066 H 
ATOM     68  H   LIG d   1       4.229  -3.059  -2.756  0.00  0.00     0.066 H 
ATOM     69  H   LIG d   1       3.680  -1.639  -3.678  0.00  0.00     0.066 H 
ENDBRANCH  65  66
ENDBRANCH  55  65
ENDBRANCH  48  51
ENDBRANCH   5  48
BRANCH   3  70
ATOM     70  N   LIG d   1      11.043   3.771  -1.453  0.00  0.00    -0.343 N 
ATOM     71  H   LIG d   1      11.942   3.409  -1.405  0.00  0.00     0.144 HD
ATOM     72  H   LIG d   1      10.583   4.036  -0.640  0.00  0.00     0.144 HD
ENDBRANCH   3  70
TORSDOF 18
ENDMDL
