MODEL 1
REMARK VINA RESULT:      -6.5      0.000      0.000
REMARK  9 active torsions:
REMARK  status: ('A' for Active; 'I' for Inactive)
REMARK    1  A    between atoms: C_1  and  C_2 
REMARK    2  A    between atoms: C_2  and  C_3 
REMARK    3  A    between atoms: C_3  and  C_5 
REMARK    4  A    between atoms: C_3  and  C_6 
REMARK    5  A    between atoms: C_6  and  C_8 
REMARK    6  A    between atoms: C_6  and  N_21 
REMARK       I    between atoms: C_8  and  N_10 
REMARK       I    between atoms: N_10  and  C_11 
REMARK       I    between atoms: C_11  and  N_13 
REMARK    7  A    between atoms: N_13  and  C_14 
REMARK    8  A    between atoms: C_14  and  C_15 
REMARK       I    between atoms: N_21  and  C_23 
REMARK    9  A    between atoms: C_23  and  C_25 
ROOT
ATOM      1  C   LIG d   1       3.261  -1.324 -10.493  0.00  0.00     0.102 C 
ATOM      2  H   LIG d   1       4.291  -1.509 -10.797  0.00  0.00     0.060 H 
ENDROOT
BRANCH   1   3
ATOM      3  C   LIG d   1       2.472  -0.765 -11.678  0.00  0.00    -0.017 C 
ATOM      4  H   LIG d   1       2.458   0.324 -11.624  0.00  0.00     0.032 H 
BRANCH   3   5
ATOM      5  C   LIG d   1       3.137  -1.201 -12.985  0.00  0.00    -0.051 C 
ATOM      6  H   LIG d   1       3.055  -2.283 -13.092  0.00  0.00     0.027 H 
ATOM      7  H   LIG d   1       2.642  -0.714 -13.825  0.00  0.00     0.027 H 
BRANCH   5   8
ATOM      8  C   LIG d   1       4.614  -0.802 -12.964  0.00  0.00    -0.065 C 
ATOM      9  H   LIG d   1       5.112  -1.293 -12.127  0.00  0.00     0.023 H 
ATOM     10  H   LIG d   1       5.087  -1.109 -13.897  0.00  0.00     0.023 H 
ATOM     11  H   LIG d   1       4.698   0.279 -12.852  0.00  0.00     0.023 H 
ENDBRANCH   5   8
ENDBRANCH   3   5
BRANCH   3  12
ATOM     12  C   LIG d   1       1.038  -1.296 -11.633  0.00  0.00    -0.060 C 
ATOM     13  H   LIG d   1       0.446  -0.809 -12.406  0.00  0.00     0.023 H 
ATOM     14  H   LIG d   1       1.044  -2.373 -11.804  0.00  0.00     0.023 H 
ATOM     15  H   LIG d   1       0.605  -1.086 -10.656  0.00  0.00     0.023 H 
ENDBRANCH   3  12
ENDBRANCH   1   3
BRANCH   1  16
ATOM     16  C   LIG d   1       3.243  -0.329  -9.362  0.00  0.00     0.241 C 
ATOM     17  O   LIG d   1       3.591   0.815  -9.555  0.00  0.00    -0.273 OA
ATOM     18  N   LIG d   1       2.839  -0.714  -8.134  0.00  0.00    -0.239 N 
ATOM     19  C   LIG d   1       2.823   0.176  -7.121  0.00  0.00     0.306 C 
ATOM     20  H   LIG d   1       2.560  -1.630  -7.980  0.00  0.00     0.159 HD
ATOM     21  O   LIG d   1       3.172   1.324  -7.315  0.00  0.00    -0.252 OA
ATOM     22  N   LIG d   1       2.419  -0.208  -5.894  0.00  0.00    -0.295 N 
ATOM     23  H   LIG d   1       2.141  -1.125  -5.740  0.00  0.00     0.151 HD
BRANCH  22  24
ATOM     24  C   LIG d   1       2.402   0.759  -4.793  0.00  0.00     0.038 C 
ATOM     25  H   LIG d   1       1.372   0.944  -4.490  0.00  0.00     0.051 H 
ATOM     26  H   LIG d   1       2.859   1.692  -5.122  0.00  0.00     0.051 H 
BRANCH  24  27
ATOM     27  C   LIG d   1       3.177   0.203  -3.626  0.00  0.00    -0.030 A 
ATOM     28  C   LIG d   1       3.869   1.057  -2.787  0.00  0.00    -0.057 A 
ATOM     29  C   LIG d   1       4.579   0.548  -1.716  0.00  0.00    -0.061 A 
ATOM     30  H   LIG d   1       3.854   2.122  -2.969  0.00  0.00     0.062 H 
ATOM     31  C   LIG d   1       4.598  -0.814  -1.484  0.00  0.00    -0.062 A 
ATOM     32  H   LIG d   1       5.120   1.215  -1.061  0.00  0.00     0.062 H 
ATOM     33  C   LIG d   1       3.906  -1.667  -2.323  0.00  0.00    -0.061 A 
ATOM     34  H   LIG d   1       5.153  -1.211  -0.647  0.00  0.00     0.062 H 
ATOM     35  C   LIG d   1       3.191  -1.159  -3.390  0.00  0.00    -0.057 A 
ATOM     36  H   LIG d   1       3.920  -2.732  -2.141  0.00  0.00     0.062 H 
ATOM     37  H   LIG d   1       2.647  -1.825  -4.043  0.00  0.00     0.062 H 
ENDBRANCH  24  27
ENDBRANCH  22  24
ENDBRANCH   1  16
BRANCH   1  38
ATOM     38  N   LIG d   1       2.650  -2.580 -10.049  0.00  0.00    -0.304 N 
ATOM     39  H   LIG d   1       1.745  -2.582  -9.701  0.00  0.00     0.149 HD
ATOM     40  C   LIG d   1       3.346  -3.731 -10.122  0.00  0.00     0.210 C 
ATOM     41  O   LIG d   1       4.444  -3.744 -10.637  0.00  0.00    -0.276 OA
BRANCH  40  42
ATOM     42  C   LIG d   1       2.761  -5.003  -9.564  0.00  0.00     0.012 C 
ATOM     43  H   LIG d   1       2.216  -5.527 -10.349  0.00  0.00     0.032 H 
ATOM     44  H   LIG d   1       3.562  -5.639  -9.190  0.00  0.00     0.032 H 
ATOM     45  H   LIG d   1       2.079  -4.762  -8.748  0.00  0.00     0.032 H 
ENDBRANCH  40  42
ENDBRANCH   1  38
TORSDOF 9
ENDMDL
MODEL 2
REMARK VINA RESULT:      -6.4      2.386      7.611
REMARK  9 active torsions:
REMARK  status: ('A' for Active; 'I' for Inactive)
REMARK    1  A    between atoms: C_1  and  C_2 
REMARK    2  A    between atoms: C_2  and  C_3 
REMARK    3  A    between atoms: C_3  and  C_5 
REMARK    4  A    between atoms: C_3  and  C_6 
REMARK    5  A    between atoms: C_6  and  C_8 
REMARK    6  A    between atoms: C_6  and  N_21 
REMARK       I    between atoms: C_8  and  N_10 
REMARK       I    between atoms: N_10  and  C_11 
REMARK       I    between atoms: C_11  and  N_13 
REMARK    7  A    between atoms: N_13  and  C_14 
REMARK    8  A    between atoms: C_14  and  C_15 
REMARK       I    between atoms: N_21  and  C_23 
REMARK    9  A    between atoms: C_23  and  C_25 
ROOT
ATOM      1  C   LIG d   1       4.588  -1.932  -3.922  0.00  0.00     0.102 C 
ATOM      2  H   LIG d   1       4.198  -2.896  -4.247  0.00  0.00     0.060 H 
ENDROOT
BRANCH   1   3
ATOM      3  C   LIG d   1       3.802  -1.449  -2.701  0.00  0.00    -0.017 C 
ATOM      4  H   LIG d   1       3.460  -2.310  -2.125  0.00  0.00     0.032 H 
BRANCH   3   5
ATOM      5  C   LIG d   1       4.704  -0.577  -1.827  0.00  0.00    -0.051 C 
ATOM      6  H   LIG d   1       4.683  -0.945  -0.801  0.00  0.00     0.027 H 
ATOM      7  H   LIG d   1       5.726  -0.615  -2.206  0.00  0.00     0.027 H 
BRANCH   5   8
ATOM      8  C   LIG d   1       4.203   0.868  -1.859  0.00  0.00    -0.065 C 
ATOM      9  H   LIG d   1       4.005   1.208  -0.842  0.00  0.00     0.023 H 
ATOM     10  H   LIG d   1       4.961   1.506  -2.313  0.00  0.00     0.023 H 
ATOM     11  H   LIG d   1       3.285   0.922  -2.444  0.00  0.00     0.023 H 
ENDBRANCH   5   8
ENDBRANCH   3   5
BRANCH   3  12
ATOM     12  C   LIG d   1       2.593  -0.633  -3.163  0.00  0.00    -0.060 C 
ATOM     13  H   LIG d   1       1.686  -1.220  -3.028  0.00  0.00     0.023 H 
ATOM     14  H   LIG d   1       2.526   0.281  -2.573  0.00  0.00     0.023 H 
ATOM     15  H   LIG d   1       2.709  -0.378  -4.216  0.00  0.00     0.023 H 
ENDBRANCH   3  12
ENDBRANCH   1   3
BRANCH   1  16
ATOM     16  C   LIG d   1       4.447  -0.931  -5.039  0.00  0.00     0.241 C 
ATOM     17  O   LIG d   1       5.149   0.056  -5.061  0.00  0.00    -0.273 OA
ATOM     18  N   LIG d   1       3.539  -1.134  -6.014  0.00  0.00    -0.239 N 
ATOM     19  C   LIG d   1       3.412  -0.239  -7.014  0.00  0.00     0.306 C 
ATOM     20  H   LIG d   1       2.977  -1.925  -5.996  0.00  0.00     0.159 HD
ATOM     21  O   LIG d   1       4.116   0.751  -7.036  0.00  0.00    -0.252 OA
ATOM     22  N   LIG d   1       2.504  -0.443  -7.989  0.00  0.00    -0.295 N 
ATOM     23  H   LIG d   1       1.941  -1.233  -7.971  0.00  0.00     0.151 HD
BRANCH  22  24
ATOM     24  C   LIG d   1       2.366   0.531  -9.076  0.00  0.00     0.038 C 
ATOM     25  H   LIG d   1       3.177   1.256  -9.018  0.00  0.00     0.051 H 
ATOM     26  H   LIG d   1       1.410   1.046  -8.984  0.00  0.00     0.051 H 
BRANCH  24  27
ATOM     27  C   LIG d   1       2.426  -0.184 -10.401  0.00  0.00    -0.030 A 
ATOM     28  C   LIG d   1       1.358  -0.957 -10.818  0.00  0.00    -0.057 A 
ATOM     29  C   LIG d   1       1.412  -1.612 -12.034  0.00  0.00    -0.061 A 
ATOM     30  H   LIG d   1       0.481  -1.047 -10.194  0.00  0.00     0.062 H 
ATOM     31  C   LIG d   1       2.534  -1.497 -12.832  0.00  0.00    -0.062 A 
ATOM     32  H   LIG d   1       0.577  -2.216 -12.359  0.00  0.00     0.062 H 
ATOM     33  C   LIG d   1       3.602  -0.724 -12.415  0.00  0.00    -0.061 A 
ATOM     34  H   LIG d   1       2.576  -2.009 -13.781  0.00  0.00     0.062 H 
ATOM     35  C   LIG d   1       3.546  -0.064 -11.202  0.00  0.00    -0.057 A 
ATOM     36  H   LIG d   1       4.479  -0.633 -13.039  0.00  0.00     0.062 H 
ATOM     37  H   LIG d   1       4.378   0.542 -10.878  0.00  0.00     0.062 H 
ENDBRANCH  24  27
ENDBRANCH  22  24
ENDBRANCH   1  16
BRANCH   1  38
ATOM     38  N   LIG d   1       6.003  -2.071  -3.568  0.00  0.00    -0.304 N 
ATOM     39  H   LIG d   1       6.399  -1.478  -2.910  0.00  0.00     0.149 HD
ATOM     40  C   LIG d   1       6.754  -3.023  -4.156  0.00  0.00     0.210 C 
ATOM     41  O   LIG d   1       6.241  -3.820  -4.911  0.00  0.00    -0.276 OA
BRANCH  40  42
ATOM     42  C   LIG d   1       8.234  -3.096  -3.875  0.00  0.00     0.012 C 
ATOM     43  H   LIG d   1       8.534  -4.140  -3.782  0.00  0.00     0.032 H 
ATOM     44  H   LIG d   1       8.783  -2.631  -4.693  0.00  0.00     0.032 H 
ATOM     45  H   LIG d   1       8.454  -2.571  -2.946  0.00  0.00     0.032 H 
ENDBRANCH  40  42
ENDBRANCH   1  38
TORSDOF 9
ENDMDL
MODEL 3
REMARK VINA RESULT:      -6.2      1.541      2.125
REMARK  9 active torsions:
REMARK  status: ('A' for Active; 'I' for Inactive)
REMARK    1  A    between atoms: C_1  and  C_2 
REMARK    2  A    between atoms: C_2  and  C_3 
REMARK    3  A    between atoms: C_3  and  C_5 
REMARK    4  A    between atoms: C_3  and  C_6 
REMARK    5  A    between atoms: C_6  and  C_8 
REMARK    6  A    between atoms: C_6  and  N_21 
REMARK       I    between atoms: C_8  and  N_10 
REMARK       I    between atoms: N_10  and  C_11 
REMARK       I    between atoms: C_11  and  N_13 
REMARK    7  A    between atoms: N_13  and  C_14 
REMARK    8  A    between atoms: C_14  and  C_15 
REMARK       I    between atoms: N_21  and  C_23 
REMARK    9  A    between atoms: C_23  and  C_25 
ROOT
ATOM      1  C   LIG d   1       3.606  -0.596 -10.778  0.00  0.00     0.102 C 
ATOM      2  H   LIG d   1       3.825  -1.615 -10.459  0.00  0.00     0.060 H 
ENDROOT
BRANCH   1   3
ATOM      3  C   LIG d   1       4.793  -0.043 -11.568  0.00  0.00    -0.017 C 
ATOM      4  H   LIG d   1       4.780   1.047 -11.528  0.00  0.00     0.032 H 
BRANCH   3   5
ATOM      5  C   LIG d   1       6.097  -0.558 -10.958  0.00  0.00    -0.051 C 
ATOM      6  H   LIG d   1       6.944  -0.146 -11.507  0.00  0.00     0.027 H 
ATOM      7  H   LIG d   1       6.157  -0.251  -9.913  0.00  0.00     0.027 H 
BRANCH   5   8
ATOM      8  C   LIG d   1       6.131  -2.086 -11.041  0.00  0.00    -0.065 C 
ATOM      9  H   LIG d   1       7.152  -2.417 -11.234  0.00  0.00     0.023 H 
ATOM     10  H   LIG d   1       5.784  -2.509 -10.099  0.00  0.00     0.023 H 
ATOM     11  H   LIG d   1       5.483  -2.420 -11.851  0.00  0.00     0.023 H 
ENDBRANCH   5   8
ENDBRANCH   3   5
BRANCH   3  12
ATOM     12  C   LIG d   1       4.695  -0.500 -13.024  0.00  0.00    -0.060 C 
ATOM     13  H   LIG d   1       5.107   0.269 -13.676  0.00  0.00     0.023 H 
ATOM     14  H   LIG d   1       5.257  -1.425 -13.153  0.00  0.00     0.023 H 
ATOM     15  H   LIG d   1       3.650  -0.672 -13.280  0.00  0.00     0.023 H 
ENDBRANCH   3  12
ENDBRANCH   1   3
BRANCH   1  16
ATOM     16  C   LIG d   1       3.361   0.267  -9.567  0.00  0.00     0.241 C 
ATOM     17  O   LIG d   1       3.380   1.475  -9.670  0.00  0.00    -0.273 OA
ATOM     18  N   LIG d   1       3.121  -0.305  -8.371  0.00  0.00    -0.239 N 
ATOM     19  C   LIG d   1       2.901   0.467  -7.287  0.00  0.00     0.306 C 
ATOM     20  H   LIG d   1       3.105  -1.271  -8.289  0.00  0.00     0.159 HD
ATOM     21  O   LIG d   1       2.920   1.678  -7.390  0.00  0.00    -0.252 OA
ATOM     22  N   LIG d   1       2.661  -0.104  -6.091  0.00  0.00    -0.295 N 
ATOM     23  H   LIG d   1       2.646  -1.071  -6.009  0.00  0.00     0.151 HD
BRANCH  22  24
ATOM     24  C   LIG d   1       2.423   0.735  -4.913  0.00  0.00     0.038 C 
ATOM     25  H   LIG d   1       1.356   0.758  -4.693  0.00  0.00     0.051 H 
ATOM     26  H   LIG d   1       2.776   1.747  -5.111  0.00  0.00     0.051 H 
BRANCH  24  27
ATOM     27  C   LIG d   1       3.166   0.165  -3.733  0.00  0.00    -0.030 A 
ATOM     28  C   LIG d   1       3.898   1.000  -2.909  0.00  0.00    -0.057 A 
ATOM     29  C   LIG d   1       4.580   0.477  -1.825  0.00  0.00    -0.061 A 
ATOM     30  H   LIG d   1       3.938   2.060  -3.111  0.00  0.00     0.062 H 
ATOM     31  C   LIG d   1       4.530  -0.879  -1.566  0.00  0.00    -0.062 A 
ATOM     32  H   LIG d   1       5.152   1.129  -1.182  0.00  0.00     0.062 H 
ATOM     33  C   LIG d   1       3.798  -1.714  -2.390  0.00  0.00    -0.061 A 
ATOM     34  H   LIG d   1       5.063  -1.287  -0.720  0.00  0.00     0.062 H 
ATOM     35  C   LIG d   1       3.111  -1.191  -3.470  0.00  0.00    -0.057 A 
ATOM     36  H   LIG d   1       3.757  -2.774  -2.187  0.00  0.00     0.062 H 
ATOM     37  H   LIG d   1       2.536  -1.842  -4.111  0.00  0.00     0.062 H 
ENDBRANCH  24  27
ENDBRANCH  22  24
ENDBRANCH   1  16
BRANCH   1  38
ATOM     38  N   LIG d   1       2.412  -0.596 -11.627  0.00  0.00    -0.304 N 
ATOM     39  H   LIG d   1       2.338   0.035 -12.359  0.00  0.00     0.149 HD
ATOM     40  C   LIG d   1       1.417  -1.473 -11.390  0.00  0.00     0.210 C 
ATOM     41  O   LIG d   1       1.546  -2.320 -10.531  0.00  0.00    -0.276 OA
BRANCH  40  42
ATOM     42  C   LIG d   1       0.142  -1.402 -12.191  0.00  0.00     0.012 C 
ATOM     43  H   LIG d   1      -0.058  -0.365 -12.463  0.00  0.00     0.032 H 
ATOM     44  H   LIG d   1       0.246  -2.001 -13.095  0.00  0.00     0.032 H 
ATOM     45  H   LIG d   1      -0.685  -1.786 -11.594  0.00  0.00     0.032 H 
ENDBRANCH  40  42
ENDBRANCH   1  38
TORSDOF 9
ENDMDL
MODEL 4
REMARK VINA RESULT:      -6.2      1.342      2.170
REMARK  9 active torsions:
REMARK  status: ('A' for Active; 'I' for Inactive)
REMARK    1  A    between atoms: C_1  and  C_2 
REMARK    2  A    between atoms: C_2  and  C_3 
REMARK    3  A    between atoms: C_3  and  C_5 
REMARK    4  A    between atoms: C_3  and  C_6 
REMARK    5  A    between atoms: C_6  and  C_8 
REMARK    6  A    between atoms: C_6  and  N_21 
REMARK       I    between atoms: C_8  and  N_10 
REMARK       I    between atoms: N_10  and  C_11 
REMARK       I    between atoms: C_11  and  N_13 
REMARK    7  A    between atoms: N_13  and  C_14 
REMARK    8  A    between atoms: C_14  and  C_15 
REMARK       I    between atoms: N_21  and  C_23 
REMARK    9  A    between atoms: C_23  and  C_25 
ROOT
ATOM      1  C   LIG d   1       2.816  -0.506 -10.613  0.00  0.00     0.102 C 
ATOM      2  H   LIG d   1       2.873   0.128 -11.498  0.00  0.00     0.060 H 
ENDROOT
BRANCH   1   3
ATOM      3  C   LIG d   1       1.516  -1.310 -10.643  0.00  0.00    -0.017 C 
ATOM      4  H   LIG d   1       0.825  -0.913  -9.898  0.00  0.00     0.032 H 
BRANCH   3   5
ATOM      5  C   LIG d   1       0.882  -1.202 -12.031  0.00  0.00    -0.051 C 
ATOM      6  H   LIG d   1      -0.202  -1.144 -11.933  0.00  0.00     0.027 H 
ATOM      7  H   LIG d   1       1.251  -0.306 -12.531  0.00  0.00     0.027 H 
BRANCH   5   8
ATOM      8  C   LIG d   1       1.252  -2.435 -12.858  0.00  0.00    -0.065 C 
ATOM      9  H   LIG d   1       1.515  -3.256 -12.190  0.00  0.00     0.023 H 
ATOM     10  H   LIG d   1       0.403  -2.728 -13.475  0.00  0.00     0.023 H 
ATOM     11  H   LIG d   1       2.103  -2.202 -13.498  0.00  0.00     0.023 H 
ENDBRANCH   5   8
ENDBRANCH   3   5
BRANCH   3  12
ATOM     12  C   LIG d   1       1.815  -2.777 -10.330  0.00  0.00    -0.060 C 
ATOM     13  H   LIG d   1       2.880  -2.966 -10.456  0.00  0.00     0.023 H 
ATOM     14  H   LIG d   1       1.526  -2.994  -9.301  0.00  0.00     0.023 H 
ATOM     15  H   LIG d   1       1.249  -3.415 -11.008  0.00  0.00     0.023 H 
ENDBRANCH   3  12
ENDBRANCH   1   3
BRANCH   1  16
ATOM     16  C   LIG d   1       2.847   0.355  -9.376  0.00  0.00     0.241 C 
ATOM     17  O   LIG d   1       3.070   1.543  -9.470  0.00  0.00    -0.273 OA
ATOM     18  N   LIG d   1       2.630  -0.197  -8.166  0.00  0.00    -0.239 N 
ATOM     19  C   LIG d   1       2.658   0.573  -7.059  0.00  0.00     0.306 C 
ATOM     20  H   LIG d   1       2.452  -1.148  -8.091  0.00  0.00     0.159 HD
ATOM     21  O   LIG d   1       2.880   1.764  -7.153  0.00  0.00    -0.252 OA
ATOM     22  N   LIG d   1       2.439   0.021  -5.849  0.00  0.00    -0.295 N 
ATOM     23  H   LIG d   1       2.262  -0.930  -5.774  0.00  0.00     0.151 HD
BRANCH  22  24
ATOM     24  C   LIG d   1       2.471   0.858  -4.647  0.00  0.00     0.038 C 
ATOM     25  H   LIG d   1       1.451   1.066  -4.323  0.00  0.00     0.051 H 
ATOM     26  H   LIG d   1       2.981   1.794  -4.869  0.00  0.00     0.051 H 
BRANCH  24  27
ATOM     27  C   LIG d   1       3.207   0.132  -3.551  0.00  0.00    -0.030 A 
ATOM     28  C   LIG d   1       3.121  -1.244  -3.453  0.00  0.00    -0.057 A 
ATOM     29  C   LIG d   1       3.798  -1.909  -2.448  0.00  0.00    -0.061 A 
ATOM     30  H   LIG d   1       2.526  -1.799  -4.163  0.00  0.00     0.062 H 
ATOM     31  C   LIG d   1       4.559  -1.199  -1.540  0.00  0.00    -0.062 A 
ATOM     32  H   LIG d   1       3.731  -2.985  -2.372  0.00  0.00     0.062 H 
ATOM     33  C   LIG d   1       4.645   0.177  -1.637  0.00  0.00    -0.061 A 
ATOM     34  H   LIG d   1       5.087  -1.719  -0.754  0.00  0.00     0.062 H 
ATOM     35  C   LIG d   1       3.974   0.843  -2.645  0.00  0.00    -0.057 A 
ATOM     36  H   LIG d   1       5.241   0.732  -0.928  0.00  0.00     0.062 H 
ATOM     37  H   LIG d   1       4.044   1.917  -2.724  0.00  0.00     0.062 H 
ENDBRANCH  24  27
ENDBRANCH  22  24
ENDBRANCH   1  16
BRANCH   1  38
ATOM     38  N   LIG d   1       3.958  -1.424 -10.596  0.00  0.00    -0.304 N 
ATOM     39  H   LIG d   1       4.017  -2.112  -9.914  0.00  0.00     0.149 HD
ATOM     40  C   LIG d   1       4.926  -1.314 -11.527  0.00  0.00     0.210 C 
ATOM     41  O   LIG d   1       4.810  -0.514 -12.430  0.00  0.00    -0.276 OA
BRANCH  40  42
ATOM     42  C   LIG d   1       6.153  -2.185 -11.445  0.00  0.00     0.012 C 
ATOM     43  H   LIG d   1       6.029  -3.049 -12.097  0.00  0.00     0.032 H 
ATOM     44  H   LIG d   1       7.026  -1.614 -11.760  0.00  0.00     0.032 H 
ATOM     45  H   LIG d   1       6.292  -2.522 -10.418  0.00  0.00     0.032 H 
ENDBRANCH  40  42
ENDBRANCH   1  38
TORSDOF 9
ENDMDL
MODEL 5
REMARK VINA RESULT:      -6.1      1.233      2.615
REMARK  9 active torsions:
REMARK  status: ('A' for Active; 'I' for Inactive)
REMARK    1  A    between atoms: C_1  and  C_2 
REMARK    2  A    between atoms: C_2  and  C_3 
REMARK    3  A    between atoms: C_3  and  C_5 
REMARK    4  A    between atoms: C_3  and  C_6 
REMARK    5  A    between atoms: C_6  and  C_8 
REMARK    6  A    between atoms: C_6  and  N_21 
REMARK       I    between atoms: C_8  and  N_10 
REMARK       I    between atoms: N_10  and  C_11 
REMARK       I    between atoms: C_11  and  N_13 
REMARK    7  A    between atoms: N_13  and  C_14 
REMARK    8  A    between atoms: C_14  and  C_15 
REMARK       I    between atoms: N_21  and  C_23 
REMARK    9  A    between atoms: C_23  and  C_25 
ROOT
ATOM      1  C   LIG d   1       3.310  -1.757 -10.269  0.00  0.00     0.102 C 
ATOM      2  H   LIG d   1       2.267  -1.807 -10.581  0.00  0.00     0.060 H 
ENDROOT
BRANCH   1   3
ATOM      3  C   LIG d   1       3.749  -3.121  -9.735  0.00  0.00    -0.017 C 
ATOM      4  H   LIG d   1       3.862  -3.069  -8.652  0.00  0.00     0.032 H 
BRANCH   3   5
ATOM      5  C   LIG d   1       2.693  -4.170 -10.087  0.00  0.00    -0.051 C 
ATOM      6  H   LIG d   1       3.015  -4.729 -10.966  0.00  0.00     0.027 H 
ATOM      7  H   LIG d   1       2.567  -4.855  -9.247  0.00  0.00     0.027 H 
BRANCH   5   8
ATOM      8  C   LIG d   1       1.363  -3.477 -10.383  0.00  0.00    -0.065 C 
ATOM      9  H   LIG d   1       1.549  -2.542 -10.912  0.00  0.00     0.023 H 
ATOM     10  H   LIG d   1       0.744  -4.126 -11.003  0.00  0.00     0.023 H 
ATOM     11  H   LIG d   1       0.845  -3.267  -9.447  0.00  0.00     0.023 H 
ENDBRANCH   5   8
ENDBRANCH   3   5
BRANCH   3  12
ATOM     12  C   LIG d   1       5.087  -3.510 -10.367  0.00  0.00    -0.060 C 
ATOM     13  H   LIG d   1       4.924  -3.830 -11.396  0.00  0.00     0.023 H 
ATOM     14  H   LIG d   1       5.757  -2.651 -10.356  0.00  0.00     0.023 H 
ATOM     15  H   LIG d   1       5.532  -4.326  -9.799  0.00  0.00     0.023 H 
ENDBRANCH   3  12
ENDBRANCH   1   3
BRANCH   1  16
ATOM     16  C   LIG d   1       3.461  -0.720  -9.186  0.00  0.00     0.241 C 
ATOM     17  O   LIG d   1       4.175   0.243  -9.363  0.00  0.00    -0.273 OA
ATOM     18  N   LIG d   1       2.801  -0.865  -8.020  0.00  0.00    -0.239 N 
ATOM     19  C   LIG d   1       2.936   0.062  -7.050  0.00  0.00     0.306 C 
ATOM     20  H   LIG d   1       2.229  -1.635  -7.878  0.00  0.00     0.159 HD
ATOM     21  O   LIG d   1       3.652   1.028  -7.228  0.00  0.00    -0.252 OA
ATOM     22  N   LIG d   1       2.276  -0.082  -5.884  0.00  0.00    -0.295 N 
ATOM     23  H   LIG d   1       1.705  -0.853  -5.741  0.00  0.00     0.151 HD
BRANCH  22  24
ATOM     24  C   LIG d   1       2.423   0.926  -4.830  0.00  0.00     0.038 C 
ATOM     25  H   LIG d   1       1.437   1.249  -4.497  0.00  0.00     0.051 H 
ATOM     26  H   LIG d   1       2.974   1.781  -5.220  0.00  0.00     0.051 H 
BRANCH  24  27
ATOM     27  C   LIG d   1       3.176   0.330  -3.668  0.00  0.00    -0.030 A 
ATOM     28  C   LIG d   1       3.898   1.149  -2.820  0.00  0.00    -0.057 A 
ATOM     29  C   LIG d   1       4.588   0.603  -1.754  0.00  0.00    -0.061 A 
ATOM     30  H   LIG d   1       3.923   2.215  -2.991  0.00  0.00     0.062 H 
ATOM     31  C   LIG d   1       4.556  -0.761  -1.536  0.00  0.00    -0.062 A 
ATOM     32  H   LIG d   1       5.152   1.243  -1.092  0.00  0.00     0.062 H 
ATOM     33  C   LIG d   1       3.834  -1.580  -2.384  0.00  0.00    -0.061 A 
ATOM     34  H   LIG d   1       5.096  -1.187  -0.703  0.00  0.00     0.062 H 
ATOM     35  C   LIG d   1       3.139  -1.034  -3.447  0.00  0.00    -0.057 A 
ATOM     36  H   LIG d   1       3.808  -2.646  -2.213  0.00  0.00     0.062 H 
ATOM     37  H   LIG d   1       2.572  -1.673  -4.107  0.00  0.00     0.062 H 
ENDBRANCH  24  27
ENDBRANCH  22  24
ENDBRANCH   1  16
BRANCH   1  38
ATOM     38  N   LIG d   1       4.146  -1.389 -11.416  0.00  0.00    -0.304 N 
ATOM     39  H   LIG d   1       5.110  -1.347 -11.319  0.00  0.00     0.149 HD
ATOM     40  C   LIG d   1       3.575  -1.109 -12.603  0.00  0.00     0.210 C 
ATOM     41  O   LIG d   1       2.379  -1.246 -12.749  0.00  0.00    -0.276 OA
BRANCH  40  42
ATOM     42  C   LIG d   1       4.422  -0.624 -13.752  0.00  0.00     0.012 C 
ATOM     43  H   LIG d   1       5.192  -1.364 -13.973  0.00  0.00     0.032 H 
ATOM     44  H   LIG d   1       3.795  -0.478 -14.630  0.00  0.00     0.032 H 
ATOM     45  H   LIG d   1       4.895   0.320 -13.481  0.00  0.00     0.032 H 
ENDBRANCH  40  42
ENDBRANCH   1  38
TORSDOF 9
ENDMDL
MODEL 6
REMARK VINA RESULT:      -6.1      2.267      7.786
REMARK  9 active torsions:
REMARK  status: ('A' for Active; 'I' for Inactive)
REMARK    1  A    between atoms: C_1  and  C_2 
REMARK    2  A    between atoms: C_2  and  C_3 
REMARK    3  A    between atoms: C_3  and  C_5 
REMARK    4  A    between atoms: C_3  and  C_6 
REMARK    5  A    between atoms: C_6  and  C_8 
REMARK    6  A    between atoms: C_6  and  N_21 
REMARK       I    between atoms: C_8  and  N_10 
REMARK       I    between atoms: N_10  and  C_11 
REMARK       I    between atoms: C_11  and  N_13 
REMARK    7  A    between atoms: N_13  and  C_14 
REMARK    8  A    between atoms: C_14  and  C_15 
REMARK       I    between atoms: N_21  and  C_23 
REMARK    9  A    between atoms: C_23  and  C_25 
ROOT
ATOM      1  C   LIG d   1       4.355  -0.063  -4.321  0.00  0.00     0.102 C 
ATOM      2  H   LIG d   1       4.501  -1.135  -4.460  0.00  0.00     0.060 H 
ENDROOT
BRANCH   1   3
ATOM      3  C   LIG d   1       3.397   0.175  -3.153  0.00  0.00    -0.017 C 
ATOM      4  H   LIG d   1       2.607   0.859  -3.464  0.00  0.00     0.032 H 
BRANCH   3   5
ATOM      5  C   LIG d   1       2.778  -1.156  -2.722  0.00  0.00    -0.051 C 
ATOM      6  H   LIG d   1       2.146  -0.996  -1.848  0.00  0.00     0.027 H 
ATOM      7  H   LIG d   1       2.175  -1.557  -3.538  0.00  0.00     0.027 H 
BRANCH   5   8
ATOM      8  C   LIG d   1       3.889  -2.148  -2.374  0.00  0.00    -0.065 C 
ATOM      9  H   LIG d   1       4.702  -1.622  -1.873  0.00  0.00     0.023 H 
ATOM     10  H   LIG d   1       3.494  -2.919  -1.712  0.00  0.00     0.023 H 
ATOM     11  H   LIG d   1       4.264  -2.610  -3.287  0.00  0.00     0.023 H 
ENDBRANCH   5   8
ENDBRANCH   3   5
BRANCH   3  12
ATOM     12  C   LIG d   1       4.166   0.784  -1.979  0.00  0.00    -0.060 C 
ATOM     13  H   LIG d   1       3.512   0.848  -1.111  0.00  0.00     0.023 H 
ATOM     14  H   LIG d   1       5.025   0.156  -1.742  0.00  0.00     0.023 H 
ATOM     15  H   LIG d   1       4.509   1.782  -2.250  0.00  0.00     0.023 H 
ENDBRANCH   3  12
ENDBRANCH   1   3
BRANCH   1  16
ATOM     16  C   LIG d   1       3.774   0.531  -5.578  0.00  0.00     0.241 C 
ATOM     17  O   LIG d   1       2.804   1.255  -5.515  0.00  0.00    -0.273 OA
ATOM     18  N   LIG d   1       4.332   0.255  -6.774  0.00  0.00    -0.239 N 
ATOM     19  C   LIG d   1       3.813   0.786  -7.899  0.00  0.00     0.306 C 
ATOM     20  H   LIG d   1       5.108  -0.325  -6.825  0.00  0.00     0.159 HD
ATOM     21  O   LIG d   1       2.840   1.513  -7.835  0.00  0.00    -0.252 OA
ATOM     22  N   LIG d   1       4.371   0.510  -9.094  0.00  0.00    -0.295 N 
ATOM     23  H   LIG d   1       5.147  -0.070  -9.145  0.00  0.00     0.151 HD
BRANCH  22  24
ATOM     24  C   LIG d   1       3.806   1.087 -10.317  0.00  0.00     0.038 C 
ATOM     25  H   LIG d   1       4.606   1.519 -10.918  0.00  0.00     0.051 H 
ATOM     26  H   LIG d   1       3.088   1.864 -10.054  0.00  0.00     0.051 H 
BRANCH  24  27
ATOM     27  C   LIG d   1       3.111   0.007 -11.106  0.00  0.00    -0.030 A 
ATOM     28  C   LIG d   1       3.713  -0.519 -12.233  0.00  0.00    -0.057 A 
ATOM     29  C   LIG d   1       3.077  -1.511 -12.957  0.00  0.00    -0.061 A 
ATOM     30  H   LIG d   1       4.680  -0.157 -12.549  0.00  0.00     0.062 H 
ATOM     31  C   LIG d   1       1.839  -1.974 -12.554  0.00  0.00    -0.062 A 
ATOM     32  H   LIG d   1       3.547  -1.922 -13.838  0.00  0.00     0.062 H 
ATOM     33  C   LIG d   1       1.237  -1.447 -11.427  0.00  0.00    -0.061 A 
ATOM     34  H   LIG d   1       1.342  -2.748 -13.120  0.00  0.00     0.062 H 
ATOM     35  C   LIG d   1       1.875  -0.461 -10.699  0.00  0.00    -0.057 A 
ATOM     36  H   LIG d   1       0.270  -1.810 -11.111  0.00  0.00     0.062 H 
ATOM     37  H   LIG d   1       1.408  -0.052  -9.816  0.00  0.00     0.062 H 
ENDBRANCH  24  27
ENDBRANCH  22  24
ENDBRANCH   1  16
BRANCH   1  38
ATOM     38  N   LIG d   1       5.644   0.571  -4.033  0.00  0.00    -0.304 N 
ATOM     39  H   LIG d   1       5.674   1.405  -3.539  0.00  0.00     0.149 HD
ATOM     40  C   LIG d   1       6.788  -0.004  -4.454  0.00  0.00     0.210 C 
ATOM     41  O   LIG d   1       6.758  -1.089  -4.994  0.00  0.00    -0.276 OA
BRANCH  40  42
ATOM     42  C   LIG d   1       8.105   0.702  -4.256  0.00  0.00     0.012 C 
ATOM     43  H   LIG d   1       8.848   0.280  -4.932  0.00  0.00     0.032 H 
ATOM     44  H   LIG d   1       7.984   1.764  -4.466  0.00  0.00     0.032 H 
ATOM     45  H   LIG d   1       8.436   0.572  -3.226  0.00  0.00     0.032 H 
ENDBRANCH  40  42
ENDBRANCH   1  38
TORSDOF 9
ENDMDL
MODEL 7
REMARK VINA RESULT:      -6.1      5.351      7.979
REMARK  9 active torsions:
REMARK  status: ('A' for Active; 'I' for Inactive)
REMARK    1  A    between atoms: C_1  and  C_2 
REMARK    2  A    between atoms: C_2  and  C_3 
REMARK    3  A    between atoms: C_3  and  C_5 
REMARK    4  A    between atoms: C_3  and  C_6 
REMARK    5  A    between atoms: C_6  and  C_8 
REMARK    6  A    between atoms: C_6  and  N_21 
REMARK       I    between atoms: C_8  and  N_10 
REMARK       I    between atoms: N_10  and  C_11 
REMARK       I    between atoms: C_11  and  N_13 
REMARK    7  A    between atoms: N_13  and  C_14 
REMARK    8  A    between atoms: C_14  and  C_15 
REMARK       I    between atoms: N_21  and  C_23 
REMARK    9  A    between atoms: C_23  and  C_25 
ROOT
ATOM      1  C   LIG d   1       5.233  -0.158  -3.915  0.00  0.00     0.102 C 
ATOM      2  H   LIG d   1       4.558   0.664  -4.153  0.00  0.00     0.060 H 
ENDROOT
BRANCH   1   3
ATOM      3  C   LIG d   1       4.886  -0.719  -2.535  0.00  0.00    -0.017 C 
ATOM      4  H   LIG d   1       5.763  -1.210  -2.111  0.00  0.00     0.032 H 
BRANCH   3   5
ATOM      5  C   LIG d   1       4.447   0.422  -1.616  0.00  0.00    -0.051 C 
ATOM      6  H   LIG d   1       3.870   0.017  -0.784  0.00  0.00     0.027 H 
ATOM      7  H   LIG d   1       5.327   0.937  -1.231  0.00  0.00     0.027 H 
BRANCH   5   8
ATOM      8  C   LIG d   1       3.583   1.408  -2.403  0.00  0.00    -0.065 C 
ATOM      9  H   LIG d   1       3.329   0.978  -3.372  0.00  0.00     0.023 H 
ATOM     10  H   LIG d   1       2.668   1.615  -1.848  0.00  0.00     0.023 H 
ATOM     11  H   LIG d   1       4.135   2.337  -2.553  0.00  0.00     0.023 H 
ENDBRANCH   5   8
ENDBRANCH   3   5
BRANCH   3  12
ATOM     12  C   LIG d   1       3.749  -1.734  -2.668  0.00  0.00    -0.060 C 
ATOM     13  H   LIG d   1       2.806  -1.261  -2.401  0.00  0.00     0.023 H 
ATOM     14  H   LIG d   1       3.699  -2.090  -3.697  0.00  0.00     0.023 H 
ATOM     15  H   LIG d   1       3.935  -2.576  -2.002  0.00  0.00     0.023 H 
ENDBRANCH   3  12
ENDBRANCH   1   3
BRANCH   1  16
ATOM     16  C   LIG d   1       6.654   0.344  -3.911  0.00  0.00     0.241 C 
ATOM     17  O   LIG d   1       7.561  -0.403  -3.615  0.00  0.00    -0.273 OA
ATOM     18  N   LIG d   1       6.915   1.626  -4.236  0.00  0.00    -0.239 N 
ATOM     19  C   LIG d   1       8.186   2.076  -4.232  0.00  0.00     0.306 C 
ATOM     20  H   LIG d   1       6.189   2.224  -4.472  0.00  0.00     0.159 HD
ATOM     21  O   LIG d   1       9.096   1.326  -3.936  0.00  0.00    -0.252 OA
ATOM     22  N   LIG d   1       8.447   3.358  -4.558  0.00  0.00    -0.295 N 
ATOM     23  H   LIG d   1       7.721   3.957  -4.793  0.00  0.00     0.151 HD
BRANCH  22  24
ATOM     24  C   LIG d   1       9.829   3.847  -4.553  0.00  0.00     0.038 C 
ATOM     25  H   LIG d   1      10.040   4.346  -5.499  0.00  0.00     0.051 H 
ATOM     26  H   LIG d   1      10.511   3.007  -4.424  0.00  0.00     0.051 H 
BRANCH  24  27
ATOM     27  C   LIG d   1      10.012   4.822  -3.419  0.00  0.00    -0.030 A 
ATOM     28  C   LIG d   1      10.671   4.429  -2.269  0.00  0.00    -0.057 A 
ATOM     29  C   LIG d   1      10.839   5.324  -1.229  0.00  0.00    -0.061 A 
ATOM     30  H   LIG d   1      11.054   3.423  -2.183  0.00  0.00     0.062 H 
ATOM     31  C   LIG d   1      10.349   6.611  -1.338  0.00  0.00    -0.062 A 
ATOM     32  H   LIG d   1      11.354   5.016  -0.330  0.00  0.00     0.062 H 
ATOM     33  C   LIG d   1       9.690   7.004  -2.488  0.00  0.00    -0.061 A 
ATOM     34  H   LIG d   1      10.480   7.310  -0.525  0.00  0.00     0.062 H 
ATOM     35  C   LIG d   1       9.526   6.112  -3.531  0.00  0.00    -0.057 A 
ATOM     36  H   LIG d   1       9.307   8.010  -2.574  0.00  0.00     0.062 H 
ATOM     37  H   LIG d   1       9.015   6.420  -4.430  0.00  0.00     0.062 H 
ENDBRANCH  24  27
ENDBRANCH  22  24
ENDBRANCH   1  16
BRANCH   1  38
ATOM     38  N   LIG d   1       5.092  -1.214  -4.921  0.00  0.00    -0.304 N 
ATOM     39  H   LIG d   1       5.399  -2.113  -4.726  0.00  0.00     0.149 HD
ATOM     40  C   LIG d   1       4.536  -0.936  -6.116  0.00  0.00     0.210 C 
ATOM     41  O   LIG d   1       4.073   0.164  -6.329  0.00  0.00    -0.276 OA
BRANCH  40  42
ATOM     42  C   LIG d   1       4.492  -1.992  -7.191  0.00  0.00     0.012 C 
ATOM     43  H   LIG d   1       4.960  -1.607  -8.098  0.00  0.00     0.032 H 
ATOM     44  H   LIG d   1       5.027  -2.878  -6.854  0.00  0.00     0.032 H 
ATOM     45  H   LIG d   1       3.455  -2.253  -7.402  0.00  0.00     0.032 H 
ENDBRANCH  40  42
ENDBRANCH   1  38
TORSDOF 9
ENDMDL
MODEL 8
REMARK VINA RESULT:      -5.9      4.961      7.932
REMARK  9 active torsions:
REMARK  status: ('A' for Active; 'I' for Inactive)
REMARK    1  A    between atoms: C_1  and  C_2 
REMARK    2  A    between atoms: C_2  and  C_3 
REMARK    3  A    between atoms: C_3  and  C_5 
REMARK    4  A    between atoms: C_3  and  C_6 
REMARK    5  A    between atoms: C_6  and  C_8 
REMARK    6  A    between atoms: C_6  and  N_21 
REMARK       I    between atoms: C_8  and  N_10 
REMARK       I    between atoms: N_10  and  C_11 
REMARK       I    between atoms: C_11  and  N_13 
REMARK    7  A    between atoms: N_13  and  C_14 
REMARK    8  A    between atoms: C_14  and  C_15 
REMARK       I    between atoms: N_21  and  C_23 
REMARK    9  A    between atoms: C_23  and  C_25 
ROOT
ATOM      1  C   LIG d   1       4.524  -1.335  -4.369  0.00  0.00     0.102 C 
ATOM      2  H   LIG d   1       5.079  -0.407  -4.238  0.00  0.00     0.060 H 
ENDROOT
BRANCH   1   3
ATOM      3  C   LIG d   1       3.702  -1.621  -3.111  0.00  0.00    -0.017 C 
ATOM      4  H   LIG d   1       3.459  -2.683  -3.069  0.00  0.00     0.032 H 
BRANCH   3   5
ATOM      5  C   LIG d   1       4.514  -1.235  -1.874  0.00  0.00    -0.051 C 
ATOM      6  H   LIG d   1       4.052  -1.668  -0.987  0.00  0.00     0.027 H 
ATOM      7  H   LIG d   1       5.532  -1.612  -1.974  0.00  0.00     0.027 H 
BRANCH   5   8
ATOM      8  C   LIG d   1       4.546   0.289  -1.739  0.00  0.00    -0.065 C 
ATOM      9  H   LIG d   1       4.706   0.558  -0.695  0.00  0.00     0.023 H 
ATOM     10  H   LIG d   1       5.357   0.691  -2.346  0.00  0.00     0.023 H 
ATOM     11  H   LIG d   1       3.597   0.704  -2.079  0.00  0.00     0.023 H 
ENDBRANCH   5   8
ENDBRANCH   3   5
BRANCH   3  12
ATOM     12  C   LIG d   1       2.409  -0.804  -3.150  0.00  0.00    -0.060 C 
ATOM     13  H   LIG d   1       2.402  -0.176  -4.039  0.00  0.00     0.023 H 
ATOM     14  H   LIG d   1       1.554  -1.480  -3.176  0.00  0.00     0.023 H 
ATOM     15  H   LIG d   1       2.349  -0.178  -2.260  0.00  0.00     0.023 H 
ENDBRANCH   3  12
ENDBRANCH   1   3
BRANCH   1  16
ATOM     16  C   LIG d   1       5.488  -2.468  -4.609  0.00  0.00     0.241 C 
ATOM     17  O   LIG d   1       6.671  -2.313  -4.394  0.00  0.00    -0.273 OA
ATOM     18  N   LIG d   1       5.035  -3.652  -5.065  0.00  0.00    -0.239 N 
ATOM     19  C   LIG d   1       5.898  -4.666  -5.280  0.00  0.00     0.306 C 
ATOM     20  H   LIG d   1       4.088  -3.776  -5.237  0.00  0.00     0.159 HD
ATOM     21  O   LIG d   1       7.084  -4.511  -5.064  0.00  0.00    -0.252 OA
ATOM     22  N   LIG d   1       5.444  -5.851  -5.735  0.00  0.00    -0.295 N 
ATOM     23  H   LIG d   1       4.498  -5.975  -5.909  0.00  0.00     0.151 HD
BRANCH  22  24
ATOM     24  C   LIG d   1       6.382  -6.952  -5.970  0.00  0.00     0.038 C 
ATOM     25  H   LIG d   1       7.398  -6.612  -5.770  0.00  0.00     0.051 H 
ATOM     26  H   LIG d   1       6.305  -7.281  -7.006  0.00  0.00     0.051 H 
BRANCH  24  27
ATOM     27  C   LIG d   1       6.048  -8.099  -5.052  0.00  0.00    -0.030 A 
ATOM     28  C   LIG d   1       4.762  -8.606  -5.018  0.00  0.00    -0.057 A 
ATOM     29  C   LIG d   1       4.456  -9.659  -4.177  0.00  0.00    -0.061 A 
ATOM     30  H   LIG d   1       3.997  -8.179  -5.650  0.00  0.00     0.062 H 
ATOM     31  C   LIG d   1       5.434 -10.205  -3.368  0.00  0.00    -0.062 A 
ATOM     32  H   LIG d   1       3.451 -10.055  -4.151  0.00  0.00     0.062 H 
ATOM     33  C   LIG d   1       6.720  -9.698  -3.401  0.00  0.00    -0.061 A 
ATOM     34  H   LIG d   1       5.194 -11.027  -2.711  0.00  0.00     0.062 H 
ATOM     35  C   LIG d   1       7.029  -8.650  -4.247  0.00  0.00    -0.057 A 
ATOM     36  H   LIG d   1       7.485 -10.126  -2.770  0.00  0.00     0.062 H 
ATOM     37  H   LIG d   1       8.034  -8.256  -4.276  0.00  0.00     0.062 H 
ENDBRANCH  24  27
ENDBRANCH  22  24
ENDBRANCH   1  16
BRANCH   1  38
ATOM     38  N   LIG d   1       3.626  -1.208  -5.521  0.00  0.00    -0.304 N 
ATOM     39  H   LIG d   1       2.802  -1.720  -5.552  0.00  0.00     0.149 HD
ATOM     40  C   LIG d   1       3.944  -0.380  -6.535  0.00  0.00     0.210 C 
ATOM     41  O   LIG d   1       4.927   0.325  -6.457  0.00  0.00    -0.276 OA
BRANCH  40  42
ATOM     42  C   LIG d   1       3.078  -0.331  -7.768  0.00  0.00     0.012 C 
ATOM     43  H   LIG d   1       3.016  -1.327  -8.208  0.00  0.00     0.032 H 
ATOM     44  H   LIG d   1       2.079   0.010  -7.498  0.00  0.00     0.032 H 
ATOM     45  H   LIG d   1       3.514   0.358  -8.491  0.00  0.00     0.032 H 
ENDBRANCH  40  42
ENDBRANCH   1  38
TORSDOF 9
ENDMDL
MODEL 9
REMARK VINA RESULT:      -5.9      7.299     10.683
REMARK  9 active torsions:
REMARK  status: ('A' for Active; 'I' for Inactive)
REMARK    1  A    between atoms: C_1  and  C_2 
REMARK    2  A    between atoms: C_2  and  C_3 
REMARK    3  A    between atoms: C_3  and  C_5 
REMARK    4  A    between atoms: C_3  and  C_6 
REMARK    5  A    between atoms: C_6  and  C_8 
REMARK    6  A    between atoms: C_6  and  N_21 
REMARK       I    between atoms: C_8  and  N_10 
REMARK       I    between atoms: N_10  and  C_11 
REMARK       I    between atoms: C_11  and  N_13 
REMARK    7  A    between atoms: N_13  and  C_14 
REMARK    8  A    between atoms: C_14  and  C_15 
REMARK       I    between atoms: N_21  and  C_23 
REMARK    9  A    between atoms: C_23  and  C_25 
ROOT
ATOM      1  C   LIG d   1      10.610   5.551  -2.758  0.00  0.00     0.102 C 
ATOM      2  H   LIG d   1       9.681   6.120  -2.776  0.00  0.00     0.060 H 
ENDROOT
BRANCH   1   3
ATOM      3  C   LIG d   1      11.580   6.125  -3.792  0.00  0.00    -0.017 C 
ATOM      4  H   LIG d   1      11.685   5.424  -4.621  0.00  0.00     0.032 H 
BRANCH   3   5
ATOM      5  C   LIG d   1      11.038   7.455  -4.316  0.00  0.00    -0.051 C 
ATOM      6  H   LIG d   1      11.029   8.188  -3.509  0.00  0.00     0.027 H 
ATOM      7  H   LIG d   1      11.675   7.814  -5.125  0.00  0.00     0.027 H 
BRANCH   5   8
ATOM      8  C   LIG d   1       9.614   7.256  -4.839  0.00  0.00    -0.065 C 
ATOM      9  H   LIG d   1       8.924   7.871  -4.261  0.00  0.00     0.023 H 
ATOM     10  H   LIG d   1       9.568   7.547  -5.889  0.00  0.00     0.023 H 
ATOM     11  H   LIG d   1       9.334   6.207  -4.741  0.00  0.00     0.023 H 
ENDBRANCH   5   8
ENDBRANCH   3   5
BRANCH   3  12
ATOM     12  C   LIG d   1      12.946   6.351  -3.140  0.00  0.00    -0.060 C 
ATOM     13  H   LIG d   1      12.839   6.329  -2.057  0.00  0.00     0.023 H 
ATOM     14  H   LIG d   1      13.632   5.564  -3.454  0.00  0.00     0.023 H 
ATOM     15  H   LIG d   1      13.339   7.319  -3.448  0.00  0.00     0.023 H 
ENDBRANCH   3  12
ENDBRANCH   1   3
BRANCH   1  16
ATOM     16  C   LIG d   1      10.321   4.108  -3.085  0.00  0.00     0.241 C 
ATOM     17  O   LIG d   1      11.204   3.282  -3.015  0.00  0.00    -0.273 OA
ATOM     18  N   LIG d   1       9.080   3.739  -3.458  0.00  0.00    -0.239 N 
ATOM     19  C   LIG d   1       8.820   2.449  -3.752  0.00  0.00     0.306 C 
ATOM     20  H   LIG d   1       8.373   4.401  -3.515  0.00  0.00     0.159 HD
ATOM     21  O   LIG d   1       9.706   1.619  -3.680  0.00  0.00    -0.252 OA
ATOM     22  N   LIG d   1       7.579   2.079  -4.124  0.00  0.00    -0.295 N 
ATOM     23  H   LIG d   1       6.872   2.741  -4.181  0.00  0.00     0.151 HD
BRANCH  22  24
ATOM     24  C   LIG d   1       7.298   0.677  -4.443  0.00  0.00     0.038 C 
ATOM     25  H   LIG d   1       8.207   0.088  -4.321  0.00  0.00     0.051 H 
ATOM     26  H   LIG d   1       6.950   0.601  -5.473  0.00  0.00     0.051 H 
BRANCH  24  27
ATOM     27  C   LIG d   1       6.233   0.154  -3.514  0.00  0.00    -0.030 A 
ATOM     28  C   LIG d   1       5.973  -1.202  -3.454  0.00  0.00    -0.057 A 
ATOM     29  C   LIG d   1       4.996  -1.681  -2.601  0.00  0.00    -0.061 A 
ATOM     30  H   LIG d   1       6.533  -1.887  -4.072  0.00  0.00     0.062 H 
ATOM     31  C   LIG d   1       4.279  -0.805  -1.809  0.00  0.00    -0.062 A 
ATOM     32  H   LIG d   1       4.793  -2.741  -2.554  0.00  0.00     0.062 H 
ATOM     33  C   LIG d   1       4.539   0.552  -1.870  0.00  0.00    -0.061 A 
ATOM     34  H   LIG d   1       3.516  -1.180  -1.143  0.00  0.00     0.062 H 
ATOM     35  C   LIG d   1       5.519   1.031  -2.718  0.00  0.00    -0.057 A 
ATOM     36  H   LIG d   1       3.979   1.237  -1.250  0.00  0.00     0.062 H 
ATOM     37  H   LIG d   1       5.725   2.090  -2.762  0.00  0.00     0.062 H 
ENDBRANCH  24  27
ENDBRANCH  22  24
ENDBRANCH   1  16
BRANCH   1  38
ATOM     38  N   LIG d   1      11.211   5.637  -1.424  0.00  0.00    -0.304 N 
ATOM     39  H   LIG d   1      12.060   5.204  -1.246  0.00  0.00     0.149 HD
ATOM     40  C   LIG d   1      10.583   6.317  -0.445  0.00  0.00     0.210 C 
ATOM     41  O   LIG d   1       9.566   6.930  -0.689  0.00  0.00    -0.276 OA
BRANCH  40  42
ATOM     42  C   LIG d   1      11.143   6.313   0.954  0.00  0.00     0.012 C 
ATOM     43  H   LIG d   1      10.465   6.851   1.618  0.00  0.00     0.032 H 
ATOM     44  H   LIG d   1      11.252   5.286   1.301  0.00  0.00     0.032 H 
ATOM     45  H   LIG d   1      12.117   6.803   0.957  0.00  0.00     0.032 H 
ENDBRANCH  40  42
ENDBRANCH   1  38
TORSDOF 9
ENDMDL
