MODEL 1
REMARK VINA RESULT:      -8.1      0.000      0.000
REMARK  6 active torsions:
REMARK  status: ('A' for Active; 'I' for Inactive)
REMARK    1  A    between atoms: C_1  and  O_2 
REMARK    2  A    between atoms: O_2  and  C_3 
REMARK    3  A    between atoms: C_6  and  C_9 
REMARK       I    between atoms: C_9  and  N_11 
REMARK    4  A    between atoms: C_22  and  N_27 
REMARK    5  A    between atoms: N_27  and  S_28 
REMARK    6  A    between atoms: S_28  and  C_31 
ROOT
ATOM      1  C   LIG d   1       4.187  -1.409 -10.927  0.00  0.00     0.247 C 
ATOM      2  O   LIG d   1       5.283  -1.400 -11.453  0.00  0.00    -0.270 OA
ATOM      3  N   LIG d   1       3.577  -0.246 -10.621  0.00  0.00    -0.297 N 
ATOM      4  C   LIG d   1       2.216  -0.235 -10.074  0.00  0.00     0.019 C 
ATOM      5  C   LIG d   1       2.159   0.625  -8.819  0.00  0.00    -0.006 C 
ATOM      6  H   LIG d   1       1.112   0.789  -8.568  0.00  0.00     0.033 H 
ATOM      7  C   LIG d   1       2.793   1.996  -9.062  0.00  0.00    -0.037 C 
ATOM      8  C   LIG d   1       4.250   1.787  -9.483  0.00  0.00     0.016 C 
ATOM      9  H   LIG d   1       4.764   2.742  -9.579  0.00  0.00     0.038 H 
ATOM     10  C   LIG d   1       4.263   1.040 -10.827  0.00  0.00     0.023 C 
ATOM     11  C   LIG d   1       4.954   0.918  -8.466  0.00  0.00     0.027 A 
ATOM     12  C   LIG d   1       6.304   1.040  -8.372  0.00  0.00    -0.040 A 
ATOM     13  C   LIG d   1       7.042   0.176  -7.552  0.00  0.00    -0.032 A 
ATOM     14  C   LIG d   1       6.381  -0.800  -6.858  0.00  0.00     0.112 A 
ATOM     15  C   LIG d   1       4.980  -0.888  -6.968  0.00  0.00     0.274 A 
ATOM     16  O   LIG d   1       4.384  -1.782  -6.389  0.00  0.00    -0.266 OA
ATOM     17  N   LIG d   1       4.288   0.010  -7.711  0.00  0.00    -0.310 N 
ATOM     18  C   LIG d   1       2.828  -0.050  -7.635  0.00  0.00     0.031 C 
ATOM     19  H   LIG d   1       1.530   0.170 -10.820  0.00  0.00     0.047 H 
ATOM     20  H   LIG d   1       1.917  -1.253  -9.828  0.00  0.00     0.047 H 
ATOM     21  H   LIG d   1       2.253   2.514  -9.855  0.00  0.00     0.028 H 
ATOM     22  H   LIG d   1       2.756   2.584  -8.146  0.00  0.00     0.028 H 
ATOM     23  H   LIG d   1       5.292   0.865 -11.143  0.00  0.00     0.047 H 
ATOM     24  H   LIG d   1       3.737   1.623 -11.581  0.00  0.00     0.047 H 
ATOM     25  H   LIG d   1       6.812   1.808  -8.933  0.00  0.00     0.064 H 
ATOM     26  H   LIG d   1       8.113   0.281  -7.470  0.00  0.00     0.064 H 
ATOM     27  H   LIG d   1       2.502   0.439  -6.719  0.00  0.00     0.050 H 
ATOM     28  H   LIG d   1       2.519  -1.095  -7.605  0.00  0.00     0.050 H 
ENDROOT
BRANCH   1  29
ATOM     29  C   LIG d   1       3.524  -2.692 -10.624  0.00  0.00     0.037 A 
ATOM     30  C   LIG d   1       2.640  -3.260 -11.546  0.00  0.00    -0.046 A 
ATOM     31  C   LIG d   1       2.023  -4.457 -11.260  0.00  0.00    -0.019 A 
ATOM     32  H   LIG d   1       2.440  -2.759 -12.482  0.00  0.00     0.063 H 
ATOM     33  C   LIG d   1       2.279  -5.101 -10.055  0.00  0.00     0.120 A 
ATOM     34  H   LIG d   1       1.340  -4.895 -11.972  0.00  0.00     0.065 H 
ATOM     35  C   LIG d   1       3.157  -4.540  -9.135  0.00  0.00    -0.019 A 
ATOM     36  C   LIG d   1       3.782  -3.346  -9.416  0.00  0.00    -0.046 A 
ATOM     37  H   LIG d   1       3.352  -5.043  -8.200  0.00  0.00     0.065 H 
ATOM     38  H   LIG d   1       4.468  -2.913  -8.703  0.00  0.00     0.063 H 
BRANCH  33  39
ATOM     39  O   LIG d   1       1.669  -6.281  -9.776  0.00  0.00    -0.495 OA
BRANCH  39  40
ATOM     40  C   LIG d   1       0.308  -6.422 -10.187  0.00  0.00     0.079 C 
ATOM     41  H   LIG d   1      -0.312  -6.649  -9.321  0.00  0.00     0.066 H 
ATOM     42  H   LIG d   1      -0.031  -5.492 -10.644  0.00  0.00     0.066 H 
ATOM     43  H   LIG d   1       0.230  -7.232 -10.913  0.00  0.00     0.066 H 
ENDBRANCH  39  40
ENDBRANCH  33  39
ENDBRANCH   1  29
BRANCH  14  44
ATOM     44  N   LIG d   1       7.089  -1.698  -6.050  0.00  0.00    -0.211 N 
ATOM     45  H   LIG d   1       7.222  -2.613  -6.344  0.00  0.00     0.174 HD
BRANCH  44  46
ATOM     46  S   LIG d   1       7.696  -1.200  -4.591  0.00  0.00     0.073 S 
ATOM     47  O   LIG d   1       8.337  -2.328  -4.012  0.00  0.00    -0.150 OA
ATOM     48  O   LIG d   1       8.377   0.024  -4.832  0.00  0.00    -0.150 OA
BRANCH  46  49
ATOM     49  C   LIG d   1       6.321  -0.816  -3.559  0.00  0.00     0.111 A 
ATOM     50  C   LIG d   1       5.460  -1.817  -3.154  0.00  0.00     0.000 A 
ATOM     51  C   LIG d   1       4.383  -1.515  -2.338  0.00  0.00     0.125 A 
ATOM     52  H   LIG d   1       5.629  -2.835  -3.471  0.00  0.00     0.067 H 
ATOM     53  C   LIG d   1       4.164  -0.209  -1.937  0.00  0.00    -0.026 A 
ATOM     54  F   LIG d   1       3.543  -2.495  -1.937  0.00  0.00    -0.205 F 
ATOM     55  C   LIG d   1       5.025   0.792  -2.347  0.00  0.00    -0.057 A 
ATOM     56  H   LIG d   1       3.322   0.029  -1.304  0.00  0.00     0.065 H 
ATOM     57  C   LIG d   1       6.102   0.489  -3.158  0.00  0.00    -0.035 A 
ATOM     58  H   LIG d   1       4.854   1.812  -2.035  0.00  0.00     0.062 H 
ATOM     59  H   LIG d   1       6.774   1.272  -3.478  0.00  0.00     0.064 H 
ENDBRANCH  46  49
ENDBRANCH  44  46
ENDBRANCH  14  44
TORSDOF 6
ENDMDL
MODEL 2
REMARK VINA RESULT:      -7.5      5.811     10.151
REMARK  6 active torsions:
REMARK  status: ('A' for Active; 'I' for Inactive)
REMARK    1  A    between atoms: C_1  and  O_2 
REMARK    2  A    between atoms: O_2  and  C_3 
REMARK    3  A    between atoms: C_6  and  C_9 
REMARK       I    between atoms: C_9  and  N_11 
REMARK    4  A    between atoms: C_22  and  N_27 
REMARK    5  A    between atoms: N_27  and  S_28 
REMARK    6  A    between atoms: S_28  and  C_31 
ROOT
ATOM      1  C   LIG d   1      11.049   6.183  -5.158  0.00  0.00     0.247 C 
ATOM      2  O   LIG d   1      10.245   6.664  -5.933  0.00  0.00    -0.270 OA
ATOM      3  N   LIG d   1      12.100   5.482  -5.627  0.00  0.00    -0.297 N 
ATOM      4  C   LIG d   1      13.132   4.976  -4.714  0.00  0.00     0.019 C 
ATOM      5  C   LIG d   1      13.380   3.496  -4.967  0.00  0.00    -0.006 C 
ATOM      6  H   LIG d   1      14.288   3.209  -4.437  0.00  0.00     0.033 H 
ATOM      7  C   LIG d   1      13.612   3.224  -6.455  0.00  0.00    -0.037 C 
ATOM      8  C   LIG d   1      12.374   3.682  -7.229  0.00  0.00     0.016 C 
ATOM      9  H   LIG d   1      12.462   3.424  -8.284  0.00  0.00     0.038 H 
ATOM     10  C   LIG d   1      12.238   5.205  -7.066  0.00  0.00     0.023 C 
ATOM     11  C   LIG d   1      11.139   3.043  -6.639  0.00  0.00     0.027 A 
ATOM     12  C   LIG d   1      10.061   2.903  -7.453  0.00  0.00    -0.040 A 
ATOM     13  C   LIG d   1       8.838   2.445  -6.945  0.00  0.00    -0.032 A 
ATOM     14  C   LIG d   1       8.745   2.155  -5.612  0.00  0.00     0.112 A 
ATOM     15  C   LIG d   1       9.885   2.299  -4.799  0.00  0.00     0.274 A 
ATOM     16  O   LIG d   1       9.804   2.085  -3.600  0.00  0.00    -0.266 OA
ATOM     17  N   LIG d   1      11.074   2.671  -5.336  0.00  0.00    -0.310 N 
ATOM     18  C   LIG d   1      12.242   2.632  -4.457  0.00  0.00     0.031 C 
ATOM     19  H   LIG d   1      14.058   5.530  -4.873  0.00  0.00     0.047 H 
ATOM     20  H   LIG d   1      12.803   5.117  -3.685  0.00  0.00     0.047 H 
ATOM     21  H   LIG d   1      14.486   3.780  -6.797  0.00  0.00     0.028 H 
ATOM     22  H   LIG d   1      13.770   2.157  -6.612  0.00  0.00     0.028 H 
ATOM     23  H   LIG d   1      11.353   5.557  -7.598  0.00  0.00     0.047 H 
ATOM     24  H   LIG d   1      13.126   5.701  -7.455  0.00  0.00     0.047 H 
ATOM     25  H   LIG d   1      10.146   3.146  -8.501  0.00  0.00     0.064 H 
ATOM     26  H   LIG d   1       7.985   2.325  -7.596  0.00  0.00     0.064 H 
ATOM     27  H   LIG d   1      12.588   1.603  -4.376  0.00  0.00     0.050 H 
ATOM     28  H   LIG d   1      11.950   2.983  -3.467  0.00  0.00     0.050 H 
ENDROOT
BRANCH   1  29
ATOM     29  C   LIG d   1      10.875   6.368  -3.704  0.00  0.00     0.037 A 
ATOM     30  C   LIG d   1      11.452   7.467  -3.063  0.00  0.00    -0.046 A 
ATOM     31  C   LIG d   1      11.288   7.637  -1.707  0.00  0.00    -0.019 A 
ATOM     32  H   LIG d   1      12.029   8.183  -3.631  0.00  0.00     0.063 H 
ATOM     33  C   LIG d   1      10.548   6.715  -0.975  0.00  0.00     0.120 A 
ATOM     34  H   LIG d   1      11.735   8.486  -1.211  0.00  0.00     0.065 H 
ATOM     35  C   LIG d   1       9.971   5.621  -1.609  0.00  0.00    -0.019 A 
ATOM     36  C   LIG d   1      10.127   5.448  -2.966  0.00  0.00    -0.046 A 
ATOM     37  H   LIG d   1       9.397   4.907  -1.036  0.00  0.00     0.065 H 
ATOM     38  H   LIG d   1       9.674   4.600  -3.458  0.00  0.00     0.063 H 
BRANCH  33  39
ATOM     39  O   LIG d   1      10.387   6.885   0.362  0.00  0.00    -0.495 OA
BRANCH  39  40
ATOM     40  C   LIG d   1      11.087   5.982   1.220  0.00  0.00     0.079 C 
ATOM     41  H   LIG d   1      10.863   6.220   2.259  0.00  0.00     0.066 H 
ATOM     42  H   LIG d   1      10.773   4.961   1.005  0.00  0.00     0.066 H 
ATOM     43  H   LIG d   1      12.161   6.075   1.048  0.00  0.00     0.066 H 
ENDBRANCH  39  40
ENDBRANCH  33  39
ENDBRANCH   1  29
BRANCH  14  44
ATOM     44  N   LIG d   1       7.531   1.721  -5.063  0.00  0.00    -0.211 N 
ATOM     45  H   LIG d   1       7.004   2.324  -4.514  0.00  0.00     0.174 HD
BRANCH  44  46
ATOM     46  S   LIG d   1       6.996   0.180  -5.349  0.00  0.00     0.073 S 
ATOM     47  O   LIG d   1       6.163   0.247  -6.497  0.00  0.00    -0.150 OA
ATOM     48  O   LIG d   1       8.138  -0.665  -5.284  0.00  0.00    -0.150 OA
BRANCH  46  49
ATOM     49  C   LIG d   1       5.959  -0.270  -3.999  0.00  0.00     0.111 A 
ATOM     50  C   LIG d   1       5.638   0.664  -3.033  0.00  0.00     0.000 A 
ATOM     51  C   LIG d   1       4.819   0.310  -1.974  0.00  0.00     0.125 A 
ATOM     52  H   LIG d   1       6.024   1.669  -3.105  0.00  0.00     0.067 H 
ATOM     53  C   LIG d   1       4.330  -0.981  -1.879  0.00  0.00    -0.026 A 
ATOM     54  F   LIG d   1       4.500   1.224  -1.031  0.00  0.00    -0.205 F 
ATOM     55  C   LIG d   1       4.656  -1.915  -2.844  0.00  0.00    -0.057 A 
ATOM     56  H   LIG d   1       3.694  -1.259  -1.052  0.00  0.00     0.065 H 
ATOM     57  C   LIG d   1       5.470  -1.560  -3.903  0.00  0.00    -0.035 A 
ATOM     58  H   LIG d   1       4.275  -2.923  -2.771  0.00  0.00     0.062 H 
ATOM     59  H   LIG d   1       5.725  -2.291  -4.657  0.00  0.00     0.064 H 
ENDBRANCH  46  49
ENDBRANCH  44  46
ENDBRANCH  14  44
TORSDOF 6
ENDMDL
MODEL 3
REMARK VINA RESULT:      -7.4      3.823      6.081
REMARK  6 active torsions:
REMARK  status: ('A' for Active; 'I' for Inactive)
REMARK    1  A    between atoms: C_1  and  O_2 
REMARK    2  A    between atoms: O_2  and  C_3 
REMARK    3  A    between atoms: C_6  and  C_9 
REMARK       I    between atoms: C_9  and  N_11 
REMARK    4  A    between atoms: C_22  and  N_27 
REMARK    5  A    between atoms: N_27  and  S_28 
REMARK    6  A    between atoms: S_28  and  C_31 
ROOT
ATOM      1  C   LIG d   1       3.623  -0.135  -6.081  0.00  0.00     0.247 C 
ATOM      2  O   LIG d   1       3.152   0.708  -5.343  0.00  0.00    -0.270 OA
ATOM      3  N   LIG d   1       4.093  -1.290  -5.571  0.00  0.00    -0.297 N 
ATOM      4  C   LIG d   1       4.578  -2.358  -6.453  0.00  0.00     0.019 C 
ATOM      5  C   LIG d   1       5.955  -2.827  -6.007  0.00  0.00    -0.006 C 
ATOM      6  H   LIG d   1       6.187  -3.751  -6.536  0.00  0.00     0.033 H 
ATOM      7  C   LIG d   1       5.972  -3.139  -4.509  0.00  0.00    -0.037 C 
ATOM      8  C   LIG d   1       5.583  -1.870  -3.747  0.00  0.00     0.016 C 
ATOM      9  H   LIG d   1       5.669  -2.025  -2.671  0.00  0.00     0.038 H 
ATOM     10  C   LIG d   1       4.135  -1.508  -4.115  0.00  0.00     0.023 C 
ATOM     11  C   LIG d   1       6.469  -0.725  -4.179  0.00  0.00     0.027 A 
ATOM     12  C   LIG d   1       6.638   0.297  -3.301  0.00  0.00    -0.040 A 
ATOM     13  C   LIG d   1       7.333   1.454  -3.678  0.00  0.00    -0.032 A 
ATOM     14  C   LIG d   1       7.825   1.542  -4.951  0.00  0.00     0.112 A 
ATOM     15  C   LIG d   1       7.643   0.459  -5.831  0.00  0.00     0.274 A 
ATOM     16  O   LIG d   1       8.039   0.542  -6.983  0.00  0.00    -0.266 OA
ATOM     17  N   LIG d   1       7.033  -0.677  -5.412  0.00  0.00    -0.310 N 
ATOM     18  C   LIG d   1       7.036  -1.813  -6.334  0.00  0.00     0.031 C 
ATOM     19  H   LIG d   1       3.882  -3.197  -6.420  0.00  0.00     0.047 H 
ATOM     20  H   LIG d   1       4.637  -1.983  -7.474  0.00  0.00     0.047 H 
ATOM     21  H   LIG d   1       5.255  -3.932  -4.292  0.00  0.00     0.028 H 
ATOM     22  H   LIG d   1       6.971  -3.456  -4.212  0.00  0.00     0.028 H 
ATOM     23  H   LIG d   1       3.837  -0.597  -3.595  0.00  0.00     0.047 H 
ATOM     24  H   LIG d   1       3.467  -2.325  -3.845  0.00  0.00     0.047 H 
ATOM     25  H   LIG d   1       6.235   0.218  -2.303  0.00  0.00     0.064 H 
ATOM     26  H   LIG d   1       7.475   2.262  -2.976  0.00  0.00     0.064 H 
ATOM     27  H   LIG d   1       8.008  -2.303  -6.286  0.00  0.00     0.050 H 
ATOM     28  H   LIG d   1       6.879  -1.445  -7.348  0.00  0.00     0.050 H 
ENDROOT
BRANCH   1  29
ATOM     29  C   LIG d   1       3.680   0.106  -7.536  0.00  0.00     0.037 A 
ATOM     30  C   LIG d   1       4.832   0.647  -8.112  0.00  0.00    -0.046 A 
ATOM     31  C   LIG d   1       4.882   0.871  -9.470  0.00  0.00    -0.019 A 
ATOM     32  H   LIG d   1       5.683   0.892  -7.493  0.00  0.00     0.063 H 
ATOM     33  C   LIG d   1       3.787   0.558 -10.267  0.00  0.00     0.120 A 
ATOM     34  H   LIG d   1       5.772   1.290  -9.915  0.00  0.00     0.065 H 
ATOM     35  C   LIG d   1       2.639   0.020  -9.698  0.00  0.00    -0.019 A 
ATOM     36  C   LIG d   1       2.584  -0.212  -8.342  0.00  0.00    -0.046 A 
ATOM     37  H   LIG d   1       1.791  -0.222 -10.321  0.00  0.00     0.065 H 
ATOM     38  H   LIG d   1       1.694  -0.635  -7.901  0.00  0.00     0.063 H 
BRANCH  33  39
ATOM     39  O   LIG d   1       3.839   0.780 -11.605  0.00  0.00    -0.495 OA
BRANCH  39  40
ATOM     40  C   LIG d   1       3.978  -0.366 -12.448  0.00  0.00     0.079 C 
ATOM     41  H   LIG d   1       3.045  -0.927 -12.456  0.00  0.00     0.066 H 
ATOM     42  H   LIG d   1       4.218  -0.043 -13.462  0.00  0.00     0.066 H 
ATOM     43  H   LIG d   1       4.782  -1.000 -12.070  0.00  0.00     0.066 H 
ENDBRANCH  39  40
ENDBRANCH  33  39
ENDBRANCH   1  29
BRANCH  14  44
ATOM     44  N   LIG d   1       8.500   2.695  -5.372  0.00  0.00    -0.211 N 
ATOM     45  H   LIG d   1       8.073   3.308  -5.992  0.00  0.00     0.174 HD
BRANCH  44  46
ATOM     46  S   LIG d   1      10.027   3.011  -4.814  0.00  0.00     0.073 S 
ATOM     47  O   LIG d   1      10.360   1.956  -3.924  0.00  0.00    -0.150 OA
ATOM     48  O   LIG d   1      10.818   3.326  -5.953  0.00  0.00    -0.150 OA
BRANCH  46  49
ATOM     49  C   LIG d   1       9.934   4.479  -3.845  0.00  0.00     0.111 A 
ATOM     50  C   LIG d   1      10.262   4.442  -2.503  0.00  0.00     0.000 A 
ATOM     51  C   LIG d   1      10.194   5.598  -1.743  0.00  0.00     0.125 A 
ATOM     52  H   LIG d   1      10.575   3.514  -2.049  0.00  0.00     0.067 H 
ATOM     53  C   LIG d   1       9.787   6.786  -2.325  0.00  0.00    -0.026 A 
ATOM     54  F   LIG d   1      10.519   5.564  -0.432  0.00  0.00    -0.205 F 
ATOM     55  C   LIG d   1       9.455   6.818  -3.667  0.00  0.00    -0.057 A 
ATOM     56  H   LIG d   1       9.729   7.686  -1.733  0.00  0.00     0.065 H 
ATOM     57  C   LIG d   1       9.528   5.666  -4.425  0.00  0.00    -0.035 A 
ATOM     58  H   LIG d   1       9.137   7.745  -4.122  0.00  0.00     0.062 H 
ATOM     59  H   LIG d   1       9.269   5.693  -5.474  0.00  0.00     0.064 H 
ENDBRANCH  46  49
ENDBRANCH  44  46
ENDBRANCH  14  44
TORSDOF 6
ENDMDL
MODEL 4
REMARK VINA RESULT:      -7.0      3.748      6.032
REMARK  6 active torsions:
REMARK  status: ('A' for Active; 'I' for Inactive)
REMARK    1  A    between atoms: C_1  and  O_2 
REMARK    2  A    between atoms: O_2  and  C_3 
REMARK    3  A    between atoms: C_6  and  C_9 
REMARK       I    between atoms: C_9  and  N_11 
REMARK    4  A    between atoms: C_22  and  N_27 
REMARK    5  A    between atoms: N_27  and  S_28 
REMARK    6  A    between atoms: S_28  and  C_31 
ROOT
ATOM      1  C   LIG d   1       5.242  -0.064  -6.090  0.00  0.00     0.247 C 
ATOM      2  O   LIG d   1       6.323   0.373  -6.432  0.00  0.00    -0.270 OA
ATOM      3  N   LIG d   1       4.921  -0.119  -4.782  0.00  0.00    -0.297 N 
ATOM      4  C   LIG d   1       3.586  -0.555  -4.354  0.00  0.00     0.019 C 
ATOM      5  C   LIG d   1       3.700  -1.635  -3.288  0.00  0.00    -0.006 C 
ATOM      6  H   LIG d   1       2.716  -1.776  -2.843  0.00  0.00     0.033 H 
ATOM      7  C   LIG d   1       4.653  -1.207  -2.171  0.00  0.00    -0.037 C 
ATOM      8  C   LIG d   1       6.028  -0.937  -2.785  0.00  0.00     0.016 C 
ATOM      9  H   LIG d   1       6.761  -0.715  -2.009  0.00  0.00     0.038 H 
ATOM     10  C   LIG d   1       5.903   0.254  -3.750  0.00  0.00     0.023 C 
ATOM     11  C   LIG d   1       6.471  -2.137  -3.589  0.00  0.00     0.027 A 
ATOM     12  C   LIG d   1       7.807  -2.308  -3.768  0.00  0.00    -0.040 A 
ATOM     13  C   LIG d   1       8.290  -3.317  -4.611  0.00  0.00    -0.032 A 
ATOM     14  C   LIG d   1       7.393  -4.118  -5.262  0.00  0.00     0.112 A 
ATOM     15  C   LIG d   1       6.016  -3.922  -5.044  0.00  0.00     0.274 A 
ATOM     16  O   LIG d   1       5.204  -4.601  -5.652  0.00  0.00    -0.266 OA
ATOM     17  N   LIG d   1       5.583  -2.987  -4.163  0.00  0.00    -0.310 N 
ATOM     18  C   LIG d   1       4.150  -2.963  -3.869  0.00  0.00     0.031 C 
ATOM     19  H   LIG d   1       3.042   0.298  -3.948  0.00  0.00     0.047 H 
ATOM     20  H   LIG d   1       3.044  -0.950  -5.213  0.00  0.00     0.047 H 
ATOM     21  H   LIG d   1       4.278  -0.299  -1.697  0.00  0.00     0.028 H 
ATOM     22  H   LIG d   1       4.730  -2.002  -1.430  0.00  0.00     0.028 H 
ATOM     23  H   LIG d   1       6.868   0.458  -4.213  0.00  0.00     0.047 H 
ATOM     24  H   LIG d   1       5.556   1.134  -3.211  0.00  0.00     0.047 H 
ATOM     25  H   LIG d   1       8.503  -1.662  -3.255  0.00  0.00     0.064 H 
ATOM     26  H   LIG d   1       9.352  -3.458  -4.745  0.00  0.00     0.064 H 
ATOM     27  H   LIG d   1       3.924  -3.755  -3.156  0.00  0.00     0.050 H 
ATOM     28  H   LIG d   1       3.598  -3.151  -4.790  0.00  0.00     0.050 H 
ENDROOT
BRANCH   1  29
ATOM     29  C   LIG d   1       4.280  -0.535  -7.106  0.00  0.00     0.037 A 
ATOM     30  C   LIG d   1       4.398  -1.821  -7.639  0.00  0.00    -0.046 A 
ATOM     31  C   LIG d   1       3.499  -2.257  -8.587  0.00  0.00    -0.019 A 
ATOM     32  H   LIG d   1       5.194  -2.473  -7.310  0.00  0.00     0.063 H 
ATOM     33  C   LIG d   1       2.476  -1.419  -9.012  0.00  0.00     0.120 A 
ATOM     34  H   LIG d   1       3.591  -3.250  -9.000  0.00  0.00     0.065 H 
ATOM     35  C   LIG d   1       2.355  -0.139  -8.484  0.00  0.00    -0.019 A 
ATOM     36  C   LIG d   1       3.246   0.302  -7.532  0.00  0.00    -0.046 A 
ATOM     37  H   LIG d   1       1.558   0.509  -8.818  0.00  0.00     0.065 H 
ATOM     38  H   LIG d   1       3.149   1.295  -7.118  0.00  0.00     0.063 H 
BRANCH  33  39
ATOM     39  O   LIG d   1       1.591  -1.851  -9.947  0.00  0.00    -0.495 OA
BRANCH  39  40
ATOM     40  C   LIG d   1       1.598  -3.247 -10.250  0.00  0.00     0.079 C 
ATOM     41  H   LIG d   1       1.462  -3.388 -11.322  0.00  0.00     0.066 H 
ATOM     42  H   LIG d   1       2.550  -3.680  -9.944  0.00  0.00     0.066 H 
ATOM     43  H   LIG d   1       0.786  -3.740  -9.713  0.00  0.00     0.066 H 
ENDBRANCH  39  40
ENDBRANCH  33  39
ENDBRANCH   1  29
BRANCH  14  44
ATOM     44  N   LIG d   1       7.838  -5.119  -6.135  0.00  0.00    -0.211 N 
ATOM     45  H   LIG d   1       7.848  -4.959  -7.092  0.00  0.00     0.174 HD
BRANCH  44  46
ATOM     46  S   LIG d   1       8.348  -6.576  -5.534  0.00  0.00     0.073 S 
ATOM     47  O   LIG d   1       9.239  -7.122  -6.496  0.00  0.00    -0.150 OA
ATOM     48  O   LIG d   1       8.730  -6.346  -4.184  0.00  0.00    -0.150 OA
BRANCH  46  49
ATOM     49  C   LIG d   1       6.945  -7.639  -5.486  0.00  0.00     0.111 A 
ATOM     50  C   LIG d   1       6.003  -7.586  -6.495  0.00  0.00     0.000 A 
ATOM     51  C   LIG d   1       4.902  -8.426  -6.459  0.00  0.00     0.125 A 
ATOM     52  H   LIG d   1       6.126  -6.891  -7.312  0.00  0.00     0.067 H 
ATOM     53  C   LIG d   1       4.742  -9.311  -5.407  0.00  0.00    -0.026 A 
ATOM     54  F   LIG d   1       3.983  -8.378  -7.448  0.00  0.00    -0.205 F 
ATOM     55  C   LIG d   1       5.684  -9.359  -4.397  0.00  0.00    -0.057 A 
ATOM     56  H   LIG d   1       3.882  -9.964  -5.376  0.00  0.00     0.065 H 
ATOM     57  C   LIG d   1       6.783  -8.524  -4.436  0.00  0.00    -0.035 A 
ATOM     58  H   LIG d   1       5.559 -10.050  -3.575  0.00  0.00     0.062 H 
ATOM     59  H   LIG d   1       7.519  -8.563  -3.645  0.00  0.00     0.064 H 
ENDBRANCH  46  49
ENDBRANCH  44  46
ENDBRANCH  14  44
TORSDOF 6
ENDMDL
MODEL 5
REMARK VINA RESULT:      -7.0      3.550      5.995
REMARK  6 active torsions:
REMARK  status: ('A' for Active; 'I' for Inactive)
REMARK    1  A    between atoms: C_1  and  O_2 
REMARK    2  A    between atoms: O_2  and  C_3 
REMARK    3  A    between atoms: C_6  and  C_9 
REMARK       I    between atoms: C_9  and  N_11 
REMARK    4  A    between atoms: C_22  and  N_27 
REMARK    5  A    between atoms: N_27  and  S_28 
REMARK    6  A    between atoms: S_28  and  C_31 
ROOT
ATOM      1  C   LIG d   1       3.978  -0.507  -6.180  0.00  0.00     0.247 C 
ATOM      2  O   LIG d   1       3.722   0.664  -6.380  0.00  0.00    -0.270 OA
ATOM      3  N   LIG d   1       3.694  -1.064  -4.986  0.00  0.00    -0.297 N 
ATOM      4  C   LIG d   1       3.907  -2.498  -4.757  0.00  0.00     0.019 C 
ATOM      5  C   LIG d   1       4.709  -2.716  -3.482  0.00  0.00    -0.006 C 
ATOM      6  H   LIG d   1       4.661  -3.774  -3.228  0.00  0.00     0.033 H 
ATOM      7  C   LIG d   1       4.105  -1.935  -2.313  0.00  0.00    -0.037 C 
ATOM      8  C   LIG d   1       4.100  -0.448  -2.675  0.00  0.00     0.016 C 
ATOM      9  H   LIG d   1       3.760   0.153  -1.833  0.00  0.00     0.038 H 
ATOM     10  C   LIG d   1       3.167  -0.247  -3.881  0.00  0.00     0.023 C 
ATOM     11  C   LIG d   1       5.489  -0.021  -3.091  0.00  0.00     0.027 A 
ATOM     12  C   LIG d   1       5.804   1.293  -2.950  0.00  0.00    -0.040 A 
ATOM     13  C   LIG d   1       7.020   1.790  -3.437  0.00  0.00    -0.032 A 
ATOM     14  C   LIG d   1       7.878   0.933  -4.068  0.00  0.00     0.112 A 
ATOM     15  C   LIG d   1       7.526  -0.425  -4.185  0.00  0.00     0.274 A 
ATOM     16  O   LIG d   1       8.262  -1.192  -4.785  0.00  0.00    -0.266 OA
ATOM     17  N   LIG d   1       6.376  -0.890  -3.636  0.00  0.00    -0.310 N 
ATOM     18  C   LIG d   1       6.169  -2.338  -3.654  0.00  0.00     0.031 C 
ATOM     19  H   LIG d   1       2.941  -2.996  -4.666  0.00  0.00     0.047 H 
ATOM     20  H   LIG d   1       4.450  -2.921  -5.601  0.00  0.00     0.047 H 
ATOM     21  H   LIG d   1       3.084  -2.273  -2.135  0.00  0.00     0.028 H 
ATOM     22  H   LIG d   1       4.705  -2.093  -1.417  0.00  0.00     0.028 H 
ATOM     23  H   LIG d   1       3.156   0.804  -4.169  0.00  0.00     0.047 H 
ATOM     24  H   LIG d   1       2.159  -0.573  -3.628  0.00  0.00     0.047 H 
ATOM     25  H   LIG d   1       5.112   1.960  -2.459  0.00  0.00     0.064 H 
ATOM     26  H   LIG d   1       7.273   2.833  -3.316  0.00  0.00     0.064 H 
ATOM     27  H   LIG d   1       6.748  -2.787  -2.849  0.00  0.00     0.050 H 
ATOM     28  H   LIG d   1       6.525  -2.733  -4.606  0.00  0.00     0.050 H 
ENDROOT
BRANCH   1  29
ATOM     29  C   LIG d   1       4.598  -1.320  -7.245  0.00  0.00     0.037 A 
ATOM     30  C   LIG d   1       5.988  -1.436  -7.318  0.00  0.00    -0.046 A 
ATOM     31  C   LIG d   1       6.563  -2.195  -8.313  0.00  0.00    -0.019 A 
ATOM     32  H   LIG d   1       6.612  -0.929  -6.596  0.00  0.00     0.063 H 
ATOM     33  C   LIG d   1       5.761  -2.846  -9.243  0.00  0.00     0.120 A 
ATOM     34  H   LIG d   1       7.638  -2.284  -8.370  0.00  0.00     0.065 H 
ATOM     35  C   LIG d   1       4.378  -2.734  -9.173  0.00  0.00    -0.019 A 
ATOM     36  C   LIG d   1       3.796  -1.981  -8.178  0.00  0.00    -0.046 A 
ATOM     37  H   LIG d   1       3.758  -3.241  -9.898  0.00  0.00     0.065 H 
ATOM     38  H   LIG d   1       2.720  -1.898  -8.122  0.00  0.00     0.063 H 
BRANCH  33  39
ATOM     39  O   LIG d   1       6.331  -3.594 -10.222  0.00  0.00    -0.495 OA
BRANCH  39  40
ATOM     40  C   LIG d   1       5.951  -3.301 -11.567  0.00  0.00     0.079 C 
ATOM     41  H   LIG d   1       6.792  -3.490 -12.233  0.00  0.00     0.066 H 
ATOM     42  H   LIG d   1       5.111  -3.935 -11.853  0.00  0.00     0.066 H 
ATOM     43  H   LIG d   1       5.656  -2.253 -11.642  0.00  0.00     0.066 H 
ENDBRANCH  39  40
ENDBRANCH  33  39
ENDBRANCH   1  29
BRANCH  14  44
ATOM     44  N   LIG d   1       9.090   1.400  -4.592  0.00  0.00    -0.211 N 
ATOM     45  H   LIG d   1       9.894   1.378  -4.050  0.00  0.00     0.174 HD
BRANCH  44  46
ATOM     46  S   LIG d   1       9.151   1.992  -6.139  0.00  0.00     0.073 S 
ATOM     47  O   LIG d   1      10.305   1.427  -6.744  0.00  0.00    -0.150 OA
ATOM     48  O   LIG d   1       7.848   1.833  -6.685  0.00  0.00    -0.150 OA
BRANCH  46  49
ATOM     49  C   LIG d   1       9.440   3.725  -6.022  0.00  0.00     0.111 A 
ATOM     50  C   LIG d   1       9.184   4.390  -4.838  0.00  0.00     0.000 A 
ATOM     51  C   LIG d   1       9.416   5.753  -4.745  0.00  0.00     0.125 A 
ATOM     52  H   LIG d   1       8.806   3.847  -3.985  0.00  0.00     0.067 H 
ATOM     53  C   LIG d   1       9.896   6.448  -5.842  0.00  0.00    -0.026 A 
ATOM     54  F   LIG d   1       9.172   6.403  -3.586  0.00  0.00    -0.205 F 
ATOM     55  C   LIG d   1      10.146   5.781  -7.026  0.00  0.00    -0.057 A 
ATOM     56  H   LIG d   1      10.073   7.511  -5.772  0.00  0.00     0.065 H 
ATOM     57  C   LIG d   1       9.918   4.422  -7.116  0.00  0.00    -0.035 A 
ATOM     58  H   LIG d   1      10.520   6.324  -7.883  0.00  0.00     0.062 H 
ATOM     59  H   LIG d   1      10.115   3.902  -8.043  0.00  0.00     0.064 H 
ENDBRANCH  46  49
ENDBRANCH  44  46
ENDBRANCH  14  44
TORSDOF 6
ENDMDL
MODEL 6
REMARK VINA RESULT:      -7.0      3.045      5.538
REMARK  6 active torsions:
REMARK  status: ('A' for Active; 'I' for Inactive)
REMARK    1  A    between atoms: C_1  and  O_2 
REMARK    2  A    between atoms: O_2  and  C_3 
REMARK    3  A    between atoms: C_6  and  C_9 
REMARK       I    between atoms: C_9  and  N_11 
REMARK    4  A    between atoms: C_22  and  N_27 
REMARK    5  A    between atoms: N_27  and  S_28 
REMARK    6  A    between atoms: S_28  and  C_31 
ROOT
ATOM      1  C   LIG d   1       4.085  -0.513  -5.974  0.00  0.00     0.247 C 
ATOM      2  O   LIG d   1       4.000   0.606  -6.442  0.00  0.00    -0.270 OA
ATOM      3  N   LIG d   1       3.854  -0.713  -4.661  0.00  0.00    -0.297 N 
ATOM      4  C   LIG d   1       3.859  -2.067  -4.096  0.00  0.00     0.019 C 
ATOM      5  C   LIG d   1       4.756  -2.123  -2.867  0.00  0.00    -0.006 C 
ATOM      6  H   LIG d   1       4.568  -3.066  -2.353  0.00  0.00     0.033 H 
ATOM      7  C   LIG d   1       4.422  -0.994  -1.891  0.00  0.00    -0.037 C 
ATOM      8  C   LIG d   1       4.615   0.342  -2.613  0.00  0.00     0.016 C 
ATOM      9  H   LIG d   1       4.474   1.176  -1.926  0.00  0.00     0.038 H 
ATOM     10  C   LIG d   1       3.594   0.423  -3.761  0.00  0.00     0.023 C 
ATOM     11  C   LIG d   1       5.997   0.398  -3.221  0.00  0.00     0.027 A 
ATOM     12  C   LIG d   1       6.533   1.627  -3.437  0.00  0.00    -0.040 A 
ATOM     13  C   LIG d   1       7.749   1.765  -4.118  0.00  0.00    -0.032 A 
ATOM     14  C   LIG d   1       8.381   0.642  -4.574  0.00  0.00     0.112 A 
ATOM     15  C   LIG d   1       7.805  -0.618  -4.321  0.00  0.00     0.274 A 
ATOM     16  O   LIG d   1       8.335  -1.625  -4.761  0.00  0.00    -0.266 OA
ATOM     17  N   LIG d   1       6.666  -0.722  -3.593  0.00  0.00    -0.310 N 
ATOM     18  C   LIG d   1       6.228  -2.071  -3.233  0.00  0.00     0.031 C 
ATOM     19  H   LIG d   1       2.843  -2.345  -3.814  0.00  0.00     0.047 H 
ATOM     20  H   LIG d   1       4.227  -2.769  -4.844  0.00  0.00     0.047 H 
ATOM     21  H   LIG d   1       3.387  -1.087  -1.562  0.00  0.00     0.028 H 
ATOM     22  H   LIG d   1       5.088  -1.045  -1.030  0.00  0.00     0.028 H 
ATOM     23  H   LIG d   1       3.720   1.361  -4.302  0.00  0.00     0.047 H 
ATOM     24  H   LIG d   1       2.582   0.356  -3.364  0.00  0.00     0.047 H 
ATOM     25  H   LIG d   1       6.018   2.506  -3.080  0.00  0.00     0.064 H 
ATOM     26  H   LIG d   1       8.179   2.743  -4.281  0.00  0.00     0.064 H 
ATOM     27  H   LIG d   1       6.816  -2.418  -2.384  0.00  0.00     0.050 H 
ATOM     28  H   LIG d   1       6.405  -2.736  -4.078  0.00  0.00     0.050 H 
ENDROOT
BRANCH   1  29
ATOM     29  C   LIG d   1       4.441  -1.652  -6.842  0.00  0.00     0.037 A 
ATOM     30  C   LIG d   1       5.542  -2.454  -6.530  0.00  0.00    -0.046 A 
ATOM     31  C   LIG d   1       5.871  -3.516  -7.342  0.00  0.00    -0.019 A 
ATOM     32  H   LIG d   1       6.136  -2.240  -5.653  0.00  0.00     0.063 H 
ATOM     33  C   LIG d   1       5.109  -3.791  -8.471  0.00  0.00     0.120 A 
ATOM     34  H   LIG d   1       6.722  -4.135  -7.101  0.00  0.00     0.065 H 
ATOM     35  C   LIG d   1       4.013  -2.996  -8.785  0.00  0.00    -0.019 A 
ATOM     36  C   LIG d   1       3.675  -1.935  -7.975  0.00  0.00    -0.046 A 
ATOM     37  H   LIG d   1       3.424  -3.212  -9.664  0.00  0.00     0.065 H 
ATOM     38  H   LIG d   1       2.820  -1.321  -8.217  0.00  0.00     0.063 H 
BRANCH  33  39
ATOM     39  O   LIG d   1       5.436  -4.839  -9.270  0.00  0.00    -0.495 OA
BRANCH  39  40
ATOM     40  C   LIG d   1       5.387  -4.619 -10.681  0.00  0.00     0.079 C 
ATOM     41  H   LIG d   1       6.152  -5.223 -11.169  0.00  0.00     0.066 H 
ATOM     42  H   LIG d   1       4.404  -4.902 -11.058  0.00  0.00     0.066 H 
ATOM     43  H   LIG d   1       5.567  -3.564 -10.892  0.00  0.00     0.066 H 
ENDBRANCH  39  40
ENDBRANCH  33  39
ENDBRANCH   1  29
BRANCH  14  44
ATOM     44  N   LIG d   1       9.584   0.742  -5.284  0.00  0.00    -0.211 N 
ATOM     45  H   LIG d   1      10.382   0.301  -4.951  0.00  0.00     0.174 HD
BRANCH  44  46
ATOM     46  S   LIG d   1       9.646   1.615  -6.690  0.00  0.00     0.073 S 
ATOM     47  O   LIG d   1       9.245   2.938  -6.365  0.00  0.00    -0.150 OA
ATOM     48  O   LIG d   1      10.900   1.325  -7.293  0.00  0.00    -0.150 OA
BRANCH  46  49
ATOM     49  C   LIG d   1       8.410   0.963  -7.763  0.00  0.00     0.111 A 
ATOM     50  C   LIG d   1       8.558  -0.301  -8.299  0.00  0.00     0.000 A 
ATOM     51  C   LIG d   1       7.583  -0.816  -9.138  0.00  0.00     0.125 A 
ATOM     52  H   LIG d   1       9.432  -0.889  -8.062  0.00  0.00     0.067 H 
ATOM     53  C   LIG d   1       6.466  -0.058  -9.446  0.00  0.00    -0.026 A 
ATOM     54  F   LIG d   1       7.725  -2.054  -9.659  0.00  0.00    -0.205 F 
ATOM     55  C   LIG d   1       6.323   1.209  -8.911  0.00  0.00    -0.057 A 
ATOM     56  H   LIG d   1       5.708  -0.456 -10.103  0.00  0.00     0.065 H 
ATOM     57  C   LIG d   1       7.294   1.718  -8.071  0.00  0.00    -0.035 A 
ATOM     58  H   LIG d   1       5.451   1.800  -9.151  0.00  0.00     0.062 H 
ATOM     59  H   LIG d   1       7.180   2.709  -7.653  0.00  0.00     0.064 H 
ENDBRANCH  46  49
ENDBRANCH  44  46
ENDBRANCH  14  44
TORSDOF 6
ENDMDL
MODEL 7
REMARK VINA RESULT:      -6.8      5.344      9.268
REMARK  6 active torsions:
REMARK  status: ('A' for Active; 'I' for Inactive)
REMARK    1  A    between atoms: C_1  and  O_2 
REMARK    2  A    between atoms: O_2  and  C_3 
REMARK    3  A    between atoms: C_6  and  C_9 
REMARK       I    between atoms: C_9  and  N_11 
REMARK    4  A    between atoms: C_22  and  N_27 
REMARK    5  A    between atoms: N_27  and  S_28 
REMARK    6  A    between atoms: S_28  and  C_31 
ROOT
ATOM      1  C   LIG d   1      10.284   5.770  -7.428  0.00  0.00     0.247 C 
ATOM      2  O   LIG d   1       9.372   5.897  -8.221  0.00  0.00    -0.270 OA
ATOM      3  N   LIG d   1      11.371   5.046  -7.762  0.00  0.00    -0.297 N 
ATOM      4  C   LIG d   1      12.523   4.960  -6.856  0.00  0.00     0.019 C 
ATOM      5  C   LIG d   1      12.922   3.507  -6.647  0.00  0.00    -0.006 C 
ATOM      6  H   LIG d   1      13.895   3.490  -6.157  0.00  0.00     0.033 H 
ATOM      7  C   LIG d   1      13.069   2.778  -7.984  0.00  0.00    -0.037 C 
ATOM      8  C   LIG d   1      11.729   2.847  -8.721  0.00  0.00     0.016 C 
ATOM      9  H   LIG d   1      11.764   2.263  -9.641  0.00  0.00     0.038 H 
ATOM     10  C   LIG d   1      11.428   4.321  -9.042  0.00  0.00     0.023 C 
ATOM     11  C   LIG d   1      10.626   2.337  -7.823  0.00  0.00     0.027 A 
ATOM     12  C   LIG d   1       9.513   1.843  -8.423  0.00  0.00    -0.040 A 
ATOM     13  C   LIG d   1       8.395   1.477  -7.662  0.00  0.00    -0.032 A 
ATOM     14  C   LIG d   1       8.440   1.637  -6.305  0.00  0.00     0.112 A 
ATOM     15  C   LIG d   1       9.615   2.138  -5.714  0.00  0.00     0.274 A 
ATOM     16  O   LIG d   1       9.653   2.327  -4.509  0.00  0.00    -0.266 OA
ATOM     17  N   LIG d   1      10.707   2.412  -6.471  0.00  0.00    -0.310 N 
ATOM     18  C   LIG d   1      11.936   2.766  -5.762  0.00  0.00     0.031 C 
ATOM     19  H   LIG d   1      13.362   5.507  -7.287  0.00  0.00     0.047 H 
ATOM     20  H   LIG d   1      12.260   5.404  -5.896  0.00  0.00     0.047 H 
ATOM     21  H   LIG d   1      13.842   3.262  -8.582  0.00  0.00     0.028 H 
ATOM     22  H   LIG d   1      13.338   1.738  -7.807  0.00  0.00     0.028 H 
ATOM     23  H   LIG d   1      10.470   4.400  -9.556  0.00  0.00     0.047 H 
ATOM     24  H   LIG d   1      12.219   4.734  -9.666  0.00  0.00     0.047 H 
ATOM     25  H   LIG d   1       9.488   1.732  -9.497  0.00  0.00     0.064 H 
ATOM     26  H   LIG d   1       7.514   1.076  -8.141  0.00  0.00     0.064 H 
ATOM     27  H   LIG d   1      12.406   1.855  -5.394  0.00  0.00     0.050 H 
ATOM     28  H   LIG d   1      11.683   3.398  -4.911  0.00  0.00     0.050 H 
ENDROOT
BRANCH   1  29
ATOM     29  C   LIG d   1      10.203   6.410  -6.100  0.00  0.00     0.037 A 
ATOM     30  C   LIG d   1      10.686   7.708  -5.917  0.00  0.00    -0.046 A 
ATOM     31  C   LIG d   1      10.609   8.302  -4.678  0.00  0.00    -0.019 A 
ATOM     32  H   LIG d   1      11.122   8.245  -6.747  0.00  0.00     0.063 H 
ATOM     33  C   LIG d   1      10.050   7.611  -3.609  0.00  0.00     0.120 A 
ATOM     34  H   LIG d   1      10.983   9.305  -4.536  0.00  0.00     0.065 H 
ATOM     35  C   LIG d   1       9.568   6.319  -3.787  0.00  0.00    -0.019 A 
ATOM     36  C   LIG d   1       9.637   5.721  -5.025  0.00  0.00    -0.046 A 
ATOM     37  H   LIG d   1       9.135   5.786  -2.953  0.00  0.00     0.065 H 
ATOM     38  H   LIG d   1       9.257   4.719  -5.163  0.00  0.00     0.063 H 
BRANCH  33  39
ATOM     39  O   LIG d   1       9.975   8.199  -2.388  0.00  0.00    -0.495 OA
BRANCH  39  40
ATOM     40  C   LIG d   1       9.327   7.461  -1.350  0.00  0.00     0.079 C 
ATOM     41  H   LIG d   1       8.549   6.832  -1.782  0.00  0.00     0.066 H 
ATOM     42  H   LIG d   1      10.058   6.835  -0.839  0.00  0.00     0.066 H 
ATOM     43  H   LIG d   1       8.880   8.154  -0.636  0.00  0.00     0.066 H 
ENDBRANCH  39  40
ENDBRANCH  33  39
ENDBRANCH   1  29
BRANCH  14  44
ATOM     44  N   LIG d   1       7.332   1.308  -5.514  0.00  0.00    -0.211 N 
ATOM     45  H   LIG d   1       6.771   2.010  -5.149  0.00  0.00     0.174 HD
BRANCH  44  46
ATOM     46  S   LIG d   1       6.980  -0.281  -5.202  0.00  0.00     0.073 S 
ATOM     47  O   LIG d   1       6.240  -0.759  -6.317  0.00  0.00    -0.150 OA
ATOM     48  O   LIG d   1       8.191  -0.888  -4.774  0.00  0.00    -0.150 OA
BRANCH  46  49
ATOM     49  C   LIG d   1       5.886  -0.310  -3.822  0.00  0.00     0.111 A 
ATOM     50  C   LIG d   1       5.222  -1.476  -3.491  0.00  0.00     0.000 A 
ATOM     51  C   LIG d   1       4.366  -1.500  -2.403  0.00  0.00     0.125 A 
ATOM     52  H   LIG d   1       5.373  -2.368  -4.079  0.00  0.00     0.067 H 
ATOM     53  C   LIG d   1       4.170  -0.353  -1.653  0.00  0.00    -0.026 A 
ATOM     54  F   LIG d   1       3.721  -2.640  -2.075  0.00  0.00    -0.205 F 
ATOM     55  C   LIG d   1       4.831   0.814  -1.989  0.00  0.00    -0.057 A 
ATOM     56  H   LIG d   1       3.499  -0.369  -0.807  0.00  0.00     0.065 H 
ATOM     57  C   LIG d   1       5.688   0.835  -3.072  0.00  0.00    -0.035 A 
ATOM     58  H   LIG d   1       4.677   1.709  -1.404  0.00  0.00     0.062 H 
ATOM     59  H   LIG d   1       6.205   1.747  -3.334  0.00  0.00     0.064 H 
ENDBRANCH  46  49
ENDBRANCH  44  46
ENDBRANCH  14  44
TORSDOF 6
ENDMDL
MODEL 8
REMARK VINA RESULT:      -6.8      8.693     12.369
REMARK  6 active torsions:
REMARK  status: ('A' for Active; 'I' for Inactive)
REMARK    1  A    between atoms: C_1  and  O_2 
REMARK    2  A    between atoms: O_2  and  C_3 
REMARK    3  A    between atoms: C_6  and  C_9 
REMARK       I    between atoms: C_9  and  N_11 
REMARK    4  A    between atoms: C_22  and  N_27 
REMARK    5  A    between atoms: N_27  and  S_28 
REMARK    6  A    between atoms: S_28  and  C_31 
ROOT
ATOM      1  C   LIG d   1      11.657   9.802  -3.275  0.00  0.00     0.247 C 
ATOM      2  O   LIG d   1      12.863   9.642  -3.265  0.00  0.00    -0.270 OA
ATOM      3  N   LIG d   1      11.033  10.284  -2.183  0.00  0.00    -0.297 N 
ATOM      4  C   LIG d   1       9.594  10.574  -2.207  0.00  0.00     0.019 C 
ATOM      5  C   LIG d   1       8.905   9.923  -1.017  0.00  0.00    -0.006 C 
ATOM      6  H   LIG d   1       7.897  10.331  -0.944  0.00  0.00     0.033 H 
ATOM      7  C   LIG d   1       9.630  10.254   0.288  0.00  0.00    -0.037 C 
ATOM      8  C   LIG d   1      11.071   9.747   0.182  0.00  0.00     0.016 C 
ATOM      9  H   LIG d   1      11.598   9.884   1.126  0.00  0.00     0.038 H 
ATOM     10  C   LIG d   1      11.778  10.530  -0.937  0.00  0.00     0.023 C 
ATOM     11  C   LIG d   1      11.070   8.287  -0.206  0.00  0.00     0.027 A 
ATOM     12  C   LIG d   1      12.156   7.549   0.143  0.00  0.00    -0.040 A 
ATOM     13  C   LIG d   1      12.291   6.226  -0.297  0.00  0.00    -0.032 A 
ATOM     14  C   LIG d   1      11.316   5.694  -1.095  0.00  0.00     0.112 A 
ATOM     15  C   LIG d   1      10.197   6.482  -1.426  0.00  0.00     0.274 A 
ATOM     16  O   LIG d   1       9.342   6.034  -2.174  0.00  0.00    -0.266 OA
ATOM     17  N   LIG d   1      10.060   7.733  -0.922  0.00  0.00    -0.310 N 
ATOM     18  C   LIG d   1       8.792   8.417  -1.177  0.00  0.00     0.031 C 
ATOM     19  H   LIG d   1       9.443  11.653  -2.166  0.00  0.00     0.047 H 
ATOM     20  H   LIG d   1       9.164  10.187  -3.130  0.00  0.00     0.047 H 
ATOM     21  H   LIG d   1       9.631  11.333   0.443  0.00  0.00     0.028 H 
ATOM     22  H   LIG d   1       9.129   9.763   1.121  0.00  0.00     0.028 H 
ATOM     23  H   LIG d   1      12.804  10.178  -1.043  0.00  0.00     0.047 H 
ATOM     24  H   LIG d   1      11.773  11.594  -0.706  0.00  0.00     0.047 H 
ATOM     25  H   LIG d   1      12.923   7.986   0.764  0.00  0.00     0.064 H 
ATOM     26  H   LIG d   1      13.150   5.638  -0.011  0.00  0.00     0.064 H 
ATOM     27  H   LIG d   1       8.043   8.043  -0.481  0.00  0.00     0.050 H 
ATOM     28  H   LIG d   1       8.470   8.194  -2.194  0.00  0.00     0.050 H 
ENDROOT
BRANCH   1  29
ATOM     29  C   LIG d   1      10.878   9.469  -4.484  0.00  0.00     0.037 A 
ATOM     30  C   LIG d   1      10.343   8.188  -4.642  0.00  0.00    -0.046 A 
ATOM     31  C   LIG d   1       9.617   7.881  -5.770  0.00  0.00    -0.019 A 
ATOM     32  H   LIG d   1      10.500   7.439  -3.879  0.00  0.00     0.063 H 
ATOM     33  C   LIG d   1       9.416   8.845  -6.752  0.00  0.00     0.120 A 
ATOM     34  H   LIG d   1       9.203   6.891  -5.893  0.00  0.00     0.065 H 
ATOM     35  C   LIG d   1       9.946  10.120  -6.599  0.00  0.00    -0.019 A 
ATOM     36  C   LIG d   1      10.669  10.436  -5.471  0.00  0.00    -0.046 A 
ATOM     37  H   LIG d   1       9.788  10.865  -7.364  0.00  0.00     0.065 H 
ATOM     38  H   LIG d   1      11.077  11.429  -5.350  0.00  0.00     0.063 H 
BRANCH  33  39
ATOM     39  O   LIG d   1       8.699   8.539  -7.864  0.00  0.00    -0.495 OA
BRANCH  39  40
ATOM     40  C   LIG d   1       9.168   7.449  -8.659  0.00  0.00     0.079 C 
ATOM     41  H   LIG d   1       9.661   7.836  -9.551  0.00  0.00     0.066 H 
ATOM     42  H   LIG d   1       9.877   6.856  -8.081  0.00  0.00     0.066 H 
ATOM     43  H   LIG d   1       8.325   6.823  -8.953  0.00  0.00     0.066 H 
ENDBRANCH  39  40
ENDBRANCH  33  39
ENDBRANCH   1  29
BRANCH  14  44
ATOM     44  N   LIG d   1      11.430   4.384  -1.577  0.00  0.00    -0.211 N 
ATOM     45  H   LIG d   1      11.210   3.634  -1.002  0.00  0.00     0.174 HD
BRANCH  44  46
ATOM     46  S   LIG d   1      11.942   4.114  -3.129  0.00  0.00     0.073 S 
ATOM     47  O   LIG d   1      12.227   5.388  -3.690  0.00  0.00    -0.150 OA
ATOM     48  O   LIG d   1      12.911   3.076  -3.062  0.00  0.00    -0.150 OA
BRANCH  46  49
ATOM     49  C   LIG d   1      10.571   3.465  -4.024  0.00  0.00     0.111 A 
ATOM     50  C   LIG d   1       9.617   2.707  -3.373  0.00  0.00     0.000 A 
ATOM     51  C   LIG d   1       8.536   2.201  -4.076  0.00  0.00     0.125 A 
ATOM     52  H   LIG d   1       9.712   2.512  -2.315  0.00  0.00     0.067 H 
ATOM     53  C   LIG d   1       8.419   2.447  -5.433  0.00  0.00    -0.026 A 
ATOM     54  F   LIG d   1       7.600   1.464  -3.438  0.00  0.00    -0.205 F 
ATOM     55  C   LIG d   1       9.377   3.201  -6.084  0.00  0.00    -0.057 A 
ATOM     56  H   LIG d   1       7.579   2.050  -5.983  0.00  0.00     0.065 H 
ATOM     57  C   LIG d   1      10.452   3.709  -5.380  0.00  0.00    -0.035 A 
ATOM     58  H   LIG d   1       9.285   3.393  -7.143  0.00  0.00     0.062 H 
ATOM     59  H   LIG d   1      11.200   4.299  -5.889  0.00  0.00     0.064 H 
ENDBRANCH  46  49
ENDBRANCH  44  46
ENDBRANCH  14  44
TORSDOF 6
ENDMDL
MODEL 9
REMARK VINA RESULT:      -6.7     11.024     14.487
REMARK  6 active torsions:
REMARK  status: ('A' for Active; 'I' for Inactive)
REMARK    1  A    between atoms: C_1  and  O_2 
REMARK    2  A    between atoms: O_2  and  C_3 
REMARK    3  A    between atoms: C_6  and  C_9 
REMARK       I    between atoms: C_9  and  N_11 
REMARK    4  A    between atoms: C_22  and  N_27 
REMARK    5  A    between atoms: N_27  and  S_28 
REMARK    6  A    between atoms: S_28  and  C_31 
ROOT
ATOM      1  C   LIG d   1       9.691   7.182  -1.908  0.00  0.00     0.247 C 
ATOM      2  O   LIG d   1       8.649   7.446  -1.340  0.00  0.00    -0.270 OA
ATOM      3  N   LIG d   1      10.822   7.008  -1.195  0.00  0.00    -0.297 N 
ATOM      4  C   LIG d   1      12.067   6.596  -1.852  0.00  0.00     0.019 C 
ATOM      5  C   LIG d   1      13.208   7.518  -1.447  0.00  0.00    -0.006 C 
ATOM      6  H   LIG d   1      14.143   7.063  -1.771  0.00  0.00     0.033 H 
ATOM      7  C   LIG d   1      13.275   7.675   0.073  0.00  0.00    -0.037 C 
ATOM      8  C   LIG d   1      11.944   8.253   0.559  0.00  0.00     0.016 C 
ATOM      9  H   LIG d   1      11.981   8.464   1.627  0.00  0.00     0.038 H 
ATOM     10  C   LIG d   1      10.835   7.229   0.261  0.00  0.00     0.023 C 
ATOM     11  C   LIG d   1      11.625   9.514  -0.210  0.00  0.00     0.027 A 
ATOM     12  C   LIG d   1      10.808  10.419   0.390  0.00  0.00    -0.040 A 
ATOM     13  C   LIG d   1      10.359  11.547  -0.308  0.00  0.00    -0.032 A 
ATOM     14  C   LIG d   1      10.745  11.715  -1.609  0.00  0.00     0.112 A 
ATOM     15  C   LIG d   1      11.603  10.765  -2.195  0.00  0.00     0.274 A 
ATOM     16  O   LIG d   1      11.920  10.880  -3.369  0.00  0.00    -0.266 OA
ATOM     17  N   LIG d   1      12.081   9.725  -1.469  0.00  0.00    -0.310 N 
ATOM     18  C   LIG d   1      13.097   8.883  -2.102  0.00  0.00     0.031 C 
ATOM     19  H   LIG d   1      12.308   5.573  -1.559  0.00  0.00     0.047 H 
ATOM     20  H   LIG d   1      11.935   6.637  -2.933  0.00  0.00     0.047 H 
ATOM     21  H   LIG d   1      13.444   6.702   0.535  0.00  0.00     0.028 H 
ATOM     22  H   LIG d   1      14.087   8.353   0.336  0.00  0.00     0.028 H 
ATOM     23  H   LIG d   1       9.871   7.623   0.584  0.00  0.00     0.047 H 
ATOM     24  H   LIG d   1      11.046   6.293   0.775  0.00  0.00     0.047 H 
ATOM     25  H   LIG d   1      10.503  10.268   1.414  0.00  0.00     0.064 H 
ATOM     26  H   LIG d   1       9.718  12.270   0.174  0.00  0.00     0.064 H 
ATOM     27  H   LIG d   1      14.061   9.385  -2.038  0.00  0.00     0.050 H 
ATOM     28  H   LIG d   1      12.839   8.750  -3.153  0.00  0.00     0.050 H 
ENDROOT
BRANCH   1  29
ATOM     29  C   LIG d   1       9.718   7.052  -3.378  0.00  0.00     0.037 A 
ATOM     30  C   LIG d   1       9.514   5.805  -3.974  0.00  0.00    -0.046 A 
ATOM     31  C   LIG d   1       9.541   5.686  -5.346  0.00  0.00    -0.019 A 
ATOM     32  H   LIG d   1       9.338   4.934  -3.360  0.00  0.00     0.063 H 
ATOM     33  C   LIG d   1       9.769   6.806  -6.137  0.00  0.00     0.120 A 
ATOM     34  H   LIG d   1       9.384   4.723  -5.807  0.00  0.00     0.065 H 
ATOM     35  C   LIG d   1       9.972   8.049  -5.547  0.00  0.00    -0.019 A 
ATOM     36  C   LIG d   1       9.942   8.176  -4.177  0.00  0.00    -0.046 A 
ATOM     37  H   LIG d   1      10.150   8.916  -6.165  0.00  0.00     0.065 H 
ATOM     38  H   LIG d   1      10.095   9.143  -3.720  0.00  0.00     0.063 H 
BRANCH  33  39
ATOM     39  O   LIG d   1       9.794   6.686  -7.489  0.00  0.00    -0.495 OA
BRANCH  39  40
ATOM     40  C   LIG d   1       9.143   7.710  -8.243  0.00  0.00     0.079 C 
ATOM     41  H   LIG d   1       8.340   7.271  -8.835  0.00  0.00     0.066 H 
ATOM     42  H   LIG d   1       8.728   8.454  -7.563  0.00  0.00     0.066 H 
ATOM     43  H   LIG d   1       9.864   8.187  -8.907  0.00  0.00     0.066 H 
ENDBRANCH  39  40
ENDBRANCH  33  39
ENDBRANCH   1  29
BRANCH  14  44
ATOM     44  N   LIG d   1      10.293  12.816  -2.347  0.00  0.00    -0.211 N 
ATOM     45  H   LIG d   1      10.789  13.650  -2.327  0.00  0.00     0.174 HD
BRANCH  44  46
ATOM     46  S   LIG d   1       8.912  12.694  -3.254  0.00  0.00     0.073 S 
ATOM     47  O   LIG d   1       8.444  11.362  -3.104  0.00  0.00    -0.150 OA
ATOM     48  O   LIG d   1       8.113  13.824  -2.929  0.00  0.00    -0.150 OA
BRANCH  46  49
ATOM     49  C   LIG d   1       9.380  12.878  -4.942  0.00  0.00     0.111 A 
ATOM     50  C   LIG d   1       9.572  11.760  -5.731  0.00  0.00     0.000 A 
ATOM     51  C   LIG d   1       9.934  11.904  -7.060  0.00  0.00     0.125 A 
ATOM     52  H   LIG d   1       9.436  10.774  -5.312  0.00  0.00     0.067 H 
ATOM     53  C   LIG d   1      10.114  13.169  -7.593  0.00  0.00    -0.026 A 
ATOM     54  F   LIG d   1      10.117  10.812  -7.834  0.00  0.00    -0.205 F 
ATOM     55  C   LIG d   1       9.926  14.286  -6.801  0.00  0.00    -0.057 A 
ATOM     56  H   LIG d   1      10.401  13.283  -8.628  0.00  0.00     0.065 H 
ATOM     57  C   LIG d   1       9.560  14.140  -5.477  0.00  0.00    -0.035 A 
ATOM     58  H   LIG d   1      10.066  15.273  -7.217  0.00  0.00     0.062 H 
ATOM     59  H   LIG d   1       9.413  15.014  -4.858  0.00  0.00     0.064 H 
ENDBRANCH  46  49
ENDBRANCH  44  46
ENDBRANCH  14  44
TORSDOF 6
ENDMDL
