MODEL 1
REMARK VINA RESULT:      -5.4      0.000      0.000
REMARK  19 active torsions:
REMARK  status: ('A' for Active; 'I' for Inactive)
REMARK    1  A    between atoms: C_1  and  C_2 
REMARK    2  A    between atoms: C_2  and  C_3 
REMARK    3  A    between atoms: C_2  and  C_4 
REMARK    4  A    between atoms: C_4  and  C_5 
REMARK    5  A    between atoms: C_5  and  C_6 
REMARK    6  A    between atoms: C_6  and  C_7 
REMARK    7  A    between atoms: C_7  and  C_9 
REMARK    8  A    between atoms: C_7  and  C_10 
REMARK    9  A    between atoms: C_10  and  C_11 
REMARK   10  A    between atoms: C_11  and  C_12 
REMARK   11  A    between atoms: C_12  and  C_13 
REMARK   12  A    between atoms: C_13  and  C_15 
REMARK   13  A    between atoms: C_13  and  C_16 
REMARK   14  A    between atoms: C_16  and  C_17 
REMARK   15  A    between atoms: C_17  and  C_18 
REMARK   16  A    between atoms: C_18  and  C_19 
REMARK   17  A    between atoms: C_19  and  C_21 
REMARK   18  A    between atoms: C_19  and  C_22 
REMARK   19  A    between atoms: C_22  and  C_23 
ROOT
ATOM      1  C   LIG d   1       2.676   0.144  -4.920  0.00  0.00    -0.053 C 
ATOM      2  H   LIG d   1       2.777   1.230  -4.897  0.00  0.00     0.026 H 
ATOM      3  H   LIG d   1       1.791  -0.126  -5.496  0.00  0.00     0.026 H 
ENDROOT
BRANCH   1   4
ATOM      4  C   LIG d   1       3.916  -0.471  -5.571  0.00  0.00    -0.051 C 
ATOM      5  H   LIG d   1       3.911  -1.549  -5.414  0.00  0.00     0.027 H 
ATOM      6  H   LIG d   1       4.813  -0.042  -5.122  0.00  0.00     0.027 H 
BRANCH   4   7
ATOM      7  C   LIG d   1       3.904  -0.172  -7.071  0.00  0.00    -0.044 C 
ATOM      8  H   LIG d   1       4.373   0.795  -7.253  0.00  0.00     0.030 H 
BRANCH   7   9
ATOM      9  C   LIG d   1       2.459  -0.140  -7.575  0.00  0.00    -0.051 C 
ATOM     10  H   LIG d   1       2.068  -1.156  -7.618  0.00  0.00     0.027 H 
ATOM     11  H   LIG d   1       1.851   0.455  -6.894  0.00  0.00     0.027 H 
BRANCH   9  12
ATOM     12  C   LIG d   1       2.420   0.483  -8.971  0.00  0.00    -0.053 C 
ATOM     13  H   LIG d   1       3.134  -0.028  -9.617  0.00  0.00     0.026 H 
ATOM     14  H   LIG d   1       1.417   0.382  -9.386  0.00  0.00     0.026 H 
BRANCH  12  15
ATOM     15  C   LIG d   1       2.786   1.966  -8.879  0.00  0.00    -0.051 C 
ATOM     16  H   LIG d   1       1.902   2.571  -9.076  0.00  0.00     0.027 H 
ATOM     17  H   LIG d   1       3.162   2.186  -7.880  0.00  0.00     0.027 H 
BRANCH  15  18
ATOM     18  C   LIG d   1       3.868   2.288  -9.912  0.00  0.00    -0.047 C 
ATOM     19  H   LIG d   1       3.627   3.227 -10.410  0.00  0.00     0.029 H 
BRANCH  18  20
ATOM     20  C   LIG d   1       5.221   2.415  -9.211  0.00  0.00    -0.063 C 
ATOM     21  H   LIG d   1       5.591   3.435  -9.316  0.00  0.00     0.023 H 
ATOM     22  H   LIG d   1       5.106   2.178  -8.153  0.00  0.00     0.023 H 
ATOM     23  H   LIG d   1       5.932   1.723  -9.663  0.00  0.00     0.023 H 
ENDBRANCH  18  20
BRANCH  18  24
ATOM     24  C   LIG d   1       3.933   1.165 -10.948  0.00  0.00    -0.063 C 
ATOM     25  H   LIG d   1       3.042   1.196 -11.575  0.00  0.00     0.023 H 
ATOM     26  H   LIG d   1       4.819   1.295 -11.570  0.00  0.00     0.023 H 
ATOM     27  H   LIG d   1       3.986   0.202 -10.438  0.00  0.00     0.023 H 
ENDBRANCH  18  24
ENDBRANCH  15  18
ENDBRANCH  12  15
ENDBRANCH   9  12
ENDBRANCH   7   9
BRANCH   7  28
ATOM     28  C   LIG d   1       4.679  -1.263  -7.815  0.00  0.00    -0.062 C 
ATOM     29  H   LIG d   1       5.743  -1.023  -7.806  0.00  0.00     0.023 H 
ATOM     30  H   LIG d   1       4.518  -2.221  -7.322  0.00  0.00     0.023 H 
ATOM     31  H   LIG d   1       4.327  -1.319  -8.845  0.00  0.00     0.023 H 
ENDBRANCH   7  28
ENDBRANCH   4   7
ENDBRANCH   1   4
BRANCH   1  32
ATOM     32  C   LIG d   1       2.535  -0.385  -3.491  0.00  0.00    -0.051 C 
ATOM     33  H   LIG d   1       2.168   0.410  -2.843  0.00  0.00     0.027 H 
ATOM     34  H   LIG d   1       1.831  -1.218  -3.480  0.00  0.00     0.027 H 
BRANCH  32  35
ATOM     35  C   LIG d   1       3.898  -0.866  -2.988  0.00  0.00    -0.044 C 
ATOM     36  H   LIG d   1       4.578  -0.979  -3.833  0.00  0.00     0.030 H 
BRANCH  35  37
ATOM     37  C   LIG d   1       3.736  -2.211  -2.279  0.00  0.00    -0.062 C 
ATOM     38  H   LIG d   1       2.859  -2.178  -1.633  0.00  0.00     0.023 H 
ATOM     39  H   LIG d   1       3.611  -3.000  -3.022  0.00  0.00     0.023 H 
ATOM     40  H   LIG d   1       4.623  -2.415  -1.679  0.00  0.00     0.023 H 
ENDBRANCH  35  37
BRANCH  35  41
ATOM     41  C   LIG d   1       4.471   0.160  -2.009  0.00  0.00    -0.051 C 
ATOM     42  H   LIG d   1       3.702   0.889  -1.755  0.00  0.00     0.027 H 
ATOM     43  H   LIG d   1       4.804  -0.347  -1.104  0.00  0.00     0.027 H 
BRANCH  41  44
ATOM     44  C   LIG d   1       5.657   0.878  -2.657  0.00  0.00    -0.053 C 
ATOM     45  H   LIG d   1       5.297   1.524  -3.457  0.00  0.00     0.026 H 
ATOM     46  H   LIG d   1       6.173   1.478  -1.908  0.00  0.00     0.026 H 
BRANCH  44  47
ATOM     47  C   LIG d   1       6.625  -0.157  -3.235  0.00  0.00    -0.050 C 
ATOM     48  H   LIG d   1       7.104  -0.701  -2.421  0.00  0.00     0.027 H 
ATOM     49  H   LIG d   1       6.075  -0.857  -3.865  0.00  0.00     0.027 H 
BRANCH  47  50
ATOM     50  C   LIG d   1       7.691   0.552  -4.072  0.00  0.00    -0.039 C 
ATOM     51  H   LIG d   1       8.681   0.237  -3.742  0.00  0.00     0.030 H 
BRANCH  50  52
ATOM     52  C   LIG d   1       7.506   0.190  -5.546  0.00  0.00    -0.062 C 
ATOM     53  H   LIG d   1       7.124  -0.828  -5.625  0.00  0.00     0.023 H 
ATOM     54  H   LIG d   1       6.797   0.881  -6.004  0.00  0.00     0.023 H 
ATOM     55  H   LIG d   1       8.464   0.259  -6.061  0.00  0.00     0.023 H 
ENDBRANCH  50  52
BRANCH  50  56
ATOM     56  C   LIG d   1       7.553   2.066  -3.896  0.00  0.00    -0.011 C 
ATOM     57  H   LIG d   1       6.923   2.467  -4.689  0.00  0.00     0.033 H 
ATOM     58  H   LIG d   1       7.100   2.280  -2.929  0.00  0.00     0.033 H 
BRANCH  56  59
ATOM     59  C   LIG d   1       8.916   2.706  -3.965  0.00  0.00     0.042 C 
ATOM     60  O   LIG d   1       9.107   3.640  -4.708  0.00  0.00    -0.550 OA
ATOM     61  O   LIG d   1       9.916   2.238  -3.202  0.00  0.00    -0.550 OA
ENDBRANCH  56  59
ENDBRANCH  50  56
ENDBRANCH  47  50
ENDBRANCH  44  47
ENDBRANCH  41  44
ENDBRANCH  35  41
ENDBRANCH  32  35
ENDBRANCH   1  32
TORSDOF 19
ENDMDL
MODEL 2
REMARK VINA RESULT:      -5.3      1.439      3.147
REMARK  19 active torsions:
REMARK  status: ('A' for Active; 'I' for Inactive)
REMARK    1  A    between atoms: C_1  and  C_2 
REMARK    2  A    between atoms: C_2  and  C_3 
REMARK    3  A    between atoms: C_2  and  C_4 
REMARK    4  A    between atoms: C_4  and  C_5 
REMARK    5  A    between atoms: C_5  and  C_6 
REMARK    6  A    between atoms: C_6  and  C_7 
REMARK    7  A    between atoms: C_7  and  C_9 
REMARK    8  A    between atoms: C_7  and  C_10 
REMARK    9  A    between atoms: C_10  and  C_11 
REMARK   10  A    between atoms: C_11  and  C_12 
REMARK   11  A    between atoms: C_12  and  C_13 
REMARK   12  A    between atoms: C_13  and  C_15 
REMARK   13  A    between atoms: C_13  and  C_16 
REMARK   14  A    between atoms: C_16  and  C_17 
REMARK   15  A    between atoms: C_17  and  C_18 
REMARK   16  A    between atoms: C_18  and  C_19 
REMARK   17  A    between atoms: C_19  and  C_21 
REMARK   18  A    between atoms: C_19  and  C_22 
REMARK   19  A    between atoms: C_22  and  C_23 
ROOT
ATOM      1  C   LIG d   1       4.132  -1.604  -2.177  0.00  0.00    -0.053 C 
ATOM      2  H   LIG d   1       5.004  -0.948  -2.173  0.00  0.00     0.026 H 
ATOM      3  H   LIG d   1       3.962  -1.987  -1.171  0.00  0.00     0.026 H 
ENDROOT
BRANCH   1   4
ATOM      4  C   LIG d   1       2.904  -0.818  -2.639  0.00  0.00    -0.051 C 
ATOM      5  H   LIG d   1       2.061  -1.044  -1.986  0.00  0.00     0.027 H 
ATOM      6  H   LIG d   1       2.656  -1.100  -3.663  0.00  0.00     0.027 H 
BRANCH   4   7
ATOM      7  C   LIG d   1       3.206   0.681  -2.582  0.00  0.00    -0.044 C 
ATOM      8  H   LIG d   1       2.370   1.203  -2.118  0.00  0.00     0.030 H 
BRANCH   7   9
ATOM      9  C   LIG d   1       3.414   1.213  -4.002  0.00  0.00    -0.051 C 
ATOM     10  H   LIG d   1       3.097   2.256  -4.048  0.00  0.00     0.027 H 
ATOM     11  H   LIG d   1       4.469   1.144  -4.265  0.00  0.00     0.027 H 
BRANCH   9  12
ATOM     12  C   LIG d   1       2.587   0.384  -4.985  0.00  0.00    -0.053 C 
ATOM     13  H   LIG d   1       2.263  -0.537  -4.500  0.00  0.00     0.026 H 
ATOM     14  H   LIG d   1       1.714   0.957  -5.299  0.00  0.00     0.026 H 
BRANCH  12  15
ATOM     15  C   LIG d   1       3.440   0.042  -6.209  0.00  0.00    -0.051 C 
ATOM     16  H   LIG d   1       4.303   0.706  -6.246  0.00  0.00     0.027 H 
ATOM     17  H   LIG d   1       3.779  -0.991  -6.138  0.00  0.00     0.027 H 
BRANCH  15  18
ATOM     18  C   LIG d   1       2.603   0.219  -7.478  0.00  0.00    -0.047 C 
ATOM     19  H   LIG d   1       1.546   0.237  -7.216  0.00  0.00     0.029 H 
BRANCH  18  20
ATOM     20  C   LIG d   1       2.984   1.534  -8.160  0.00  0.00    -0.063 C 
ATOM     21  H   LIG d   1       3.198   2.288  -7.402  0.00  0.00     0.023 H 
ATOM     22  H   LIG d   1       3.867   1.380  -8.779  0.00  0.00     0.023 H 
ATOM     23  H   LIG d   1       2.157   1.873  -8.785  0.00  0.00     0.023 H 
ENDBRANCH  18  20
BRANCH  18  24
ATOM     24  C   LIG d   1       2.873  -0.947  -8.431  0.00  0.00    -0.063 C 
ATOM     25  H   LIG d   1       2.322  -0.793  -9.359  0.00  0.00     0.023 H 
ATOM     26  H   LIG d   1       3.940  -1.000  -8.648  0.00  0.00     0.023 H 
ATOM     27  H   LIG d   1       2.550  -1.879  -7.967  0.00  0.00     0.023 H 
ENDBRANCH  18  24
ENDBRANCH  15  18
ENDBRANCH  12  15
ENDBRANCH   9  12
ENDBRANCH   7   9
BRANCH   7  28
ATOM     28  C   LIG d   1       4.475   0.915  -1.758  0.00  0.00    -0.062 C 
ATOM     29  H   LIG d   1       5.149   1.571  -2.309  0.00  0.00     0.023 H 
ATOM     30  H   LIG d   1       4.209   1.381  -0.809  0.00  0.00     0.023 H 
ATOM     31  H   LIG d   1       4.966  -0.039  -1.570  0.00  0.00     0.023 H 
ENDBRANCH   7  28
ENDBRANCH   4   7
ENDBRANCH   1   4
BRANCH   1  32
ATOM     32  C   LIG d   1       4.379  -2.773  -3.133  0.00  0.00    -0.051 C 
ATOM     33  H   LIG d   1       4.832  -3.600  -2.587  0.00  0.00     0.027 H 
ATOM     34  H   LIG d   1       3.430  -3.097  -3.563  0.00  0.00     0.027 H 
BRANCH  32  35
ATOM     35  C   LIG d   1       5.319  -2.325  -4.255  0.00  0.00    -0.044 C 
ATOM     36  H   LIG d   1       4.758  -1.751  -4.992  0.00  0.00     0.030 H 
BRANCH  35  37
ATOM     37  C   LIG d   1       5.935  -3.554  -4.925  0.00  0.00    -0.062 C 
ATOM     38  H   LIG d   1       6.227  -3.304  -5.945  0.00  0.00     0.023 H 
ATOM     39  H   LIG d   1       6.813  -3.873  -4.363  0.00  0.00     0.023 H 
ATOM     40  H   LIG d   1       5.203  -4.363  -4.944  0.00  0.00     0.023 H 
ENDBRANCH  35  37
BRANCH  35  41
ATOM     41  C   LIG d   1       6.431  -1.453  -3.670  0.00  0.00    -0.051 C 
ATOM     42  H   LIG d   1       6.110  -1.049  -2.710  0.00  0.00     0.027 H 
ATOM     43  H   LIG d   1       7.329  -2.054  -3.529  0.00  0.00     0.027 H 
BRANCH  41  44
ATOM     44  C   LIG d   1       6.734  -0.301  -4.630  0.00  0.00    -0.053 C 
ATOM     45  H   LIG d   1       7.371  -0.661  -5.439  0.00  0.00     0.026 H 
ATOM     46  H   LIG d   1       5.802   0.082  -5.044  0.00  0.00     0.026 H 
BRANCH  44  47
ATOM     47  C   LIG d   1       7.454   0.818  -3.874  0.00  0.00    -0.050 C 
ATOM     48  H   LIG d   1       6.730   1.570  -3.562  0.00  0.00     0.027 H 
ATOM     49  H   LIG d   1       7.948   0.402  -2.995  0.00  0.00     0.027 H 
BRANCH  47  50
ATOM     50  C   LIG d   1       8.497   1.462  -4.789  0.00  0.00    -0.039 C 
ATOM     51  H   LIG d   1       9.455   0.957  -4.661  0.00  0.00     0.030 H 
BRANCH  50  52
ATOM     52  C   LIG d   1       8.045   1.337  -6.245  0.00  0.00    -0.062 C 
ATOM     53  H   LIG d   1       8.509   0.459  -6.695  0.00  0.00     0.023 H 
ATOM     54  H   LIG d   1       6.961   1.235  -6.281  0.00  0.00     0.023 H 
ATOM     55  H   LIG d   1       8.346   2.227  -6.797  0.00  0.00     0.023 H 
ENDBRANCH  50  52
BRANCH  50  56
ATOM     56  C   LIG d   1       8.649   2.941  -4.427  0.00  0.00    -0.011 C 
ATOM     57  H   LIG d   1       8.944   3.503  -5.313  0.00  0.00     0.033 H 
ATOM     58  H   LIG d   1       7.699   3.323  -4.054  0.00  0.00     0.033 H 
BRANCH  56  59
ATOM     59  C   LIG d   1       9.704   3.092  -3.362  0.00  0.00     0.042 C 
ATOM     60  O   LIG d   1       9.659   4.025  -2.596  0.00  0.00    -0.550 OA
ATOM     61  O   LIG d   1      10.694   2.190  -3.265  0.00  0.00    -0.550 OA
ENDBRANCH  56  59
ENDBRANCH  50  56
ENDBRANCH  47  50
ENDBRANCH  44  47
ENDBRANCH  41  44
ENDBRANCH  35  41
ENDBRANCH  32  35
ENDBRANCH   1  32
TORSDOF 19
ENDMDL
MODEL 3
REMARK VINA RESULT:      -5.3      1.687      3.019
REMARK  19 active torsions:
REMARK  status: ('A' for Active; 'I' for Inactive)
REMARK    1  A    between atoms: C_1  and  C_2 
REMARK    2  A    between atoms: C_2  and  C_3 
REMARK    3  A    between atoms: C_2  and  C_4 
REMARK    4  A    between atoms: C_4  and  C_5 
REMARK    5  A    between atoms: C_5  and  C_6 
REMARK    6  A    between atoms: C_6  and  C_7 
REMARK    7  A    between atoms: C_7  and  C_9 
REMARK    8  A    between atoms: C_7  and  C_10 
REMARK    9  A    between atoms: C_10  and  C_11 
REMARK   10  A    between atoms: C_11  and  C_12 
REMARK   11  A    between atoms: C_12  and  C_13 
REMARK   12  A    between atoms: C_13  and  C_15 
REMARK   13  A    between atoms: C_13  and  C_16 
REMARK   14  A    between atoms: C_16  and  C_17 
REMARK   15  A    between atoms: C_17  and  C_18 
REMARK   16  A    between atoms: C_18  and  C_19 
REMARK   17  A    between atoms: C_19  and  C_21 
REMARK   18  A    between atoms: C_19  and  C_22 
REMARK   19  A    between atoms: C_22  and  C_23 
ROOT
ATOM      1  C   LIG d   1       3.993  -1.851  -2.323  0.00  0.00    -0.053 C 
ATOM      2  H   LIG d   1       3.578  -2.422  -1.492  0.00  0.00     0.026 H 
ATOM      3  H   LIG d   1       4.913  -1.360  -2.003  0.00  0.00     0.026 H 
ENDROOT
BRANCH   1   4
ATOM      4  C   LIG d   1       4.295  -2.792  -3.489  0.00  0.00    -0.051 C 
ATOM      5  H   LIG d   1       3.375  -3.005  -4.033  0.00  0.00     0.027 H 
ATOM      6  H   LIG d   1       4.713  -3.724  -3.106  0.00  0.00     0.027 H 
BRANCH   4   7
ATOM      7  C   LIG d   1       5.304  -2.130  -4.430  0.00  0.00    -0.044 C 
ATOM      8  H   LIG d   1       5.592  -1.158  -4.029  0.00  0.00     0.030 H 
BRANCH   7   9
ATOM      9  C   LIG d   1       4.669  -1.944  -5.810  0.00  0.00    -0.051 C 
ATOM     10  H   LIG d   1       5.245  -2.499  -6.552  0.00  0.00     0.027 H 
ATOM     11  H   LIG d   1       3.646  -2.317  -5.793  0.00  0.00     0.027 H 
BRANCH   9  12
ATOM     12  C   LIG d   1       4.665  -0.458  -6.173  0.00  0.00    -0.053 C 
ATOM     13  H   LIG d   1       4.954   0.130  -5.302  0.00  0.00     0.026 H 
ATOM     14  H   LIG d   1       5.371  -0.280  -6.984  0.00  0.00     0.026 H 
BRANCH  12  15
ATOM     15  C   LIG d   1       3.260  -0.047  -6.622  0.00  0.00    -0.051 C 
ATOM     16  H   LIG d   1       2.565  -0.864  -6.433  0.00  0.00     0.027 H 
ATOM     17  H   LIG d   1       2.945   0.835  -6.064  0.00  0.00     0.027 H 
BRANCH  15  18
ATOM     18  C   LIG d   1       3.277   0.275  -8.117  0.00  0.00    -0.047 C 
ATOM     19  H   LIG d   1       4.268   0.072  -8.522  0.00  0.00     0.029 H 
BRANCH  18  20
ATOM     20  C   LIG d   1       2.244  -0.594  -8.837  0.00  0.00    -0.063 C 
ATOM     21  H   LIG d   1       2.311  -0.423  -9.912  0.00  0.00     0.023 H 
ATOM     22  H   LIG d   1       2.440  -1.644  -8.623  0.00  0.00     0.023 H 
ATOM     23  H   LIG d   1       1.243  -0.333  -8.491  0.00  0.00     0.023 H 
ENDBRANCH  18  20
BRANCH  18  24
ATOM     24  C   LIG d   1       2.934   1.752  -8.324  0.00  0.00    -0.063 C 
ATOM     25  H   LIG d   1       3.844   2.349  -8.261  0.00  0.00     0.023 H 
ATOM     26  H   LIG d   1       2.479   1.885  -9.305  0.00  0.00     0.023 H 
ATOM     27  H   LIG d   1       2.234   2.074  -7.552  0.00  0.00     0.023 H 
ENDBRANCH  18  24
ENDBRANCH  15  18
ENDBRANCH  12  15
ENDBRANCH   9  12
ENDBRANCH   7   9
BRANCH   7  28
ATOM     28  C   LIG d   1       6.545  -3.018  -4.555  0.00  0.00    -0.062 C 
ATOM     29  H   LIG d   1       6.906  -3.279  -3.560  0.00  0.00     0.023 H 
ATOM     30  H   LIG d   1       6.287  -3.927  -5.098  0.00  0.00     0.023 H 
ATOM     31  H   LIG d   1       7.323  -2.480  -5.096  0.00  0.00     0.023 H 
ENDBRANCH   7  28
ENDBRANCH   4   7
ENDBRANCH   1   4
BRANCH   1  32
ATOM     32  C   LIG d   1       2.981  -0.794  -2.770  0.00  0.00    -0.051 C 
ATOM     33  H   LIG d   1       2.903  -0.801  -3.857  0.00  0.00     0.027 H 
ATOM     34  H   LIG d   1       2.006  -1.017  -2.335  0.00  0.00     0.027 H 
BRANCH  32  35
ATOM     35  C   LIG d   1       3.444   0.587  -2.301  0.00  0.00    -0.044 C 
ATOM     36  H   LIG d   1       2.896   0.868  -1.402  0.00  0.00     0.030 H 
BRANCH  35  37
ATOM     37  C   LIG d   1       3.181   1.616  -3.402  0.00  0.00    -0.062 C 
ATOM     38  H   LIG d   1       3.417   1.179  -4.372  0.00  0.00     0.023 H 
ATOM     39  H   LIG d   1       2.131   1.909  -3.381  0.00  0.00     0.023 H 
ATOM     40  H   LIG d   1       3.806   2.493  -3.236  0.00  0.00     0.023 H 
ENDBRANCH  35  37
BRANCH  35  41
ATOM     41  C   LIG d   1       4.942   0.544  -1.991  0.00  0.00    -0.051 C 
ATOM     42  H   LIG d   1       5.117   0.932  -0.987  0.00  0.00     0.027 H 
ATOM     43  H   LIG d   1       5.296  -0.484  -2.050  0.00  0.00     0.027 H 
BRANCH  41  44
ATOM     44  C   LIG d   1       5.698   1.403  -3.007  0.00  0.00    -0.053 C 
ATOM     45  H   LIG d   1       5.085   1.531  -3.900  0.00  0.00     0.026 H 
ATOM     46  H   LIG d   1       5.913   2.378  -2.571  0.00  0.00     0.026 H 
BRANCH  44  47
ATOM     47  C   LIG d   1       7.010   0.712  -3.384  0.00  0.00    -0.050 C 
ATOM     48  H   LIG d   1       7.603   0.544  -2.485  0.00  0.00     0.027 H 
ATOM     49  H   LIG d   1       6.793  -0.244  -3.861  0.00  0.00     0.027 H 
BRANCH  47  50
ATOM     50  C   LIG d   1       7.793   1.599  -4.353  0.00  0.00    -0.039 C 
ATOM     51  H   LIG d   1       7.179   2.452  -4.644  0.00  0.00     0.030 H 
BRANCH  50  52
ATOM     52  C   LIG d   1       9.068   2.099  -3.670  0.00  0.00    -0.062 C 
ATOM     53  H   LIG d   1       8.804   2.800  -2.878  0.00  0.00     0.023 H 
ATOM     54  H   LIG d   1       9.606   1.253  -3.242  0.00  0.00     0.023 H 
ATOM     55  H   LIG d   1       9.700   2.600  -4.402  0.00  0.00     0.023 H 
ENDBRANCH  50  52
BRANCH  50  56
ATOM     56  C   LIG d   1       8.165   0.791  -5.598  0.00  0.00    -0.011 C 
ATOM     57  H   LIG d   1       9.193   0.440  -5.509  0.00  0.00     0.033 H 
ATOM     58  H   LIG d   1       7.496  -0.065  -5.689  0.00  0.00     0.033 H 
BRANCH  56  59
ATOM     59  C   LIG d   1       8.035   1.662  -6.821  0.00  0.00     0.042 C 
ATOM     60  O   LIG d   1       7.035   1.609  -7.496  0.00  0.00    -0.550 OA
ATOM     61  O   LIG d   1       9.032   2.496  -7.158  0.00  0.00    -0.550 OA
ENDBRANCH  56  59
ENDBRANCH  50  56
ENDBRANCH  47  50
ENDBRANCH  44  47
ENDBRANCH  41  44
ENDBRANCH  35  41
ENDBRANCH  32  35
ENDBRANCH   1  32
TORSDOF 19
ENDMDL
MODEL 4
REMARK VINA RESULT:      -5.3      2.510      5.573
REMARK  19 active torsions:
REMARK  status: ('A' for Active; 'I' for Inactive)
REMARK    1  A    between atoms: C_1  and  C_2 
REMARK    2  A    between atoms: C_2  and  C_3 
REMARK    3  A    between atoms: C_2  and  C_4 
REMARK    4  A    between atoms: C_4  and  C_5 
REMARK    5  A    between atoms: C_5  and  C_6 
REMARK    6  A    between atoms: C_6  and  C_7 
REMARK    7  A    between atoms: C_7  and  C_9 
REMARK    8  A    between atoms: C_7  and  C_10 
REMARK    9  A    between atoms: C_10  and  C_11 
REMARK   10  A    between atoms: C_11  and  C_12 
REMARK   11  A    between atoms: C_12  and  C_13 
REMARK   12  A    between atoms: C_13  and  C_15 
REMARK   13  A    between atoms: C_13  and  C_16 
REMARK   14  A    between atoms: C_16  and  C_17 
REMARK   15  A    between atoms: C_17  and  C_18 
REMARK   16  A    between atoms: C_18  and  C_19 
REMARK   17  A    between atoms: C_19  and  C_21 
REMARK   18  A    between atoms: C_19  and  C_22 
REMARK   19  A    between atoms: C_22  and  C_23 
ROOT
ATOM      1  C   LIG d   1       4.762   0.342  -1.905  0.00  0.00    -0.053 C 
ATOM      2  H   LIG d   1       5.193  -0.639  -2.108  0.00  0.00     0.026 H 
ATOM      3  H   LIG d   1       4.802   0.541  -0.834  0.00  0.00     0.026 H 
ENDROOT
BRANCH   1   4
ATOM      4  C   LIG d   1       5.557   1.413  -2.654  0.00  0.00    -0.051 C 
ATOM      5  H   LIG d   1       6.156   1.984  -1.944  0.00  0.00     0.027 H 
ATOM      6  H   LIG d   1       4.868   2.084  -3.169  0.00  0.00     0.027 H 
BRANCH   4   7
ATOM      7  C   LIG d   1       6.477   0.744  -3.677  0.00  0.00    -0.044 C 
ATOM      8  H   LIG d   1       5.972   0.696  -4.642  0.00  0.00     0.030 H 
BRANCH   7   9
ATOM      9  C   LIG d   1       6.817  -0.672  -3.209  0.00  0.00    -0.051 C 
ATOM     10  H   LIG d   1       7.578  -0.623  -2.429  0.00  0.00     0.027 H 
ATOM     11  H   LIG d   1       5.921  -1.149  -2.811  0.00  0.00     0.027 H 
BRANCH   9  12
ATOM     12  C   LIG d   1       7.347  -1.486  -4.390  0.00  0.00    -0.053 C 
ATOM     13  H   LIG d   1       6.919  -1.104  -5.317  0.00  0.00     0.026 H 
ATOM     14  H   LIG d   1       8.433  -1.404  -4.429  0.00  0.00     0.026 H 
BRANCH  12  15
ATOM     15  C   LIG d   1       6.953  -2.955  -4.215  0.00  0.00    -0.051 C 
ATOM     16  H   LIG d   1       7.841  -3.544  -3.989  0.00  0.00     0.027 H 
ATOM     17  H   LIG d   1       6.240  -3.044  -3.396  0.00  0.00     0.027 H 
BRANCH  15  18
ATOM     18  C   LIG d   1       6.313  -3.468  -5.506  0.00  0.00    -0.047 C 
ATOM     19  H   LIG d   1       6.967  -4.207  -5.968  0.00  0.00     0.029 H 
BRANCH  18  20
ATOM     20  C   LIG d   1       4.963  -4.111  -5.185  0.00  0.00    -0.063 C 
ATOM     21  H   LIG d   1       4.204  -3.724  -5.867  0.00  0.00     0.023 H 
ATOM     22  H   LIG d   1       5.038  -5.192  -5.302  0.00  0.00     0.023 H 
ATOM     23  H   LIG d   1       4.682  -3.876  -4.158  0.00  0.00     0.023 H 
ENDBRANCH  18  20
BRANCH  18  24
ATOM     24  C   LIG d   1       6.104  -2.298  -6.470  0.00  0.00    -0.063 C 
ATOM     25  H   LIG d   1       7.071  -1.937  -6.818  0.00  0.00     0.023 H 
ATOM     26  H   LIG d   1       5.513  -2.632  -7.324  0.00  0.00     0.023 H 
ATOM     27  H   LIG d   1       5.577  -1.493  -5.957  0.00  0.00     0.023 H 
ENDBRANCH  18  24
ENDBRANCH  15  18
ENDBRANCH  12  15
ENDBRANCH   9  12
ENDBRANCH   7   9
BRANCH   7  28
ATOM     28  C   LIG d   1       7.765   1.559  -3.815  0.00  0.00    -0.062 C 
ATOM     29  H   LIG d   1       8.602   0.886  -3.998  0.00  0.00     0.023 H 
ATOM     30  H   LIG d   1       7.667   2.253  -4.651  0.00  0.00     0.023 H 
ATOM     31  H   LIG d   1       7.940   2.119  -2.897  0.00  0.00     0.023 H 
ENDBRANCH   7  28
ENDBRANCH   4   7
ENDBRANCH   1   4
BRANCH   1  32
ATOM     32  C   LIG d   1       3.306   0.366  -2.374  0.00  0.00    -0.051 C 
ATOM     33  H   LIG d   1       2.652   0.545  -1.521  0.00  0.00     0.027 H 
ATOM     34  H   LIG d   1       3.174   1.163  -3.107  0.00  0.00     0.027 H 
BRANCH  32  35
ATOM     35  C   LIG d   1       2.954  -0.978  -3.015  0.00  0.00    -0.044 C 
ATOM     36  H   LIG d   1       1.887  -1.168  -2.897  0.00  0.00     0.030 H 
BRANCH  35  37
ATOM     37  C   LIG d   1       3.750  -2.093  -2.333  0.00  0.00    -0.062 C 
ATOM     38  H   LIG d   1       3.103  -2.630  -1.640  0.00  0.00     0.023 H 
ATOM     39  H   LIG d   1       4.126  -2.784  -3.088  0.00  0.00     0.023 H 
ATOM     40  H   LIG d   1       4.588  -1.659  -1.788  0.00  0.00     0.023 H 
ENDBRANCH  35  37
BRANCH  35  41
ATOM     41  C   LIG d   1       3.303  -0.941  -4.504  0.00  0.00    -0.051 C 
ATOM     42  H   LIG d   1       4.374  -1.101  -4.630  0.00  0.00     0.027 H 
ATOM     43  H   LIG d   1       2.755  -1.724  -5.026  0.00  0.00     0.027 H 
BRANCH  41  44
ATOM     44  C   LIG d   1       2.921   0.423  -5.083  0.00  0.00    -0.053 C 
ATOM     45  H   LIG d   1       2.209   0.912  -4.418  0.00  0.00     0.026 H 
ATOM     46  H   LIG d   1       3.813   1.041  -5.179  0.00  0.00     0.026 H 
BRANCH  44  47
ATOM     47  C   LIG d   1       2.284   0.232  -6.461  0.00  0.00    -0.050 C 
ATOM     48  H   LIG d   1       1.724  -0.703  -6.476  0.00  0.00     0.027 H 
ATOM     49  H   LIG d   1       1.609   1.063  -6.668  0.00  0.00     0.027 H 
BRANCH  47  50
ATOM     50  C   LIG d   1       3.379   0.187  -7.528  0.00  0.00    -0.039 C 
ATOM     51  H   LIG d   1       4.356   0.160  -7.045  0.00  0.00     0.030 H 
BRANCH  50  52
ATOM     52  C   LIG d   1       3.202  -1.066  -8.388  0.00  0.00    -0.062 C 
ATOM     53  H   LIG d   1       2.261  -1.001  -8.934  0.00  0.00     0.023 H 
ATOM     54  H   LIG d   1       4.028  -1.142  -9.094  0.00  0.00     0.023 H 
ATOM     55  H   LIG d   1       3.188  -1.948  -7.747  0.00  0.00     0.023 H 
ENDBRANCH  50  52
BRANCH  50  56
ATOM     56  C   LIG d   1       3.281   1.431  -8.412  0.00  0.00    -0.011 C 
ATOM     57  H   LIG d   1       2.510   1.280  -9.167  0.00  0.00     0.033 H 
ATOM     58  H   LIG d   1       3.024   2.294  -7.798  0.00  0.00     0.033 H 
BRANCH  56  59
ATOM     59  C   LIG d   1       4.606   1.672  -9.089  0.00  0.00     0.042 C 
ATOM     60  O   LIG d   1       4.659   1.781 -10.291  0.00  0.00    -0.550 OA
ATOM     61  O   LIG d   1       5.727   1.766  -8.355  0.00  0.00    -0.550 OA
ENDBRANCH  56  59
ENDBRANCH  50  56
ENDBRANCH  47  50
ENDBRANCH  44  47
ENDBRANCH  41  44
ENDBRANCH  35  41
ENDBRANCH  32  35
ENDBRANCH   1  32
TORSDOF 19
ENDMDL
MODEL 5
REMARK VINA RESULT:      -5.2      1.934      2.954
REMARK  19 active torsions:
REMARK  status: ('A' for Active; 'I' for Inactive)
REMARK    1  A    between atoms: C_1  and  C_2 
REMARK    2  A    between atoms: C_2  and  C_3 
REMARK    3  A    between atoms: C_2  and  C_4 
REMARK    4  A    between atoms: C_4  and  C_5 
REMARK    5  A    between atoms: C_5  and  C_6 
REMARK    6  A    between atoms: C_6  and  C_7 
REMARK    7  A    between atoms: C_7  and  C_9 
REMARK    8  A    between atoms: C_7  and  C_10 
REMARK    9  A    between atoms: C_10  and  C_11 
REMARK   10  A    between atoms: C_11  and  C_12 
REMARK   11  A    between atoms: C_12  and  C_13 
REMARK   12  A    between atoms: C_13  and  C_15 
REMARK   13  A    between atoms: C_13  and  C_16 
REMARK   14  A    between atoms: C_16  and  C_17 
REMARK   15  A    between atoms: C_17  and  C_18 
REMARK   16  A    between atoms: C_18  and  C_19 
REMARK   17  A    between atoms: C_19  and  C_21 
REMARK   18  A    between atoms: C_19  and  C_22 
REMARK   19  A    between atoms: C_22  and  C_23 
ROOT
ATOM      1  C   LIG d   1       2.484   0.271  -5.067  0.00  0.00    -0.053 C 
ATOM      2  H   LIG d   1       1.596   0.855  -5.312  0.00  0.00     0.026 H 
ATOM      3  H   LIG d   1       2.182  -0.700  -4.672  0.00  0.00     0.026 H 
ENDROOT
BRANCH   1   4
ATOM      4  C   LIG d   1       3.325   0.068  -6.328  0.00  0.00    -0.051 C 
ATOM      5  H   LIG d   1       3.664  -0.967  -6.377  0.00  0.00     0.027 H 
ATOM      6  H   LIG d   1       4.190   0.732  -6.300  0.00  0.00     0.027 H 
BRANCH   4   7
ATOM      7  C   LIG d   1       2.479   0.387  -7.562  0.00  0.00    -0.044 C 
ATOM      8  H   LIG d   1       1.438   0.516  -7.266  0.00  0.00     0.030 H 
BRANCH   7   9
ATOM      9  C   LIG d   1       2.583  -0.765  -8.565  0.00  0.00    -0.051 C 
ATOM     10  H   LIG d   1       3.586  -0.783  -8.992  0.00  0.00     0.027 H 
ATOM     11  H   LIG d   1       2.389  -1.709  -8.056  0.00  0.00     0.027 H 
BRANCH   9  12
ATOM     12  C   LIG d   1       1.556  -0.565  -9.681  0.00  0.00    -0.053 C 
ATOM     13  H   LIG d   1       0.692  -1.204  -9.498  0.00  0.00     0.026 H 
ATOM     14  H   LIG d   1       1.241   0.478  -9.701  0.00  0.00     0.026 H 
BRANCH  12  15
ATOM     15  C   LIG d   1       2.187  -0.933 -11.026  0.00  0.00    -0.051 C 
ATOM     16  H   LIG d   1       1.941  -1.966 -11.271  0.00  0.00     0.027 H 
ATOM     17  H   LIG d   1       1.798  -0.274 -11.802  0.00  0.00     0.027 H 
BRANCH  15  18
ATOM     18  C   LIG d   1       3.706  -0.776 -10.937  0.00  0.00    -0.047 C 
ATOM     19  H   LIG d   1       4.012  -0.790  -9.892  0.00  0.00     0.029 H 
BRANCH  18  20
ATOM     20  C   LIG d   1       4.382  -1.929 -11.681  0.00  0.00    -0.063 C 
ATOM     21  H   LIG d   1       3.631  -2.491 -12.239  0.00  0.00     0.023 H 
ATOM     22  H   LIG d   1       5.124  -1.530 -12.372  0.00  0.00     0.023 H 
ATOM     23  H   LIG d   1       4.870  -2.590 -10.964  0.00  0.00     0.023 H 
ENDBRANCH  18  20
BRANCH  18  24
ATOM     24  C   LIG d   1       4.118   0.552 -11.573  0.00  0.00    -0.063 C 
ATOM     25  H   LIG d   1       4.080   1.342 -10.822  0.00  0.00     0.023 H 
ATOM     26  H   LIG d   1       5.134   0.470 -11.961  0.00  0.00     0.023 H 
ATOM     27  H   LIG d   1       3.436   0.793 -12.389  0.00  0.00     0.023 H 
ENDBRANCH  18  24
ENDBRANCH  15  18
ENDBRANCH  12  15
ENDBRANCH   9  12
ENDBRANCH   7   9
BRANCH   7  28
ATOM     28  C   LIG d   1       2.988   1.676  -8.211  0.00  0.00    -0.062 C 
ATOM     29  H   LIG d   1       3.958   1.937  -7.788  0.00  0.00     0.023 H 
ATOM     30  H   LIG d   1       3.089   1.525  -9.286  0.00  0.00     0.023 H 
ATOM     31  H   LIG d   1       2.279   2.481  -8.023  0.00  0.00     0.023 H 
ENDBRANCH   7  28
ENDBRANCH   4   7
ENDBRANCH   1   4
BRANCH   1  32
ATOM     32  C   LIG d   1       3.311   1.014  -4.017  0.00  0.00    -0.051 C 
ATOM     33  H   LIG d   1       4.361   1.009  -4.310  0.00  0.00     0.027 H 
ATOM     34  H   LIG d   1       2.960   2.044  -3.940  0.00  0.00     0.027 H 
BRANCH  32  35
ATOM     35  C   LIG d   1       3.156   0.321  -2.661  0.00  0.00    -0.044 C 
ATOM     36  H   LIG d   1       2.288   0.727  -2.143  0.00  0.00     0.030 H 
BRANCH  35  37
ATOM     37  C   LIG d   1       4.411   0.559  -1.820  0.00  0.00    -0.062 C 
ATOM     38  H   LIG d   1       4.673  -0.357  -1.290  0.00  0.00     0.023 H 
ATOM     39  H   LIG d   1       5.235   0.849  -2.472  0.00  0.00     0.023 H 
ATOM     40  H   LIG d   1       4.220   1.354  -1.099  0.00  0.00     0.023 H 
ENDBRANCH  35  37
BRANCH  35  41
ATOM     41  C   LIG d   1       2.964  -1.182  -2.876  0.00  0.00    -0.051 C 
ATOM     42  H   LIG d   1       2.146  -1.537  -2.250  0.00  0.00     0.027 H 
ATOM     43  H   LIG d   1       2.730  -1.373  -3.923  0.00  0.00     0.027 H 
BRANCH  41  44
ATOM     44  C   LIG d   1       4.251  -1.919  -2.499  0.00  0.00    -0.053 C 
ATOM     45  H   LIG d   1       5.012  -1.195  -2.207  0.00  0.00     0.026 H 
ATOM     46  H   LIG d   1       4.052  -2.593  -1.666  0.00  0.00     0.026 H 
BRANCH  44  47
ATOM     47  C   LIG d   1       4.748  -2.726  -3.700  0.00  0.00    -0.050 C 
ATOM     48  H   LIG d   1       4.735  -3.788  -3.456  0.00  0.00     0.027 H 
ATOM     49  H   LIG d   1       4.097  -2.542  -4.555  0.00  0.00     0.027 H 
BRANCH  47  50
ATOM     50  C   LIG d   1       6.176  -2.299  -4.045  0.00  0.00    -0.039 C 
ATOM     51  H   LIG d   1       6.663  -1.904  -3.153  0.00  0.00     0.030 H 
BRANCH  50  52
ATOM     52  C   LIG d   1       6.959  -3.509  -4.559  0.00  0.00    -0.062 C 
ATOM     53  H   LIG d   1       7.153  -4.193  -3.733  0.00  0.00     0.023 H 
ATOM     54  H   LIG d   1       6.376  -4.020  -5.326  0.00  0.00     0.023 H 
ATOM     55  H   LIG d   1       7.906  -3.176  -4.984  0.00  0.00     0.023 H 
ENDBRANCH  50  52
BRANCH  50  56
ATOM     56  C   LIG d   1       6.138  -1.218  -5.127  0.00  0.00    -0.011 C 
ATOM     57  H   LIG d   1       6.622  -1.591  -6.030  0.00  0.00     0.033 H 
ATOM     58  H   LIG d   1       5.103  -0.962  -5.349  0.00  0.00     0.033 H 
BRANCH  56  59
ATOM     59  C   LIG d   1       6.865   0.008  -4.638  0.00  0.00     0.042 C 
ATOM     60  O   LIG d   1       7.338   0.026  -3.527  0.00  0.00    -0.550 OA
ATOM     61  O   LIG d   1       6.987   1.079  -5.438  0.00  0.00    -0.550 OA
ENDBRANCH  56  59
ENDBRANCH  50  56
ENDBRANCH  47  50
ENDBRANCH  44  47
ENDBRANCH  41  44
ENDBRANCH  35  41
ENDBRANCH  32  35
ENDBRANCH   1  32
TORSDOF 19
ENDMDL
MODEL 6
REMARK VINA RESULT:      -5.2      2.195      5.392
REMARK  19 active torsions:
REMARK  status: ('A' for Active; 'I' for Inactive)
REMARK    1  A    between atoms: C_1  and  C_2 
REMARK    2  A    between atoms: C_2  and  C_3 
REMARK    3  A    between atoms: C_2  and  C_4 
REMARK    4  A    between atoms: C_4  and  C_5 
REMARK    5  A    between atoms: C_5  and  C_6 
REMARK    6  A    between atoms: C_6  and  C_7 
REMARK    7  A    between atoms: C_7  and  C_9 
REMARK    8  A    between atoms: C_7  and  C_10 
REMARK    9  A    between atoms: C_10  and  C_11 
REMARK   10  A    between atoms: C_11  and  C_12 
REMARK   11  A    between atoms: C_12  and  C_13 
REMARK   12  A    between atoms: C_13  and  C_15 
REMARK   13  A    between atoms: C_13  and  C_16 
REMARK   14  A    between atoms: C_16  and  C_17 
REMARK   15  A    between atoms: C_17  and  C_18 
REMARK   16  A    between atoms: C_18  and  C_19 
REMARK   17  A    between atoms: C_19  and  C_21 
REMARK   18  A    between atoms: C_19  and  C_22 
REMARK   19  A    between atoms: C_22  and  C_23 
ROOT
ATOM      1  C   LIG d   1       4.172  -1.960  -2.537  0.00  0.00    -0.053 C 
ATOM      2  H   LIG d   1       3.923  -2.623  -1.707  0.00  0.00     0.026 H 
ATOM      3  H   LIG d   1       5.026  -1.340  -2.262  0.00  0.00     0.026 H 
ENDROOT
BRANCH   1   4
ATOM      4  C   LIG d   1       4.523  -2.794  -3.770  0.00  0.00    -0.051 C 
ATOM      5  H   LIG d   1       3.888  -2.496  -4.603  0.00  0.00     0.027 H 
ATOM      6  H   LIG d   1       4.364  -3.851  -3.552  0.00  0.00     0.027 H 
BRANCH   4   7
ATOM      7  C   LIG d   1       5.991  -2.566  -4.139  0.00  0.00    -0.044 C 
ATOM      8  H   LIG d   1       6.548  -3.493  -4.000  0.00  0.00     0.030 H 
BRANCH   7   9
ATOM      9  C   LIG d   1       6.580  -1.478  -3.239  0.00  0.00    -0.051 C 
ATOM     10  H   LIG d   1       5.780  -1.006  -2.669  0.00  0.00     0.027 H 
ATOM     11  H   LIG d   1       7.299  -1.924  -2.552  0.00  0.00     0.027 H 
BRANCH   9  12
ATOM     12  C   LIG d   1       7.282  -0.427  -4.101  0.00  0.00    -0.053 C 
ATOM     13  H   LIG d   1       8.351  -0.637  -4.132  0.00  0.00     0.026 H 
ATOM     14  H   LIG d   1       6.876  -0.457  -5.112  0.00  0.00     0.026 H 
BRANCH  12  15
ATOM     15  C   LIG d   1       7.052   0.962  -3.501  0.00  0.00    -0.051 C 
ATOM     16  H   LIG d   1       5.991   1.204  -3.542  0.00  0.00     0.027 H 
ATOM     17  H   LIG d   1       7.387   0.968  -2.463  0.00  0.00     0.027 H 
BRANCH  15  18
ATOM     18  C   LIG d   1       7.845   1.999  -4.298  0.00  0.00    -0.047 C 
ATOM     19  H   LIG d   1       7.278   2.928  -4.351  0.00  0.00     0.029 H 
BRANCH  18  20
ATOM     20  C   LIG d   1       9.185   2.257  -3.608  0.00  0.00    -0.063 C 
ATOM     21  H   LIG d   1       9.956   2.425  -4.362  0.00  0.00     0.023 H 
ATOM     22  H   LIG d   1       9.102   3.137  -2.971  0.00  0.00     0.023 H 
ATOM     23  H   LIG d   1       9.455   1.393  -3.000  0.00  0.00     0.023 H 
ENDBRANCH  18  20
BRANCH  18  24
ATOM     24  C   LIG d   1       8.093   1.472  -5.713  0.00  0.00    -0.063 C 
ATOM     25  H   LIG d   1       7.885   0.402  -5.744  0.00  0.00     0.023 H 
ATOM     26  H   LIG d   1       7.438   1.989  -6.414  0.00  0.00     0.023 H 
ATOM     27  H   LIG d   1       9.133   1.648  -5.990  0.00  0.00     0.023 H 
ENDBRANCH  18  24
ENDBRANCH  15  18
ENDBRANCH  12  15
ENDBRANCH   9  12
ENDBRANCH   7   9
BRANCH   7  28
ATOM     28  C   LIG d   1       6.087  -2.127  -5.601  0.00  0.00    -0.062 C 
ATOM     29  H   LIG d   1       5.314  -2.629  -6.183  0.00  0.00     0.023 H 
ATOM     30  H   LIG d   1       5.947  -1.048  -5.665  0.00  0.00     0.023 H 
ATOM     31  H   LIG d   1       7.069  -2.390  -5.995  0.00  0.00     0.023 H 
ENDBRANCH   7  28
ENDBRANCH   4   7
ENDBRANCH   1   4
BRANCH   1  32
ATOM     32  C   LIG d   1       2.973  -1.064  -2.852  0.00  0.00    -0.051 C 
ATOM     33  H   LIG d   1       2.265  -1.610  -3.476  0.00  0.00     0.027 H 
ATOM     34  H   LIG d   1       2.485  -0.769  -1.922  0.00  0.00     0.027 H 
BRANCH  32  35
ATOM     35  C   LIG d   1       3.451   0.185  -3.595  0.00  0.00    -0.044 C 
ATOM     36  H   LIG d   1       4.450   0.011  -3.993  0.00  0.00     0.030 H 
BRANCH  35  37
ATOM     37  C   LIG d   1       3.485   1.372  -2.630  0.00  0.00    -0.062 C 
ATOM     38  H   LIG d   1       3.751   2.277  -3.175  0.00  0.00     0.023 H 
ATOM     39  H   LIG d   1       2.502   1.498  -2.175  0.00  0.00     0.023 H 
ATOM     40  H   LIG d   1       4.224   1.185  -1.851  0.00  0.00     0.023 H 
ENDBRANCH  35  37
BRANCH  35  41
ATOM     41  C   LIG d   1       2.490   0.492  -4.746  0.00  0.00    -0.051 C 
ATOM     42  H   LIG d   1       1.566  -0.069  -4.608  0.00  0.00     0.027 H 
ATOM     43  H   LIG d   1       2.269   1.559  -4.760  0.00  0.00     0.027 H 
BRANCH  41  44
ATOM     44  C   LIG d   1       3.138   0.088  -6.072  0.00  0.00    -0.053 C 
ATOM     45  H   LIG d   1       4.222   0.097  -5.963  0.00  0.00     0.026 H 
ATOM     46  H   LIG d   1       2.808  -0.913  -6.348  0.00  0.00     0.026 H 
BRANCH  44  47
ATOM     47  C   LIG d   1       2.727   1.079  -7.163  0.00  0.00    -0.050 C 
ATOM     48  H   LIG d   1       1.641   1.088  -7.255  0.00  0.00     0.027 H 
ATOM     49  H   LIG d   1       3.078   2.077  -6.898  0.00  0.00     0.027 H 
BRANCH  47  50
ATOM     50  C   LIG d   1       3.348   0.657  -8.496  0.00  0.00    -0.039 C 
ATOM     51  H   LIG d   1       4.058  -0.154  -8.326  0.00  0.00     0.030 H 
BRANCH  50  52
ATOM     52  C   LIG d   1       2.246   0.179  -9.443  0.00  0.00    -0.062 C 
ATOM     53  H   LIG d   1       2.613   0.204 -10.469  0.00  0.00     0.023 H 
ATOM     54  H   LIG d   1       1.960  -0.840  -9.183  0.00  0.00     0.023 H 
ATOM     55  H   LIG d   1       1.380   0.834  -9.353  0.00  0.00     0.023 H 
ENDBRANCH  50  52
BRANCH  50  56
ATOM     56  C   LIG d   1       4.076   1.849  -9.120  0.00  0.00    -0.011 C 
ATOM     57  H   LIG d   1       3.837   1.905 -10.181  0.00  0.00     0.033 H 
ATOM     58  H   LIG d   1       3.759   2.767  -8.627  0.00  0.00     0.033 H 
BRANCH  56  59
ATOM     59  C   LIG d   1       5.564   1.675  -8.949  0.00  0.00     0.042 C 
ATOM     60  O   LIG d   1       6.003   0.644  -8.497  0.00  0.00    -0.550 OA
ATOM     61  O   LIG d   1       6.399   2.666  -9.298  0.00  0.00    -0.550 OA
ENDBRANCH  56  59
ENDBRANCH  50  56
ENDBRANCH  47  50
ENDBRANCH  44  47
ENDBRANCH  41  44
ENDBRANCH  35  41
ENDBRANCH  32  35
ENDBRANCH   1  32
TORSDOF 19
ENDMDL
MODEL 7
REMARK VINA RESULT:      -5.2      2.569      6.409
REMARK  19 active torsions:
REMARK  status: ('A' for Active; 'I' for Inactive)
REMARK    1  A    between atoms: C_1  and  C_2 
REMARK    2  A    between atoms: C_2  and  C_3 
REMARK    3  A    between atoms: C_2  and  C_4 
REMARK    4  A    between atoms: C_4  and  C_5 
REMARK    5  A    between atoms: C_5  and  C_6 
REMARK    6  A    between atoms: C_6  and  C_7 
REMARK    7  A    between atoms: C_7  and  C_9 
REMARK    8  A    between atoms: C_7  and  C_10 
REMARK    9  A    between atoms: C_10  and  C_11 
REMARK   10  A    between atoms: C_11  and  C_12 
REMARK   11  A    between atoms: C_12  and  C_13 
REMARK   12  A    between atoms: C_13  and  C_15 
REMARK   13  A    between atoms: C_13  and  C_16 
REMARK   14  A    between atoms: C_16  and  C_17 
REMARK   15  A    between atoms: C_17  and  C_18 
REMARK   16  A    between atoms: C_18  and  C_19 
REMARK   17  A    between atoms: C_19  and  C_21 
REMARK   18  A    between atoms: C_19  and  C_22 
REMARK   19  A    between atoms: C_22  and  C_23 
ROOT
ATOM      1  C   LIG d   1       7.754  -1.694  -5.926  0.00  0.00    -0.053 C 
ATOM      2  H   LIG d   1       7.306  -0.738  -5.654  0.00  0.00     0.026 H 
ATOM      3  H   LIG d   1       8.838  -1.626  -5.837  0.00  0.00     0.026 H 
ENDROOT
BRANCH   1   4
ATOM      4  C   LIG d   1       7.233  -2.787  -4.992  0.00  0.00    -0.051 C 
ATOM      5  H   LIG d   1       8.048  -3.463  -4.733  0.00  0.00     0.027 H 
ATOM      6  H   LIG d   1       6.442  -3.348  -5.492  0.00  0.00     0.027 H 
BRANCH   4   7
ATOM      7  C   LIG d   1       6.676  -2.147  -3.719  0.00  0.00    -0.044 C 
ATOM      8  H   LIG d   1       7.113  -2.634  -2.847  0.00  0.00     0.030 H 
BRANCH   7   9
ATOM      9  C   LIG d   1       5.155  -2.314  -3.687  0.00  0.00    -0.051 C 
ATOM     10  H   LIG d   1       4.718  -1.811  -4.549  0.00  0.00     0.027 H 
ATOM     11  H   LIG d   1       4.905  -3.374  -3.719  0.00  0.00     0.027 H 
BRANCH   9  12
ATOM     12  C   LIG d   1       4.602  -1.697  -2.401  0.00  0.00    -0.053 C 
ATOM     13  H   LIG d   1       4.516  -2.469  -1.636  0.00  0.00     0.026 H 
ATOM     14  H   LIG d   1       5.276  -0.914  -2.054  0.00  0.00     0.026 H 
BRANCH  12  15
ATOM     15  C   LIG d   1       3.221  -1.096  -2.677  0.00  0.00    -0.051 C 
ATOM     16  H   LIG d   1       2.943  -1.287  -3.712  0.00  0.00     0.027 H 
ATOM     17  H   LIG d   1       2.487  -1.554  -2.013  0.00  0.00     0.027 H 
BRANCH  15  18
ATOM     18  C   LIG d   1       3.263   0.412  -2.427  0.00  0.00    -0.047 C 
ATOM     19  H   LIG d   1       2.383   0.712  -1.860  0.00  0.00     0.029 H 
BRANCH  18  20
ATOM     20  C   LIG d   1       4.524   0.763  -1.635  0.00  0.00    -0.063 C 
ATOM     21  H   LIG d   1       4.464   1.798  -1.295  0.00  0.00     0.023 H 
ATOM     22  H   LIG d   1       4.606   0.102  -0.772  0.00  0.00     0.023 H 
ATOM     23  H   LIG d   1       5.400   0.640  -2.272  0.00  0.00     0.023 H 
ENDBRANCH  18  20
BRANCH  18  24
ATOM     24  C   LIG d   1       3.282   1.150  -3.768  0.00  0.00    -0.063 C 
ATOM     25  H   LIG d   1       4.272   1.575  -3.935  0.00  0.00     0.023 H 
ATOM     26  H   LIG d   1       3.048   0.450  -4.570  0.00  0.00     0.023 H 
ATOM     27  H   LIG d   1       2.541   1.949  -3.754  0.00  0.00     0.023 H 
ENDBRANCH  18  24
ENDBRANCH  15  18
ENDBRANCH  12  15
ENDBRANCH   9  12
ENDBRANCH   7   9
BRANCH   7  28
ATOM     28  C   LIG d   1       7.027  -0.658  -3.701  0.00  0.00    -0.062 C 
ATOM     29  H   LIG d   1       8.111  -0.540  -3.711  0.00  0.00     0.023 H 
ATOM     30  H   LIG d   1       6.600  -0.174  -4.580  0.00  0.00     0.023 H 
ATOM     31  H   LIG d   1       6.619  -0.200  -2.800  0.00  0.00     0.023 H 
ENDBRANCH   7  28
ENDBRANCH   4   7
ENDBRANCH   1   4
BRANCH   1  32
ATOM     32  C   LIG d   1       7.382  -2.039  -7.370  0.00  0.00    -0.051 C 
ATOM     33  H   LIG d   1       8.282  -2.044  -7.986  0.00  0.00     0.027 H 
ATOM     34  H   LIG d   1       6.915  -3.024  -7.401  0.00  0.00     0.027 H 
BRANCH  32  35
ATOM     35  C   LIG d   1       6.402  -0.994  -7.908  0.00  0.00    -0.044 C 
ATOM     36  H   LIG d   1       6.536  -0.889  -8.984  0.00  0.00     0.030 H 
BRANCH  35  37
ATOM     37  C   LIG d   1       6.664   0.351  -7.228  0.00  0.00    -0.062 C 
ATOM     38  H   LIG d   1       6.047   1.120  -7.691  0.00  0.00     0.023 H 
ATOM     39  H   LIG d   1       6.417   0.276  -6.168  0.00  0.00     0.023 H 
ATOM     40  H   LIG d   1       7.717   0.614  -7.337  0.00  0.00     0.023 H 
ENDBRANCH  35  37
BRANCH  35  41
ATOM     41  C   LIG d   1       4.968  -1.442  -7.615  0.00  0.00    -0.051 C 
ATOM     42  H   LIG d   1       4.420  -1.541  -8.551  0.00  0.00     0.027 H 
ATOM     43  H   LIG d   1       4.985  -2.401  -7.100  0.00  0.00     0.027 H 
BRANCH  41  44
ATOM     44  C   LIG d   1       4.280  -0.400  -6.730  0.00  0.00    -0.053 C 
ATOM     45  H   LIG d   1       4.190  -0.788  -5.716  0.00  0.00     0.026 H 
ATOM     46  H   LIG d   1       4.871   0.515  -6.719  0.00  0.00     0.026 H 
BRANCH  44  47
ATOM     47  C   LIG d   1       2.886  -0.100  -7.287  0.00  0.00    -0.050 C 
ATOM     48  H   LIG d   1       2.224  -0.940  -7.081  0.00  0.00     0.027 H 
ATOM     49  H   LIG d   1       2.492   0.799  -6.813  0.00  0.00     0.027 H 
BRANCH  47  50
ATOM     50  C   LIG d   1       2.977   0.120  -8.798  0.00  0.00    -0.039 C 
ATOM     51  H   LIG d   1       3.878  -0.361  -9.182  0.00  0.00     0.030 H 
BRANCH  50  52
ATOM     52  C   LIG d   1       1.747  -0.487  -9.476  0.00  0.00    -0.062 C 
ATOM     53  H   LIG d   1       1.577  -1.492  -9.088  0.00  0.00     0.023 H 
ATOM     54  H   LIG d   1       0.876   0.134  -9.271  0.00  0.00     0.023 H 
ATOM     55  H   LIG d   1       1.913  -0.538 -10.552  0.00  0.00     0.023 H 
ENDBRANCH  50  52
BRANCH  50  56
ATOM     56  C   LIG d   1       3.035   1.619  -9.094  0.00  0.00    -0.011 C 
ATOM     57  H   LIG d   1       2.255   1.879  -9.810  0.00  0.00     0.033 H 
ATOM     58  H   LIG d   1       2.881   2.178  -8.171  0.00  0.00     0.033 H 
BRANCH  56  59
ATOM     59  C   LIG d   1       4.383   1.967  -9.672  0.00  0.00     0.042 C 
ATOM     60  O   LIG d   1       4.970   2.949  -9.286  0.00  0.00    -0.550 OA
ATOM     61  O   LIG d   1       4.930   1.183 -10.614  0.00  0.00    -0.550 OA
ENDBRANCH  56  59
ENDBRANCH  50  56
ENDBRANCH  47  50
ENDBRANCH  44  47
ENDBRANCH  41  44
ENDBRANCH  35  41
ENDBRANCH  32  35
ENDBRANCH   1  32
TORSDOF 19
ENDMDL
MODEL 8
REMARK VINA RESULT:      -5.1      1.775      3.559
REMARK  19 active torsions:
REMARK  status: ('A' for Active; 'I' for Inactive)
REMARK    1  A    between atoms: C_1  and  C_2 
REMARK    2  A    between atoms: C_2  and  C_3 
REMARK    3  A    between atoms: C_2  and  C_4 
REMARK    4  A    between atoms: C_4  and  C_5 
REMARK    5  A    between atoms: C_5  and  C_6 
REMARK    6  A    between atoms: C_6  and  C_7 
REMARK    7  A    between atoms: C_7  and  C_9 
REMARK    8  A    between atoms: C_7  and  C_10 
REMARK    9  A    between atoms: C_10  and  C_11 
REMARK   10  A    between atoms: C_11  and  C_12 
REMARK   11  A    between atoms: C_12  and  C_13 
REMARK   12  A    between atoms: C_13  and  C_15 
REMARK   13  A    between atoms: C_13  and  C_16 
REMARK   14  A    between atoms: C_16  and  C_17 
REMARK   15  A    between atoms: C_17  and  C_18 
REMARK   16  A    between atoms: C_18  and  C_19 
REMARK   17  A    between atoms: C_19  and  C_21 
REMARK   18  A    between atoms: C_19  and  C_22 
REMARK   19  A    between atoms: C_22  and  C_23 
ROOT
ATOM      1  C   LIG d   1       4.296  -1.756  -2.294  0.00  0.00    -0.053 C 
ATOM      2  H   LIG d   1       5.129  -1.053  -2.291  0.00  0.00     0.026 H 
ATOM      3  H   LIG d   1       4.212  -2.224  -1.313  0.00  0.00     0.026 H 
ENDROOT
BRANCH   1   4
ATOM      4  C   LIG d   1       3.000  -1.011  -2.616  0.00  0.00    -0.051 C 
ATOM      5  H   LIG d   1       2.212  -1.343  -1.940  0.00  0.00     0.027 H 
ATOM      6  H   LIG d   1       2.706  -1.219  -3.646  0.00  0.00     0.027 H 
BRANCH   4   7
ATOM      7  C   LIG d   1       3.220   0.493  -2.444  0.00  0.00    -0.044 C 
ATOM      8  H   LIG d   1       2.360   0.931  -1.937  0.00  0.00     0.030 H 
BRANCH   7   9
ATOM      9  C   LIG d   1       3.386   1.146  -3.818  0.00  0.00    -0.051 C 
ATOM     10  H   LIG d   1       2.771   2.045  -3.869  0.00  0.00     0.027 H 
ATOM     11  H   LIG d   1       4.432   1.412  -3.970  0.00  0.00     0.027 H 
BRANCH   9  12
ATOM     12  C   LIG d   1       2.946   0.164  -4.906  0.00  0.00    -0.053 C 
ATOM     13  H   LIG d   1       3.791  -0.463  -5.192  0.00  0.00     0.026 H 
ATOM     14  H   LIG d   1       2.140  -0.463  -4.525  0.00  0.00     0.026 H 
BRANCH  12  15
ATOM     15  C   LIG d   1       2.452   0.944  -6.127  0.00  0.00    -0.051 C 
ATOM     16  H   LIG d   1       1.365   1.002  -6.104  0.00  0.00     0.027 H 
ATOM     17  H   LIG d   1       2.871   1.950  -6.109  0.00  0.00     0.027 H 
BRANCH  15  18
ATOM     18  C   LIG d   1       2.899   0.227  -7.403  0.00  0.00    -0.047 C 
ATOM     19  H   LIG d   1       2.196  -0.571  -7.637  0.00  0.00     0.029 H 
BRANCH  18  20
ATOM     20  C   LIG d   1       2.940   1.227  -8.560  0.00  0.00    -0.063 C 
ATOM     21  H   LIG d   1       1.925   1.420  -8.910  0.00  0.00     0.023 H 
ATOM     22  H   LIG d   1       3.391   2.159  -8.220  0.00  0.00     0.023 H 
ATOM     23  H   LIG d   1       3.533   0.814  -9.377  0.00  0.00     0.023 H 
ENDBRANCH  18  20
BRANCH  18  24
ATOM     24  C   LIG d   1       4.293  -0.366  -7.192  0.00  0.00    -0.063 C 
ATOM     25  H   LIG d   1       4.333  -0.866  -6.224  0.00  0.00     0.023 H 
ATOM     26  H   LIG d   1       4.504  -1.088  -7.981  0.00  0.00     0.023 H 
ATOM     27  H   LIG d   1       5.036   0.431  -7.220  0.00  0.00     0.023 H 
ENDBRANCH  18  24
ENDBRANCH  15  18
ENDBRANCH  12  15
ENDBRANCH   9  12
ENDBRANCH   7   9
BRANCH   7  28
ATOM     28  C   LIG d   1       4.480   0.733  -1.610  0.00  0.00    -0.062 C 
ATOM     29  H   LIG d   1       4.272   1.478  -0.842  0.00  0.00     0.023 H 
ATOM     30  H   LIG d   1       4.784  -0.201  -1.137  0.00  0.00     0.023 H 
ATOM     31  H   LIG d   1       5.281   1.090  -2.257  0.00  0.00     0.023 H 
ENDBRANCH   7  28
ENDBRANCH   4   7
ENDBRANCH   1   4
BRANCH   1  32
ATOM     32  C   LIG d   1       4.541  -2.833  -3.353  0.00  0.00    -0.051 C 
ATOM     33  H   LIG d   1       4.858  -3.756  -2.866  0.00  0.00     0.027 H 
ATOM     34  H   LIG d   1       3.620  -3.013  -3.909  0.00  0.00     0.027 H 
BRANCH  32  35
ATOM     35  C   LIG d   1       5.633  -2.363  -4.316  0.00  0.00    -0.044 C 
ATOM     36  H   LIG d   1       5.174  -1.877  -5.177  0.00  0.00     0.030 H 
BRANCH  35  37
ATOM     37  C   LIG d   1       6.453  -3.566  -4.785  0.00  0.00    -0.062 C 
ATOM     38  H   LIG d   1       6.049  -3.935  -5.728  0.00  0.00     0.023 H 
ATOM     39  H   LIG d   1       7.491  -3.264  -4.929  0.00  0.00     0.023 H 
ATOM     40  H   LIG d   1       6.404  -4.354  -4.034  0.00  0.00     0.023 H 
ENDBRANCH  35  37
BRANCH  35  41
ATOM     41  C   LIG d   1       6.551  -1.369  -3.600  0.00  0.00    -0.051 C 
ATOM     42  H   LIG d   1       6.066  -1.018  -2.689  0.00  0.00     0.027 H 
ATOM     43  H   LIG d   1       7.490  -1.859  -3.346  0.00  0.00     0.027 H 
BRANCH  41  44
ATOM     44  C   LIG d   1       6.828  -0.178  -4.520  0.00  0.00    -0.053 C 
ATOM     45  H   LIG d   1       7.657  -0.419  -5.185  0.00  0.00     0.026 H 
ATOM     46  H   LIG d   1       5.939   0.041  -5.110  0.00  0.00     0.026 H 
BRANCH  44  47
ATOM     47  C   LIG d   1       7.193   1.044  -3.674  0.00  0.00    -0.050 C 
ATOM     48  H   LIG d   1       6.284   1.574  -3.390  0.00  0.00     0.027 H 
ATOM     49  H   LIG d   1       7.721   0.721  -2.777  0.00  0.00     0.027 H 
BRANCH  47  50
ATOM     50  C   LIG d   1       8.092   1.977  -4.488  0.00  0.00    -0.039 C 
ATOM     51  H   LIG d   1       7.516   2.843  -4.817  0.00  0.00     0.030 H 
BRANCH  50  52
ATOM     52  C   LIG d   1       9.261   2.443  -3.618  0.00  0.00    -0.062 C 
ATOM     53  H   LIG d   1       9.000   3.384  -3.132  0.00  0.00     0.023 H 
ATOM     54  H   LIG d   1       9.474   1.689  -2.861  0.00  0.00     0.023 H 
ATOM     55  H   LIG d   1      10.142   2.591  -4.242  0.00  0.00     0.023 H 
ENDBRANCH  50  52
BRANCH  50  56
ATOM     56  C   LIG d   1       8.631   1.230  -5.709  0.00  0.00    -0.011 C 
ATOM     57  H   LIG d   1       9.716   1.159  -5.642  0.00  0.00     0.033 H 
ATOM     58  H   LIG d   1       8.203   0.228  -5.740  0.00  0.00     0.033 H 
BRANCH  56  59
ATOM     59  C   LIG d   1       8.253   1.976  -6.963  0.00  0.00     0.042 C 
ATOM     60  O   LIG d   1       7.215   1.722  -7.526  0.00  0.00    -0.550 OA
ATOM     61  O   LIG d   1       9.070   2.922  -7.452  0.00  0.00    -0.550 OA
ENDBRANCH  56  59
ENDBRANCH  50  56
ENDBRANCH  47  50
ENDBRANCH  44  47
ENDBRANCH  41  44
ENDBRANCH  35  41
ENDBRANCH  32  35
ENDBRANCH   1  32
TORSDOF 19
ENDMDL
MODEL 9
REMARK VINA RESULT:      -5.0      3.790      7.158
REMARK  19 active torsions:
REMARK  status: ('A' for Active; 'I' for Inactive)
REMARK    1  A    between atoms: C_1  and  C_2 
REMARK    2  A    between atoms: C_2  and  C_3 
REMARK    3  A    between atoms: C_2  and  C_4 
REMARK    4  A    between atoms: C_4  and  C_5 
REMARK    5  A    between atoms: C_5  and  C_6 
REMARK    6  A    between atoms: C_6  and  C_7 
REMARK    7  A    between atoms: C_7  and  C_9 
REMARK    8  A    between atoms: C_7  and  C_10 
REMARK    9  A    between atoms: C_10  and  C_11 
REMARK   10  A    between atoms: C_11  and  C_12 
REMARK   11  A    between atoms: C_12  and  C_13 
REMARK   12  A    between atoms: C_13  and  C_15 
REMARK   13  A    between atoms: C_13  and  C_16 
REMARK   14  A    between atoms: C_16  and  C_17 
REMARK   15  A    between atoms: C_17  and  C_18 
REMARK   16  A    between atoms: C_18  and  C_19 
REMARK   17  A    between atoms: C_19  and  C_21 
REMARK   18  A    between atoms: C_19  and  C_22 
REMARK   19  A    between atoms: C_22  and  C_23 
ROOT
ATOM      1  C   LIG d   1       3.457   0.007  -6.144  0.00  0.00    -0.053 C 
ATOM      2  H   LIG d   1       4.233   0.755  -6.314  0.00  0.00     0.026 H 
ATOM      3  H   LIG d   1       3.919  -0.974  -6.030  0.00  0.00     0.026 H 
ENDROOT
BRANCH   1   4
ATOM      4  C   LIG d   1       2.680   0.357  -4.874  0.00  0.00    -0.051 C 
ATOM      5  H   LIG d   1       1.783  -0.259  -4.816  0.00  0.00     0.027 H 
ATOM      6  H   LIG d   1       2.397   1.410  -4.899  0.00  0.00     0.027 H 
BRANCH   4   7
ATOM      7  C   LIG d   1       3.560   0.096  -3.650  0.00  0.00    -0.044 C 
ATOM      8  H   LIG d   1       4.578  -0.120  -3.974  0.00  0.00     0.030 H 
BRANCH   7   9
ATOM      9  C   LIG d   1       3.009  -1.101  -2.871  0.00  0.00    -0.051 C 
ATOM     10  H   LIG d   1       2.601  -0.758  -1.920  0.00  0.00     0.027 H 
ATOM     11  H   LIG d   1       2.221  -1.581  -3.452  0.00  0.00     0.027 H 
BRANCH   9  12
ATOM     12  C   LIG d   1       4.135  -2.103  -2.612  0.00  0.00    -0.053 C 
ATOM     13  H   LIG d   1       4.990  -1.585  -2.177  0.00  0.00     0.026 H 
ATOM     14  H   LIG d   1       3.786  -2.872  -1.923  0.00  0.00     0.026 H 
BRANCH  12  15
ATOM     15  C   LIG d   1       4.552  -2.755  -3.933  0.00  0.00    -0.051 C 
ATOM     16  H   LIG d   1       4.246  -3.800  -3.935  0.00  0.00     0.027 H 
ATOM     17  H   LIG d   1       4.073  -2.234  -4.762  0.00  0.00     0.027 H 
BRANCH  15  18
ATOM     18  C   LIG d   1       6.072  -2.667  -4.086  0.00  0.00    -0.047 C 
ATOM     19  H   LIG d   1       6.512  -3.648  -3.912  0.00  0.00     0.029 H 
BRANCH  18  20
ATOM     20  C   LIG d   1       6.415  -2.198  -5.501  0.00  0.00    -0.063 C 
ATOM     21  H   LIG d   1       5.754  -1.378  -5.783  0.00  0.00     0.023 H 
ATOM     22  H   LIG d   1       7.450  -1.857  -5.530  0.00  0.00     0.023 H 
ATOM     23  H   LIG d   1       6.286  -3.025  -6.200  0.00  0.00     0.023 H 
ENDBRANCH  18  20
BRANCH  18  24
ATOM     24  C   LIG d   1       6.630  -1.669  -3.069  0.00  0.00    -0.063 C 
ATOM     25  H   LIG d   1       5.817  -1.060  -2.675  0.00  0.00     0.023 H 
ATOM     26  H   LIG d   1       7.107  -2.211  -2.253  0.00  0.00     0.023 H 
ATOM     27  H   LIG d   1       7.363  -1.025  -3.556  0.00  0.00     0.023 H 
ENDBRANCH  18  24
ENDBRANCH  15  18
ENDBRANCH  12  15
ENDBRANCH   9  12
ENDBRANCH   7   9
BRANCH   7  28
ATOM     28  C   LIG d   1       3.562   1.333  -2.749  0.00  0.00    -0.062 C 
ATOM     29  H   LIG d   1       3.737   1.030  -1.717  0.00  0.00     0.023 H 
ATOM     30  H   LIG d   1       4.353   2.012  -3.068  0.00  0.00     0.023 H 
ATOM     31  H   LIG d   1       2.599   1.837  -2.823  0.00  0.00     0.023 H 
ENDBRANCH   7  28
ENDBRANCH   4   7
ENDBRANCH   1   4
BRANCH   1  32
ATOM     32  C   LIG d   1       2.500  -0.016  -7.337  0.00  0.00    -0.051 C 
ATOM     33  H   LIG d   1       2.133  -1.031  -7.490  0.00  0.00     0.027 H 
ATOM     34  H   LIG d   1       1.658   0.650  -7.141  0.00  0.00     0.027 H 
BRANCH  32  35
ATOM     35  C   LIG d   1       3.238   0.454  -8.592  0.00  0.00    -0.044 C 
ATOM     36  H   LIG d   1       4.312   0.332  -8.450  0.00  0.00     0.030 H 
BRANCH  35  37
ATOM     37  C   LIG d   1       2.922   1.929  -8.849  0.00  0.00    -0.062 C 
ATOM     38  H   LIG d   1       2.601   2.399  -7.919  0.00  0.00     0.023 H 
ATOM     39  H   LIG d   1       3.815   2.432  -9.220  0.00  0.00     0.023 H 
ATOM     40  H   LIG d   1       2.127   2.007  -9.590  0.00  0.00     0.023 H 
ENDBRANCH  35  37
BRANCH  35  41
ATOM     41  C   LIG d   1       2.785  -0.379  -9.793  0.00  0.00    -0.051 C 
ATOM     42  H   LIG d   1       1.837   0.007 -10.167  0.00  0.00     0.027 H 
ATOM     43  H   LIG d   1       3.536  -0.323 -10.580  0.00  0.00     0.027 H 
BRANCH  41  44
ATOM     44  C   LIG d   1       2.606  -1.837  -9.362  0.00  0.00    -0.053 C 
ATOM     45  H   LIG d   1       2.828  -1.931  -8.300  0.00  0.00     0.026 H 
ATOM     46  H   LIG d   1       1.578  -2.147  -9.548  0.00  0.00     0.026 H 
BRANCH  44  47
ATOM     47  C   LIG d   1       3.559  -2.726 -10.164  0.00  0.00    -0.050 C 
ATOM     48  H   LIG d   1       2.984  -3.456 -10.732  0.00  0.00     0.027 H 
ATOM     49  H   LIG d   1       4.141  -2.109 -10.849  0.00  0.00     0.027 H 
BRANCH  47  50
ATOM     50  C   LIG d   1       4.503  -3.454  -9.206  0.00  0.00    -0.039 C 
ATOM     51  H   LIG d   1       4.678  -4.468  -9.567  0.00  0.00     0.030 H 
BRANCH  50  52
ATOM     52  C   LIG d   1       5.834  -2.704  -9.133  0.00  0.00    -0.062 C 
ATOM     53  H   LIG d   1       6.100  -2.534  -8.089  0.00  0.00     0.023 H 
ATOM     54  H   LIG d   1       6.612  -3.296  -9.615  0.00  0.00     0.023 H 
ATOM     55  H   LIG d   1       5.739  -1.745  -9.643  0.00  0.00     0.023 H 
ENDBRANCH  50  52
BRANCH  50  56
ATOM     56  C   LIG d   1       3.873  -3.512  -7.813  0.00  0.00    -0.011 C 
ATOM     57  H   LIG d   1       4.571  -3.104  -7.082  0.00  0.00     0.033 H 
ATOM     58  H   LIG d   1       2.955  -2.925  -7.805  0.00  0.00     0.033 H 
BRANCH  56  59
ATOM     59  C   LIG d   1       3.558  -4.943  -7.462  0.00  0.00     0.042 C 
ATOM     60  O   LIG d   1       3.351  -5.748  -8.339  0.00  0.00    -0.550 OA
ATOM     61  O   LIG d   1       3.509  -5.323  -6.175  0.00  0.00    -0.550 OA
ENDBRANCH  56  59
ENDBRANCH  50  56
ENDBRANCH  47  50
ENDBRANCH  44  47
ENDBRANCH  41  44
ENDBRANCH  35  41
ENDBRANCH  32  35
ENDBRANCH   1  32
TORSDOF 19
ENDMDL
MODEL 10
REMARK VINA RESULT:      -5.0      3.832      7.293
REMARK  19 active torsions:
REMARK  status: ('A' for Active; 'I' for Inactive)
REMARK    1  A    between atoms: C_1  and  C_2 
REMARK    2  A    between atoms: C_2  and  C_3 
REMARK    3  A    between atoms: C_2  and  C_4 
REMARK    4  A    between atoms: C_4  and  C_5 
REMARK    5  A    between atoms: C_5  and  C_6 
REMARK    6  A    between atoms: C_6  and  C_7 
REMARK    7  A    between atoms: C_7  and  C_9 
REMARK    8  A    between atoms: C_7  and  C_10 
REMARK    9  A    between atoms: C_10  and  C_11 
REMARK   10  A    between atoms: C_11  and  C_12 
REMARK   11  A    between atoms: C_12  and  C_13 
REMARK   12  A    between atoms: C_13  and  C_15 
REMARK   13  A    between atoms: C_13  and  C_16 
REMARK   14  A    between atoms: C_16  and  C_17 
REMARK   15  A    between atoms: C_17  and  C_18 
REMARK   16  A    between atoms: C_18  and  C_19 
REMARK   17  A    between atoms: C_19  and  C_21 
REMARK   18  A    between atoms: C_19  and  C_22 
REMARK   19  A    between atoms: C_22  and  C_23 
ROOT
ATOM      1  C   LIG d   1       3.244  -0.443  -6.893  0.00  0.00    -0.053 C 
ATOM      2  H   LIG d   1       2.969  -1.466  -7.151  0.00  0.00     0.026 H 
ATOM      3  H   LIG d   1       2.342   0.166  -6.811  0.00  0.00     0.026 H 
ENDROOT
BRANCH   1   4
ATOM      4  C   LIG d   1       3.987  -0.435  -5.556  0.00  0.00    -0.051 C 
ATOM      5  H   LIG d   1       3.280  -0.242  -4.749  0.00  0.00     0.027 H 
ATOM      6  H   LIG d   1       4.747   0.347  -5.567  0.00  0.00     0.027 H 
BRANCH   4   7
ATOM      7  C   LIG d   1       4.655  -1.793  -5.336  0.00  0.00    -0.044 C 
ATOM      8  H   LIG d   1       4.312  -2.494  -6.098  0.00  0.00     0.030 H 
BRANCH   7   9
ATOM      9  C   LIG d   1       4.284  -2.326  -3.950  0.00  0.00    -0.051 C 
ATOM     10  H   LIG d   1       3.638  -3.197  -4.058  0.00  0.00     0.027 H 
ATOM     11  H   LIG d   1       5.190  -2.611  -3.416  0.00  0.00     0.027 H 
BRANCH   9  12
ATOM     12  C   LIG d   1       3.550  -1.239  -3.165  0.00  0.00    -0.053 C 
ATOM     13  H   LIG d   1       3.459  -0.344  -3.781  0.00  0.00     0.026 H 
ATOM     14  H   LIG d   1       2.556  -1.595  -2.892  0.00  0.00     0.026 H 
BRANCH  12  15
ATOM     15  C   LIG d   1       4.338  -0.905  -1.896  0.00  0.00    -0.051 C 
ATOM     16  H   LIG d   1       3.746  -1.173  -1.021  0.00  0.00     0.027 H 
ATOM     17  H   LIG d   1       5.271  -1.469  -1.889  0.00  0.00     0.027 H 
BRANCH  15  18
ATOM     18  C   LIG d   1       4.646   0.593  -1.866  0.00  0.00    -0.047 C 
ATOM     19  H   LIG d   1       4.864   0.899  -0.844  0.00  0.00     0.029 H 
BRANCH  18  20
ATOM     20  C   LIG d   1       5.858   0.881  -2.755  0.00  0.00    -0.063 C 
ATOM     21  H   LIG d   1       6.213  -0.051  -3.198  0.00  0.00     0.023 H 
ATOM     22  H   LIG d   1       5.572   1.574  -3.545  0.00  0.00     0.023 H 
ATOM     23  H   LIG d   1       6.654   1.322  -2.154  0.00  0.00     0.023 H 
ENDBRANCH  18  20
BRANCH  18  24
ATOM     24  C   LIG d   1       3.437   1.372  -2.386  0.00  0.00    -0.063 C 
ATOM     25  H   LIG d   1       2.749   1.566  -1.563  0.00  0.00     0.023 H 
ATOM     26  H   LIG d   1       3.770   2.319  -2.811  0.00  0.00     0.023 H 
ATOM     27  H   LIG d   1       2.929   0.787  -3.154  0.00  0.00     0.023 H 
ENDBRANCH  18  24
ENDBRANCH  15  18
ENDBRANCH  12  15
ENDBRANCH   9  12
ENDBRANCH   7   9
BRANCH   7  28
ATOM     28  C   LIG d   1       6.174  -1.637  -5.433  0.00  0.00    -0.062 C 
ATOM     29  H   LIG d   1       6.546  -1.139  -4.537  0.00  0.00     0.023 H 
ATOM     30  H   LIG d   1       6.635  -2.621  -5.520  0.00  0.00     0.023 H 
ATOM     31  H   LIG d   1       6.422  -1.040  -6.311  0.00  0.00     0.023 H 
ENDBRANCH   7  28
ENDBRANCH   4   7
ENDBRANCH   1   4
BRANCH   1  32
ATOM     32  C   LIG d   1       4.150   0.133  -7.983  0.00  0.00    -0.051 C 
ATOM     33  H   LIG d   1       4.717   0.972  -7.580  0.00  0.00     0.027 H 
ATOM     34  H   LIG d   1       4.839  -0.639  -8.327  0.00  0.00     0.027 H 
BRANCH  32  35
ATOM     35  C   LIG d   1       3.294   0.612  -9.157  0.00  0.00    -0.044 C 
ATOM     36  H   LIG d   1       3.902   0.643 -10.061  0.00  0.00     0.030 H 
BRANCH  35  37
ATOM     37  C   LIG d   1       2.752   2.010  -8.858  0.00  0.00    -0.062 C 
ATOM     38  H   LIG d   1       3.495   2.575  -8.294  0.00  0.00     0.023 H 
ATOM     39  H   LIG d   1       2.538   2.525  -9.795  0.00  0.00     0.023 H 
ATOM     40  H   LIG d   1       1.836   1.927  -8.272  0.00  0.00     0.023 H 
ENDBRANCH  35  37
BRANCH  35  41
ATOM     41  C   LIG d   1       2.125  -0.354  -9.364  0.00  0.00    -0.051 C 
ATOM     42  H   LIG d   1       1.849  -0.800  -8.408  0.00  0.00     0.027 H 
ATOM     43  H   LIG d   1       1.273   0.188  -9.771  0.00  0.00     0.027 H 
BRANCH  41  44
ATOM     44  C   LIG d   1       2.542  -1.458 -10.338  0.00  0.00    -0.053 C 
ATOM     45  H   LIG d   1       1.950  -1.378 -11.250  0.00  0.00     0.026 H 
ATOM     46  H   LIG d   1       3.599  -1.350 -10.579  0.00  0.00     0.026 H 
BRANCH  44  47
ATOM     47  C   LIG d   1       2.302  -2.824  -9.693  0.00  0.00    -0.050 C 
ATOM     48  H   LIG d   1       1.897  -2.687  -8.691  0.00  0.00     0.027 H 
ATOM     49  H   LIG d   1       1.594  -3.392 -10.297  0.00  0.00     0.027 H 
BRANCH  47  50
ATOM     50  C   LIG d   1       3.626  -3.587  -9.608  0.00  0.00    -0.039 C 
ATOM     51  H   LIG d   1       3.507  -4.573 -10.058  0.00  0.00     0.030 H 
BRANCH  50  52
ATOM     52  C   LIG d   1       4.710  -2.811 -10.358  0.00  0.00    -0.062 C 
ATOM     53  H   LIG d   1       4.360  -2.577 -11.363  0.00  0.00     0.023 H 
ATOM     54  H   LIG d   1       4.930  -1.886  -9.825  0.00  0.00     0.023 H 
ATOM     55  H   LIG d   1       5.614  -3.418 -10.421  0.00  0.00     0.023 H 
ENDBRANCH  50  52
BRANCH  50  56
ATOM     56  C   LIG d   1       4.031  -3.742  -8.141  0.00  0.00    -0.011 C 
ATOM     57  H   LIG d   1       5.117  -3.697  -8.057  0.00  0.00     0.033 H 
ATOM     58  H   LIG d   1       3.588  -2.937  -7.554  0.00  0.00     0.033 H 
BRANCH  56  59
ATOM     59  C   LIG d   1       3.543  -5.070  -7.622  0.00  0.00     0.042 C 
ATOM     60  O   LIG d   1       3.283  -5.961  -8.394  0.00  0.00    -0.550 OA
ATOM     61  O   LIG d   1       3.396  -5.261  -6.301  0.00  0.00    -0.550 OA
ENDBRANCH  56  59
ENDBRANCH  50  56
ENDBRANCH  47  50
ENDBRANCH  44  47
ENDBRANCH  41  44
ENDBRANCH  35  41
ENDBRANCH  32  35
ENDBRANCH   1  32
TORSDOF 19
ENDMDL
