MODEL 1
REMARK VINA RESULT:      -6.3      0.000      0.000
REMARK  5 active torsions:
REMARK  status: ('A' for Active; 'I' for Inactive)
REMARK    1  A    between atoms: C_1  and  C_2 
REMARK    2  A    between atoms: C_2  and  C_3 
REMARK    3  A    between atoms: N_23  and  C_26 
REMARK    4  A    between atoms: C_29  and  O_32 
REMARK    5  A    between atoms: O_32  and  C_33 
ROOT
ATOM      1  C   LIG d   1       6.543  -0.285  -7.342  0.00  0.00     0.033 C 
ATOM      2  C   LIG d   1       5.242   0.300  -7.869  0.00  0.00    -0.032 A 
ATOM      3  C   LIG d   1       5.144   1.166  -8.920  0.00  0.00    -0.057 A 
ATOM      4  C   LIG d   1       3.888   1.623  -9.297  0.00  0.00    -0.061 A 
ATOM      5  C   LIG d   1       2.758   1.207  -8.617  0.00  0.00    -0.061 A 
ATOM      6  C   LIG d   1       2.865   0.325  -7.548  0.00  0.00    -0.058 A 
ATOM      7  C   LIG d   1       4.103  -0.120  -7.183  0.00  0.00    -0.035 A 
ATOM      8  C   LIG d   1       4.378  -1.082  -6.039  0.00  0.00     0.022 C 
ATOM      9  C   LIG d   1       5.413  -0.385  -5.170  0.00  0.00    -0.035 A 
ATOM     10  C   LIG d   1       6.552   0.034  -5.856  0.00  0.00    -0.032 A 
ATOM     11  C   LIG d   1       7.565   0.674  -5.200  0.00  0.00    -0.057 A 
ATOM     12  C   LIG d   1       7.441   0.903  -3.837  0.00  0.00    -0.061 A 
ATOM     13  C   LIG d   1       6.311   0.487  -3.157  0.00  0.00    -0.061 A 
ATOM     14  C   LIG d   1       5.285  -0.163  -3.829  0.00  0.00    -0.058 A 
ATOM     15  C   LIG d   1       5.116  -2.280  -6.676  0.00  0.00     0.059 A 
ATOM     16  H   LIG d   1       4.448  -2.847  -7.323  0.00  0.00     0.041 H 
ATOM     17  C   LIG d   1       6.397  -1.819  -7.433  0.00  0.00     0.062 A 
ATOM     18  H   LIG d   1       6.369  -2.146  -8.472  0.00  0.00     0.041 H 
ATOM     19  C   LIG d   1       7.544  -2.460  -6.682  0.00  0.00     0.231 A 
ATOM     20  O   LIG d   1       8.719  -2.337  -6.956  0.00  0.00    -0.275 OA
ATOM     21  N   LIG d   1       7.056  -3.184  -5.667  0.00  0.00    -0.210 N 
ATOM     22  C   LIG d   1       5.668  -3.152  -5.569  0.00  0.00     0.231 A 
ATOM     23  O   LIG d   1       5.007  -3.725  -4.730  0.00  0.00    -0.275 OA
ATOM     24  H   LIG d   1       6.029   1.490  -9.450  0.00  0.00     0.062 H 
ATOM     25  H   LIG d   1       3.793   2.309 -10.126  0.00  0.00     0.062 H 
ATOM     26  H   LIG d   1       1.787   1.569  -8.918  0.00  0.00     0.062 H 
ATOM     27  H   LIG d   1       1.984  -0.002  -7.016  0.00  0.00     0.062 H 
ATOM     28  H   LIG d   1       3.479  -1.361  -5.490  0.00  0.00     0.041 H 
ATOM     29  H   LIG d   1       8.446   0.998  -5.735  0.00  0.00     0.062 H 
ATOM     30  H   LIG d   1       8.233   1.409  -3.304  0.00  0.00     0.062 H 
ATOM     31  H   LIG d   1       6.226   0.671  -2.095  0.00  0.00     0.062 H 
ATOM     32  H   LIG d   1       4.401  -0.489  -3.300  0.00  0.00     0.062 H 
ENDROOT
BRANCH  21  33
ATOM     33  C   LIG d   1       7.875  -3.902  -4.783  0.00  0.00     0.044 A 
ATOM     34  C   LIG d   1       8.434  -3.266  -3.683  0.00  0.00    -0.036 A 
ATOM     35  C   LIG d   1       9.237  -3.975  -2.811  0.00  0.00    -0.018 A 
ATOM     36  H   LIG d   1       8.239  -2.219  -3.507  0.00  0.00     0.064 H 
ATOM     37  C   LIG d   1       9.494  -5.319  -3.040  0.00  0.00     0.120 A 
ATOM     38  H   LIG d   1       9.667  -3.482  -1.952  0.00  0.00     0.066 H 
ATOM     39  C   LIG d   1       8.939  -5.953  -4.142  0.00  0.00    -0.018 A 
ATOM     40  C   LIG d   1       8.132  -5.246  -5.012  0.00  0.00    -0.036 A 
ATOM     41  H   LIG d   1       9.139  -6.999  -4.320  0.00  0.00     0.066 H 
ATOM     42  H   LIG d   1       7.701  -5.741  -5.870  0.00  0.00     0.064 H 
BRANCH  37  43
ATOM     43  O   LIG d   1      10.288  -6.014  -2.183  0.00  0.00    -0.495 OA
BRANCH  43  44
ATOM     44  C   LIG d   1       9.916  -7.365  -1.904  0.00  0.00     0.079 C 
ATOM     45  H   LIG d   1      10.401  -7.694  -0.985  0.00  0.00     0.066 H 
ATOM     46  H   LIG d   1       8.835  -7.427  -1.786  0.00  0.00     0.066 H 
ATOM     47  H   LIG d   1      10.229  -8.006  -2.729  0.00  0.00     0.066 H 
ENDBRANCH  43  44
ENDBRANCH  37  43
ENDBRANCH  21  33
BRANCH   1  48
ATOM     48  C   LIG d   1       7.777   0.245  -8.076  0.00  0.00    -0.041 C 
ATOM     49  H   LIG d   1       8.675  -0.037  -7.526  0.00  0.00     0.027 H 
ATOM     50  H   LIG d   1       7.720   1.331  -8.147  0.00  0.00     0.027 H 
BRANCH  48  51
ATOM     51  C   LIG d   1       7.831  -0.357  -9.482  0.00  0.00    -0.064 C 
ATOM     52  H   LIG d   1       6.894  -0.873  -9.691  0.00  0.00     0.023 H 
ATOM     53  H   LIG d   1       7.977   0.440 -10.212  0.00  0.00     0.023 H 
ATOM     54  H   LIG d   1       8.658  -1.063  -9.543  0.00  0.00     0.023 H 
ENDBRANCH  48  51
ENDBRANCH   1  48
TORSDOF 5
ENDMDL
MODEL 2
REMARK VINA RESULT:      -6.2      2.649      5.675
REMARK  5 active torsions:
REMARK  status: ('A' for Active; 'I' for Inactive)
REMARK    1  A    between atoms: C_1  and  C_2 
REMARK    2  A    between atoms: C_2  and  C_3 
REMARK    3  A    between atoms: N_23  and  C_26 
REMARK    4  A    between atoms: C_29  and  O_32 
REMARK    5  A    between atoms: O_32  and  C_33 
ROOT
ATOM      1  C   LIG d   1       4.976  -1.966  -6.643  0.00  0.00     0.033 C 
ATOM      2  C   LIG d   1       4.824  -3.479  -6.640  0.00  0.00    -0.032 A 
ATOM      3  C   LIG d   1       3.918  -4.173  -7.390  0.00  0.00    -0.057 A 
ATOM      4  C   LIG d   1       3.887  -5.558  -7.290  0.00  0.00    -0.061 A 
ATOM      5  C   LIG d   1       4.761  -6.219  -6.447  0.00  0.00    -0.061 A 
ATOM      6  C   LIG d   1       5.681  -5.506  -5.687  0.00  0.00    -0.058 A 
ATOM      7  C   LIG d   1       5.704  -4.144  -5.790  0.00  0.00    -0.035 A 
ATOM      8  C   LIG d   1       6.649  -3.232  -5.025  0.00  0.00     0.022 C 
ATOM      9  C   LIG d   1       5.753  -2.218  -4.332  0.00  0.00    -0.035 A 
ATOM     10  C   LIG d   1       4.873  -1.551  -5.184  0.00  0.00    -0.032 A 
ATOM     11  C   LIG d   1       4.009  -0.612  -4.697  0.00  0.00    -0.057 A 
ATOM     12  C   LIG d   1       4.019  -0.331  -3.338  0.00  0.00    -0.061 A 
ATOM     13  C   LIG d   1       4.892  -0.993  -2.493  0.00  0.00    -0.061 A 
ATOM     14  C   LIG d   1       5.769  -1.946  -2.994  0.00  0.00    -0.058 A 
ATOM     15  C   LIG d   1       7.415  -2.435  -6.103  0.00  0.00     0.059 A 
ATOM     16  H   LIG d   1       8.091  -3.084  -6.658  0.00  0.00     0.041 H 
ATOM     17  C   LIG d   1       6.437  -1.677  -7.050  0.00  0.00     0.062 A 
ATOM     18  H   LIG d   1       6.613  -1.956  -8.088  0.00  0.00     0.041 H 
ATOM     19  C   LIG d   1       6.725  -0.210  -6.814  0.00  0.00     0.231 A 
ATOM     20  O   LIG d   1       6.161   0.713  -7.361  0.00  0.00    -0.275 OA
ATOM     21  N   LIG d   1       7.701  -0.095  -5.905  0.00  0.00    -0.210 N 
ATOM     22  C   LIG d   1       8.174  -1.313  -5.427  0.00  0.00     0.231 A 
ATOM     23  O   LIG d   1       9.048  -1.455  -4.599  0.00  0.00    -0.275 OA
ATOM     24  H   LIG d   1       3.236  -3.654  -8.049  0.00  0.00     0.062 H 
ATOM     25  H   LIG d   1       3.177  -6.122  -7.875  0.00  0.00     0.062 H 
ATOM     26  H   LIG d   1       4.728  -7.295  -6.376  0.00  0.00     0.062 H 
ATOM     27  H   LIG d   1       6.364  -6.020  -5.027  0.00  0.00     0.062 H 
ATOM     28  H   LIG d   1       7.297  -3.771  -4.333  0.00  0.00     0.041 H 
ATOM     29  H   LIG d   1       3.328  -0.097  -5.360  0.00  0.00     0.062 H 
ATOM     30  H   LIG d   1       3.342   0.408  -2.938  0.00  0.00     0.062 H 
ATOM     31  H   LIG d   1       4.892  -0.765  -1.437  0.00  0.00     0.062 H 
ATOM     32  H   LIG d   1       6.451  -2.464  -2.336  0.00  0.00     0.062 H 
ENDROOT
BRANCH  21  33
ATOM     33  C   LIG d   1       8.194   1.146  -5.474  0.00  0.00     0.044 A 
ATOM     34  C   LIG d   1       9.065   1.866  -6.280  0.00  0.00    -0.036 A 
ATOM     35  C   LIG d   1       9.546   3.089  -5.857  0.00  0.00    -0.018 A 
ATOM     36  H   LIG d   1       9.363   1.472  -7.240  0.00  0.00     0.064 H 
ATOM     37  C   LIG d   1       9.168   3.594  -4.620  0.00  0.00     0.120 A 
ATOM     38  H   LIG d   1      10.219   3.652  -6.486  0.00  0.00     0.066 H 
ATOM     39  C   LIG d   1       8.301   2.872  -3.812  0.00  0.00    -0.018 A 
ATOM     40  C   LIG d   1       7.816   1.651  -4.237  0.00  0.00    -0.036 A 
ATOM     41  H   LIG d   1       8.008   3.265  -2.851  0.00  0.00     0.066 H 
ATOM     42  H   LIG d   1       7.142   1.090  -3.607  0.00  0.00     0.064 H 
BRANCH  37  43
ATOM     43  O   LIG d   1       9.646   4.796  -4.202  0.00  0.00    -0.495 OA
BRANCH  43  44
ATOM     44  C   LIG d   1       9.918   4.937  -2.807  0.00  0.00     0.079 C 
ATOM     45  H   LIG d   1      10.990   4.842  -2.634  0.00  0.00     0.066 H 
ATOM     46  H   LIG d   1       9.581   5.916  -2.468  0.00  0.00     0.066 H 
ATOM     47  H   LIG d   1       9.391   4.159  -2.253  0.00  0.00     0.066 H 
ENDBRANCH  43  44
ENDBRANCH  37  43
ENDBRANCH  21  33
BRANCH   1  48
ATOM     48  C   LIG d   1       3.954  -1.263  -7.539  0.00  0.00    -0.041 C 
ATOM     49  H   LIG d   1       3.980  -0.190  -7.347  0.00  0.00     0.027 H 
ATOM     50  H   LIG d   1       2.956  -1.646  -7.323  0.00  0.00     0.027 H 
BRANCH  48  51
ATOM     51  C   LIG d   1       4.296  -1.528  -9.006  0.00  0.00    -0.064 C 
ATOM     52  H   LIG d   1       3.410  -1.896  -9.524  0.00  0.00     0.023 H 
ATOM     53  H   LIG d   1       4.631  -0.602  -9.474  0.00  0.00     0.023 H 
ATOM     54  H   LIG d   1       5.088  -2.273  -9.066  0.00  0.00     0.023 H 
ENDBRANCH  48  51
ENDBRANCH   1  48
TORSDOF 5
ENDMDL
MODEL 3
REMARK VINA RESULT:      -6.2      2.918      4.904
REMARK  5 active torsions:
REMARK  status: ('A' for Active; 'I' for Inactive)
REMARK    1  A    between atoms: C_1  and  C_2 
REMARK    2  A    between atoms: C_2  and  C_3 
REMARK    3  A    between atoms: N_23  and  C_26 
REMARK    4  A    between atoms: C_29  and  O_32 
REMARK    5  A    between atoms: O_32  and  C_33 
ROOT
ATOM      1  C   LIG d   1       4.220  -0.907  -7.973  0.00  0.00     0.033 C 
ATOM      2  C   LIG d   1       3.667  -2.211  -8.528  0.00  0.00    -0.032 A 
ATOM      3  C   LIG d   1       2.730  -2.302  -9.517  0.00  0.00    -0.057 A 
ATOM      4  C   LIG d   1       2.312  -3.561  -9.930  0.00  0.00    -0.061 A 
ATOM      5  C   LIG d   1       2.839  -4.699  -9.348  0.00  0.00    -0.061 A 
ATOM      6  C   LIG d   1       3.793  -4.598  -8.342  0.00  0.00    -0.058 A 
ATOM      7  C   LIG d   1       4.197  -3.357  -7.941  0.00  0.00    -0.035 A 
ATOM      8  C   LIG d   1       5.228  -3.088  -6.856  0.00  0.00     0.022 C 
ATOM      9  C   LIG d   1       4.545  -2.142  -5.881  0.00  0.00    -0.035 A 
ATOM     10  C   LIG d   1       4.015  -0.994  -6.469  0.00  0.00    -0.032 A 
ATOM     11  C   LIG d   1       3.374  -0.056  -5.713  0.00  0.00    -0.057 A 
ATOM     12  C   LIG d   1       3.256  -0.263  -4.345  0.00  0.00    -0.061 A 
ATOM     13  C   LIG d   1       3.782  -1.402  -3.762  0.00  0.00    -0.061 A 
ATOM     14  C   LIG d   1       4.433  -2.352  -4.537  0.00  0.00    -0.058 A 
ATOM     15  C   LIG d   1       6.333  -2.251  -7.536  0.00  0.00     0.059 A 
ATOM     16  H   LIG d   1       6.884  -2.851  -8.260  0.00  0.00     0.041 H 
ATOM     17  C   LIG d   1       5.748  -0.960  -8.184  0.00  0.00     0.062 A 
ATOM     18  H   LIG d   1       5.996  -0.915  -9.244  0.00  0.00     0.041 H 
ATOM     19  C   LIG d   1       6.382   0.181  -7.418  0.00  0.00     0.231 A 
ATOM     20  O   LIG d   1       6.177   1.360  -7.616  0.00  0.00    -0.275 OA
ATOM     21  N   LIG d   1       7.207  -0.318  -6.489  0.00  0.00    -0.210 N 
ATOM     22  C   LIG d   1       7.257  -1.708  -6.466  0.00  0.00     0.231 A 
ATOM     23  O   LIG d   1       7.926  -2.378  -5.710  0.00  0.00    -0.275 OA
ATOM     24  H   LIG d   1       2.319  -1.411  -9.971  0.00  0.00     0.062 H 
ATOM     25  H   LIG d   1       1.572  -3.651 -10.710  0.00  0.00     0.062 H 
ATOM     26  H   LIG d   1       2.507  -5.672  -9.675  0.00  0.00     0.062 H 
ATOM     27  H   LIG d   1       4.206  -5.486  -7.885  0.00  0.00     0.062 H 
ATOM     28  H   LIG d   1       5.595  -3.998  -6.381  0.00  0.00     0.041 H 
ATOM     29  H   LIG d   1       2.964   0.833  -6.171  0.00  0.00     0.062 H 
ATOM     30  H   LIG d   1       2.752   0.469  -3.732  0.00  0.00     0.062 H 
ATOM     31  H   LIG d   1       3.685  -1.552  -2.697  0.00  0.00     0.062 H 
ATOM     32  H   LIG d   1       4.845  -3.242  -4.084  0.00  0.00     0.062 H 
ENDROOT
BRANCH  21  33
ATOM     33  C   LIG d   1       7.946   0.494  -5.614  0.00  0.00     0.044 A 
ATOM     34  C   LIG d   1       7.379   0.927  -4.423  0.00  0.00    -0.036 A 
ATOM     35  C   LIG d   1       8.108   1.722  -3.561  0.00  0.00    -0.018 A 
ATOM     36  H   LIG d   1       6.370   0.640  -4.170  0.00  0.00     0.064 H 
ATOM     37  C   LIG d   1       9.403   2.097  -3.891  0.00  0.00     0.120 A 
ATOM     38  H   LIG d   1       7.669   2.055  -2.633  0.00  0.00     0.066 H 
ATOM     39  C   LIG d   1       9.968   1.668  -5.083  0.00  0.00    -0.018 A 
ATOM     40  C   LIG d   1       9.241   0.869  -5.943  0.00  0.00    -0.036 A 
ATOM     41  H   LIG d   1      10.975   1.960  -5.338  0.00  0.00     0.066 H 
ATOM     42  H   LIG d   1       9.681   0.535  -6.871  0.00  0.00     0.064 H 
BRANCH  37  43
ATOM     43  O   LIG d   1      10.119   2.884  -3.043  0.00  0.00    -0.495 OA
BRANCH  43  44
ATOM     44  C   LIG d   1       9.903   4.294  -3.129  0.00  0.00     0.079 C 
ATOM     45  H   LIG d   1       8.875   4.486  -3.436  0.00  0.00     0.066 H 
ATOM     46  H   LIG d   1      10.081   4.748  -2.155  0.00  0.00     0.066 H 
ATOM     47  H   LIG d   1      10.587   4.723  -3.861  0.00  0.00     0.066 H 
ENDBRANCH  43  44
ENDBRANCH  37  43
ENDBRANCH  21  33
BRANCH   1  48
ATOM     48  C   LIG d   1       3.571   0.331  -8.595  0.00  0.00    -0.041 C 
ATOM     49  H   LIG d   1       3.852   1.215  -8.022  0.00  0.00     0.027 H 
ATOM     50  H   LIG d   1       2.487   0.219  -8.583  0.00  0.00     0.027 H 
BRANCH  48  51
ATOM     51  C   LIG d   1       4.052   0.487 -10.040  0.00  0.00    -0.064 C 
ATOM     52  H   LIG d   1       3.955   1.529 -10.344  0.00  0.00     0.023 H 
ATOM     53  H   LIG d   1       5.097   0.184 -10.109  0.00  0.00     0.023 H 
ATOM     54  H   LIG d   1       3.447  -0.141 -10.693  0.00  0.00     0.023 H 
ENDBRANCH  48  51
ENDBRANCH   1  48
TORSDOF 5
ENDMDL
MODEL 4
REMARK VINA RESULT:      -6.1      2.504      6.503
REMARK  5 active torsions:
REMARK  status: ('A' for Active; 'I' for Inactive)
REMARK    1  A    between atoms: C_1  and  C_2 
REMARK    2  A    between atoms: C_2  and  C_3 
REMARK    3  A    between atoms: N_23  and  C_26 
REMARK    4  A    between atoms: C_29  and  O_32 
REMARK    5  A    between atoms: O_32  and  C_33 
ROOT
ATOM      1  C   LIG d   1       5.522  -2.465  -5.841  0.00  0.00     0.033 C 
ATOM      2  C   LIG d   1       4.704  -1.985  -4.653  0.00  0.00    -0.032 A 
ATOM      3  C   LIG d   1       4.549  -2.672  -3.483  0.00  0.00    -0.057 A 
ATOM      4  C   LIG d   1       3.771  -2.115  -2.476  0.00  0.00    -0.061 A 
ATOM      5  C   LIG d   1       3.166  -0.885  -2.659  0.00  0.00    -0.061 A 
ATOM      6  C   LIG d   1       3.328  -0.191  -3.852  0.00  0.00    -0.058 A 
ATOM      7  C   LIG d   1       4.094  -0.746  -4.837  0.00  0.00    -0.035 A 
ATOM      8  C   LIG d   1       4.362  -0.109  -6.191  0.00  0.00     0.022 C 
ATOM      9  C   LIG d   1       3.966  -1.162  -7.214  0.00  0.00    -0.035 A 
ATOM     10  C   LIG d   1       4.577  -2.402  -7.030  0.00  0.00    -0.032 A 
ATOM     11  C   LIG d   1       4.314  -3.442  -7.875  0.00  0.00    -0.057 A 
ATOM     12  C   LIG d   1       3.425  -3.245  -8.923  0.00  0.00    -0.061 A 
ATOM     13  C   LIG d   1       2.819  -2.016  -9.106  0.00  0.00    -0.061 A 
ATOM     14  C   LIG d   1       3.091  -0.962  -8.243  0.00  0.00    -0.058 A 
ATOM     15  C   LIG d   1       5.898   0.007  -6.295  0.00  0.00     0.059 A 
ATOM     16  H   LIG d   1       6.280   0.748  -5.592  0.00  0.00     0.041 H 
ATOM     17  C   LIG d   1       6.586  -1.377  -6.103  0.00  0.00     0.062 A 
ATOM     18  H   LIG d   1       7.310  -1.338  -5.289  0.00  0.00     0.041 H 
ATOM     19  C   LIG d   1       7.257  -1.666  -7.428  0.00  0.00     0.231 A 
ATOM     20  O   LIG d   1       7.897  -2.662  -7.689  0.00  0.00    -0.275 OA
ATOM     21  N   LIG d   1       7.033  -0.646  -8.266  0.00  0.00    -0.210 N 
ATOM     22  C   LIG d   1       6.261   0.374  -7.719  0.00  0.00     0.231 A 
ATOM     23  O   LIG d   1       5.926   1.390  -8.289  0.00  0.00    -0.275 OA
ATOM     24  H   LIG d   1       5.022  -3.634  -3.342  0.00  0.00     0.062 H 
ATOM     25  H   LIG d   1       3.637  -2.645  -1.545  0.00  0.00     0.062 H 
ATOM     26  H   LIG d   1       2.563  -0.461  -1.871  0.00  0.00     0.062 H 
ATOM     27  H   LIG d   1       2.857   0.770  -3.997  0.00  0.00     0.062 H 
ATOM     28  H   LIG d   1       3.839   0.837  -6.329  0.00  0.00     0.041 H 
ATOM     29  H   LIG d   1       4.789  -4.401  -7.729  0.00  0.00     0.062 H 
ATOM     30  H   LIG d   1       3.206  -4.057  -9.600  0.00  0.00     0.062 H 
ATOM     31  H   LIG d   1       2.130  -1.874  -9.925  0.00  0.00     0.062 H 
ATOM     32  H   LIG d   1       2.619  -0.001  -8.383  0.00  0.00     0.062 H 
ENDROOT
BRANCH  21  33
ATOM     33  C   LIG d   1       7.529  -0.617  -9.578  0.00  0.00     0.044 A 
ATOM     34  C   LIG d   1       6.771  -1.139 -10.618  0.00  0.00    -0.036 A 
ATOM     35  C   LIG d   1       7.258  -1.106 -11.910  0.00  0.00    -0.018 A 
ATOM     36  H   LIG d   1       5.800  -1.566 -10.418  0.00  0.00     0.064 H 
ATOM     37  C   LIG d   1       8.509  -0.563 -12.167  0.00  0.00     0.120 A 
ATOM     38  H   LIG d   1       6.666  -1.507 -12.720  0.00  0.00     0.066 H 
ATOM     39  C   LIG d   1       9.268  -0.047 -11.127  0.00  0.00    -0.018 A 
ATOM     40  C   LIG d   1       8.780  -0.074  -9.835  0.00  0.00    -0.036 A 
ATOM     41  H   LIG d   1      10.241   0.376 -11.328  0.00  0.00     0.066 H 
ATOM     42  H   LIG d   1       9.371   0.328  -9.027  0.00  0.00     0.064 H 
BRANCH  37  43
ATOM     43  O   LIG d   1       8.989  -0.536 -13.439  0.00  0.00    -0.495 OA
BRANCH  43  44
ATOM     44  C   LIG d   1       9.794   0.586 -13.805  0.00  0.00     0.079 C 
ATOM     45  H   LIG d   1       9.417   1.016 -14.733  0.00  0.00     0.066 H 
ATOM     46  H   LIG d   1       9.755   1.335 -13.015  0.00  0.00     0.066 H 
ATOM     47  H   LIG d   1      10.825   0.262 -13.948  0.00  0.00     0.066 H 
ENDBRANCH  43  44
ENDBRANCH  37  43
ENDBRANCH  21  33
BRANCH   1  48
ATOM     48  C   LIG d   1       6.126  -3.855  -5.629  0.00  0.00    -0.041 C 
ATOM     49  H   LIG d   1       6.487  -4.243  -6.582  0.00  0.00     0.027 H 
ATOM     50  H   LIG d   1       5.365  -4.526  -5.229  0.00  0.00     0.027 H 
BRANCH  48  51
ATOM     51  C   LIG d   1       7.291  -3.760  -4.642  0.00  0.00    -0.064 C 
ATOM     52  H   LIG d   1       7.644  -2.729  -4.597  0.00  0.00     0.023 H 
ATOM     53  H   LIG d   1       6.956  -4.072  -3.653  0.00  0.00     0.023 H 
ATOM     54  H   LIG d   1       8.102  -4.408  -4.973  0.00  0.00     0.023 H 
ENDBRANCH  48  51
ENDBRANCH   1  48
TORSDOF 5
ENDMDL
MODEL 5
REMARK VINA RESULT:      -5.9      2.661      5.514
REMARK  5 active torsions:
REMARK  status: ('A' for Active; 'I' for Inactive)
REMARK    1  A    between atoms: C_1  and  C_2 
REMARK    2  A    between atoms: C_2  and  C_3 
REMARK    3  A    between atoms: N_23  and  C_26 
REMARK    4  A    between atoms: C_29  and  O_32 
REMARK    5  A    between atoms: O_32  and  C_33 
ROOT
ATOM      1  C   LIG d   1       6.460  -0.551  -5.074  0.00  0.00     0.033 C 
ATOM      2  C   LIG d   1       5.472  -0.083  -4.018  0.00  0.00    -0.032 A 
ATOM      3  C   LIG d   1       5.793   0.683  -2.934  0.00  0.00    -0.057 A 
ATOM      4  C   LIG d   1       4.787   1.040  -2.045  0.00  0.00    -0.061 A 
ATOM      5  C   LIG d   1       3.486   0.626  -2.257  0.00  0.00    -0.061 A 
ATOM      6  C   LIG d   1       3.166  -0.153  -3.363  0.00  0.00    -0.058 A 
ATOM      7  C   LIG d   1       4.160  -0.500  -4.232  0.00  0.00    -0.035 A 
ATOM      8  C   LIG d   1       3.965  -1.345  -5.481  0.00  0.00     0.022 C 
ATOM      9  C   LIG d   1       4.973  -2.478  -5.359  0.00  0.00    -0.035 A 
ATOM     10  C   LIG d   1       6.285  -2.060  -5.145  0.00  0.00    -0.032 A 
ATOM     11  C   LIG d   1       7.295  -2.970  -5.016  0.00  0.00    -0.057 A 
ATOM     12  C   LIG d   1       6.992  -4.323  -5.100  0.00  0.00    -0.061 A 
ATOM     13  C   LIG d   1       5.690  -4.737  -5.312  0.00  0.00    -0.061 A 
ATOM     14  C   LIG d   1       4.668  -3.806  -5.442  0.00  0.00    -0.058 A 
ATOM     15  C   LIG d   1       4.469  -0.473  -6.651  0.00  0.00     0.059 A 
ATOM     16  H   LIG d   1       3.803   0.374  -6.818  0.00  0.00     0.041 H 
ATOM     17  C   LIG d   1       5.940  -0.014  -6.425  0.00  0.00     0.062 A 
ATOM     18  H   LIG d   1       6.014   1.073  -6.464  0.00  0.00     0.041 H 
ATOM     19  C   LIG d   1       6.727  -0.664  -7.541  0.00  0.00     0.231 A 
ATOM     20  O   LIG d   1       7.923  -0.558  -7.712  0.00  0.00    -0.275 OA
ATOM     21  N   LIG d   1       5.893  -1.375  -8.311  0.00  0.00    -0.210 N 
ATOM     22  C   LIG d   1       4.567  -1.336  -7.891  0.00  0.00     0.231 A 
ATOM     23  O   LIG d   1       3.641  -1.905  -8.426  0.00  0.00    -0.275 OA
ATOM     24  H   LIG d   1       6.812   1.005  -2.770  0.00  0.00     0.062 H 
ATOM     25  H   LIG d   1       5.024   1.645  -1.182  0.00  0.00     0.062 H 
ATOM     26  H   LIG d   1       2.712   0.909  -1.560  0.00  0.00     0.062 H 
ATOM     27  H   LIG d   1       2.149  -0.476  -3.531  0.00  0.00     0.062 H 
ATOM     28  H   LIG d   1       2.941  -1.697  -5.603  0.00  0.00     0.041 H 
ATOM     29  H   LIG d   1       8.311  -2.643  -4.851  0.00  0.00     0.062 H 
ATOM     30  H   LIG d   1       7.779  -5.056  -5.000  0.00  0.00     0.062 H 
ATOM     31  H   LIG d   1       5.467  -5.792  -5.376  0.00  0.00     0.062 H 
ATOM     32  H   LIG d   1       3.650  -4.127  -5.608  0.00  0.00     0.062 H 
ENDROOT
BRANCH  21  33
ATOM     33  C   LIG d   1       6.325  -2.097  -9.434  0.00  0.00     0.044 A 
ATOM     34  C   LIG d   1       6.347  -1.492 -10.683  0.00  0.00    -0.036 A 
ATOM     35  C   LIG d   1       6.777  -2.202 -11.786  0.00  0.00    -0.018 A 
ATOM     36  H   LIG d   1       6.032  -0.465 -10.790  0.00  0.00     0.064 H 
ATOM     37  C   LIG d   1       7.176  -3.524 -11.649  0.00  0.00     0.120 A 
ATOM     38  H   LIG d   1       6.799  -1.729 -12.757  0.00  0.00     0.066 H 
ATOM     39  C   LIG d   1       7.149  -4.131 -10.401  0.00  0.00    -0.018 A 
ATOM     40  C   LIG d   1       6.724  -3.419  -9.296  0.00  0.00    -0.036 A 
ATOM     41  H   LIG d   1       7.460  -5.159 -10.295  0.00  0.00     0.066 H 
ATOM     42  H   LIG d   1       6.704  -3.893  -8.326  0.00  0.00     0.064 H 
BRANCH  37  43
ATOM     43  O   LIG d   1       7.594  -4.224 -12.737  0.00  0.00    -0.495 OA
BRANCH  43  44
ATOM     44  C   LIG d   1       7.597  -5.649 -12.631  0.00  0.00     0.079 C 
ATOM     45  H   LIG d   1       8.606  -5.994 -12.406  0.00  0.00     0.066 H 
ATOM     46  H   LIG d   1       6.921  -5.955 -11.833  0.00  0.00     0.066 H 
ATOM     47  H   LIG d   1       7.266  -6.084 -13.574  0.00  0.00     0.066 H 
ENDBRANCH  43  44
ENDBRANCH  37  43
ENDBRANCH  21  33
BRANCH   1  48
ATOM     48  C   LIG d   1       7.901  -0.129  -4.776  0.00  0.00    -0.041 C 
ATOM     49  H   LIG d   1       8.580  -0.656  -5.446  0.00  0.00     0.027 H 
ATOM     50  H   LIG d   1       8.146  -0.376  -3.743  0.00  0.00     0.027 H 
BRANCH  48  51
ATOM     51  C   LIG d   1       8.043   1.380  -4.988  0.00  0.00    -0.064 C 
ATOM     52  H   LIG d   1       7.853   1.897  -4.047  0.00  0.00     0.023 H 
ATOM     53  H   LIG d   1       9.054   1.605  -5.328  0.00  0.00     0.023 H 
ATOM     54  H   LIG d   1       7.325   1.711  -5.737  0.00  0.00     0.023 H 
ENDBRANCH  48  51
ENDBRANCH   1  48
TORSDOF 5
ENDMDL
MODEL 6
REMARK VINA RESULT:      -5.9      9.055     12.332
REMARK  5 active torsions:
REMARK  status: ('A' for Active; 'I' for Inactive)
REMARK    1  A    between atoms: C_1  and  C_2 
REMARK    2  A    between atoms: C_2  and  C_3 
REMARK    3  A    between atoms: N_23  and  C_26 
REMARK    4  A    between atoms: C_29  and  O_32 
REMARK    5  A    between atoms: O_32  and  C_33 
ROOT
ATOM      1  C   LIG d   1      12.326   5.691  -3.071  0.00  0.00     0.033 C 
ATOM      2  C   LIG d   1      11.852   4.272  -3.343  0.00  0.00    -0.032 A 
ATOM      3  C   LIG d   1      12.666   3.228  -3.674  0.00  0.00    -0.057 A 
ATOM      4  C   LIG d   1      12.098   1.980  -3.896  0.00  0.00    -0.061 A 
ATOM      5  C   LIG d   1      10.732   1.802  -3.782  0.00  0.00    -0.061 A 
ATOM      6  C   LIG d   1       9.909   2.870  -3.444  0.00  0.00    -0.058 A 
ATOM      7  C   LIG d   1      10.475   4.094  -3.228  0.00  0.00    -0.035 A 
ATOM      8  C   LIG d   1       9.707   5.352  -2.854  0.00  0.00     0.022 C 
ATOM      9  C   LIG d   1      10.122   6.394  -3.880  0.00  0.00    -0.035 A 
ATOM     10  C   LIG d   1      11.500   6.573  -3.994  0.00  0.00    -0.032 A 
ATOM     11  C   LIG d   1      12.015   7.478  -4.878  0.00  0.00    -0.057 A 
ATOM     12  C   LIG d   1      11.142   8.218  -5.664  0.00  0.00    -0.061 A 
ATOM     13  C   LIG d   1       9.776   8.040  -5.551  0.00  0.00    -0.061 A 
ATOM     14  C   LIG d   1       9.258   7.118  -4.651  0.00  0.00    -0.058 A 
ATOM     15  C   LIG d   1      10.318   5.825  -1.517  0.00  0.00     0.059 A 
ATOM     16  H   LIG d   1      10.072   5.134  -0.712  0.00  0.00     0.041 H 
ATOM     17  C   LIG d   1      11.856   6.040  -1.642  0.00  0.00     0.062 A 
ATOM     18  H   LIG d   1      12.389   5.442  -0.902  0.00  0.00     0.041 H 
ATOM     19  C   LIG d   1      12.062   7.521  -1.412  0.00  0.00     0.231 A 
ATOM     20  O   LIG d   1      13.131   8.093  -1.434  0.00  0.00    -0.275 OA
ATOM     21  N   LIG d   1      10.877   8.099  -1.178  0.00  0.00    -0.210 N 
ATOM     22  C   LIG d   1       9.803   7.216  -1.215  0.00  0.00     0.231 A 
ATOM     23  O   LIG d   1       8.640   7.511  -1.040  0.00  0.00    -0.275 OA
ATOM     24  H   LIG d   1      13.734   3.369  -3.763  0.00  0.00     0.062 H 
ATOM     25  H   LIG d   1      12.728   1.143  -4.159  0.00  0.00     0.062 H 
ATOM     26  H   LIG d   1      10.301   0.828  -3.958  0.00  0.00     0.062 H 
ATOM     27  H   LIG d   1       8.841   2.733  -3.354  0.00  0.00     0.062 H 
ATOM     28  H   LIG d   1       8.629   5.197  -2.815  0.00  0.00     0.041 H 
ATOM     29  H   LIG d   1      13.083   7.614  -4.963  0.00  0.00     0.062 H 
ATOM     30  H   LIG d   1      11.534   8.938  -6.368  0.00  0.00     0.062 H 
ATOM     31  H   LIG d   1       9.107   8.622  -6.168  0.00  0.00     0.062 H 
ATOM     32  H   LIG d   1       8.191   6.978  -4.561  0.00  0.00     0.062 H 
ENDROOT
BRANCH  21  33
ATOM     33  C   LIG d   1      10.738   9.472  -0.927  0.00  0.00     0.044 A 
ATOM     34  C   LIG d   1      10.755   9.944   0.378  0.00  0.00    -0.036 A 
ATOM     35  C   LIG d   1      10.622  11.296   0.625  0.00  0.00    -0.018 A 
ATOM     36  H   LIG d   1      10.875   9.255   1.200  0.00  0.00     0.064 H 
ATOM     37  C   LIG d   1      10.462  12.182  -0.432  0.00  0.00     0.120 A 
ATOM     38  H   LIG d   1      10.641  11.664   1.640  0.00  0.00     0.066 H 
ATOM     39  C   LIG d   1      10.440  11.710  -1.736  0.00  0.00    -0.018 A 
ATOM     40  C   LIG d   1      10.578  10.358  -1.983  0.00  0.00    -0.036 A 
ATOM     41  H   LIG d   1      10.316  12.399  -2.557  0.00  0.00     0.066 H 
ATOM     42  H   LIG d   1      10.561   9.991  -2.999  0.00  0.00     0.064 H 
BRANCH  37  43
ATOM     43  O   LIG d   1      10.326  13.513  -0.188  0.00  0.00    -0.495 OA
BRANCH  43  44
ATOM     44  C   LIG d   1       9.934  14.338  -1.286  0.00  0.00     0.079 C 
ATOM     45  H   LIG d   1      10.692  14.287  -2.067  0.00  0.00     0.066 H 
ATOM     46  H   LIG d   1       8.981  13.987  -1.682  0.00  0.00     0.066 H 
ATOM     47  H   LIG d   1       9.830  15.369  -0.947  0.00  0.00     0.066 H 
ENDBRANCH  43  44
ENDBRANCH  37  43
ENDBRANCH  21  33
BRANCH   1  48
ATOM     48  C   LIG d   1      13.833   5.867  -3.266  0.00  0.00    -0.041 C 
ATOM     49  H   LIG d   1      14.078   6.929  -3.267  0.00  0.00     0.027 H 
ATOM     50  H   LIG d   1      14.131   5.424  -4.217  0.00  0.00     0.027 H 
BRANCH  48  51
ATOM     51  C   LIG d   1      14.579   5.172  -2.125  0.00  0.00    -0.064 C 
ATOM     52  H   LIG d   1      15.621   5.491  -2.126  0.00  0.00     0.023 H 
ATOM     53  H   LIG d   1      14.118   5.441  -1.174  0.00  0.00     0.023 H 
ATOM     54  H   LIG d   1      14.528   4.093  -2.261  0.00  0.00     0.023 H 
ENDBRANCH  48  51
ENDBRANCH   1  48
TORSDOF 5
ENDMDL
MODEL 7
REMARK VINA RESULT:      -5.7      3.296      5.191
REMARK  5 active torsions:
REMARK  status: ('A' for Active; 'I' for Inactive)
REMARK    1  A    between atoms: C_1  and  C_2 
REMARK    2  A    between atoms: C_2  and  C_3 
REMARK    3  A    between atoms: N_23  and  C_26 
REMARK    4  A    between atoms: C_29  and  O_32 
REMARK    5  A    between atoms: O_32  and  C_33 
ROOT
ATOM      1  C   LIG d   1       4.265  -0.899 -11.109  0.00  0.00     0.033 C 
ATOM      2  C   LIG d   1       2.942  -1.538 -11.502  0.00  0.00    -0.032 A 
ATOM      3  C   LIG d   1       2.536  -1.763 -12.786  0.00  0.00    -0.057 A 
ATOM      4  C   LIG d   1       1.299  -2.358 -13.003  0.00  0.00    -0.061 A 
ATOM      5  C   LIG d   1       0.497  -2.714 -11.935  0.00  0.00    -0.061 A 
ATOM      6  C   LIG d   1       0.918  -2.483 -10.630  0.00  0.00    -0.058 A 
ATOM      7  C   LIG d   1       2.134  -1.898 -10.426  0.00  0.00    -0.035 A 
ATOM      8  C   LIG d   1       2.728  -1.582  -9.062  0.00  0.00     0.022 C 
ATOM      9  C   LIG d   1       3.085  -0.104  -9.114  0.00  0.00    -0.035 A 
ATOM     10  C   LIG d   1       3.894   0.254 -10.191  0.00  0.00    -0.032 A 
ATOM     11  C   LIG d   1       4.293   1.549 -10.362  0.00  0.00    -0.057 A 
ATOM     12  C   LIG d   1       3.878   2.505  -9.445  0.00  0.00    -0.061 A 
ATOM     13  C   LIG d   1       3.075   2.149  -8.377  0.00  0.00    -0.061 A 
ATOM     14  C   LIG d   1       2.673   0.831  -8.208  0.00  0.00    -0.058 A 
ATOM     15  C   LIG d   1       4.078  -2.329  -9.017  0.00  0.00     0.059 A 
ATOM     16  H   LIG d   1       3.923  -3.408  -8.977  0.00  0.00     0.041 H 
ATOM     17  C   LIG d   1       4.992  -1.922 -10.211  0.00  0.00     0.062 A 
ATOM     18  H   LIG d   1       5.289  -2.800 -10.784  0.00  0.00     0.041 H 
ATOM     19  C   LIG d   1       6.186  -1.246  -9.574  0.00  0.00     0.231 A 
ATOM     20  O   LIG d   1       7.129  -0.775 -10.173  0.00  0.00    -0.275 OA
ATOM     21  N   LIG d   1       6.036  -1.250  -8.243  0.00  0.00    -0.210 N 
ATOM     22  C   LIG d   1       4.857  -1.849  -7.811  0.00  0.00     0.231 A 
ATOM     23  O   LIG d   1       4.506  -1.963  -6.656  0.00  0.00    -0.275 OA
ATOM     24  H   LIG d   1       3.164  -1.483 -13.620  0.00  0.00     0.062 H 
ATOM     25  H   LIG d   1       0.962  -2.542 -14.012  0.00  0.00     0.062 H 
ATOM     26  H   LIG d   1      -0.462  -3.175 -12.114  0.00  0.00     0.062 H 
ATOM     27  H   LIG d   1       0.293  -2.761  -9.794  0.00  0.00     0.062 H 
ATOM     28  H   LIG d   1       2.059  -1.830  -8.238  0.00  0.00     0.041 H 
ATOM     29  H   LIG d   1       4.920   1.824 -11.198  0.00  0.00     0.062 H 
ATOM     30  H   LIG d   1       4.184   3.534  -9.567  0.00  0.00     0.062 H 
ATOM     31  H   LIG d   1       2.759   2.902  -7.670  0.00  0.00     0.062 H 
ATOM     32  H   LIG d   1       2.046   0.550  -7.375  0.00  0.00     0.062 H 
ENDROOT
BRANCH  21  33
ATOM     33  C   LIG d   1       6.983  -0.693  -7.370  0.00  0.00     0.044 A 
ATOM     34  C   LIG d   1       6.948   0.665  -7.082  0.00  0.00    -0.036 A 
ATOM     35  C   LIG d   1       7.877   1.211  -6.220  0.00  0.00    -0.018 A 
ATOM     36  H   LIG d   1       6.192   1.292  -7.530  0.00  0.00     0.064 H 
ATOM     37  C   LIG d   1       8.852   0.406  -5.649  0.00  0.00     0.120 A 
ATOM     38  H   LIG d   1       7.846   2.266  -5.991  0.00  0.00     0.066 H 
ATOM     39  C   LIG d   1       8.891  -0.950  -5.941  0.00  0.00    -0.018 A 
ATOM     40  C   LIG d   1       7.958  -1.498  -6.800  0.00  0.00    -0.036 A 
ATOM     41  H   LIG d   1       9.650  -1.576  -5.497  0.00  0.00     0.066 H 
ATOM     42  H   LIG d   1       7.989  -2.554  -7.026  0.00  0.00     0.064 H 
BRANCH  37  43
ATOM     43  O   LIG d   1       9.770   0.946  -4.804  0.00  0.00    -0.495 OA
BRANCH  43  44
ATOM     44  C   LIG d   1       9.903   2.369  -4.812  0.00  0.00     0.079 C 
ATOM     45  H   LIG d   1       8.920   2.826  -4.694  0.00  0.00     0.066 H 
ATOM     46  H   LIG d   1      10.549   2.679  -3.992  0.00  0.00     0.066 H 
ATOM     47  H   LIG d   1      10.340   2.687  -5.759  0.00  0.00     0.066 H 
ENDBRANCH  43  44
ENDBRANCH  37  43
ENDBRANCH  21  33
BRANCH   1  48
ATOM     48  C   LIG d   1       5.099  -0.460 -12.315  0.00  0.00    -0.041 C 
ATOM     49  H   LIG d   1       5.920   0.172 -11.977  0.00  0.00     0.027 H 
ATOM     50  H   LIG d   1       4.471   0.100 -13.008  0.00  0.00     0.027 H 
BRANCH  48  51
ATOM     51  C   LIG d   1       5.663  -1.695 -13.020  0.00  0.00    -0.064 C 
ATOM     52  H   LIG d   1       4.842  -2.288 -13.423  0.00  0.00     0.023 H 
ATOM     53  H   LIG d   1       6.318  -1.381 -13.834  0.00  0.00     0.023 H 
ATOM     54  H   LIG d   1       6.229  -2.293 -12.308  0.00  0.00     0.023 H 
ENDBRANCH  48  51
ENDBRANCH   1  48
TORSDOF 5
ENDMDL
MODEL 8
REMARK VINA RESULT:      -5.7      3.444      5.313
REMARK  5 active torsions:
REMARK  status: ('A' for Active; 'I' for Inactive)
REMARK    1  A    between atoms: C_1  and  C_2 
REMARK    2  A    between atoms: C_2  and  C_3 
REMARK    3  A    between atoms: N_23  and  C_26 
REMARK    4  A    between atoms: C_29  and  O_32 
REMARK    5  A    between atoms: O_32  and  C_33 
ROOT
ATOM      1  C   LIG d   1       6.303  -0.779 -10.857  0.00  0.00     0.033 C 
ATOM      2  C   LIG d   1       5.857  -0.809 -12.311  0.00  0.00    -0.032 A 
ATOM      3  C   LIG d   1       6.700  -0.835 -13.385  0.00  0.00    -0.057 A 
ATOM      4  C   LIG d   1       6.155  -0.861 -14.663  0.00  0.00    -0.061 A 
ATOM      5  C   LIG d   1       4.784  -0.861 -14.839  0.00  0.00    -0.061 A 
ATOM      6  C   LIG d   1       3.933  -0.835 -13.741  0.00  0.00    -0.058 A 
ATOM      7  C   LIG d   1       4.475  -0.809 -12.489  0.00  0.00    -0.035 A 
ATOM      8  C   LIG d   1       3.675  -0.778 -11.196  0.00  0.00     0.022 C 
ATOM      9  C   LIG d   1       4.209   0.418 -10.424  0.00  0.00    -0.035 A 
ATOM     10  C   LIG d   1       5.592   0.417 -10.245  0.00  0.00    -0.032 A 
ATOM     11  C   LIG d   1       6.208   1.431  -9.569  0.00  0.00    -0.057 A 
ATOM     12  C   LIG d   1       5.435   2.466  -9.062  0.00  0.00    -0.061 A 
ATOM     13  C   LIG d   1       4.063   2.467  -9.239  0.00  0.00    -0.061 A 
ATOM     14  C   LIG d   1       3.442   1.433  -9.928  0.00  0.00    -0.058 A 
ATOM     15  C   LIG d   1       4.132  -2.019 -10.399  0.00  0.00     0.059 A 
ATOM     16  H   LIG d   1       3.792  -2.936 -10.880  0.00  0.00     0.041 H 
ATOM     17  C   LIG d   1       5.675  -2.019 -10.185  0.00  0.00     0.062 A 
ATOM     18  H   LIG d   1       6.118  -2.936 -10.572  0.00  0.00     0.041 H 
ATOM     19  C   LIG d   1       5.860  -1.903  -8.687  0.00  0.00     0.231 A 
ATOM     20  O   LIG d   1       6.927  -1.862  -8.112  0.00  0.00    -0.275 OA
ATOM     21  N   LIG d   1       4.659  -1.855  -8.098  0.00  0.00    -0.210 N 
ATOM     22  C   LIG d   1       3.591  -1.914  -8.989  0.00  0.00     0.231 A 
ATOM     23  O   LIG d   1       2.418  -1.881  -8.687  0.00  0.00    -0.275 OA
ATOM     24  H   LIG d   1       7.771  -0.835 -13.244  0.00  0.00     0.062 H 
ATOM     25  H   LIG d   1       6.807  -0.881 -15.523  0.00  0.00     0.062 H 
ATOM     26  H   LIG d   1       4.372  -0.881 -15.837  0.00  0.00     0.062 H 
ATOM     27  H   LIG d   1       2.861  -0.836 -13.877  0.00  0.00     0.062 H 
ATOM     28  H   LIG d   1       2.599  -0.733 -11.362  0.00  0.00     0.041 H 
ATOM     29  H   LIG d   1       7.280   1.427  -9.432  0.00  0.00     0.062 H 
ATOM     30  H   LIG d   1       5.907   3.276  -8.525  0.00  0.00     0.062 H 
ATOM     31  H   LIG d   1       3.472   3.278  -8.840  0.00  0.00     0.062 H 
ATOM     32  H   LIG d   1       2.371   1.432 -10.068  0.00  0.00     0.062 H 
ENDROOT
BRANCH  21  33
ATOM     33  C   LIG d   1       4.498  -1.748  -6.708  0.00  0.00     0.044 A 
ATOM     34  C   LIG d   1       4.174  -0.524  -6.139  0.00  0.00    -0.036 A 
ATOM     35  C   LIG d   1       4.011  -0.420  -4.772  0.00  0.00    -0.018 A 
ATOM     36  H   LIG d   1       4.045   0.346  -6.766  0.00  0.00     0.064 H 
ATOM     37  C   LIG d   1       4.183  -1.536  -3.966  0.00  0.00     0.120 A 
ATOM     38  H   LIG d   1       3.754   0.531  -4.330  0.00  0.00     0.066 H 
ATOM     39  C   LIG d   1       4.512  -2.758  -4.534  0.00  0.00    -0.018 A 
ATOM     40  C   LIG d   1       4.670  -2.864  -5.902  0.00  0.00    -0.036 A 
ATOM     41  H   LIG d   1       4.646  -3.626  -3.906  0.00  0.00     0.066 H 
ATOM     42  H   LIG d   1       4.926  -3.816  -6.343  0.00  0.00     0.064 H 
BRANCH  37  43
ATOM     43  O   LIG d   1       4.028  -1.431  -2.619  0.00  0.00    -0.495 OA
BRANCH  43  44
ATOM     44  C   LIG d   1       4.293  -0.156  -2.032  0.00  0.00     0.079 C 
ATOM     45  H   LIG d   1       4.378  -0.264  -0.951  0.00  0.00     0.066 H 
ATOM     46  H   LIG d   1       5.226   0.241  -2.432  0.00  0.00     0.066 H 
ATOM     47  H   LIG d   1       3.477   0.528  -2.265  0.00  0.00     0.066 H 
ENDBRANCH  43  44
ENDBRANCH  37  43
ENDBRANCH  21  33
BRANCH   1  48
ATOM     48  C   LIG d   1       7.824  -0.717 -10.699  0.00  0.00    -0.041 C 
ATOM     49  H   LIG d   1       8.072  -0.485  -9.663  0.00  0.00     0.027 H 
ATOM     50  H   LIG d   1       8.226   0.059 -11.351  0.00  0.00     0.027 H 
BRANCH  48  51
ATOM     51  C   LIG d   1       8.431  -2.069 -11.079  0.00  0.00    -0.064 C 
ATOM     52  H   LIG d   1       9.268  -1.912 -11.760  0.00  0.00     0.023 H 
ATOM     53  H   LIG d   1       8.785  -2.574 -10.180  0.00  0.00     0.023 H 
ATOM     54  H   LIG d   1       7.675  -2.682 -11.567  0.00  0.00     0.023 H 
ENDBRANCH  48  51
ENDBRANCH   1  48
TORSDOF 5
ENDMDL
MODEL 9
REMARK VINA RESULT:      -5.6      7.589     11.297
REMARK  5 active torsions:
REMARK  status: ('A' for Active; 'I' for Inactive)
REMARK    1  A    between atoms: C_1  and  C_2 
REMARK    2  A    between atoms: C_2  and  C_3 
REMARK    3  A    between atoms: N_23  and  C_26 
REMARK    4  A    between atoms: C_29  and  O_32 
REMARK    5  A    between atoms: O_32  and  C_33 
ROOT
ATOM      1  C   LIG d   1       9.509  -9.104  -2.168  0.00  0.00     0.033 C 
ATOM      2  C   LIG d   1      10.296  -9.059  -0.868  0.00  0.00    -0.032 A 
ATOM      3  C   LIG d   1      11.217  -8.103  -0.547  0.00  0.00    -0.057 A 
ATOM      4  C   LIG d   1      11.865  -8.183   0.680  0.00  0.00    -0.061 A 
ATOM      5  C   LIG d   1      11.579  -9.213   1.557  0.00  0.00    -0.061 A 
ATOM      6  C   LIG d   1      10.640 -10.182   1.223  0.00  0.00    -0.058 A 
ATOM      7  C   LIG d   1      10.008 -10.097   0.016  0.00  0.00    -0.035 A 
ATOM      8  C   LIG d   1       8.962 -11.079  -0.488  0.00  0.00     0.022 C 
ATOM      9  C   LIG d   1       9.464 -11.534  -1.850  0.00  0.00    -0.035 A 
ATOM     10  C   LIG d   1       9.750 -10.495  -2.734  0.00  0.00    -0.032 A 
ATOM     11  C   LIG d   1      10.209 -10.757  -3.993  0.00  0.00    -0.057 A 
ATOM     12  C   LIG d   1      10.387 -12.079  -4.380  0.00  0.00    -0.061 A 
ATOM     13  C   LIG d   1      10.102 -13.109  -3.502  0.00  0.00    -0.061 A 
ATOM     14  C   LIG d   1       9.636 -12.836  -2.223  0.00  0.00    -0.058 A 
ATOM     15  C   LIG d   1       7.705 -10.230  -0.776  0.00  0.00     0.059 A 
ATOM     16  H   LIG d   1       7.269  -9.856   0.151  0.00  0.00     0.041 H 
ATOM     17  C   LIG d   1       8.017  -9.075  -1.773  0.00  0.00     0.062 A 
ATOM     18  H   LIG d   1       7.748  -8.111  -1.342  0.00  0.00     0.041 H 
ATOM     19  C   LIG d   1       7.185  -9.385  -2.999  0.00  0.00     0.231 A 
ATOM     20  O   LIG d   1       7.154  -8.721  -4.013  0.00  0.00    -0.275 OA
ATOM     21  N   LIG d   1       6.489 -10.508  -2.786  0.00  0.00    -0.210 N 
ATOM     22  C   LIG d   1       6.711 -11.081  -1.537  0.00  0.00     0.231 A 
ATOM     23  O   LIG d   1       6.197 -12.099  -1.126  0.00  0.00    -0.275 OA
ATOM     24  H   LIG d   1      11.439  -7.299  -1.234  0.00  0.00     0.062 H 
ATOM     25  H   LIG d   1      12.596  -7.436   0.949  0.00  0.00     0.062 H 
ATOM     26  H   LIG d   1      12.089  -9.266   2.507  0.00  0.00     0.062 H 
ATOM     27  H   LIG d   1      10.415 -10.987   1.907  0.00  0.00     0.062 H 
ATOM     28  H   LIG d   1       8.787 -11.906   0.200  0.00  0.00     0.041 H 
ATOM     29  H   LIG d   1      10.431  -9.950  -4.676  0.00  0.00     0.062 H 
ATOM     30  H   LIG d   1      10.749 -12.303  -5.372  0.00  0.00     0.062 H 
ATOM     31  H   LIG d   1      10.244 -14.134  -3.815  0.00  0.00     0.062 H 
ATOM     32  H   LIG d   1       9.413 -13.639  -1.536  0.00  0.00     0.062 H 
ENDROOT
BRANCH  21  33
ATOM     33  C   LIG d   1       5.620 -11.057  -3.742  0.00  0.00     0.044 A 
ATOM     34  C   LIG d   1       6.124 -11.852  -4.763  0.00  0.00    -0.036 A 
ATOM     35  C   LIG d   1       5.268 -12.395  -5.700  0.00  0.00    -0.018 A 
ATOM     36  H   LIG d   1       7.184 -12.048  -4.821  0.00  0.00     0.064 H 
ATOM     37  C   LIG d   1       3.906 -12.137  -5.629  0.00  0.00     0.120 A 
ATOM     38  H   LIG d   1       5.659 -13.017  -6.491  0.00  0.00     0.066 H 
ATOM     39  C   LIG d   1       3.403 -11.339  -4.611  0.00  0.00    -0.018 A 
ATOM     40  C   LIG d   1       4.258 -10.799  -3.670  0.00  0.00    -0.036 A 
ATOM     41  H   LIG d   1       2.344 -11.139  -4.556  0.00  0.00     0.066 H 
ATOM     42  H   LIG d   1       3.866 -10.178  -2.879  0.00  0.00     0.064 H 
BRANCH  37  43
ATOM     43  O   LIG d   1       3.065 -12.669  -6.555  0.00  0.00    -0.495 OA
BRANCH  43  44
ATOM     44  C   LIG d   1       3.309 -14.018  -6.956  0.00  0.00     0.079 C 
ATOM     45  H   LIG d   1       2.367 -14.566  -6.982  0.00  0.00     0.066 H 
ATOM     46  H   LIG d   1       3.762 -14.027  -7.947  0.00  0.00     0.066 H 
ATOM     47  H   LIG d   1       3.985 -14.492  -6.244  0.00  0.00     0.066 H 
ENDBRANCH  43  44
ENDBRANCH  37  43
ENDBRANCH  21  33
BRANCH   1  48
ATOM     48  C   LIG d   1       9.894  -7.987  -3.141  0.00  0.00    -0.041 C 
ATOM     49  H   LIG d   1       9.433  -8.176  -4.111  0.00  0.00     0.027 H 
ATOM     50  H   LIG d   1      10.978  -7.960  -3.253  0.00  0.00     0.027 H 
BRANCH  48  51
ATOM     51  C   LIG d   1       9.403  -6.645  -2.594  0.00  0.00    -0.064 C 
ATOM     52  H   LIG d   1       9.039  -6.030  -3.417  0.00  0.00     0.023 H 
ATOM     53  H   LIG d   1       8.594  -6.816  -1.884  0.00  0.00     0.023 H 
ATOM     54  H   LIG d   1      10.225  -6.135  -2.094  0.00  0.00     0.023 H 
ENDBRANCH  48  51
ENDBRANCH   1  48
TORSDOF 5
ENDMDL
MODEL 10
REMARK VINA RESULT:      -5.6      8.448     12.074
REMARK  5 active torsions:
REMARK  status: ('A' for Active; 'I' for Inactive)
REMARK    1  A    between atoms: C_1  and  C_2 
REMARK    2  A    between atoms: C_2  and  C_3 
REMARK    3  A    between atoms: N_23  and  C_26 
REMARK    4  A    between atoms: C_29  and  O_32 
REMARK    5  A    between atoms: O_32  and  C_33 
ROOT
ATOM      1  C   LIG d   1      10.994   4.497  -3.314  0.00  0.00     0.033 C 
ATOM      2  C   LIG d   1      12.150   3.523  -3.474  0.00  0.00    -0.032 A 
ATOM      3  C   LIG d   1      12.019   2.169  -3.589  0.00  0.00    -0.057 A 
ATOM      4  C   LIG d   1      13.164   1.395  -3.730  0.00  0.00    -0.061 A 
ATOM      5  C   LIG d   1      14.412   1.988  -3.754  0.00  0.00    -0.061 A 
ATOM      6  C   LIG d   1      14.538   3.368  -3.636  0.00  0.00    -0.058 A 
ATOM      7  C   LIG d   1      13.408   4.122  -3.497  0.00  0.00    -0.035 A 
ATOM      8  C   LIG d   1      13.386   5.635  -3.357  0.00  0.00     0.022 C 
ATOM      9  C   LIG d   1      12.584   5.909  -2.095  0.00  0.00    -0.035 A 
ATOM     10  C   LIG d   1      11.325   5.311  -2.073  0.00  0.00    -0.032 A 
ATOM     11  C   LIG d   1      10.495   5.472  -1.000  0.00  0.00    -0.057 A 
ATOM     12  C   LIG d   1      10.926   6.242   0.071  0.00  0.00    -0.061 A 
ATOM     13  C   LIG d   1      12.175   6.835   0.049  0.00  0.00    -0.061 A 
ATOM     14  C   LIG d   1      13.014   6.668  -1.045  0.00  0.00    -0.058 A 
ATOM     15  C   LIG d   1      12.508   6.144  -4.521  0.00  0.00     0.059 A 
ATOM     16  H   LIG d   1      13.005   5.990  -5.478  0.00  0.00     0.041 H 
ATOM     17  C   LIG d   1      11.095   5.489  -4.493  0.00  0.00     0.062 A 
ATOM     18  H   LIG d   1      10.884   4.989  -5.439  0.00  0.00     0.041 H 
ATOM     19  C   LIG d   1      10.139   6.635  -4.246  0.00  0.00     0.231 A 
ATOM     20  O   LIG d   1       8.934   6.537  -4.148  0.00  0.00    -0.275 OA
ATOM     21  N   LIG d   1      10.834   7.775  -4.153  0.00  0.00    -0.210 N 
ATOM     22  C   LIG d   1      12.209   7.611  -4.296  0.00  0.00     0.231 A 
ATOM     23  O   LIG d   1      13.035   8.496  -4.243  0.00  0.00    -0.275 OA
ATOM     24  H   LIG d   1      11.042   1.707  -3.571  0.00  0.00     0.062 H 
ATOM     25  H   LIG d   1      13.078   0.322  -3.822  0.00  0.00     0.062 H 
ATOM     26  H   LIG d   1      15.295   1.377  -3.863  0.00  0.00     0.062 H 
ATOM     27  H   LIG d   1      15.512   3.834  -3.654  0.00  0.00     0.062 H 
ATOM     28  H   LIG d   1      14.383   6.076  -3.333  0.00  0.00     0.041 H 
ATOM     29  H   LIG d   1       9.520   5.007  -0.986  0.00  0.00     0.062 H 
ATOM     30  H   LIG d   1      10.282   6.379   0.927  0.00  0.00     0.062 H 
ATOM     31  H   LIG d   1      12.500   7.433   0.888  0.00  0.00     0.062 H 
ATOM     32  H   LIG d   1      13.990   7.130  -1.064  0.00  0.00     0.062 H 
ENDROOT
BRANCH  21  33
ATOM     33  C   LIG d   1      10.227   9.019  -3.925  0.00  0.00     0.044 A 
ATOM     34  C   LIG d   1      10.056   9.481  -2.627  0.00  0.00    -0.036 A 
ATOM     35  C   LIG d   1       9.462  10.708  -2.404  0.00  0.00    -0.018 A 
ATOM     36  H   LIG d   1      10.391   8.884  -1.793  0.00  0.00     0.064 H 
ATOM     37  C   LIG d   1       9.025  11.473  -3.476  0.00  0.00     0.120 A 
ATOM     38  H   LIG d   1       9.334  11.070  -1.394  0.00  0.00     0.066 H 
ATOM     39  C   LIG d   1       9.191  11.009  -4.773  0.00  0.00    -0.018 A 
ATOM     40  C   LIG d   1       9.790   9.785  -4.997  0.00  0.00    -0.036 A 
ATOM     41  H   LIG d   1       8.851  11.605  -5.606  0.00  0.00     0.066 H 
ATOM     42  H   LIG d   1       9.918   9.424  -6.007  0.00  0.00     0.064 H 
BRANCH  37  43
ATOM     43  O   LIG d   1       8.436  12.678  -3.254  0.00  0.00    -0.495 OA
BRANCH  43  44
ATOM     44  C   LIG d   1       9.255  13.839  -3.405  0.00  0.00     0.079 C 
ATOM     45  H   LIG d   1       8.693  14.616  -3.923  0.00  0.00     0.066 H 
ATOM     46  H   LIG d   1       9.555  14.202  -2.423  0.00  0.00     0.066 H 
ATOM     47  H   LIG d   1      10.142  13.585  -3.986  0.00  0.00     0.066 H 
ENDBRANCH  43  44
ENDBRANCH  37  43
ENDBRANCH  21  33
BRANCH   1  48
ATOM     48  C   LIG d   1       9.633   3.803  -3.230  0.00  0.00    -0.041 C 
ATOM     49  H   LIG d   1       8.885   4.511  -2.873  0.00  0.00     0.027 H 
ATOM     50  H   LIG d   1       9.696   2.962  -2.538  0.00  0.00     0.027 H 
BRANCH  48  51
ATOM     51  C   LIG d   1       9.234   3.294  -4.616  0.00  0.00    -0.064 C 
ATOM     52  H   LIG d   1       8.870   2.270  -4.536  0.00  0.00     0.023 H 
ATOM     53  H   LIG d   1       8.447   3.928  -5.023  0.00  0.00     0.023 H 
ATOM     54  H   LIG d   1      10.101   3.321  -5.276  0.00  0.00     0.023 H 
ENDBRANCH  48  51
ENDBRANCH   1  48
TORSDOF 5
ENDMDL
