MODEL 1
REMARK VINA RESULT:      -5.8      0.000      0.000
REMARK  9 active torsions:
REMARK  status: ('A' for Active; 'I' for Inactive)
REMARK    1  A    between atoms: C_1  and  C_2 
REMARK    2  A    between atoms: C_2  and  C_27 
REMARK    3  A    between atoms: C_6  and  O_25 
REMARK    4  A    between atoms: C_7  and  O_23 
REMARK    5  A    between atoms: C_11  and  C_14 
REMARK    6  A    between atoms: N_12  and  C_13 
REMARK    7  A    between atoms: C_14  and  C_16 
REMARK    8  A    between atoms: O_23  and  C_24 
REMARK    9  A    between atoms: O_25  and  C_26 
ROOT
ATOM      1  C   LIG d   1       5.012  -0.654 -10.057  0.00  0.00     0.033 C 
ATOM      2  C   LIG d   1       4.380  -2.044 -10.096  0.00  0.00    -0.006 C 
ATOM      3  C   LIG d   1       3.148  -2.027 -10.968  0.00  0.00    -0.035 A 
ATOM      4  C   LIG d   1       3.165  -2.628 -12.205  0.00  0.00    -0.013 A 
ATOM      5  C   LIG d   1       2.025  -2.629 -12.997  0.00  0.00     0.162 A 
ATOM      6  C   LIG d   1       0.856  -2.022 -12.541  0.00  0.00     0.162 A 
ATOM      7  C   LIG d   1       0.830  -1.409 -11.305  0.00  0.00    -0.009 A 
ATOM      8  C   LIG d   1       1.981  -1.397 -10.508  0.00  0.00    -0.016 A 
ATOM      9  C   LIG d   1       1.975  -0.702  -9.215  0.00  0.00    -0.029 C 
ATOM     10  C   LIG d   1       2.972   0.182  -8.941  0.00  0.00     0.078 C 
ATOM     11  N   LIG d   1       3.993   0.372  -9.878  0.00  0.00    -0.324 N 
ATOM     12  H   LIG d   1       5.099  -2.758 -10.500  0.00  0.00     0.033 H 
ATOM     13  H   LIG d   1       4.104  -2.344  -9.086  0.00  0.00     0.033 H 
ATOM     14  H   LIG d   1       4.069  -3.101 -12.563  0.00  0.00     0.066 H 
ATOM     15  H   LIG d   1      -0.076  -0.939 -10.952  0.00  0.00     0.066 H 
ATOM     16  H   LIG d   1       1.191  -0.888  -8.495  0.00  0.00     0.064 H 
ENDROOT
BRANCH  10  17
ATOM     17  C   LIG d   1       2.976   0.925  -7.677  0.00  0.00     0.207 C 
ATOM     18  O   LIG d   1       2.792   2.128  -7.678  0.00  0.00    -0.285 OA
BRANCH  17  19
ATOM     19  C   LIG d   1       3.202   0.213  -6.402  0.00  0.00     0.024 A 
ATOM     20  C   LIG d   1       4.142  -0.817  -6.330  0.00  0.00    -0.050 A 
ATOM     21  C   LIG d   1       4.353  -1.472  -5.135  0.00  0.00    -0.047 A 
ATOM     22  H   LIG d   1       4.706  -1.097  -7.207  0.00  0.00     0.062 H 
ATOM     23  C   LIG d   1       3.626  -1.119  -4.010  0.00  0.00     0.018 A 
ATOM     24  H   LIG d   1       5.083  -2.266  -5.078  0.00  0.00     0.063 H 
ATOM     25  C   LIG d   1       2.688  -0.102  -4.077  0.00  0.00    -0.047 A 
ATOM     26 BR   LIG d   1       3.915  -2.029  -2.379  0.00  0.00    -0.050 Br
ATOM     27  C   LIG d   1       2.472   0.565  -5.264  0.00  0.00    -0.050 A 
ATOM     28  H   LIG d   1       2.124   0.169  -3.196  0.00  0.00     0.063 H 
ATOM     29  H   LIG d   1       1.741   1.359  -5.314  0.00  0.00     0.062 H 
ENDBRANCH  17  19
ENDBRANCH  10  17
BRANCH  11  30
ATOM     30  C   LIG d   1       4.039   1.601 -10.675  0.00  0.00     0.001 C 
ATOM     31  H   LIG d   1       4.130   1.346 -11.730  0.00  0.00     0.043 H 
ATOM     32  H   LIG d   1       3.123   2.171 -10.518  0.00  0.00     0.043 H 
ATOM     33  H   LIG d   1       4.896   2.200 -10.370  0.00  0.00     0.043 H 
ENDBRANCH  11  30
BRANCH   1  34
ATOM     34  C   LIG d   1       5.755  -0.402 -11.372  0.00  0.00    -0.044 C 
ATOM     35  H   LIG d   1       6.772  -0.076 -11.158  0.00  0.00     0.025 H 
ATOM     36  H   LIG d   1       5.784  -1.323 -11.955  0.00  0.00     0.025 H 
ATOM     37  H   LIG d   1       5.237   0.372 -11.939  0.00  0.00     0.025 H 
ENDBRANCH   1  34
BRANCH   1  38
ATOM     38  C   LIG d   1       6.006  -0.586  -8.897  0.00  0.00    -0.044 C 
ATOM     39  H   LIG d   1       6.971  -0.235  -9.264  0.00  0.00     0.025 H 
ATOM     40  H   LIG d   1       5.633   0.103  -8.139  0.00  0.00     0.025 H 
ATOM     41  H   LIG d   1       6.123  -1.578  -8.460  0.00  0.00     0.025 H 
ENDBRANCH   1  38
BRANCH   6  42
ATOM     42  O   LIG d   1      -0.262  -2.033 -13.317  0.00  0.00    -0.491 OA
BRANCH  42  43
ATOM     43  C   LIG d   1      -1.229  -3.051 -13.047  0.00  0.00     0.079 C 
ATOM     44  H   LIG d   1      -1.853  -3.201 -13.927  0.00  0.00     0.066 H 
ATOM     45  H   LIG d   1      -0.717  -3.982 -12.802  0.00  0.00     0.066 H 
ATOM     46  H   LIG d   1      -1.852  -2.747 -12.207  0.00  0.00     0.066 H 
ENDBRANCH  42  43
ENDBRANCH   6  42
BRANCH   5  47
ATOM     47  O   LIG d   1       2.049  -3.222 -14.219  0.00  0.00    -0.491 OA
BRANCH  47  48
ATOM     48  C   LIG d   1       2.668  -2.495 -15.282  0.00  0.00     0.079 C 
ATOM     49  H   LIG d   1       3.455  -1.859 -14.876  0.00  0.00     0.066 H 
ATOM     50  H   LIG d   1       3.099  -3.194 -15.998  0.00  0.00     0.066 H 
ATOM     51  H   LIG d   1       1.923  -1.876 -15.781  0.00  0.00     0.066 H 
ENDBRANCH  47  48
ENDBRANCH   5  47
TORSDOF 9
ENDMDL
MODEL 2
REMARK VINA RESULT:      -5.6      5.702      8.891
REMARK  9 active torsions:
REMARK  status: ('A' for Active; 'I' for Inactive)
REMARK    1  A    between atoms: C_1  and  C_2 
REMARK    2  A    between atoms: C_2  and  C_27 
REMARK    3  A    between atoms: C_6  and  O_25 
REMARK    4  A    between atoms: C_7  and  O_23 
REMARK    5  A    between atoms: C_11  and  C_14 
REMARK    6  A    between atoms: N_12  and  C_13 
REMARK    7  A    between atoms: C_14  and  C_16 
REMARK    8  A    between atoms: O_23  and  C_24 
REMARK    9  A    between atoms: O_25  and  C_26 
ROOT
ATOM      1  C   LIG d   1       5.422  -4.358  -5.955  0.00  0.00     0.033 C 
ATOM      2  C   LIG d   1       4.929  -3.910  -4.581  0.00  0.00    -0.006 C 
ATOM      3  C   LIG d   1       5.328  -2.476  -4.332  0.00  0.00    -0.035 A 
ATOM      4  C   LIG d   1       4.382  -1.477  -4.362  0.00  0.00    -0.013 A 
ATOM      5  C   LIG d   1       4.747  -0.161  -4.113  0.00  0.00     0.162 A 
ATOM      6  C   LIG d   1       6.075   0.155  -3.830  0.00  0.00     0.162 A 
ATOM      7  C   LIG d   1       7.034  -0.838  -3.805  0.00  0.00    -0.009 A 
ATOM      8  C   LIG d   1       6.671  -2.165  -4.066  0.00  0.00    -0.016 A 
ATOM      9  C   LIG d   1       7.694  -3.217  -4.092  0.00  0.00    -0.029 C 
ATOM     10  C   LIG d   1       7.742  -4.058  -5.160  0.00  0.00     0.078 C 
ATOM     11  N   LIG d   1       6.794  -3.922  -6.180  0.00  0.00    -0.324 N 
ATOM     12  H   LIG d   1       3.843  -3.995  -4.540  0.00  0.00     0.033 H 
ATOM     13  H   LIG d   1       5.369  -4.546  -3.813  0.00  0.00     0.033 H 
ATOM     14  H   LIG d   1       3.351  -1.717  -4.581  0.00  0.00     0.066 H 
ATOM     15  H   LIG d   1       8.063  -0.593  -3.584  0.00  0.00     0.066 H 
ATOM     16  H   LIG d   1       8.397  -3.321  -3.278  0.00  0.00     0.064 H 
ENDROOT
BRANCH  10  17
ATOM     17  C   LIG d   1       8.776  -5.094  -5.240  0.00  0.00     0.207 C 
ATOM     18  O   LIG d   1       9.645  -5.023  -6.090  0.00  0.00    -0.285 OA
BRANCH  17  19
ATOM     19  C   LIG d   1       8.765  -6.225  -4.289  0.00  0.00     0.024 A 
ATOM     20  C   LIG d   1       8.090  -7.405  -4.608  0.00  0.00    -0.050 A 
ATOM     21  C   LIG d   1       8.089  -8.458  -3.719  0.00  0.00    -0.047 A 
ATOM     22  H   LIG d   1       7.573  -7.493  -5.553  0.00  0.00     0.062 H 
ATOM     23  C   LIG d   1       8.745  -8.344  -2.505  0.00  0.00     0.018 A 
ATOM     24  H   LIG d   1       7.570  -9.372  -3.968  0.00  0.00     0.063 H 
ATOM     25  C   LIG d   1       9.412  -7.175  -2.179  0.00  0.00    -0.047 A 
ATOM     26 BR   LIG d   1       8.732  -9.791  -1.288  0.00  0.00    -0.050 Br
ATOM     27  C   LIG d   1       9.426  -6.116  -3.063  0.00  0.00    -0.050 A 
ATOM     28  H   LIG d   1       9.923  -7.092  -1.232  0.00  0.00     0.063 H 
ATOM     29  H   LIG d   1       9.947  -5.205  -2.808  0.00  0.00     0.062 H 
ENDBRANCH  17  19
ENDBRANCH  10  17
BRANCH  11  30
ATOM     30  C   LIG d   1       7.181  -3.346  -7.471  0.00  0.00     0.001 C 
ATOM     31  H   LIG d   1       6.369  -2.727  -7.849  0.00  0.00     0.043 H 
ATOM     32  H   LIG d   1       8.075  -2.735  -7.343  0.00  0.00     0.043 H 
ATOM     33  H   LIG d   1       7.388  -4.148  -8.179  0.00  0.00     0.043 H 
ENDBRANCH  11  30
BRANCH   1  34
ATOM     34  C   LIG d   1       4.520  -3.756  -7.035  0.00  0.00    -0.044 C 
ATOM     35  H   LIG d   1       3.475  -3.891  -6.753  0.00  0.00     0.025 H 
ATOM     36  H   LIG d   1       4.734  -2.692  -7.135  0.00  0.00     0.025 H 
ATOM     37  H   LIG d   1       4.707  -4.256  -7.985  0.00  0.00     0.025 H 
ENDBRANCH   1  34
BRANCH   1  38
ATOM     38  C   LIG d   1       5.358  -5.885  -6.039  0.00  0.00    -0.044 C 
ATOM     39  H   LIG d   1       6.136  -6.317  -5.410  0.00  0.00     0.025 H 
ATOM     40  H   LIG d   1       4.381  -6.226  -5.696  0.00  0.00     0.025 H 
ATOM     41  H   LIG d   1       5.511  -6.198  -7.072  0.00  0.00     0.025 H 
ENDBRANCH   1  38
BRANCH   6  42
ATOM     42  O   LIG d   1       6.427   1.445  -3.577  0.00  0.00    -0.491 OA
BRANCH  42  43
ATOM     43  C   LIG d   1       7.772   1.822  -3.883  0.00  0.00     0.079 C 
ATOM     44  H   LIG d   1       8.419   0.948  -3.818  0.00  0.00     0.066 H 
ATOM     45  H   LIG d   1       7.814   2.231  -4.893  0.00  0.00     0.066 H 
ATOM     46  H   LIG d   1       8.108   2.576  -3.171  0.00  0.00     0.066 H 
ENDBRANCH  42  43
ENDBRANCH   6  42
BRANCH   5  47
ATOM     47  O   LIG d   1       3.809   0.821  -4.147  0.00  0.00    -0.491 OA
BRANCH  47  48
ATOM     48  C   LIG d   1       2.550   0.495  -4.738  0.00  0.00     0.079 C 
ATOM     49  H   LIG d   1       2.510   0.897  -5.751  0.00  0.00     0.066 H 
ATOM     50  H   LIG d   1       2.432  -0.587  -4.772  0.00  0.00     0.066 H 
ATOM     51  H   LIG d   1       1.746   0.929  -4.144  0.00  0.00     0.066 H 
ENDBRANCH  47  48
ENDBRANCH   5  47
TORSDOF 9
ENDMDL
MODEL 3
REMARK VINA RESULT:      -5.5      4.692      8.447
REMARK  9 active torsions:
REMARK  status: ('A' for Active; 'I' for Inactive)
REMARK    1  A    between atoms: C_1  and  C_2 
REMARK    2  A    between atoms: C_2  and  C_27 
REMARK    3  A    between atoms: C_6  and  O_25 
REMARK    4  A    between atoms: C_7  and  O_23 
REMARK    5  A    between atoms: C_11  and  C_14 
REMARK    6  A    between atoms: N_12  and  C_13 
REMARK    7  A    between atoms: C_14  and  C_16 
REMARK    8  A    between atoms: O_23  and  C_24 
REMARK    9  A    between atoms: O_25  and  C_26 
ROOT
ATOM      1  C   LIG d   1       4.941  -0.596  -3.082  0.00  0.00     0.033 C 
ATOM      2  C   LIG d   1       6.457  -0.548  -2.905  0.00  0.00    -0.006 C 
ATOM      3  C   LIG d   1       7.084   0.236  -4.031  0.00  0.00    -0.035 A 
ATOM      4  C   LIG d   1       7.593   1.493  -3.801  0.00  0.00    -0.013 A 
ATOM      5  C   LIG d   1       8.188   2.206  -4.834  0.00  0.00     0.162 A 
ATOM      6  C   LIG d   1       8.273   1.650  -6.110  0.00  0.00     0.162 A 
ATOM      7  C   LIG d   1       7.758   0.392  -6.353  0.00  0.00    -0.009 A 
ATOM      8  C   LIG d   1       7.149  -0.324  -5.317  0.00  0.00    -0.016 A 
ATOM      9  C   LIG d   1       6.553  -1.639  -5.582  0.00  0.00    -0.029 C 
ATOM     10  C   LIG d   1       5.279  -1.878  -5.167  0.00  0.00     0.078 C 
ATOM     11  N   LIG d   1       4.591  -0.882  -4.468  0.00  0.00    -0.324 N 
ATOM     12  H   LIG d   1       6.696  -0.071  -1.955  0.00  0.00     0.033 H 
ATOM     13  H   LIG d   1       6.853  -1.564  -2.907  0.00  0.00     0.033 H 
ATOM     14  H   LIG d   1       7.530   1.929  -2.814  0.00  0.00     0.066 H 
ATOM     15  H   LIG d   1       7.825  -0.039  -7.342  0.00  0.00     0.066 H 
ATOM     16  H   LIG d   1       7.116  -2.404  -6.098  0.00  0.00     0.064 H 
ENDROOT
BRANCH  10  17
ATOM     17  C   LIG d   1       4.638  -3.166  -5.451  0.00  0.00     0.207 C 
ATOM     18  O   LIG d   1       4.455  -3.966  -4.551  0.00  0.00    -0.285 OA
BRANCH  17  19
ATOM     19  C   LIG d   1       4.212  -3.493  -6.827  0.00  0.00     0.024 A 
ATOM     20  C   LIG d   1       4.108  -2.484  -7.788  0.00  0.00    -0.050 A 
ATOM     21  C   LIG d   1       3.717  -2.797  -9.072  0.00  0.00    -0.047 A 
ATOM     22  H   LIG d   1       4.338  -1.462  -7.526  0.00  0.00     0.062 H 
ATOM     23  C   LIG d   1       3.414  -4.107  -9.408  0.00  0.00     0.018 A 
ATOM     24  H   LIG d   1       3.640  -2.018  -9.816  0.00  0.00     0.063 H 
ATOM     25  C   LIG d   1       3.510  -5.110  -8.458  0.00  0.00    -0.047 A 
ATOM     26 BR   LIG d   1       2.870  -4.525 -11.169  0.00  0.00    -0.050 Br
ATOM     27  C   LIG d   1       3.907  -4.812  -7.172  0.00  0.00    -0.050 A 
ATOM     28  H   LIG d   1       3.274  -6.129  -8.726  0.00  0.00     0.063 H 
ATOM     29  H   LIG d   1       3.982  -5.595  -6.433  0.00  0.00     0.062 H 
ENDBRANCH  17  19
ENDBRANCH  10  17
BRANCH  11  30
ATOM     30  C   LIG d   1       3.519  -0.130  -5.126  0.00  0.00     0.001 C 
ATOM     31  H   LIG d   1       3.427  -0.459  -6.160  0.00  0.00     0.043 H 
ATOM     32  H   LIG d   1       2.578  -0.305  -4.604  0.00  0.00     0.043 H 
ATOM     33  H   LIG d   1       3.754   0.934  -5.103  0.00  0.00     0.043 H 
ENDBRANCH  11  30
BRANCH   1  34
ATOM     34  C   LIG d   1       4.344   0.756  -2.681  0.00  0.00    -0.044 C 
ATOM     35  H   LIG d   1       4.784   1.543  -3.294  0.00  0.00     0.025 H 
ATOM     36  H   LIG d   1       3.265   0.736  -2.836  0.00  0.00     0.025 H 
ATOM     37  H   LIG d   1       4.559   0.949  -1.630  0.00  0.00     0.025 H 
ENDBRANCH   1  34
BRANCH   1  38
ATOM     38  C   LIG d   1       4.363  -1.689  -2.181  0.00  0.00    -0.044 C 
ATOM     39  H   LIG d   1       3.801  -2.400  -2.786  0.00  0.00     0.025 H 
ATOM     40  H   LIG d   1       5.175  -2.206  -1.671  0.00  0.00     0.025 H 
ATOM     41  H   LIG d   1       3.700  -1.237  -1.442  0.00  0.00     0.025 H 
ENDBRANCH   1  38
BRANCH   6  42
ATOM     42  O   LIG d   1       8.864   2.348  -7.117  0.00  0.00    -0.491 OA
BRANCH  42  43
ATOM     43  C   LIG d   1       9.599   1.594  -8.085  0.00  0.00     0.079 C 
ATOM     44  H   LIG d   1      10.551   2.085  -8.282  0.00  0.00     0.066 H 
ATOM     45  H   LIG d   1       9.781   0.590  -7.701  0.00  0.00     0.066 H 
ATOM     46  H   LIG d   1       9.024   1.532  -9.009  0.00  0.00     0.066 H 
ENDBRANCH  42  43
ENDBRANCH   6  42
BRANCH   5  47
ATOM     47  O   LIG d   1       8.687   3.448  -4.601  0.00  0.00    -0.491 OA
BRANCH  47  48
ATOM     48  C   LIG d   1       9.552   3.600  -3.475  0.00  0.00     0.079 C 
ATOM     49  H   LIG d   1       8.977   3.964  -2.623  0.00  0.00     0.066 H 
ATOM     50  H   LIG d   1       9.998   2.637  -3.226  0.00  0.00     0.066 H 
ATOM     51  H   LIG d   1      10.339   4.314  -3.713  0.00  0.00     0.066 H 
ENDBRANCH  47  48
ENDBRANCH   5  47
TORSDOF 9
ENDMDL
MODEL 4
REMARK VINA RESULT:      -5.5      4.753      8.010
REMARK  9 active torsions:
REMARK  status: ('A' for Active; 'I' for Inactive)
REMARK    1  A    between atoms: C_1  and  C_2 
REMARK    2  A    between atoms: C_2  and  C_27 
REMARK    3  A    between atoms: C_6  and  O_25 
REMARK    4  A    between atoms: C_7  and  O_23 
REMARK    5  A    between atoms: C_11  and  C_14 
REMARK    6  A    between atoms: N_12  and  C_13 
REMARK    7  A    between atoms: C_14  and  C_16 
REMARK    8  A    between atoms: O_23  and  C_24 
REMARK    9  A    between atoms: O_25  and  C_26 
ROOT
ATOM      1  C   LIG d   1       6.868   0.002  -4.067  0.00  0.00     0.033 C 
ATOM      2  C   LIG d   1       6.725  -1.165  -3.092  0.00  0.00    -0.006 C 
ATOM      3  C   LIG d   1       7.131  -2.453  -3.764  0.00  0.00    -0.035 A 
ATOM      4  C   LIG d   1       8.315  -3.067  -3.430  0.00  0.00    -0.013 A 
ATOM      5  C   LIG d   1       8.678  -4.263  -4.035  0.00  0.00     0.162 A 
ATOM      6  C   LIG d   1       7.841  -4.848  -4.985  0.00  0.00     0.162 A 
ATOM      7  C   LIG d   1       6.654  -4.236  -5.333  0.00  0.00    -0.009 A 
ATOM      8  C   LIG d   1       6.291  -3.026  -4.733  0.00  0.00    -0.016 A 
ATOM      9  C   LIG d   1       5.055  -2.344  -5.138  0.00  0.00    -0.029 C 
ATOM     10  C   LIG d   1       5.112  -1.026  -5.469  0.00  0.00     0.078 C 
ATOM     11  N   LIG d   1       6.333  -0.350  -5.376  0.00  0.00    -0.324 N 
ATOM     12  H   LIG d   1       7.363  -0.993  -2.225  0.00  0.00     0.033 H 
ATOM     13  H   LIG d   1       5.687  -1.238  -2.766  0.00  0.00     0.033 H 
ATOM     14  H   LIG d   1       8.967  -2.618  -2.694  0.00  0.00     0.066 H 
ATOM     15  H   LIG d   1       6.006  -4.691  -6.069  0.00  0.00     0.066 H 
ATOM     16  H   LIG d   1       4.118  -2.881  -5.173  0.00  0.00     0.064 H 
ENDROOT
BRANCH  10  17
ATOM     17  C   LIG d   1       3.906  -0.323  -5.917  0.00  0.00     0.207 C 
ATOM     18  O   LIG d   1       3.297   0.395  -5.145  0.00  0.00    -0.285 OA
BRANCH  17  19
ATOM     19  C   LIG d   1       3.429  -0.485  -7.307  0.00  0.00     0.024 A 
ATOM     20  C   LIG d   1       3.588  -1.706  -7.966  0.00  0.00    -0.050 A 
ATOM     21  C   LIG d   1       3.135  -1.852  -9.259  0.00  0.00    -0.047 A 
ATOM     22  H   LIG d   1       4.062  -2.535  -7.461  0.00  0.00     0.062 H 
ATOM     23  C   LIG d   1       2.533  -0.787  -9.910  0.00  0.00     0.018 A 
ATOM     24  H   LIG d   1       3.254  -2.797  -9.768  0.00  0.00     0.063 H 
ATOM     25  C   LIG d   1       2.378   0.427  -9.264  0.00  0.00    -0.047 A 
ATOM     26 BR   LIG d   1       1.923  -0.995 -11.687  0.00  0.00    -0.050 Br
ATOM     27  C   LIG d   1       2.821   0.585  -7.968  0.00  0.00    -0.050 A 
ATOM     28  H   LIG d   1       1.907   1.254  -9.776  0.00  0.00     0.063 H 
ATOM     29  H   LIG d   1       2.697   1.533  -7.465  0.00  0.00     0.062 H 
ENDBRANCH  17  19
ENDBRANCH  10  17
BRANCH  11  30
ATOM     30  C   LIG d   1       7.070   0.005  -6.592  0.00  0.00     0.001 C 
ATOM     31  H   LIG d   1       6.852   1.039  -6.859  0.00  0.00     0.043 H 
ATOM     32  H   LIG d   1       8.139  -0.107  -6.415  0.00  0.00     0.043 H 
ATOM     33  H   LIG d   1       6.766  -0.652  -7.406  0.00  0.00     0.043 H 
ENDBRANCH  11  30
BRANCH   1  34
ATOM     34  C   LIG d   1       8.350   0.360  -4.209  0.00  0.00    -0.044 C 
ATOM     35  H   LIG d   1       8.775   0.547  -3.223  0.00  0.00     0.025 H 
ATOM     36  H   LIG d   1       8.879  -0.467  -4.682  0.00  0.00     0.025 H 
ATOM     37  H   LIG d   1       8.449   1.255  -4.824  0.00  0.00     0.025 H 
ENDBRANCH   1  34
BRANCH   1  38
ATOM     38  C   LIG d   1       6.108   1.212  -3.520  0.00  0.00    -0.044 C 
ATOM     39  H   LIG d   1       5.297   0.870  -2.876  0.00  0.00     0.025 H 
ATOM     40  H   LIG d   1       6.789   1.839  -2.946  0.00  0.00     0.025 H 
ATOM     41  H   LIG d   1       5.695   1.787  -4.350  0.00  0.00     0.025 H 
ENDBRANCH   1  38
BRANCH   6  42
ATOM     42  O   LIG d   1       8.196  -6.025  -5.569  0.00  0.00    -0.491 OA
BRANCH  42  43
ATOM     43  C   LIG d   1       7.333  -7.144  -5.350  0.00  0.00     0.079 C 
ATOM     44  H   LIG d   1       7.766  -7.793  -4.591  0.00  0.00     0.066 H 
ATOM     45  H   LIG d   1       6.358  -6.791  -5.014  0.00  0.00     0.066 H 
ATOM     46  H   LIG d   1       7.217  -7.700  -6.281  0.00  0.00     0.066 H 
ENDBRANCH  42  43
ENDBRANCH   6  42
BRANCH   5  47
ATOM     47  O   LIG d   1       9.850  -4.863  -3.702  0.00  0.00    -0.491 OA
BRANCH  47  48
ATOM     48  C   LIG d   1       9.944  -5.423  -2.391  0.00  0.00     0.079 C 
ATOM     49  H   LIG d   1       9.038  -5.189  -1.831  0.00  0.00     0.066 H 
ATOM     50  H   LIG d   1      10.055  -6.505  -2.465  0.00  0.00     0.066 H 
ATOM     51  H   LIG d   1      10.807  -5.003  -1.877  0.00  0.00     0.066 H 
ENDBRANCH  47  48
ENDBRANCH   5  47
TORSDOF 9
ENDMDL
MODEL 5
REMARK VINA RESULT:      -5.4     13.637     17.146
REMARK  9 active torsions:
REMARK  status: ('A' for Active; 'I' for Inactive)
REMARK    1  A    between atoms: C_1  and  C_2 
REMARK    2  A    between atoms: C_2  and  C_27 
REMARK    3  A    between atoms: C_6  and  O_25 
REMARK    4  A    between atoms: C_7  and  O_23 
REMARK    5  A    between atoms: C_11  and  C_14 
REMARK    6  A    between atoms: N_12  and  C_13 
REMARK    7  A    between atoms: C_14  and  C_16 
REMARK    8  A    between atoms: O_23  and  C_24 
REMARK    9  A    between atoms: O_25  and  C_26 
ROOT
ATOM      1  C   LIG d   1      11.018  12.710  -1.151  0.00  0.00     0.033 C 
ATOM      2  C   LIG d   1      10.327  12.268   0.138  0.00  0.00    -0.006 C 
ATOM      3  C   LIG d   1      10.741  10.860   0.489  0.00  0.00    -0.035 A 
ATOM      4  C   LIG d   1      11.593  10.629   1.543  0.00  0.00    -0.013 A 
ATOM      5  C   LIG d   1      11.957   9.332   1.877  0.00  0.00     0.162 A 
ATOM      6  C   LIG d   1      11.458   8.255   1.146  0.00  0.00     0.162 A 
ATOM      7  C   LIG d   1      10.608   8.476   0.081  0.00  0.00    -0.009 A 
ATOM      8  C   LIG d   1      10.248   9.783  -0.265  0.00  0.00    -0.016 A 
ATOM      9  C   LIG d   1       9.386  10.027  -1.428  0.00  0.00    -0.029 C 
ATOM     10  C   LIG d   1       9.779  10.943  -2.355  0.00  0.00     0.078 C 
ATOM     11  N   LIG d   1      10.967  11.652  -2.153  0.00  0.00    -0.324 N 
ATOM     12  H   LIG d   1      10.610  12.941   0.948  0.00  0.00     0.033 H 
ATOM     13  H   LIG d   1       9.247  12.304   0.000  0.00  0.00     0.033 H 
ATOM     14  H   LIG d   1      11.983  11.461   2.114  0.00  0.00     0.066 H 
ATOM     15  H   LIG d   1      10.221   7.641  -0.486  0.00  0.00     0.066 H 
ATOM     16  H   LIG d   1       8.457   9.487  -1.547  0.00  0.00     0.064 H 
ENDROOT
BRANCH  10  17
ATOM     17  C   LIG d   1       8.964  11.182  -3.550  0.00  0.00     0.207 C 
ATOM     18  O   LIG d   1       7.943  11.841  -3.468  0.00  0.00    -0.285 OA
BRANCH  17  19
ATOM     19  C   LIG d   1       9.382  10.626  -4.854  0.00  0.00     0.024 A 
ATOM     20  C   LIG d   1       9.424   9.243  -5.046  0.00  0.00    -0.050 A 
ATOM     21  C   LIG d   1       9.808   8.731  -6.266  0.00  0.00    -0.047 A 
ATOM     22  H   LIG d   1       9.152   8.577  -4.240  0.00  0.00     0.062 H 
ATOM     23  C   LIG d   1      10.164   9.584  -7.298  0.00  0.00     0.018 A 
ATOM     24  H   LIG d   1       9.837   7.662  -6.417  0.00  0.00     0.063 H 
ATOM     25  C   LIG d   1      10.130  10.956  -7.112  0.00  0.00    -0.047 A 
ATOM     26 BR   LIG d   1      10.698   8.872  -8.966  0.00  0.00    -0.050 Br
ATOM     27  C   LIG d   1       9.741  11.482  -5.898  0.00  0.00    -0.050 A 
ATOM     28  H   LIG d   1      10.407  11.616  -7.921  0.00  0.00     0.063 H 
ATOM     29  H   LIG d   1       9.713  12.551  -5.755  0.00  0.00     0.062 H 
ENDBRANCH  17  19
ENDBRANCH  10  17
BRANCH  11  30
ATOM     30  C   LIG d   1      12.156  11.335  -2.948  0.00  0.00     0.001 C 
ATOM     31  H   LIG d   1      12.001  11.659  -3.977  0.00  0.00     0.043 H 
ATOM     32  H   LIG d   1      13.021  11.851  -2.531  0.00  0.00     0.043 H 
ATOM     33  H   LIG d   1      12.330  10.260  -2.928  0.00  0.00     0.043 H 
ENDBRANCH  11  30
BRANCH   1  34
ATOM     34  C   LIG d   1      12.480  13.047  -0.849  0.00  0.00    -0.044 C 
ATOM     35  H   LIG d   1      12.529  13.974  -0.277  0.00  0.00     0.025 H 
ATOM     36  H   LIG d   1      12.926  12.239  -0.270  0.00  0.00     0.025 H 
ATOM     37  H   LIG d   1      13.025  13.168  -1.785  0.00  0.00     0.025 H 
ENDBRANCH   1  34
BRANCH   1  38
ATOM     38  C   LIG d   1      10.316  13.955  -1.697  0.00  0.00    -0.044 C 
ATOM     39  H   LIG d   1      10.394  14.764  -0.970  0.00  0.00     0.025 H 
ATOM     40  H   LIG d   1      10.788  14.259  -2.630  0.00  0.00     0.025 H 
ATOM     41  H   LIG d   1       9.264  13.729  -1.878  0.00  0.00     0.025 H 
ENDBRANCH   1  38
BRANCH   6  42
ATOM     42  O   LIG d   1      11.809   6.984   1.482  0.00  0.00    -0.491 OA
BRANCH  42  43
ATOM     43  C   LIG d   1      11.084   5.923   0.856  0.00  0.00     0.079 C 
ATOM     44  H   LIG d   1      10.174   5.722   1.420  0.00  0.00     0.066 H 
ATOM     45  H   LIG d   1      10.824   6.213  -0.163  0.00  0.00     0.066 H 
ATOM     46  H   LIG d   1      11.703   5.026   0.831  0.00  0.00     0.066 H 
ENDBRANCH  42  43
ENDBRANCH   6  42
BRANCH   5  47
ATOM     47  O   LIG d   1      12.801   9.111   2.919  0.00  0.00    -0.491 OA
BRANCH  47  48
ATOM     48  C   LIG d   1      12.588   9.882   4.102  0.00  0.00     0.079 C 
ATOM     49  H   LIG d   1      11.524   9.894   4.341  0.00  0.00     0.066 H 
ATOM     50  H   LIG d   1      13.140   9.437   4.931  0.00  0.00     0.066 H 
ATOM     51  H   LIG d   1      12.935  10.902   3.940  0.00  0.00     0.066 H 
ENDBRANCH  47  48
ENDBRANCH   5  47
TORSDOF 9
ENDMDL
MODEL 6
REMARK VINA RESULT:      -5.3     10.523     12.135
REMARK  9 active torsions:
REMARK  status: ('A' for Active; 'I' for Inactive)
REMARK    1  A    between atoms: C_1  and  C_2 
REMARK    2  A    between atoms: C_2  and  C_27 
REMARK    3  A    between atoms: C_6  and  O_25 
REMARK    4  A    between atoms: C_7  and  O_23 
REMARK    5  A    between atoms: C_11  and  C_14 
REMARK    6  A    between atoms: N_12  and  C_13 
REMARK    7  A    between atoms: C_14  and  C_16 
REMARK    8  A    between atoms: O_23  and  C_24 
REMARK    9  A    between atoms: O_25  and  C_26 
ROOT
ATOM      1  C   LIG d   1      11.098   4.445  -6.200  0.00  0.00     0.033 C 
ATOM      2  C   LIG d   1       9.864   4.806  -7.023  0.00  0.00    -0.006 C 
ATOM      3  C   LIG d   1       9.801   6.299  -7.234  0.00  0.00    -0.035 A 
ATOM      4  C   LIG d   1      10.075   6.838  -8.469  0.00  0.00    -0.013 A 
ATOM      5  C   LIG d   1       9.997   8.210  -8.666  0.00  0.00     0.162 A 
ATOM      6  C   LIG d   1       9.639   9.049  -7.612  0.00  0.00     0.162 A 
ATOM      7  C   LIG d   1       9.369   8.519  -6.366  0.00  0.00    -0.009 A 
ATOM      8  C   LIG d   1       9.457   7.137  -6.161  0.00  0.00    -0.016 A 
ATOM      9  C   LIG d   1       9.222   6.574  -4.827  0.00  0.00    -0.029 C 
ATOM     10  C   LIG d   1      10.139   5.712  -4.308  0.00  0.00     0.078 C 
ATOM     11  N   LIG d   1      11.254   5.358  -5.075  0.00  0.00    -0.324 N 
ATOM     12  H   LIG d   1       9.915   4.306  -7.991  0.00  0.00     0.033 H 
ATOM     13  H   LIG d   1       8.968   4.477  -6.496  0.00  0.00     0.033 H 
ATOM     14  H   LIG d   1      10.353   6.192  -9.290  0.00  0.00     0.066 H 
ATOM     15  H   LIG d   1       9.091   9.170  -5.549  0.00  0.00     0.066 H 
ATOM     16  H   LIG d   1       8.338   6.839  -4.265  0.00  0.00     0.064 H 
ENDROOT
BRANCH  10  17
ATOM     17  C   LIG d   1       9.958   5.162  -2.961  0.00  0.00     0.207 C 
ATOM     18  O   LIG d   1       9.484   4.050  -2.817  0.00  0.00    -0.285 OA
BRANCH  17  19
ATOM     19  C   LIG d   1      10.353   5.955  -1.779  0.00  0.00     0.024 A 
ATOM     20  C   LIG d   1      11.320   5.467  -0.897  0.00  0.00    -0.050 A 
ATOM     21  C   LIG d   1      11.688   6.216   0.201  0.00  0.00    -0.047 A 
ATOM     22  H   LIG d   1      11.780   4.507  -1.076  0.00  0.00     0.062 H 
ATOM     23  C   LIG d   1      11.093   7.444   0.437  0.00  0.00     0.018 A 
ATOM     24  H   LIG d   1      12.439   5.840   0.881  0.00  0.00     0.063 H 
ATOM     25  C   LIG d   1      10.130   7.931  -0.431  0.00  0.00    -0.047 A 
ATOM     26 BR   LIG d   1      11.599   8.460   1.949  0.00  0.00    -0.050 Br
ATOM     27  C   LIG d   1       9.757   7.195  -1.536  0.00  0.00    -0.050 A 
ATOM     28  H   LIG d   1       9.671   8.890  -0.243  0.00  0.00     0.063 H 
ATOM     29  H   LIG d   1       9.007   7.576  -2.213  0.00  0.00     0.062 H 
ENDBRANCH  17  19
ENDBRANCH  10  17
BRANCH  11  30
ATOM     30  C   LIG d   1      12.575   5.901  -4.746  0.00  0.00     0.001 C 
ATOM     31  H   LIG d   1      12.509   6.483  -3.827  0.00  0.00     0.043 H 
ATOM     32  H   LIG d   1      13.280   5.083  -4.607  0.00  0.00     0.043 H 
ATOM     33  H   LIG d   1      12.917   6.542  -5.558  0.00  0.00     0.043 H 
ENDBRANCH  11  30
BRANCH   1  34
ATOM     34  C   LIG d   1      12.340   4.530  -7.092  0.00  0.00    -0.044 C 
ATOM     35  H   LIG d   1      13.224   4.672  -6.471  0.00  0.00     0.025 H 
ATOM     36  H   LIG d   1      12.442   3.605  -7.660  0.00  0.00     0.025 H 
ATOM     37  H   LIG d   1      12.238   5.370  -7.778  0.00  0.00     0.025 H 
ENDBRANCH   1  34
BRANCH   1  38
ATOM     38  C   LIG d   1      10.953   3.016  -5.674  0.00  0.00    -0.044 C 
ATOM     39  H   LIG d   1      11.837   2.750  -5.095  0.00  0.00     0.025 H 
ATOM     40  H   LIG d   1      10.069   2.951  -5.039  0.00  0.00     0.025 H 
ATOM     41  H   LIG d   1      10.848   2.329  -6.514  0.00  0.00     0.025 H 
ENDBRANCH   1  38
BRANCH   6  42
ATOM     42  O   LIG d   1       9.555  10.392  -7.811  0.00  0.00    -0.491 OA
BRANCH  42  43
ATOM     43  C   LIG d   1      10.339  11.226  -6.954  0.00  0.00     0.079 C 
ATOM     44  H   LIG d   1      10.459  10.741  -5.986  0.00  0.00     0.066 H 
ATOM     45  H   LIG d   1      11.320  11.388  -7.403  0.00  0.00     0.066 H 
ATOM     46  H   LIG d   1       9.837  12.184  -6.821  0.00  0.00     0.066 H 
ENDBRANCH  42  43
ENDBRANCH   6  42
BRANCH   5  47
ATOM     47  O   LIG d   1      10.272   8.736  -9.888  0.00  0.00    -0.491 OA
BRANCH  47  48
ATOM     48  C   LIG d   1      10.166   7.860 -11.011  0.00  0.00     0.079 C 
ATOM     49  H   LIG d   1      11.076   7.264 -11.093  0.00  0.00     0.066 H 
ATOM     50  H   LIG d   1       9.310   7.198 -10.878  0.00  0.00     0.066 H 
ATOM     51  H   LIG d   1      10.034   8.446 -11.920  0.00  0.00     0.066 H 
ENDBRANCH  47  48
ENDBRANCH   5  47
TORSDOF 9
ENDMDL
MODEL 7
REMARK VINA RESULT:      -5.1      3.501      7.219
REMARK  9 active torsions:
REMARK  status: ('A' for Active; 'I' for Inactive)
REMARK    1  A    between atoms: C_1  and  C_2 
REMARK    2  A    between atoms: C_2  and  C_27 
REMARK    3  A    between atoms: C_6  and  O_25 
REMARK    4  A    between atoms: C_7  and  O_23 
REMARK    5  A    between atoms: C_11  and  C_14 
REMARK    6  A    between atoms: N_12  and  C_13 
REMARK    7  A    between atoms: C_14  and  C_16 
REMARK    8  A    between atoms: O_23  and  C_24 
REMARK    9  A    between atoms: O_25  and  C_26 
ROOT
ATOM      1  C   LIG d   1       7.423  -0.012  -8.578  0.00  0.00     0.033 C 
ATOM      2  C   LIG d   1       7.276   0.636  -7.202  0.00  0.00    -0.006 C 
ATOM      3  C   LIG d   1       6.514  -0.281  -6.278  0.00  0.00    -0.035 A 
ATOM      4  C   LIG d   1       7.166  -0.941  -5.262  0.00  0.00    -0.013 A 
ATOM      5  C   LIG d   1       6.459  -1.769  -4.400  0.00  0.00     0.162 A 
ATOM      6  C   LIG d   1       5.084  -1.935  -4.559  0.00  0.00     0.162 A 
ATOM      7  C   LIG d   1       4.421  -1.283  -5.580  0.00  0.00    -0.009 A 
ATOM      8  C   LIG d   1       5.132  -0.456  -6.457  0.00  0.00    -0.016 A 
ATOM      9  C   LIG d   1       4.442   0.197  -7.575  0.00  0.00    -0.029 C 
ATOM     10  C   LIG d   1       4.966   0.085  -8.825  0.00  0.00     0.078 C 
ATOM     11  N   LIG d   1       6.165  -0.613  -9.003  0.00  0.00    -0.324 N 
ATOM     12  H   LIG d   1       8.264   0.830  -6.785  0.00  0.00     0.033 H 
ATOM     13  H   LIG d   1       6.737   1.578  -7.302  0.00  0.00     0.033 H 
ATOM     14  H   LIG d   1       8.232  -0.816  -5.135  0.00  0.00     0.066 H 
ATOM     15  H   LIG d   1       3.355  -1.412  -5.702  0.00  0.00     0.066 H 
ATOM     16  H   LIG d   1       3.532   0.757  -7.408  0.00  0.00     0.064 H 
ENDROOT
BRANCH  10  17
ATOM     17  C   LIG d   1       4.282   0.691  -9.972  0.00  0.00     0.207 C 
ATOM     18  O   LIG d   1       4.550   1.829 -10.309  0.00  0.00    -0.285 OA
BRANCH  17  19
ATOM     19  C   LIG d   1       3.267  -0.081 -10.720  0.00  0.00     0.024 A 
ATOM     20  C   LIG d   1       3.563  -0.585 -11.988  0.00  0.00    -0.050 A 
ATOM     21  C   LIG d   1       2.615  -1.310 -12.677  0.00  0.00    -0.047 A 
ATOM     22  H   LIG d   1       4.535  -0.411 -12.427  0.00  0.00     0.062 H 
ATOM     23  C   LIG d   1       1.365  -1.529 -12.119  0.00  0.00     0.018 A 
ATOM     24  H   LIG d   1       2.844  -1.704 -13.657  0.00  0.00     0.063 H 
ATOM     25  C   LIG d   1       1.064  -1.027 -10.865  0.00  0.00    -0.047 A 
ATOM     26 BR   LIG d   1       0.068  -2.518 -13.076  0.00  0.00    -0.050 Br
ATOM     27  C   LIG d   1       2.007  -0.306 -10.162  0.00  0.00    -0.050 A 
ATOM     28  H   LIG d   1       0.089  -1.202 -10.434  0.00  0.00     0.063 H 
ATOM     29  H   LIG d   1       1.770   0.084  -9.183  0.00  0.00     0.062 H 
ENDBRANCH  17  19
ENDBRANCH  10  17
BRANCH  11  30
ATOM     30  C   LIG d   1       6.156  -1.943  -9.618  0.00  0.00     0.001 C 
ATOM     31  H   LIG d   1       7.067  -2.475  -9.344  0.00  0.00     0.043 H 
ATOM     32  H   LIG d   1       5.290  -2.501  -9.264  0.00  0.00     0.043 H 
ATOM     33  H   LIG d   1       6.105  -1.842 -10.701  0.00  0.00     0.043 H 
ENDBRANCH  11  30
BRANCH   1  34
ATOM     34  C   LIG d   1       8.501  -1.096  -8.510  0.00  0.00    -0.044 C 
ATOM     35  H   LIG d   1       9.108  -1.062  -9.415  0.00  0.00     0.025 H 
ATOM     36  H   LIG d   1       9.136  -0.923  -7.641  0.00  0.00     0.025 H 
ATOM     37  H   LIG d   1       8.027  -2.074  -8.427  0.00  0.00     0.025 H 
ENDBRANCH   1  34
BRANCH   1  38
ATOM     38  C   LIG d   1       7.842   1.053  -9.593  0.00  0.00    -0.044 C 
ATOM     39  H   LIG d   1       8.438   1.817  -9.094  0.00  0.00     0.025 H 
ATOM     40  H   LIG d   1       8.433   0.589 -10.382  0.00  0.00     0.025 H 
ATOM     41  H   LIG d   1       6.953   1.512 -10.027  0.00  0.00     0.025 H 
ENDBRANCH   1  38
BRANCH   6  42
ATOM     42  O   LIG d   1       4.394  -2.740  -3.707  0.00  0.00    -0.491 OA
BRANCH  42  43
ATOM     43  C   LIG d   1       3.803  -2.119  -2.563  0.00  0.00     0.079 C 
ATOM     44  H   LIG d   1       4.195  -2.579  -1.657  0.00  0.00     0.066 H 
ATOM     45  H   LIG d   1       4.042  -1.055  -2.563  0.00  0.00     0.066 H 
ATOM     46  H   LIG d   1       2.721  -2.249  -2.597  0.00  0.00     0.066 H 
ENDBRANCH  42  43
ENDBRANCH   6  42
BRANCH   5  47
ATOM     47  O   LIG d   1       7.110  -2.420  -3.401  0.00  0.00    -0.491 OA
BRANCH  47  48
ATOM     48  C   LIG d   1       8.252  -3.197  -3.767  0.00  0.00     0.079 C 
ATOM     49  H   LIG d   1       8.173  -3.486  -4.816  0.00  0.00     0.066 H 
ATOM     50  H   LIG d   1       9.156  -2.606  -3.622  0.00  0.00     0.066 H 
ATOM     51  H   LIG d   1       8.299  -4.091  -3.147  0.00  0.00     0.066 H 
ENDBRANCH  47  48
ENDBRANCH   5  47
TORSDOF 9
ENDMDL
MODEL 8
REMARK VINA RESULT:      -5.1      2.838      6.624
REMARK  9 active torsions:
REMARK  status: ('A' for Active; 'I' for Inactive)
REMARK    1  A    between atoms: C_1  and  C_2 
REMARK    2  A    between atoms: C_2  and  C_27 
REMARK    3  A    between atoms: C_6  and  O_25 
REMARK    4  A    between atoms: C_7  and  O_23 
REMARK    5  A    between atoms: C_11  and  C_14 
REMARK    6  A    between atoms: N_12  and  C_13 
REMARK    7  A    between atoms: C_14  and  C_16 
REMARK    8  A    between atoms: O_23  and  C_24 
REMARK    9  A    between atoms: O_25  and  C_26 
ROOT
ATOM      1  C   LIG d   1       4.273  -1.710 -12.814  0.00  0.00     0.033 C 
ATOM      2  C   LIG d   1       4.050  -0.204 -12.697  0.00  0.00    -0.006 C 
ATOM      3  C   LIG d   1       3.785   0.169 -11.259  0.00  0.00    -0.035 A 
ATOM      4  C   LIG d   1       4.742   0.833 -10.527  0.00  0.00    -0.013 A 
ATOM      5  C   LIG d   1       4.489   1.193  -9.210  0.00  0.00     0.162 A 
ATOM      6  C   LIG d   1       3.263   0.884  -8.623  0.00  0.00     0.162 A 
ATOM      7  C   LIG d   1       2.299   0.211  -9.347  0.00  0.00    -0.009 A 
ATOM      8  C   LIG d   1       2.554  -0.162 -10.671  0.00  0.00    -0.016 A 
ATOM      9  C   LIG d   1       1.553  -0.923 -11.428  0.00  0.00    -0.029 C 
ATOM     10  C   LIG d   1       1.941  -2.057 -12.073  0.00  0.00     0.078 C 
ATOM     11  N   LIG d   1       3.285  -2.441 -12.030  0.00  0.00    -0.324 N 
ATOM     12  H   LIG d   1       4.938   0.322 -13.050  0.00  0.00     0.033 H 
ATOM     13  H   LIG d   1       3.195   0.085 -13.309  0.00  0.00     0.033 H 
ATOM     14  H   LIG d   1       5.694   1.075 -10.977  0.00  0.00     0.066 H 
ATOM     15  H   LIG d   1       1.348  -0.027  -8.892  0.00  0.00     0.066 H 
ATOM     16  H   LIG d   1       0.526  -0.590 -11.472  0.00  0.00     0.064 H 
ENDROOT
BRANCH  10  17
ATOM     17  C   LIG d   1       0.960  -2.864 -12.805  0.00  0.00     0.207 C 
ATOM     18  O   LIG d   1       1.002  -2.918 -14.021  0.00  0.00    -0.285 OA
BRANCH  17  19
ATOM     19  C   LIG d   1      -0.077  -3.615 -12.068  0.00  0.00     0.024 A 
ATOM     20  C   LIG d   1      -1.351  -3.776 -12.618  0.00  0.00    -0.050 A 
ATOM     21  C   LIG d   1      -2.312  -4.483 -11.928  0.00  0.00    -0.047 A 
ATOM     22  H   LIG d   1      -1.580  -3.352 -13.585  0.00  0.00     0.062 H 
ATOM     23  C   LIG d   1      -2.022  -5.022 -10.686  0.00  0.00     0.018 A 
ATOM     24  H   LIG d   1      -3.296  -4.612 -12.355  0.00  0.00     0.063 H 
ATOM     25  C   LIG d   1      -0.763  -4.860 -10.132  0.00  0.00    -0.047 A 
ATOM     26 BR   LIG d   1      -3.350  -5.983  -9.743  0.00  0.00    -0.050 Br
ATOM     27  C   LIG d   1       0.210  -4.161 -10.815  0.00  0.00    -0.050 A 
ATOM     28  H   LIG d   1      -0.542  -5.284  -9.164  0.00  0.00     0.063 H 
ATOM     29  H   LIG d   1       1.192  -4.037 -10.383  0.00  0.00     0.062 H 
ENDBRANCH  17  19
ENDBRANCH  10  17
BRANCH  11  30
ATOM     30  C   LIG d   1       3.698  -3.577 -11.202  0.00  0.00     0.001 C 
ATOM     31  H   LIG d   1       2.955  -3.747 -10.423  0.00  0.00     0.043 H 
ATOM     32  H   LIG d   1       3.784  -4.468 -11.823  0.00  0.00     0.043 H 
ATOM     33  H   LIG d   1       4.663  -3.360 -10.743  0.00  0.00     0.043 H 
ENDBRANCH  11  30
BRANCH   1  34
ATOM     34  C   LIG d   1       5.675  -2.053 -12.304  0.00  0.00    -0.044 C 
ATOM     35  H   LIG d   1       5.672  -2.064 -11.214  0.00  0.00     0.025 H 
ATOM     36  H   LIG d   1       5.965  -3.036 -12.675  0.00  0.00     0.025 H 
ATOM     37  H   LIG d   1       6.383  -1.305 -12.659  0.00  0.00     0.025 H 
ENDBRANCH   1  34
BRANCH   1  38
ATOM     38  C   LIG d   1       4.157  -2.123 -14.283  0.00  0.00    -0.044 C 
ATOM     39  H   LIG d   1       3.312  -2.801 -14.404  0.00  0.00     0.025 H 
ATOM     40  H   LIG d   1       4.003  -1.237 -14.899  0.00  0.00     0.025 H 
ATOM     41  H   LIG d   1       5.074  -2.626 -14.592  0.00  0.00     0.025 H 
ENDBRANCH   1  38
BRANCH   6  42
ATOM     42  O   LIG d   1       3.015   1.247  -7.336  0.00  0.00    -0.491 OA
BRANCH  42  43
ATOM     43  C   LIG d   1       2.926   0.195  -6.371  0.00  0.00     0.079 C 
ATOM     44  H   LIG d   1       3.744   0.285  -5.658  0.00  0.00     0.066 H 
ATOM     45  H   LIG d   1       1.974   0.267  -5.843  0.00  0.00     0.066 H 
ATOM     46  H   LIG d   1       2.989  -0.768  -6.877  0.00  0.00     0.066 H 
ENDBRANCH  42  43
ENDBRANCH   6  42
BRANCH   5  47
ATOM     47  O   LIG d   1       5.439   1.846  -8.491  0.00  0.00    -0.491 OA
BRANCH  47  48
ATOM     48  C   LIG d   1       6.798   1.665  -8.895  0.00  0.00     0.079 C 
ATOM     49  H   LIG d   1       7.017   2.325  -9.735  0.00  0.00     0.066 H 
ATOM     50  H   LIG d   1       7.460   1.905  -8.063  0.00  0.00     0.066 H 
ATOM     51  H   LIG d   1       6.953   0.630  -9.196  0.00  0.00     0.066 H 
ENDBRANCH  47  48
ENDBRANCH   5  47
TORSDOF 9
ENDMDL
MODEL 9
REMARK VINA RESULT:      -5.0     11.084     13.355
REMARK  9 active torsions:
REMARK  status: ('A' for Active; 'I' for Inactive)
REMARK    1  A    between atoms: C_1  and  C_2 
REMARK    2  A    between atoms: C_2  and  C_27 
REMARK    3  A    between atoms: C_6  and  O_25 
REMARK    4  A    between atoms: C_7  and  O_23 
REMARK    5  A    between atoms: C_11  and  C_14 
REMARK    6  A    between atoms: N_12  and  C_13 
REMARK    7  A    between atoms: C_14  and  C_16 
REMARK    8  A    between atoms: O_23  and  C_24 
REMARK    9  A    between atoms: O_25  and  C_26 
ROOT
ATOM      1  C   LIG d   1       8.399 -11.455  -1.348  0.00  0.00     0.033 C 
ATOM      2  C   LIG d   1       7.357 -10.369  -1.092  0.00  0.00    -0.006 C 
ATOM      3  C   LIG d   1       6.795  -9.873  -2.402  0.00  0.00    -0.035 A 
ATOM      4  C   LIG d   1       5.516 -10.208  -2.780  0.00  0.00    -0.013 A 
ATOM      5  C   LIG d   1       4.994  -9.735  -3.976  0.00  0.00     0.162 A 
ATOM      6  C   LIG d   1       5.764  -8.916  -4.800  0.00  0.00     0.162 A 
ATOM      7  C   LIG d   1       7.052  -8.579  -4.434  0.00  0.00    -0.009 A 
ATOM      8  C   LIG d   1       7.585  -9.064  -3.234  0.00  0.00    -0.016 A 
ATOM      9  C   LIG d   1       8.971  -8.752  -2.865  0.00  0.00    -0.029 C 
ATOM     10  C   LIG d   1       9.795  -9.769  -2.494  0.00  0.00     0.078 C 
ATOM     11  N   LIG d   1       9.289 -11.072  -2.436  0.00  0.00    -0.324 N 
ATOM     12  H   LIG d   1       6.549 -10.777  -0.484  0.00  0.00     0.033 H 
ATOM     13  H   LIG d   1       7.822  -9.538  -0.561  0.00  0.00     0.033 H 
ATOM     14  H   LIG d   1       4.915 -10.843  -2.144  0.00  0.00     0.066 H 
ATOM     15  H   LIG d   1       7.648  -7.944  -5.073  0.00  0.00     0.066 H 
ATOM     16  H   LIG d   1       9.331  -7.733  -2.889  0.00  0.00     0.064 H 
ENDROOT
BRANCH  10  17
ATOM     17  C   LIG d   1      11.197  -9.501  -2.159  0.00  0.00     0.207 C 
ATOM     18  O   LIG d   1      12.031  -9.429  -3.043  0.00  0.00    -0.285 OA
BRANCH  17  19
ATOM     19  C   LIG d   1      11.598  -9.317  -0.748  0.00  0.00     0.024 A 
ATOM     20  C   LIG d   1      10.985  -8.335   0.033  0.00  0.00    -0.050 A 
ATOM     21  C   LIG d   1      11.358  -8.173   1.350  0.00  0.00    -0.047 A 
ATOM     22  H   LIG d   1      10.216  -7.707  -0.393  0.00  0.00     0.062 H 
ATOM     23  C   LIG d   1      12.348  -8.974   1.896  0.00  0.00     0.018 A 
ATOM     24  H   LIG d   1      10.881  -7.417   1.956  0.00  0.00     0.063 H 
ATOM     25  C   LIG d   1      12.964  -9.945   1.124  0.00  0.00    -0.047 A 
ATOM     26 BR   LIG d   1      12.860  -8.738   3.700  0.00  0.00    -0.050 Br
ATOM     27  C   LIG d   1      12.595 -10.122  -0.193  0.00  0.00    -0.050 A 
ATOM     28  H   LIG d   1      13.734 -10.567   1.556  0.00  0.00     0.063 H 
ATOM     29  H   LIG d   1      13.075 -10.880  -0.792  0.00  0.00     0.062 H 
ENDBRANCH  17  19
ENDBRANCH  10  17
BRANCH  11  30
ATOM     30  C   LIG d   1       9.655 -12.049  -3.466  0.00  0.00     0.001 C 
ATOM     31  H   LIG d   1       9.735 -11.547  -4.430  0.00  0.00     0.043 H 
ATOM     32  H   LIG d   1      10.613 -12.503  -3.212  0.00  0.00     0.043 H 
ATOM     33  H   LIG d   1       8.890 -12.822  -3.521  0.00  0.00     0.043 H 
ENDBRANCH  11  30
BRANCH   1  34
ATOM     34  C   LIG d   1       7.687 -12.760  -1.716  0.00  0.00    -0.044 C 
ATOM     35  H   LIG d   1       7.287 -12.683  -2.726  0.00  0.00     0.025 H 
ATOM     36  H   LIG d   1       8.397 -13.586  -1.668  0.00  0.00     0.025 H 
ATOM     37  H   LIG d   1       6.872 -12.938  -1.014  0.00  0.00     0.025 H 
ENDBRANCH   1  34
BRANCH   1  38
ATOM     38  C   LIG d   1       9.222 -11.672  -0.076  0.00  0.00    -0.044 C 
ATOM     39  H   LIG d   1      10.245 -11.334  -0.243  0.00  0.00     0.025 H 
ATOM     40  H   LIG d   1       8.781 -11.105   0.743  0.00  0.00     0.025 H 
ATOM     41  H   LIG d   1       9.227 -12.733   0.176  0.00  0.00     0.025 H 
ENDBRANCH   1  38
BRANCH   6  42
ATOM     42  O   LIG d   1       5.245  -8.447  -5.967  0.00  0.00    -0.491 OA
BRANCH  42  43
ATOM     43  C   LIG d   1       4.868  -7.068  -6.002  0.00  0.00     0.079 C 
ATOM     44  H   LIG d   1       5.510  -6.499  -5.331  0.00  0.00     0.066 H 
ATOM     45  H   LIG d   1       4.976  -6.688  -7.018  0.00  0.00     0.066 H 
ATOM     46  H   LIG d   1       3.830  -6.967  -5.685  0.00  0.00     0.066 H 
ENDBRANCH  42  43
ENDBRANCH   6  42
BRANCH   5  47
ATOM     47  O   LIG d   1       3.730 -10.072  -4.345  0.00  0.00    -0.491 OA
BRANCH  47  48
ATOM     48  C   LIG d   1       3.029 -10.986  -3.500  0.00  0.00     0.079 C 
ATOM     49  H   LIG d   1       1.959 -10.915  -3.698  0.00  0.00     0.066 H 
ATOM     50  H   LIG d   1       3.369 -12.002  -3.702  0.00  0.00     0.066 H 
ATOM     51  H   LIG d   1       3.222 -10.739  -2.457  0.00  0.00     0.066 H 
ENDBRANCH  47  48
ENDBRANCH   5  47
TORSDOF 9
ENDMDL
