MODEL 1
REMARK VINA RESULT:      -5.1      0.000      0.000
REMARK  11 active torsions:
REMARK  status: ('A' for Active; 'I' for Inactive)
REMARK    1  A    between atoms: C_1  and  O_2 
REMARK    2  A    between atoms: O_2  and  C_3 
REMARK    3  A    between atoms: C_9  and  C_13 
REMARK    4  A    between atoms: C_13  and  C_14 
REMARK    5  A    between atoms: C_14  and  N_15 
REMARK    6  A    between atoms: N_15  and  C_16 
REMARK    7  A    between atoms: C_16  and  C_17 
REMARK    8  A    between atoms: C_17  and  N_18 
REMARK    9  A    between atoms: N_18  and  C_19 
REMARK   10  A    between atoms: C_19  and  C_20 
REMARK   11  A    between atoms: C_20  and  S_21 
ROOT
ATOM      1  C   LIG d   1       3.329   0.442  -2.914  0.00  0.00    -0.029 C 
ATOM      2  H   LIG d   1       2.702   1.030  -2.244  0.00  0.00     0.082 H 
ATOM      3  H   LIG d   1       3.982   1.109  -3.478  0.00  0.00     0.082 H 
ENDROOT
BRANCH   1   4
ATOM      4  C   LIG d   1       4.179  -0.530  -2.093  0.00  0.00     0.015 C 
ATOM      5  H   LIG d   1       3.588  -1.414  -1.852  0.00  0.00     0.037 H 
ATOM      6  H   LIG d   1       4.499  -0.044  -1.172  0.00  0.00     0.037 H 
BRANCH   4   7
ATOM      7  C   LIG d   1       5.388  -0.938  -2.893  0.00  0.00    -0.017 A 
ATOM      8  C   LIG d   1       5.506  -2.116  -3.757  0.00  0.00     0.006 A 
ATOM      9  C   LIG d   1       6.806  -2.079  -4.292  0.00  0.00     0.047 A 
ATOM     10  C   LIG d   1       4.637  -3.152  -4.106  0.00  0.00    -0.011 A 
ATOM     11  C   LIG d   1       7.218  -3.082  -5.161  0.00  0.00    -0.034 A 
ATOM     12  N   LIG d   1       7.423  -0.956  -3.782  0.00  0.00    -0.360 N 
ATOM     13  C   LIG d   1       6.355  -4.103  -5.494  0.00  0.00    -0.018 A 
ATOM     14  H   LIG d   1       8.216  -3.062  -5.576  0.00  0.00     0.064 H 
ATOM     15  C   LIG d   1       5.066  -4.142  -4.967  0.00  0.00     0.121 A 
ATOM     16  H   LIG d   1       6.681  -4.879  -6.170  0.00  0.00     0.066 H 
ATOM     17  C   LIG d   1       6.563  -0.290  -2.952  0.00  0.00     0.006 A 
ATOM     18  H   LIG d   1       8.331  -0.680  -3.981  0.00  0.00     0.165 HD
ATOM     19  H   LIG d   1       6.795   0.623  -2.422  0.00  0.00     0.081 H 
ATOM     20  H   LIG d   1       3.636  -3.181  -3.701  0.00  0.00     0.066 H 
BRANCH  15  21
ATOM     21  O   LIG d   1       4.227  -5.156  -5.306  0.00  0.00    -0.495 OA
BRANCH  21  22
ATOM     22  C   LIG d   1       3.927  -5.314  -6.694  0.00  0.00     0.079 C 
ATOM     23  H   LIG d   1       4.573  -6.080  -7.121  0.00  0.00     0.066 H 
ATOM     24  H   LIG d   1       2.885  -5.612  -6.809  0.00  0.00     0.066 H 
ATOM     25  H   LIG d   1       4.093  -4.368  -7.211  0.00  0.00     0.066 H 
ENDBRANCH  21  22
ENDBRANCH  15  21
ENDBRANCH   4   7
ENDBRANCH   1   4
BRANCH   1  26
ATOM     26  N   LIG d   1       2.480  -0.314  -3.844  0.00  0.00     0.231 N 
ATOM     27  H   LIG d   1       2.886  -1.222  -4.007  0.00  0.00     0.202 HD
ATOM     28  H   LIG d   1       1.559  -0.423  -3.446  0.00  0.00     0.202 HD
BRANCH  26  29
ATOM     29  C   LIG d   1       2.380   0.414  -5.116  0.00  0.00     0.007 C 
ATOM     30  H   LIG d   1       1.400   0.240  -5.560  0.00  0.00     0.087 H 
ATOM     31  H   LIG d   1       2.512   1.481  -4.935  0.00  0.00     0.087 H 
BRANCH  29  32
ATOM     32  C   LIG d   1       3.468  -0.079  -6.073  0.00  0.00     0.007 C 
ATOM     33  H   LIG d   1       4.438  -0.021  -5.581  0.00  0.00     0.087 H 
ATOM     34  H   LIG d   1       3.263  -1.113  -6.354  0.00  0.00     0.087 H 
BRANCH  32  35
ATOM     35  N   LIG d   1       3.478   0.761  -7.278  0.00  0.00     0.231 N 
ATOM     36  H   LIG d   1       3.130   1.681  -7.050  0.00  0.00     0.202 HD
ATOM     37  H   LIG d   1       4.422   0.838  -7.626  0.00  0.00     0.202 HD
BRANCH  35  38
ATOM     38  C   LIG d   1       2.623   0.155  -8.306  0.00  0.00    -0.025 C 
ATOM     39  H   LIG d   1       2.783  -0.924  -8.321  0.00  0.00     0.082 H 
ATOM     40  H   LIG d   1       1.578   0.364  -8.080  0.00  0.00     0.082 H 
BRANCH  38  41
ATOM     41  C   LIG d   1       2.977   0.741  -9.675  0.00  0.00     0.031 C 
ATOM     42  H   LIG d   1       3.609   0.038 -10.218  0.00  0.00     0.043 H 
ATOM     43  H   LIG d   1       2.064   0.919 -10.241  0.00  0.00     0.043 H 
BRANCH  41  44
ATOM     44  S   LIG d   1       3.867   2.305  -9.450  0.00  0.00    -0.173 SA
ATOM     45  H   LIG d   1       3.284   2.857  -8.370  0.00  0.00     0.102 HD
ENDBRANCH  41  44
ENDBRANCH  38  41
ENDBRANCH  35  38
ENDBRANCH  32  35
ENDBRANCH  29  32
ENDBRANCH  26  29
ENDBRANCH   1  26
TORSDOF 11
ENDMDL
MODEL 2
REMARK VINA RESULT:      -4.9      6.978      9.374
REMARK  11 active torsions:
REMARK  status: ('A' for Active; 'I' for Inactive)
REMARK    1  A    between atoms: C_1  and  O_2 
REMARK    2  A    between atoms: O_2  and  C_3 
REMARK    3  A    between atoms: C_9  and  C_13 
REMARK    4  A    between atoms: C_13  and  C_14 
REMARK    5  A    between atoms: C_14  and  N_15 
REMARK    6  A    between atoms: N_15  and  C_16 
REMARK    7  A    between atoms: C_16  and  C_17 
REMARK    8  A    between atoms: C_17  and  N_18 
REMARK    9  A    between atoms: N_18  and  C_19 
REMARK   10  A    between atoms: C_19  and  C_20 
REMARK   11  A    between atoms: C_20  and  S_21 
ROOT
ATOM      1  C   LIG d   1       9.073   2.953  -5.019  0.00  0.00    -0.029 C 
ATOM      2  H   LIG d   1       9.134   2.956  -6.107  0.00  0.00     0.082 H 
ATOM      3  H   LIG d   1       9.909   2.384  -4.611  0.00  0.00     0.082 H 
ENDROOT
BRANCH   1   4
ATOM      4  C   LIG d   1       9.134   4.392  -4.501  0.00  0.00     0.015 C 
ATOM      5  H   LIG d   1       8.122   4.756  -4.321  0.00  0.00     0.037 H 
ATOM      6  H   LIG d   1       9.621   5.025  -5.243  0.00  0.00     0.037 H 
BRANCH   4   7
ATOM      7  C   LIG d   1       9.917   4.429  -3.215  0.00  0.00    -0.017 A 
ATOM      8  C   LIG d   1       9.992   5.548  -2.272  0.00  0.00     0.006 A 
ATOM      9  C   LIG d   1      10.834   5.124  -1.229  0.00  0.00     0.047 A 
ATOM     10  C   LIG d   1       9.424   6.824  -2.235  0.00  0.00    -0.011 A 
ATOM     11  C   LIG d   1      11.099   5.983  -0.169  0.00  0.00    -0.034 A 
ATOM     12  N   LIG d   1      11.235   3.838  -1.528  0.00  0.00    -0.360 N 
ATOM     13  C   LIG d   1      10.539   7.241  -0.146  0.00  0.00    -0.018 A 
ATOM     14  H   LIG d   1      11.746   5.665   0.636  0.00  0.00     0.064 H 
ATOM     15  C   LIG d   1       9.704   7.664  -1.177  0.00  0.00     0.121 A 
ATOM     16  H   LIG d   1      10.749   7.905   0.680  0.00  0.00     0.066 H 
ATOM     17  C   LIG d   1      10.679   3.443  -2.715  0.00  0.00     0.006 A 
ATOM     18  H   LIG d   1      11.825   3.297  -0.981  0.00  0.00     0.165 HD
ATOM     19  H   LIG d   1      10.831   2.480  -3.179  0.00  0.00     0.081 H 
ATOM     20  H   LIG d   1       8.773   7.152  -3.032  0.00  0.00     0.066 H 
BRANCH  15  21
ATOM     21  O   LIG d   1       9.159   8.909  -1.138  0.00  0.00    -0.495 OA
BRANCH  21  22
ATOM     22  C   LIG d   1       9.744   9.902  -1.983  0.00  0.00     0.079 C 
ATOM     23  H   LIG d   1      10.653   9.505  -2.434  0.00  0.00     0.066 H 
ATOM     24  H   LIG d   1       9.038  10.174  -2.767  0.00  0.00     0.066 H 
ATOM     25  H   LIG d   1       9.988  10.784  -1.391  0.00  0.00     0.066 H 
ENDBRANCH  21  22
ENDBRANCH  15  21
ENDBRANCH   4   7
ENDBRANCH   1   4
BRANCH   1  26
ATOM     26  N   LIG d   1       7.809   2.335  -4.600  0.00  0.00     0.231 N 
ATOM     27  H   LIG d   1       7.401   2.875  -3.853  0.00  0.00     0.202 HD
ATOM     28  H   LIG d   1       7.172   2.308  -5.382  0.00  0.00     0.202 HD
BRANCH  26  29
ATOM     29  C   LIG d   1       8.066   0.966  -4.132  0.00  0.00     0.007 C 
ATOM     30  H   LIG d   1       8.458   0.367  -4.954  0.00  0.00     0.087 H 
ATOM     31  H   LIG d   1       8.792   0.990  -3.320  0.00  0.00     0.087 H 
BRANCH  29  32
ATOM     32  C   LIG d   1       6.760   0.346  -3.628  0.00  0.00     0.007 C 
ATOM     33  H   LIG d   1       6.316  -0.257  -4.419  0.00  0.00     0.087 H 
ATOM     34  H   LIG d   1       6.967  -0.283  -2.762  0.00  0.00     0.087 H 
BRANCH  32  35
ATOM     35  N   LIG d   1       5.827   1.414  -3.245  0.00  0.00     0.231 N 
ATOM     36  H   LIG d   1       6.347   2.214  -2.914  0.00  0.00     0.202 HD
ATOM     37  H   LIG d   1       5.275   1.682  -4.046  0.00  0.00     0.202 HD
BRANCH  35  38
ATOM     38  C   LIG d   1       4.941   0.931  -2.178  0.00  0.00    -0.025 C 
ATOM     39  H   LIG d   1       5.192  -0.102  -1.938  0.00  0.00     0.082 H 
ATOM     40  H   LIG d   1       5.068   1.551  -1.291  0.00  0.00     0.082 H 
BRANCH  38  41
ATOM     41  C   LIG d   1       3.487   1.006  -2.649  0.00  0.00     0.031 C 
ATOM     42  H   LIG d   1       2.867   1.413  -1.850  0.00  0.00     0.043 H 
ATOM     43  H   LIG d   1       3.421   1.652  -3.524  0.00  0.00     0.043 H 
BRANCH  41  44
ATOM     44  S   LIG d   1       2.905  -0.657  -3.078  0.00  0.00    -0.173 SA
ATOM     45  H   LIG d   1       1.824  -0.835  -2.298  0.00  0.00     0.102 HD
ENDBRANCH  41  44
ENDBRANCH  38  41
ENDBRANCH  35  38
ENDBRANCH  32  35
ENDBRANCH  29  32
ENDBRANCH  26  29
ENDBRANCH   1  26
TORSDOF 11
ENDMDL
MODEL 3
REMARK VINA RESULT:      -4.8      4.476      6.664
REMARK  11 active torsions:
REMARK  status: ('A' for Active; 'I' for Inactive)
REMARK    1  A    between atoms: C_1  and  O_2 
REMARK    2  A    between atoms: O_2  and  C_3 
REMARK    3  A    between atoms: C_9  and  C_13 
REMARK    4  A    between atoms: C_13  and  C_14 
REMARK    5  A    between atoms: C_14  and  N_15 
REMARK    6  A    between atoms: N_15  and  C_16 
REMARK    7  A    between atoms: C_16  and  C_17 
REMARK    8  A    between atoms: C_17  and  N_18 
REMARK    9  A    between atoms: N_18  and  C_19 
REMARK   10  A    between atoms: C_19  and  C_20 
REMARK   11  A    between atoms: C_20  and  S_21 
ROOT
ATOM      1  C   LIG d   1       9.154   1.147  -5.085  0.00  0.00    -0.029 C 
ATOM      2  H   LIG d   1       9.381   1.534  -6.078  0.00  0.00     0.082 H 
ATOM      3  H   LIG d   1       8.734   1.946  -4.472  0.00  0.00     0.082 H 
ENDROOT
BRANCH   1   4
ATOM      4  C   LIG d   1       8.139   0.007  -5.201  0.00  0.00     0.015 C 
ATOM      5  H   LIG d   1       8.637  -0.943  -5.005  0.00  0.00     0.037 H 
ATOM      6  H   LIG d   1       7.718  -0.003  -6.206  0.00  0.00     0.037 H 
BRANCH   4   7
ATOM      7  C   LIG d   1       7.036   0.213  -4.195  0.00  0.00    -0.017 A 
ATOM      8  C   LIG d   1       5.994  -0.752  -3.835  0.00  0.00     0.006 A 
ATOM      9  C   LIG d   1       5.198  -0.122  -2.862  0.00  0.00     0.047 A 
ATOM     10  C   LIG d   1       5.694  -2.053  -4.246  0.00  0.00    -0.011 A 
ATOM     11  C   LIG d   1       4.112  -0.800  -2.320  0.00  0.00    -0.034 A 
ATOM     12  N   LIG d   1       5.729   1.135  -2.655  0.00  0.00    -0.360 N 
ATOM     13  C   LIG d   1       3.822  -2.080  -2.737  0.00  0.00    -0.018 A 
ATOM     14  H   LIG d   1       3.495  -0.322  -1.573  0.00  0.00     0.064 H 
ATOM     15  C   LIG d   1       4.609  -2.708  -3.700  0.00  0.00     0.121 A 
ATOM     16  H   LIG d   1       2.978  -2.602  -2.312  0.00  0.00     0.066 H 
ATOM     17  C   LIG d   1       6.823   1.314  -3.458  0.00  0.00     0.006 A 
ATOM     18  H   LIG d   1       5.379   1.792  -2.035  0.00  0.00     0.165 HD
ATOM     19  H   LIG d   1       7.425   2.211  -3.493  0.00  0.00     0.081 H 
ATOM     20  H   LIG d   1       6.306  -2.542  -4.989  0.00  0.00     0.066 H 
BRANCH  15  21
ATOM     21  O   LIG d   1       4.309  -3.972  -4.099  0.00  0.00    -0.495 OA
BRANCH  21  22
ATOM     22  C   LIG d   1       4.857  -4.407  -5.345  0.00  0.00     0.079 C 
ATOM     23  H   LIG d   1       4.314  -5.285  -5.694  0.00  0.00     0.066 H 
ATOM     24  H   LIG d   1       4.765  -3.608  -6.081  0.00  0.00     0.066 H 
ATOM     25  H   LIG d   1       5.909  -4.660  -5.211  0.00  0.00     0.066 H 
ENDBRANCH  21  22
ENDBRANCH  15  21
ENDBRANCH   4   7
ENDBRANCH   1   4
BRANCH   1  26
ATOM     26  N   LIG d   1      10.384   0.646  -4.460  0.00  0.00     0.231 N 
ATOM     27  H   LIG d   1      10.148   0.015  -3.709  0.00  0.00     0.202 HD
ATOM     28  H   LIG d   1      10.936   0.158  -5.149  0.00  0.00     0.202 HD
BRANCH  26  29
ATOM     29  C   LIG d   1      11.157   1.776  -3.926  0.00  0.00     0.007 C 
ATOM     30  H   LIG d   1      11.966   1.400  -3.300  0.00  0.00     0.087 H 
ATOM     31  H   LIG d   1      11.573   2.353  -4.751  0.00  0.00     0.087 H 
BRANCH  29  32
ATOM     32  C   LIG d   1      10.239   2.671  -3.090  0.00  0.00     0.007 C 
ATOM     33  H   LIG d   1       9.827   3.458  -3.720  0.00  0.00     0.087 H 
ATOM     34  H   LIG d   1       9.427   2.072  -2.676  0.00  0.00     0.087 H 
BRANCH  32  35
ATOM     35  N   LIG d   1      11.009   3.274  -1.994  0.00  0.00     0.231 N 
ATOM     36  H   LIG d   1      10.464   3.248  -1.145  0.00  0.00     0.202 HD
ATOM     37  H   LIG d   1      11.864   2.756  -1.858  0.00  0.00     0.202 HD
BRANCH  35  38
ATOM     38  C   LIG d   1      11.328   4.668  -2.329  0.00  0.00    -0.025 C 
ATOM     39  H   LIG d   1      12.401   4.830  -2.225  0.00  0.00     0.082 H 
ATOM     40  H   LIG d   1      11.027   4.873  -3.355  0.00  0.00     0.082 H 
BRANCH  38  41
ATOM     41  C   LIG d   1      10.578   5.605  -1.379  0.00  0.00     0.031 C 
ATOM     42  H   LIG d   1      10.489   6.590  -1.837  0.00  0.00     0.043 H 
ATOM     43  H   LIG d   1       9.584   5.205  -1.183  0.00  0.00     0.043 H 
BRANCH  41  44
ATOM     44  S   LIG d   1      11.494   5.743   0.181  0.00  0.00    -0.173 SA
ATOM     45  H   LIG d   1      11.747   4.467   0.522  0.00  0.00     0.102 HD
ENDBRANCH  41  44
ENDBRANCH  38  41
ENDBRANCH  35  38
ENDBRANCH  32  35
ENDBRANCH  29  32
ENDBRANCH  26  29
ENDBRANCH   1  26
TORSDOF 11
ENDMDL
MODEL 4
REMARK VINA RESULT:      -4.7      2.550      4.540
REMARK  11 active torsions:
REMARK  status: ('A' for Active; 'I' for Inactive)
REMARK    1  A    between atoms: C_1  and  O_2 
REMARK    2  A    between atoms: O_2  and  C_3 
REMARK    3  A    between atoms: C_9  and  C_13 
REMARK    4  A    between atoms: C_13  and  C_14 
REMARK    5  A    between atoms: C_14  and  N_15 
REMARK    6  A    between atoms: N_15  and  C_16 
REMARK    7  A    between atoms: C_16  and  C_17 
REMARK    8  A    between atoms: C_17  and  N_18 
REMARK    9  A    between atoms: N_18  and  C_19 
REMARK   10  A    between atoms: C_19  and  C_20 
REMARK   11  A    between atoms: C_20  and  S_21 
ROOT
ATOM      1  C   LIG d   1       6.282  -2.899  -6.369  0.00  0.00    -0.029 C 
ATOM      2  H   LIG d   1       5.915  -1.874  -6.399  0.00  0.00     0.082 H 
ATOM      3  H   LIG d   1       7.235  -2.958  -6.896  0.00  0.00     0.082 H 
ENDROOT
BRANCH   1   4
ATOM      4  C   LIG d   1       6.478  -3.329  -4.913  0.00  0.00     0.015 C 
ATOM      5  H   LIG d   1       7.480  -3.055  -4.585  0.00  0.00     0.037 H 
ATOM      6  H   LIG d   1       6.353  -4.410  -4.834  0.00  0.00     0.037 H 
BRANCH   4   7
ATOM      7  C   LIG d   1       5.458  -2.640  -4.045  0.00  0.00    -0.017 A 
ATOM      8  C   LIG d   1       5.496  -1.246  -3.595  0.00  0.00     0.006 A 
ATOM      9  C   LIG d   1       4.341  -1.057  -2.815  0.00  0.00     0.047 A 
ATOM     10  C   LIG d   1       6.385  -0.188  -3.793  0.00  0.00    -0.011 A 
ATOM     11  C   LIG d   1       4.097   0.185  -2.241  0.00  0.00    -0.034 A 
ATOM     12  N   LIG d   1       3.660  -2.257  -2.800  0.00  0.00    -0.360 N 
ATOM     13  C   LIG d   1       4.983   1.221  -2.439  0.00  0.00    -0.018 A 
ATOM     14  H   LIG d   1       3.213   0.339  -1.640  0.00  0.00     0.064 H 
ATOM     15  C   LIG d   1       6.128   1.037  -3.211  0.00  0.00     0.121 A 
ATOM     16  H   LIG d   1       4.789   2.184  -1.990  0.00  0.00     0.066 H 
ATOM     17  C   LIG d   1       4.341  -3.186  -3.539  0.00  0.00     0.006 A 
ATOM     18  H   LIG d   1       2.824  -2.417  -2.335  0.00  0.00     0.165 HD
ATOM     19  H   LIG d   1       4.026  -4.208  -3.690  0.00  0.00     0.081 H 
ATOM     20  H   LIG d   1       7.270  -0.328  -4.396  0.00  0.00     0.066 H 
BRANCH  15  21
ATOM     21  O   LIG d   1       6.992   2.070  -3.397  0.00  0.00    -0.495 OA
BRANCH  21  22
ATOM     22  C   LIG d   1       8.307   1.743  -3.853  0.00  0.00     0.079 C 
ATOM     23  H   LIG d   1       8.896   2.655  -3.946  0.00  0.00     0.066 H 
ATOM     24  H   LIG d   1       8.784   1.075  -3.136  0.00  0.00     0.066 H 
ATOM     25  H   LIG d   1       8.242   1.251  -4.823  0.00  0.00     0.066 H 
ENDBRANCH  21  22
ENDBRANCH  15  21
ENDBRANCH   4   7
ENDBRANCH   1   4
BRANCH   1  26
ATOM     26  N   LIG d   1       5.309  -3.789  -7.016  0.00  0.00     0.231 N 
ATOM     27  H   LIG d   1       5.773  -4.335  -7.726  0.00  0.00     0.202 HD
ATOM     28  H   LIG d   1       4.907  -4.405  -6.326  0.00  0.00     0.202 HD
BRANCH  26  29
ATOM     29  C   LIG d   1       4.246  -2.984  -7.632  0.00  0.00     0.007 C 
ATOM     30  H   LIG d   1       4.201  -3.196  -8.700  0.00  0.00     0.087 H 
ATOM     31  H   LIG d   1       3.290  -3.232  -7.172  0.00  0.00     0.087 H 
BRANCH  29  32
ATOM     32  C   LIG d   1       4.543  -1.498  -7.420  0.00  0.00     0.007 C 
ATOM     33  H   LIG d   1       5.416  -1.391  -6.776  0.00  0.00     0.087 H 
ATOM     34  H   LIG d   1       4.740  -1.026  -8.383  0.00  0.00     0.087 H 
BRANCH  32  35
ATOM     35  N   LIG d   1       3.386  -0.853  -6.786  0.00  0.00     0.231 N 
ATOM     36  H   LIG d   1       2.620  -1.509  -6.735  0.00  0.00     0.202 HD
ATOM     37  H   LIG d   1       3.635  -0.555  -5.855  0.00  0.00     0.202 HD
BRANCH  35  38
ATOM     38  C   LIG d   1       2.978   0.313  -7.582  0.00  0.00    -0.025 C 
ATOM     39  H   LIG d   1       2.060   0.081  -8.120  0.00  0.00     0.082 H 
ATOM     40  H   LIG d   1       2.808   1.162  -6.921  0.00  0.00     0.082 H 
BRANCH  38  41
ATOM     41  C   LIG d   1       4.083   0.658  -8.583  0.00  0.00     0.031 C 
ATOM     42  H   LIG d   1       5.052   0.600  -8.088  0.00  0.00     0.043 H 
ATOM     43  H   LIG d   1       4.056  -0.049  -9.412  0.00  0.00     0.043 H 
BRANCH  41  44
ATOM     44  S   LIG d   1       3.824   2.339  -9.213  0.00  0.00    -0.173 SA
ATOM     45  H   LIG d   1       2.527   2.586  -8.953  0.00  0.00     0.102 HD
ENDBRANCH  41  44
ENDBRANCH  38  41
ENDBRANCH  35  38
ENDBRANCH  32  35
ENDBRANCH  29  32
ENDBRANCH  26  29
ENDBRANCH   1  26
TORSDOF 11
ENDMDL
MODEL 5
REMARK VINA RESULT:      -4.6      2.252      3.501
REMARK  11 active torsions:
REMARK  status: ('A' for Active; 'I' for Inactive)
REMARK    1  A    between atoms: C_1  and  O_2 
REMARK    2  A    between atoms: O_2  and  C_3 
REMARK    3  A    between atoms: C_9  and  C_13 
REMARK    4  A    between atoms: C_13  and  C_14 
REMARK    5  A    between atoms: C_14  and  N_15 
REMARK    6  A    between atoms: N_15  and  C_16 
REMARK    7  A    between atoms: C_16  and  C_17 
REMARK    8  A    between atoms: C_17  and  N_18 
REMARK    9  A    between atoms: N_18  and  C_19 
REMARK   10  A    between atoms: C_19  and  C_20 
REMARK   11  A    between atoms: C_20  and  S_21 
ROOT
ATOM      1  C   LIG d   1       8.407   1.377  -5.834  0.00  0.00    -0.029 C 
ATOM      2  H   LIG d   1       8.297   2.218  -5.149  0.00  0.00     0.082 H 
ATOM      3  H   LIG d   1       9.422   1.365  -6.232  0.00  0.00     0.082 H 
ENDROOT
BRANCH   1   4
ATOM      4  C   LIG d   1       8.139   0.070  -5.084  0.00  0.00     0.015 C 
ATOM      5  H   LIG d   1       9.037  -0.229  -4.543  0.00  0.00     0.037 H 
ATOM      6  H   LIG d   1       7.868  -0.709  -5.797  0.00  0.00     0.037 H 
BRANCH   4   7
ATOM      7  C   LIG d   1       7.009   0.274  -4.109  0.00  0.00    -0.017 A 
ATOM      8  C   LIG d   1       5.962  -0.695  -3.773  0.00  0.00     0.006 A 
ATOM      9  C   LIG d   1       5.139  -0.065  -2.823  0.00  0.00     0.047 A 
ATOM     10  C   LIG d   1       5.679  -1.998  -4.187  0.00  0.00    -0.011 A 
ATOM     11  C   LIG d   1       4.042  -0.746  -2.308  0.00  0.00    -0.034 A 
ATOM     12  N   LIG d   1       5.658   1.194  -2.606  0.00  0.00    -0.360 N 
ATOM     13  C   LIG d   1       3.768  -2.028  -2.728  0.00  0.00    -0.018 A 
ATOM     14  H   LIG d   1       3.403  -0.269  -1.578  0.00  0.00     0.064 H 
ATOM     15  C   LIG d   1       4.583  -2.656  -3.668  0.00  0.00     0.121 A 
ATOM     16  H   LIG d   1       2.915  -2.552  -2.324  0.00  0.00     0.066 H 
ATOM     17  C   LIG d   1       6.772   1.376  -3.381  0.00  0.00     0.006 A 
ATOM     18  H   LIG d   1       5.289   1.853  -1.997  0.00  0.00     0.165 HD
ATOM     19  H   LIG d   1       7.371   2.276  -3.402  0.00  0.00     0.081 H 
ATOM     20  H   LIG d   1       6.312  -2.487  -4.913  0.00  0.00     0.066 H 
BRANCH  15  21
ATOM     21  O   LIG d   1       4.298  -3.923  -4.072  0.00  0.00    -0.495 OA
BRANCH  21  22
ATOM     22  C   LIG d   1       4.948  -4.388  -5.256  0.00  0.00     0.079 C 
ATOM     23  H   LIG d   1       5.542  -3.582  -5.686  0.00  0.00     0.066 H 
ATOM     24  H   LIG d   1       5.600  -5.226  -5.007  0.00  0.00     0.066 H 
ATOM     25  H   LIG d   1       4.198  -4.712  -5.978  0.00  0.00     0.066 H 
ENDBRANCH  21  22
ENDBRANCH  15  21
ENDBRANCH   4   7
ENDBRANCH   1   4
BRANCH   1  26
ATOM     26  N   LIG d   1       7.450   1.513  -6.939  0.00  0.00     0.231 N 
ATOM     27  H   LIG d   1       6.510   1.497  -6.574  0.00  0.00     0.202 HD
ATOM     28  H   LIG d   1       7.610   2.387  -7.416  0.00  0.00     0.202 HD
BRANCH  26  29
ATOM     29  C   LIG d   1       7.630   0.401  -7.881  0.00  0.00     0.007 C 
ATOM     30  H   LIG d   1       8.144   0.759  -8.773  0.00  0.00     0.087 H 
ATOM     31  H   LIG d   1       8.221  -0.383  -7.410  0.00  0.00     0.087 H 
BRANCH  29  32
ATOM     32  C   LIG d   1       6.261  -0.161  -8.274  0.00  0.00     0.007 C 
ATOM     33  H   LIG d   1       6.000   0.185  -9.273  0.00  0.00     0.087 H 
ATOM     34  H   LIG d   1       6.299  -1.251  -8.263  0.00  0.00     0.087 H 
BRANCH  32  35
ATOM     35  N   LIG d   1       5.248   0.302  -7.315  0.00  0.00     0.231 N 
ATOM     36  H   LIG d   1       5.640   0.302  -6.385  0.00  0.00     0.202 HD
ATOM     37  H   LIG d   1       4.960   1.238  -7.557  0.00  0.00     0.202 HD
BRANCH  35  38
ATOM     38  C   LIG d   1       4.087  -0.595  -7.358  0.00  0.00    -0.025 C 
ATOM     39  H   LIG d   1       4.131  -1.203  -8.261  0.00  0.00     0.082 H 
ATOM     40  H   LIG d   1       4.096  -1.244  -6.483  0.00  0.00     0.082 H 
BRANCH  38  41
ATOM     41  C   LIG d   1       2.801   0.235  -7.365  0.00  0.00     0.031 C 
ATOM     42  H   LIG d   1       1.957  -0.407  -7.618  0.00  0.00     0.043 H 
ATOM     43  H   LIG d   1       2.643   0.670  -6.379  0.00  0.00     0.043 H 
BRANCH  41  44
ATOM     44  S   LIG d   1       2.944   1.560  -8.596  0.00  0.00    -0.173 SA
ATOM     45  H   LIG d   1       3.707   1.022  -9.564  0.00  0.00     0.102 HD
ENDBRANCH  41  44
ENDBRANCH  38  41
ENDBRANCH  35  38
ENDBRANCH  32  35
ENDBRANCH  29  32
ENDBRANCH  26  29
ENDBRANCH   1  26
TORSDOF 11
ENDMDL
MODEL 6
REMARK VINA RESULT:      -4.6      3.306      6.643
REMARK  11 active torsions:
REMARK  status: ('A' for Active; 'I' for Inactive)
REMARK    1  A    between atoms: C_1  and  O_2 
REMARK    2  A    between atoms: O_2  and  C_3 
REMARK    3  A    between atoms: C_9  and  C_13 
REMARK    4  A    between atoms: C_13  and  C_14 
REMARK    5  A    between atoms: C_14  and  N_15 
REMARK    6  A    between atoms: N_15  and  C_16 
REMARK    7  A    between atoms: C_16  and  C_17 
REMARK    8  A    between atoms: C_17  and  N_18 
REMARK    9  A    between atoms: N_18  and  C_19 
REMARK   10  A    between atoms: C_19  and  C_20 
REMARK   11  A    between atoms: C_20  and  S_21 
ROOT
ATOM      1  C   LIG d   1       3.962  -5.111  -7.052  0.00  0.00    -0.029 C 
ATOM      2  H   LIG d   1       3.003  -5.531  -7.352  0.00  0.00     0.082 H 
ATOM      3  H   LIG d   1       4.654  -5.920  -6.815  0.00  0.00     0.082 H 
ENDROOT
BRANCH   1   4
ATOM      4  C   LIG d   1       4.533  -4.272  -8.197  0.00  0.00     0.015 C 
ATOM      5  H   LIG d   1       5.047  -4.924  -8.903  0.00  0.00     0.037 H 
ATOM      6  H   LIG d   1       5.237  -3.542  -7.797  0.00  0.00     0.037 H 
BRANCH   4   7
ATOM      7  C   LIG d   1       3.411  -3.555  -8.902  0.00  0.00    -0.017 A 
ATOM      8  C   LIG d   1       3.207  -2.105  -8.966  0.00  0.00     0.006 A 
ATOM      9  C   LIG d   1       2.041  -1.909  -9.727  0.00  0.00     0.047 A 
ATOM     10  C   LIG d   1       3.904  -1.006  -8.461  0.00  0.00    -0.011 A 
ATOM     11  C   LIG d   1       1.587  -0.616  -9.964  0.00  0.00    -0.034 A 
ATOM     12  N   LIG d   1       1.579  -3.156 -10.091  0.00  0.00    -0.360 N 
ATOM     13  C   LIG d   1       2.279   0.460  -9.456  0.00  0.00    -0.018 A 
ATOM     14  H   LIG d   1       0.691  -0.456 -10.546  0.00  0.00     0.064 H 
ATOM     15  C   LIG d   1       3.435   0.269  -8.703  0.00  0.00     0.121 A 
ATOM     16  H   LIG d   1       1.922   1.462  -9.644  0.00  0.00     0.066 H 
ATOM     17  C   LIG d   1       2.408  -4.123  -9.590  0.00  0.00     0.006 A 
ATOM     18  H   LIG d   1       0.784  -3.323 -10.621  0.00  0.00     0.165 HD
ATOM     19  H   LIG d   1       2.274  -5.186  -9.729  0.00  0.00     0.081 H 
ATOM     20  H   LIG d   1       4.804  -1.153  -7.881  0.00  0.00     0.066 H 
BRANCH  15  21
ATOM     21  O   LIG d   1       4.107   1.344  -8.210  0.00  0.00    -0.495 OA
BRANCH  21  22
ATOM     22  C   LIG d   1       4.744   2.203  -9.158  0.00  0.00     0.079 C 
ATOM     23  H   LIG d   1       5.455   1.627  -9.749  0.00  0.00     0.066 H 
ATOM     24  H   LIG d   1       3.992   2.638  -9.816  0.00  0.00     0.066 H 
ATOM     25  H   LIG d   1       5.270   2.999  -8.630  0.00  0.00     0.066 H 
ENDBRANCH  21  22
ENDBRANCH  15  21
ENDBRANCH   4   7
ENDBRANCH   1   4
BRANCH   1  26
ATOM     26  N   LIG d   1       3.779  -4.262  -5.867  0.00  0.00     0.231 N 
ATOM     27  H   LIG d   1       3.396  -3.372  -6.147  0.00  0.00     0.202 HD
ATOM     28  H   LIG d   1       3.146  -4.714  -5.225  0.00  0.00     0.202 HD
BRANCH  26  29
ATOM     29  C   LIG d   1       5.076  -4.054  -5.210  0.00  0.00     0.007 C 
ATOM     30  H   LIG d   1       5.380  -4.970  -4.704  0.00  0.00     0.087 H 
ATOM     31  H   LIG d   1       5.823  -3.785  -5.957  0.00  0.00     0.087 H 
BRANCH  29  32
ATOM     32  C   LIG d   1       4.952  -2.924  -4.185  0.00  0.00     0.007 C 
ATOM     33  H   LIG d   1       4.988  -3.340  -3.179  0.00  0.00     0.087 H 
ATOM     34  H   LIG d   1       5.774  -2.221  -4.318  0.00  0.00     0.087 H 
BRANCH  32  35
ATOM     35  N   LIG d   1       3.675  -2.224  -4.380  0.00  0.00     0.231 N 
ATOM     36  H   LIG d   1       3.714  -1.680  -5.229  0.00  0.00     0.202 HD
ATOM     37  H   LIG d   1       2.928  -2.900  -4.449  0.00  0.00     0.202 HD
BRANCH  35  38
ATOM     38  C   LIG d   1       3.426  -1.333  -3.239  0.00  0.00    -0.025 C 
ATOM     39  H   LIG d   1       2.353  -1.177  -3.128  0.00  0.00     0.082 H 
ATOM     40  H   LIG d   1       3.823  -1.784  -2.331  0.00  0.00     0.082 H 
BRANCH  38  41
ATOM     41  C   LIG d   1       4.113   0.013  -3.484  0.00  0.00     0.031 C 
ATOM     42  H   LIG d   1       5.033  -0.147  -4.047  0.00  0.00     0.043 H 
ATOM     43  H   LIG d   1       3.449   0.663  -4.052  0.00  0.00     0.043 H 
BRANCH  41  44
ATOM     44  S   LIG d   1       4.505   0.789  -1.892  0.00  0.00    -0.173 SA
ATOM     45  H   LIG d   1       4.243   2.093  -2.093  0.00  0.00     0.102 HD
ENDBRANCH  41  44
ENDBRANCH  38  41
ENDBRANCH  35  38
ENDBRANCH  32  35
ENDBRANCH  29  32
ENDBRANCH  26  29
ENDBRANCH   1  26
TORSDOF 11
ENDMDL
MODEL 7
REMARK VINA RESULT:      -4.6      9.866     11.675
REMARK  11 active torsions:
REMARK  status: ('A' for Active; 'I' for Inactive)
REMARK    1  A    between atoms: C_1  and  O_2 
REMARK    2  A    between atoms: O_2  and  C_3 
REMARK    3  A    between atoms: C_9  and  C_13 
REMARK    4  A    between atoms: C_13  and  C_14 
REMARK    5  A    between atoms: C_14  and  N_15 
REMARK    6  A    between atoms: N_15  and  C_16 
REMARK    7  A    between atoms: C_16  and  C_17 
REMARK    8  A    between atoms: C_17  and  N_18 
REMARK    9  A    between atoms: N_18  and  C_19 
REMARK   10  A    between atoms: C_19  and  C_20 
REMARK   11  A    between atoms: C_20  and  S_21 
ROOT
ATOM      1  C   LIG d   1       9.898   6.571  -5.094  0.00  0.00    -0.029 C 
ATOM      2  H   LIG d   1      10.795   6.855  -4.543  0.00  0.00     0.082 H 
ATOM      3  H   LIG d   1      10.178   6.232  -6.092  0.00  0.00     0.082 H 
ENDROOT
BRANCH   1   4
ATOM      4  C   LIG d   1       9.184   5.438  -4.353  0.00  0.00     0.015 C 
ATOM      5  H   LIG d   1       9.130   4.561  -4.997  0.00  0.00     0.037 H 
ATOM      6  H   LIG d   1       8.175   5.757  -4.088  0.00  0.00     0.037 H 
BRANCH   4   7
ATOM      7  C   LIG d   1       9.948   5.096  -3.101  0.00  0.00    -0.017 A 
ATOM      8  C   LIG d   1      10.187   5.979  -1.956  0.00  0.00     0.006 A 
ATOM      9  C   LIG d   1      10.939   5.228  -1.035  0.00  0.00     0.047 A 
ATOM     10  C   LIG d   1       9.826   7.294  -1.655  0.00  0.00    -0.011 A 
ATOM     11  C   LIG d   1      11.324   5.807   0.169  0.00  0.00    -0.034 A 
ATOM     12  N   LIG d   1      11.137   3.982  -1.592  0.00  0.00    -0.360 N 
ATOM     13  C   LIG d   1      10.968   7.107   0.452  0.00  0.00    -0.018 A 
ATOM     14  H   LIG d   1      11.903   5.238   0.882  0.00  0.00     0.064 H 
ATOM     15  C   LIG d   1      10.221   7.853  -0.457  0.00  0.00     0.121 A 
ATOM     16  H   LIG d   1      11.270   7.551   1.389  0.00  0.00     0.066 H 
ATOM     17  C   LIG d   1      10.540   3.923  -2.822  0.00  0.00     0.006 A 
ATOM     18  H   LIG d   1      11.628   3.257  -1.176  0.00  0.00     0.165 HD
ATOM     19  H   LIG d   1      10.544   3.060  -3.472  0.00  0.00     0.081 H 
ATOM     20  H   LIG d   1       9.243   7.871  -2.358  0.00  0.00     0.066 H 
BRANCH  15  21
ATOM     21  O   LIG d   1       9.878   9.134  -0.161  0.00  0.00    -0.495 OA
BRANCH  21  22
ATOM     22  C   LIG d   1       8.671   9.634  -0.741  0.00  0.00     0.079 C 
ATOM     23  H   LIG d   1       7.923   8.842  -0.761  0.00  0.00     0.066 H 
ATOM     24  H   LIG d   1       8.300  10.468  -0.146  0.00  0.00     0.066 H 
ATOM     25  H   LIG d   1       8.870   9.973  -1.757  0.00  0.00     0.066 H 
ENDBRANCH  21  22
ENDBRANCH  15  21
ENDBRANCH   4   7
ENDBRANCH   1   4
BRANCH   1  26
ATOM     26  N   LIG d   1       9.000   7.727  -5.203  0.00  0.00     0.231 N 
ATOM     27  H   LIG d   1       8.061   7.409  -5.385  0.00  0.00     0.202 HD
ATOM     28  H   LIG d   1       9.017   8.249  -4.339  0.00  0.00     0.202 HD
BRANCH  26  29
ATOM     29  C   LIG d   1       9.447   8.591  -6.303  0.00  0.00     0.007 C 
ATOM     30  H   LIG d   1      10.415   8.247  -6.667  0.00  0.00     0.087 H 
ATOM     31  H   LIG d   1       8.720   8.553  -7.114  0.00  0.00     0.087 H 
BRANCH  29  32
ATOM     32  C   LIG d   1       9.575  10.032  -5.801  0.00  0.00     0.007 C 
ATOM     33  H   LIG d   1      10.612  10.353  -5.879  0.00  0.00     0.087 H 
ATOM     34  H   LIG d   1       8.945  10.684  -6.407  0.00  0.00     0.087 H 
BRANCH  32  35
ATOM     35  N   LIG d   1       9.144  10.101  -4.398  0.00  0.00     0.231 N 
ATOM     36  H   LIG d   1       8.309   9.547  -4.274  0.00  0.00     0.202 HD
ATOM     37  H   LIG d   1       9.876   9.742  -3.804  0.00  0.00     0.202 HD
BRANCH  35  38
ATOM     38  C   LIG d   1       8.862  11.497  -4.041  0.00  0.00    -0.025 C 
ATOM     39  H   LIG d   1       8.085  11.890  -4.697  0.00  0.00     0.082 H 
ATOM     40  H   LIG d   1       8.524  11.547  -3.007  0.00  0.00     0.082 H 
BRANCH  38  41
ATOM     41  C   LIG d   1      10.135  12.332  -4.202  0.00  0.00     0.031 C 
ATOM     42  H   LIG d   1      10.601  12.474  -3.227  0.00  0.00     0.043 H 
ATOM     43  H   LIG d   1      10.828  11.814  -4.864  0.00  0.00     0.043 H 
BRANCH  41  44
ATOM     44  S   LIG d   1       9.712  13.947  -4.912  0.00  0.00    -0.173 SA
ATOM     45  H   LIG d   1      10.344  14.827  -4.115  0.00  0.00     0.102 HD
ENDBRANCH  41  44
ENDBRANCH  38  41
ENDBRANCH  35  38
ENDBRANCH  32  35
ENDBRANCH  29  32
ENDBRANCH  26  29
ENDBRANCH   1  26
TORSDOF 11
ENDMDL
MODEL 8
REMARK VINA RESULT:      -4.3      9.396     11.216
REMARK  11 active torsions:
REMARK  status: ('A' for Active; 'I' for Inactive)
REMARK    1  A    between atoms: C_1  and  O_2 
REMARK    2  A    between atoms: O_2  and  C_3 
REMARK    3  A    between atoms: C_9  and  C_13 
REMARK    4  A    between atoms: C_13  and  C_14 
REMARK    5  A    between atoms: C_14  and  N_15 
REMARK    6  A    between atoms: N_15  and  C_16 
REMARK    7  A    between atoms: C_16  and  C_17 
REMARK    8  A    between atoms: C_17  and  N_18 
REMARK    9  A    between atoms: N_18  and  C_19 
REMARK   10  A    between atoms: C_19  and  C_20 
REMARK   11  A    between atoms: C_20  and  S_21 
ROOT
ATOM      1  C   LIG d   1       9.960   7.091  -4.821  0.00  0.00    -0.029 C 
ATOM      2  H   LIG d   1      10.679   7.480  -4.100  0.00  0.00     0.082 H 
ATOM      3  H   LIG d   1      10.486   6.776  -5.722  0.00  0.00     0.082 H 
ENDROOT
BRANCH   1   4
ATOM      4  C   LIG d   1       9.225   5.894  -4.214  0.00  0.00     0.015 C 
ATOM      5  H   LIG d   1       9.198   5.080  -4.938  0.00  0.00     0.037 H 
ATOM      6  H   LIG d   1       8.207   6.185  -3.956  0.00  0.00     0.037 H 
BRANCH   4   7
ATOM      7  C   LIG d   1       9.947   5.438  -2.973  0.00  0.00    -0.017 A 
ATOM      8  C   LIG d   1      10.244   6.250  -1.789  0.00  0.00     0.006 A 
ATOM      9  C   LIG d   1      10.924   5.403  -0.897  0.00  0.00     0.047 A 
ATOM     10  C   LIG d   1       9.987   7.576  -1.435  0.00  0.00    -0.011 A 
ATOM     11  C   LIG d   1      11.342   5.897   0.334  0.00  0.00    -0.034 A 
ATOM     12  N   LIG d   1      11.027   4.169  -1.505  0.00  0.00    -0.360 N 
ATOM     13  C   LIG d   1      11.089   7.208   0.671  0.00  0.00    -0.018 A 
ATOM     14  H   LIG d   1      11.867   5.253   1.025  0.00  0.00     0.064 H 
ATOM     15  C   LIG d   1      10.415   8.050  -0.212  0.00  0.00     0.121 A 
ATOM     16  H   LIG d   1      11.417   7.587   1.627  0.00  0.00     0.066 H 
ATOM     17  C   LIG d   1      10.439   4.211  -2.740  0.00  0.00     0.006 A 
ATOM     18  H   LIG d   1      11.453   3.389  -1.117  0.00  0.00     0.165 HD
ATOM     19  H   LIG d   1      10.380   3.378  -3.426  0.00  0.00     0.081 H 
ATOM     20  H   LIG d   1       9.461   8.228  -2.116  0.00  0.00     0.066 H 
BRANCH  15  21
ATOM     21  O   LIG d   1      10.173   9.341   0.138  0.00  0.00    -0.495 OA
BRANCH  21  22
ATOM     22  C   LIG d   1      11.187  10.012   0.889  0.00  0.00     0.079 C 
ATOM     23  H   LIG d   1      10.986  11.083   0.895  0.00  0.00     0.066 H 
ATOM     24  H   LIG d   1      11.188   9.637   1.913  0.00  0.00     0.066 H 
ATOM     25  H   LIG d   1      12.159   9.826   0.433  0.00  0.00     0.066 H 
ENDBRANCH  21  22
ENDBRANCH  15  21
ENDBRANCH   4   7
ENDBRANCH   1   4
BRANCH   1  26
ATOM     26  N   LIG d   1       8.990   8.139  -5.162  0.00  0.00     0.231 N 
ATOM     27  H   LIG d   1       8.437   7.843  -5.951  0.00  0.00     0.202 HD
ATOM     28  H   LIG d   1       8.385   8.307  -4.371  0.00  0.00     0.202 HD
BRANCH  26  29
ATOM     29  C   LIG d   1       9.705   9.377  -5.500  0.00  0.00     0.007 C 
ATOM     30  H   LIG d   1       9.027  10.225  -5.414  0.00  0.00     0.087 H 
ATOM     31  H   LIG d   1      10.543   9.510  -4.816  0.00  0.00     0.087 H 
BRANCH  29  32
ATOM     32  C   LIG d   1      10.229   9.286  -6.935  0.00  0.00     0.007 C 
ATOM     33  H   LIG d   1      10.952  10.082  -7.109  0.00  0.00     0.087 H 
ATOM     34  H   LIG d   1      10.708   8.319  -7.087  0.00  0.00     0.087 H 
BRANCH  32  35
ATOM     35  N   LIG d   1       9.108   9.429  -7.875  0.00  0.00     0.231 N 
ATOM     36  H   LIG d   1       8.247   9.537  -7.359  0.00  0.00     0.202 HD
ATOM     37  H   LIG d   1       9.256  10.243  -8.453  0.00  0.00     0.202 HD
BRANCH  35  38
ATOM     38  C   LIG d   1       9.024   8.233  -8.723  0.00  0.00    -0.025 C 
ATOM     39  H   LIG d   1       8.145   7.652  -8.445  0.00  0.00     0.082 H 
ATOM     40  H   LIG d   1       8.947   8.532  -9.767  0.00  0.00     0.082 H 
BRANCH  38  41
ATOM     41  C   LIG d   1      10.280   7.380  -8.527  0.00  0.00     0.031 C 
ATOM     42  H   LIG d   1      10.928   7.483  -9.398  0.00  0.00     0.043 H 
ATOM     43  H   LIG d   1      10.812   7.715  -7.638  0.00  0.00     0.043 H 
BRANCH  41  44
ATOM     44  S   LIG d   1       9.804   5.641  -8.330  0.00  0.00    -0.173 SA
ATOM     45  H   LIG d   1      10.872   4.959  -8.781  0.00  0.00     0.102 HD
ENDBRANCH  41  44
ENDBRANCH  38  41
ENDBRANCH  35  38
ENDBRANCH  32  35
ENDBRANCH  29  32
ENDBRANCH  26  29
ENDBRANCH   1  26
TORSDOF 11
ENDMDL
MODEL 9
REMARK VINA RESULT:      -4.2     10.312     12.017
REMARK  11 active torsions:
REMARK  status: ('A' for Active; 'I' for Inactive)
REMARK    1  A    between atoms: C_1  and  O_2 
REMARK    2  A    between atoms: O_2  and  C_3 
REMARK    3  A    between atoms: C_9  and  C_13 
REMARK    4  A    between atoms: C_13  and  C_14 
REMARK    5  A    between atoms: C_14  and  N_15 
REMARK    6  A    between atoms: N_15  and  C_16 
REMARK    7  A    between atoms: C_16  and  C_17 
REMARK    8  A    between atoms: C_17  and  N_18 
REMARK    9  A    between atoms: N_18  and  C_19 
REMARK   10  A    between atoms: C_19  and  C_20 
REMARK   11  A    between atoms: C_20  and  S_21 
ROOT
ATOM      1  C   LIG d   1      10.001   7.024  -4.965  0.00  0.00    -0.029 C 
ATOM      2  H   LIG d   1      10.921   7.201  -4.409  0.00  0.00     0.082 H 
ATOM      3  H   LIG d   1      10.243   6.620  -5.948  0.00  0.00     0.082 H 
ENDROOT
BRANCH   1   4
ATOM      4  C   LIG d   1       9.129   6.024  -4.203  0.00  0.00     0.015 C 
ATOM      5  H   LIG d   1       8.899   5.177  -4.849  0.00  0.00     0.037 H 
ATOM      6  H   LIG d   1       8.201   6.509  -3.897  0.00  0.00     0.037 H 
BRANCH   4   7
ATOM      7  C   LIG d   1       9.869   5.540  -2.984  0.00  0.00    -0.017 A 
ATOM      8  C   LIG d   1      10.202   6.330  -1.795  0.00  0.00     0.006 A 
ATOM      9  C   LIG d   1      10.887   5.460  -0.929  0.00  0.00     0.047 A 
ATOM     10  C   LIG d   1       9.973   7.655  -1.417  0.00  0.00    -0.011 A 
ATOM     11  C   LIG d   1      11.338   5.931   0.299  0.00  0.00    -0.034 A 
ATOM     12  N   LIG d   1      10.958   4.234  -1.556  0.00  0.00    -0.360 N 
ATOM     13  C   LIG d   1      11.113   7.240   0.660  0.00  0.00    -0.018 A 
ATOM     14  H   LIG d   1      11.867   5.270   0.971  0.00  0.00     0.064 H 
ATOM     15  C   LIG d   1      10.433   8.105  -0.197  0.00  0.00     0.121 A 
ATOM     16  H   LIG d   1      11.465   7.601   1.614  0.00  0.00     0.066 H 
ATOM     17  C   LIG d   1      10.346   4.302  -2.778  0.00  0.00     0.006 A 
ATOM     18  H   LIG d   1      11.381   3.442  -1.187  0.00  0.00     0.165 HD
ATOM     19  H   LIG d   1      10.260   3.480  -3.475  0.00  0.00     0.081 H 
ATOM     20  H   LIG d   1       9.443   8.324  -2.079  0.00  0.00     0.066 H 
BRANCH  15  21
ATOM     21  O   LIG d   1      10.218   9.395   0.175  0.00  0.00    -0.495 OA
BRANCH  21  22
ATOM     22  C   LIG d   1      11.242  10.027   0.947  0.00  0.00     0.079 C 
ATOM     23  H   LIG d   1      11.118   9.767   1.997  0.00  0.00     0.066 H 
ATOM     24  H   LIG d   1      12.218   9.689   0.601  0.00  0.00     0.066 H 
ATOM     25  H   LIG d   1      11.169  11.108   0.829  0.00  0.00     0.066 H 
ENDBRANCH  21  22
ENDBRANCH  15  21
ENDBRANCH   4   7
ENDBRANCH   1   4
BRANCH   1  26
ATOM     26  N   LIG d   1       9.271   8.289  -5.122  0.00  0.00     0.231 N 
ATOM     27  H   LIG d   1       8.313   8.164  -4.834  0.00  0.00     0.202 HD
ATOM     28  H   LIG d   1       9.704   9.000  -4.551  0.00  0.00     0.202 HD
BRANCH  26  29
ATOM     29  C   LIG d   1       9.310   8.704  -6.531  0.00  0.00     0.007 C 
ATOM     30  H   LIG d   1       9.910   7.997  -7.103  0.00  0.00     0.087 H 
ATOM     31  H   LIG d   1       8.296   8.728  -6.930  0.00  0.00     0.087 H 
BRANCH  29  32
ATOM     32  C   LIG d   1       9.931  10.099  -6.634  0.00  0.00     0.007 C 
ATOM     33  H   LIG d   1      10.997  10.039  -6.420  0.00  0.00     0.087 H 
ATOM     34  H   LIG d   1       9.782  10.490  -7.641  0.00  0.00     0.087 H 
BRANCH  32  35
ATOM     35  N   LIG d   1       9.287  10.995  -5.663  0.00  0.00     0.231 N 
ATOM     36  H   LIG d   1       8.284  10.933  -5.760  0.00  0.00     0.202 HD
ATOM     37  H   LIG d   1       9.551  10.723  -4.728  0.00  0.00     0.202 HD
BRANCH  35  38
ATOM     38  C   LIG d   1       9.718  12.377  -5.911  0.00  0.00    -0.025 C 
ATOM     39  H   LIG d   1       9.127  13.057  -5.298  0.00  0.00     0.082 H 
ATOM     40  H   LIG d   1      10.772  12.481  -5.656  0.00  0.00     0.082 H 
BRANCH  38  41
ATOM     41  C   LIG d   1       9.514  12.717  -7.390  0.00  0.00     0.031 C 
ATOM     42  H   LIG d   1       9.373  11.797  -7.957  0.00  0.00     0.043 H 
ATOM     43  H   LIG d   1       8.634  13.350  -7.499  0.00  0.00     0.043 H 
BRANCH  41  44
ATOM     44  S   LIG d   1      10.974  13.595  -8.014  0.00  0.00    -0.173 SA
ATOM     45  H   LIG d   1      10.826  14.846  -7.542  0.00  0.00     0.102 HD
ENDBRANCH  41  44
ENDBRANCH  38  41
ENDBRANCH  35  38
ENDBRANCH  32  35
ENDBRANCH  29  32
ENDBRANCH  26  29
ENDBRANCH   1  26
TORSDOF 11
ENDMDL
MODEL 10
REMARK VINA RESULT:      -4.1      3.025      6.235
REMARK  11 active torsions:
REMARK  status: ('A' for Active; 'I' for Inactive)
REMARK    1  A    between atoms: C_1  and  O_2 
REMARK    2  A    between atoms: O_2  and  C_3 
REMARK    3  A    between atoms: C_9  and  C_13 
REMARK    4  A    between atoms: C_13  and  C_14 
REMARK    5  A    between atoms: C_14  and  N_15 
REMARK    6  A    between atoms: N_15  and  C_16 
REMARK    7  A    between atoms: C_16  and  C_17 
REMARK    8  A    between atoms: C_17  and  N_18 
REMARK    9  A    between atoms: N_18  and  C_19 
REMARK   10  A    between atoms: C_19  and  C_20 
REMARK   11  A    between atoms: C_20  and  S_21 
ROOT
ATOM      1  C   LIG d   1       4.132  -0.304  -6.271  0.00  0.00    -0.029 C 
ATOM      2  H   LIG d   1       5.048   0.033  -6.756  0.00  0.00     0.082 H 
ATOM      3  H   LIG d   1       4.148  -0.011  -5.221  0.00  0.00     0.082 H 
ENDROOT
BRANCH   1   4
ATOM      4  C   LIG d   1       2.925   0.337  -6.961  0.00  0.00     0.015 C 
ATOM      5  H   LIG d   1       2.736   1.317  -6.524  0.00  0.00     0.037 H 
ATOM      6  H   LIG d   1       2.049  -0.298  -6.824  0.00  0.00     0.037 H 
BRANCH   4   7
ATOM      7  C   LIG d   1       3.210   0.489  -8.432  0.00  0.00    -0.017 A 
ATOM      8  C   LIG d   1       2.710  -0.368  -9.511  0.00  0.00     0.006 A 
ATOM      9  C   LIG d   1       3.235   0.160 -10.703  0.00  0.00     0.047 A 
ATOM     10  C   LIG d   1       1.886  -1.494  -9.550  0.00  0.00    -0.011 A 
ATOM     11  C   LIG d   1       2.932  -0.450 -11.915  0.00  0.00    -0.034 A 
ATOM     12  N   LIG d   1       3.997   1.258 -10.361  0.00  0.00    -0.360 N 
ATOM     13  C   LIG d   1       2.122  -1.564 -11.941  0.00  0.00    -0.018 A 
ATOM     14  H   LIG d   1       3.331  -0.051 -12.836  0.00  0.00     0.064 H 
ATOM     15  C   LIG d   1       1.600  -2.089 -10.761  0.00  0.00     0.121 A 
ATOM     16  H   LIG d   1       1.890  -2.034 -12.885  0.00  0.00     0.066 H 
ATOM     17  C   LIG d   1       3.969   1.437  -9.004  0.00  0.00     0.006 A 
ATOM     18  H   LIG d   1       4.480   1.819 -10.987  0.00  0.00     0.165 HD
ATOM     19  H   LIG d   1       4.482   2.226  -8.473  0.00  0.00     0.081 H 
ATOM     20  H   LIG d   1       1.477  -1.900  -8.636  0.00  0.00     0.066 H 
BRANCH  15  21
ATOM     21  O   LIG d   1       0.802  -3.189 -10.806  0.00  0.00    -0.495 OA
BRANCH  21  22
ATOM     22  C   LIG d   1       1.429  -4.456 -10.594  0.00  0.00     0.079 C 
ATOM     23  H   LIG d   1       0.666  -5.225 -10.481  0.00  0.00     0.066 H 
ATOM     24  H   LIG d   1       2.061  -4.695 -11.449  0.00  0.00     0.066 H 
ATOM     25  H   LIG d   1       2.039  -4.412  -9.692  0.00  0.00     0.066 H 
ENDBRANCH  21  22
ENDBRANCH  15  21
ENDBRANCH   4   7
ENDBRANCH   1   4
BRANCH   1  26
ATOM     26  N   LIG d   1       4.033  -1.766  -6.370  0.00  0.00     0.231 N 
ATOM     27  H   LIG d   1       3.062  -2.036  -6.413  0.00  0.00     0.202 HD
ATOM     28  H   LIG d   1       4.506  -2.080  -7.204  0.00  0.00     0.202 HD
BRANCH  26  29
ATOM     29  C   LIG d   1       4.661  -2.379  -5.192  0.00  0.00     0.007 C 
ATOM     30  H   LIG d   1       4.403  -3.437  -5.150  0.00  0.00     0.087 H 
ATOM     31  H   LIG d   1       5.743  -2.271  -5.259  0.00  0.00     0.087 H 
BRANCH  29  32
ATOM     32  C   LIG d   1       4.158  -1.682  -3.925  0.00  0.00     0.007 C 
ATOM     33  H   LIG d   1       3.941  -0.638  -4.148  0.00  0.00     0.087 H 
ATOM     34  H   LIG d   1       3.251  -2.176  -3.574  0.00  0.00     0.087 H 
BRANCH  32  35
ATOM     35  N   LIG d   1       5.190  -1.756  -2.882  0.00  0.00     0.231 N 
ATOM     36  H   LIG d   1       4.847  -1.322  -2.038  0.00  0.00     0.202 HD
ATOM     37  H   LIG d   1       5.411  -2.722  -2.697  0.00  0.00     0.202 HD
BRANCH  35  38
ATOM     38  C   LIG d   1       6.397  -1.054  -3.338  0.00  0.00    -0.025 C 
ATOM     39  H   LIG d   1       7.245  -1.352  -2.720  0.00  0.00     0.082 H 
ATOM     40  H   LIG d   1       6.597  -1.311  -4.377  0.00  0.00     0.082 H 
BRANCH  38  41
ATOM     41  C   LIG d   1       6.186   0.457  -3.216  0.00  0.00     0.031 C 
ATOM     42  H   LIG d   1       5.274   0.739  -3.743  0.00  0.00     0.043 H 
ATOM     43  H   LIG d   1       6.096   0.728  -2.165  0.00  0.00     0.043 H 
BRANCH  41  44
ATOM     44  S   LIG d   1       7.600   1.325  -3.948  0.00  0.00    -0.173 SA
ATOM     45  H   LIG d   1       8.027   2.136  -2.963  0.00  0.00     0.102 HD
ENDBRANCH  41  44
ENDBRANCH  38  41
ENDBRANCH  35  38
ENDBRANCH  32  35
ENDBRANCH  29  32
ENDBRANCH  26  29
ENDBRANCH   1  26
TORSDOF 11
ENDMDL
