MODEL 1
REMARK VINA RESULT:      -8.0      0.000      0.000
REMARK  3 active torsions:
REMARK  status: ('A' for Active; 'I' for Inactive)
REMARK    1  A    between atoms: C_1  and  O_2 
REMARK    2  A    between atoms: O_2  and  C_3 
REMARK    3  A    between atoms: C_6  and  C_9 
ROOT
ATOM      1  C   LIG d   1      10.076   2.782  -4.403  0.00  0.00     0.028 A 
ATOM      2  C   LIG d   1      11.133   2.285  -5.082  0.00  0.00     0.101 A 
ATOM      3  O   LIG d   1      10.890   1.013  -5.445  0.00  0.00    -0.462 OA
ATOM      4  C   LIG d   1       9.670   0.614  -5.031  0.00  0.00     0.139 A 
ATOM      5  C   LIG d   1       9.080   1.696  -4.354  0.00  0.00     0.029 A 
ATOM      6  C   LIG d   1       7.807   1.575  -3.813  0.00  0.00    -0.039 A 
ATOM      7  C   LIG d   1       7.119   0.374  -3.943  0.00  0.00     0.026 A 
ATOM      8  C   LIG d   1       5.764   0.223  -3.375  0.00  0.00    -0.000 A 
ATOM      9  C   LIG d   1       5.129   1.256  -2.698  0.00  0.00    -0.053 A 
ATOM     10  C   LIG d   1       3.863   1.059  -2.187  0.00  0.00    -0.061 A 
ATOM     11  C   LIG d   1       3.219  -0.160  -2.345  0.00  0.00    -0.061 A 
ATOM     12  C   LIG d   1       3.833  -1.198  -3.014  0.00  0.00    -0.047 A 
ATOM     13  C   LIG d   1       5.112  -1.018  -3.536  0.00  0.00     0.067 A 
ATOM     14  C   LIG d   1       5.813  -2.090  -4.259  0.00  0.00     0.345 A 
ATOM     15  O   LIG d   1       5.272  -3.168  -4.413  0.00  0.00    -0.244 OA
ATOM     16  O   LIG d   1       7.044  -1.885  -4.752  0.00  0.00    -0.422 OA
ATOM     17  C   LIG d   1       7.704  -0.711  -4.618  0.00  0.00     0.143 A 
ATOM     18  C   LIG d   1       8.975  -0.581  -5.156  0.00  0.00     0.024 A 
ATOM     19  H   LIG d   1      12.041   2.828  -5.300  0.00  0.00     0.104 H 
ATOM     20  H   LIG d   1       7.354   2.407  -3.295  0.00  0.00     0.063 H 
ATOM     21  H   LIG d   1       5.625   2.208  -2.572  0.00  0.00     0.062 H 
ATOM     22  H   LIG d   1       3.368   1.860  -1.660  0.00  0.00     0.062 H 
ATOM     23  H   LIG d   1       2.228  -0.298  -1.939  0.00  0.00     0.062 H 
ATOM     24  H   LIG d   1       3.326  -2.143  -3.133  0.00  0.00     0.063 H 
ATOM     25  H   LIG d   1       9.428  -1.414  -5.674  0.00  0.00     0.069 H 
ENDROOT
BRANCH   1  26
ATOM     26  C   LIG d   1       9.944   4.142  -3.825  0.00  0.00    -0.014 A 
ATOM     27  C   LIG d   1      10.299   4.373  -2.496  0.00  0.00    -0.051 A 
ATOM     28  C   LIG d   1      10.176   5.639  -1.962  0.00  0.00    -0.019 A 
ATOM     29  H   LIG d   1      10.670   3.563  -1.887  0.00  0.00     0.062 H 
ATOM     30  C   LIG d   1       9.699   6.682  -2.745  0.00  0.00     0.120 A 
ATOM     31  H   LIG d   1      10.450   5.819  -0.934  0.00  0.00     0.065 H 
ATOM     32  C   LIG d   1       9.346   6.454  -4.069  0.00  0.00    -0.019 A 
ATOM     33  C   LIG d   1       9.472   5.192  -4.610  0.00  0.00    -0.051 A 
ATOM     34  H   LIG d   1       8.976   7.267  -4.675  0.00  0.00     0.065 H 
ATOM     35  H   LIG d   1       9.200   5.017  -5.641  0.00  0.00     0.062 H 
BRANCH  30  36
ATOM     36  O   LIG d   1       9.580   7.928  -2.216  0.00  0.00    -0.495 OA
BRANCH  36  37
ATOM     37  C   LIG d   1       9.866   8.072  -0.824  0.00  0.00     0.079 C 
ATOM     38  H   LIG d   1      10.861   7.680  -0.615  0.00  0.00     0.066 H 
ATOM     39  H   LIG d   1       9.827   9.127  -0.552  0.00  0.00     0.066 H 
ATOM     40  H   LIG d   1       9.128   7.520  -0.242  0.00  0.00     0.066 H 
ENDBRANCH  36  37
ENDBRANCH  30  36
ENDBRANCH   1  26
TORSDOF 3
ENDMDL
MODEL 2
REMARK VINA RESULT:      -7.7      3.915      9.160
REMARK  3 active torsions:
REMARK  status: ('A' for Active; 'I' for Inactive)
REMARK    1  A    between atoms: C_1  and  O_2 
REMARK    2  A    between atoms: O_2  and  C_3 
REMARK    3  A    between atoms: C_6  and  C_9 
ROOT
ATOM      1  C   LIG d   1       7.781  -5.272  -5.788  0.00  0.00     0.028 A 
ATOM      2  C   LIG d   1       8.941  -5.328  -6.479  0.00  0.00     0.101 A 
ATOM      3  O   LIG d   1       9.543  -4.125  -6.465  0.00  0.00    -0.462 OA
ATOM      4  C   LIG d   1       8.818  -3.226  -5.767  0.00  0.00     0.139 A 
ATOM      5  C   LIG d   1       7.669  -3.887  -5.295  0.00  0.00     0.029 A 
ATOM      6  C   LIG d   1       6.730  -3.203  -4.536  0.00  0.00    -0.039 A 
ATOM      7  C   LIG d   1       6.931  -1.858  -4.246  0.00  0.00     0.026 A 
ATOM      8  C   LIG d   1       5.945  -1.111  -3.440  0.00  0.00    -0.000 A 
ATOM      9  C   LIG d   1       4.792  -1.710  -2.945  0.00  0.00    -0.053 A 
ATOM     10  C   LIG d   1       3.904  -0.964  -2.198  0.00  0.00    -0.061 A 
ATOM     11  C   LIG d   1       4.153   0.376  -1.935  0.00  0.00    -0.061 A 
ATOM     12  C   LIG d   1       5.291   0.988  -2.418  0.00  0.00    -0.047 A 
ATOM     13  C   LIG d   1       6.199   0.251  -3.175  0.00  0.00     0.067 A 
ATOM     14  C   LIG d   1       7.428   0.852  -3.713  0.00  0.00     0.345 A 
ATOM     15  O   LIG d   1       7.671   2.024  -3.499  0.00  0.00    -0.244 OA
ATOM     16  O   LIG d   1       8.284   0.115  -4.438  0.00  0.00    -0.422 OA
ATOM     17  C   LIG d   1       8.076  -1.193  -4.715  0.00  0.00     0.143 A 
ATOM     18  C   LIG d   1       9.010  -1.884  -5.472  0.00  0.00     0.024 A 
ATOM     19  H   LIG d   1       9.328  -6.208  -6.972  0.00  0.00     0.104 H 
ATOM     20  H   LIG d   1       5.849  -3.711  -4.173  0.00  0.00     0.063 H 
ATOM     21  H   LIG d   1       4.594  -2.752  -3.144  0.00  0.00     0.062 H 
ATOM     22  H   LIG d   1       3.008  -1.426  -1.812  0.00  0.00     0.062 H 
ATOM     23  H   LIG d   1       3.448   0.946  -1.349  0.00  0.00     0.062 H 
ATOM     24  H   LIG d   1       5.477   2.031  -2.210  0.00  0.00     0.063 H 
ATOM     25  H   LIG d   1       9.891  -1.375  -5.835  0.00  0.00     0.069 H 
ENDROOT
BRANCH   1  26
ATOM     26  C   LIG d   1       6.817  -6.378  -5.569  0.00  0.00    -0.014 A 
ATOM     27  C   LIG d   1       5.517  -6.279  -6.062  0.00  0.00    -0.051 A 
ATOM     28  C   LIG d   1       4.622  -7.309  -5.858  0.00  0.00    -0.019 A 
ATOM     29  H   LIG d   1       5.210  -5.396  -6.603  0.00  0.00     0.062 H 
ATOM     30  C   LIG d   1       5.016  -8.444  -5.162  0.00  0.00     0.120 A 
ATOM     31  H   LIG d   1       3.616  -7.233  -6.239  0.00  0.00     0.065 H 
ATOM     32  C   LIG d   1       6.311  -8.546  -4.670  0.00  0.00    -0.019 A 
ATOM     33  C   LIG d   1       7.211  -7.522  -4.876  0.00  0.00    -0.051 A 
ATOM     34  H   LIG d   1       6.614  -9.431  -4.130  0.00  0.00     0.065 H 
ATOM     35  H   LIG d   1       8.219  -7.603  -4.497  0.00  0.00     0.062 H 
BRANCH  30  36
ATOM     36  O   LIG d   1       4.133  -9.458  -4.963  0.00  0.00    -0.495 OA
BRANCH  36  37
ATOM     37  C   LIG d   1       4.234 -10.173  -3.730  0.00  0.00     0.079 C 
ATOM     38  H   LIG d   1       3.245 -10.513  -3.425  0.00  0.00     0.066 H 
ATOM     39  H   LIG d   1       4.890 -11.034  -3.862  0.00  0.00     0.066 H 
ATOM     40  H   LIG d   1       4.645  -9.518  -2.962  0.00  0.00     0.066 H 
ENDBRANCH  36  37
ENDBRANCH  30  36
ENDBRANCH   1  26
TORSDOF 3
ENDMDL
MODEL 3
REMARK VINA RESULT:      -7.3      5.757      7.993
REMARK  3 active torsions:
REMARK  status: ('A' for Active; 'I' for Inactive)
REMARK    1  A    between atoms: C_1  and  O_2 
REMARK    2  A    between atoms: O_2  and  C_3 
REMARK    3  A    between atoms: C_6  and  C_9 
ROOT
ATOM      1  C   LIG d   1       8.072  -4.893  -5.420  0.00  0.00     0.028 A 
ATOM      2  C   LIG d   1       8.272  -5.308  -6.690  0.00  0.00     0.101 A 
ATOM      3  O   LIG d   1       7.502  -4.597  -7.533  0.00  0.00    -0.462 OA
ATOM      4  C   LIG d   1       6.766  -3.683  -6.866  0.00  0.00     0.139 A 
ATOM      5  C   LIG d   1       7.078  -3.807  -5.500  0.00  0.00     0.029 A 
ATOM      6  C   LIG d   1       6.466  -2.984  -4.564  0.00  0.00    -0.039 A 
ATOM      7  C   LIG d   1       5.540  -2.037  -4.986  0.00  0.00     0.026 A 
ATOM      8  C   LIG d   1       4.877  -1.151  -4.008  0.00  0.00    -0.000 A 
ATOM      9  C   LIG d   1       5.145  -1.225  -2.647  0.00  0.00    -0.053 A 
ATOM     10  C   LIG d   1       4.496  -0.374  -1.777  0.00  0.00    -0.061 A 
ATOM     11  C   LIG d   1       3.581   0.556  -2.250  0.00  0.00    -0.061 A 
ATOM     12  C   LIG d   1       3.301   0.644  -3.598  0.00  0.00    -0.047 A 
ATOM     13  C   LIG d   1       3.946  -0.208  -4.491  0.00  0.00     0.067 A 
ATOM     14  C   LIG d   1       3.687  -0.156  -5.938  0.00  0.00     0.345 A 
ATOM     15  O   LIG d   1       2.890   0.649  -6.380  0.00  0.00    -0.244 OA
ATOM     16  O   LIG d   1       4.326  -0.990  -6.773  0.00  0.00    -0.422 OA
ATOM     17  C   LIG d   1       5.225  -1.909  -6.350  0.00  0.00     0.143 A 
ATOM     18  C   LIG d   1       5.841  -2.734  -7.278  0.00  0.00     0.024 A 
ATOM     19  H   LIG d   1       8.948  -6.096  -6.986  0.00  0.00     0.104 H 
ATOM     20  H   LIG d   1       6.707  -3.079  -3.516  0.00  0.00     0.063 H 
ATOM     21  H   LIG d   1       5.858  -1.946  -2.273  0.00  0.00     0.062 H 
ATOM     22  H   LIG d   1       4.702  -0.429  -0.719  0.00  0.00     0.062 H 
ATOM     23  H   LIG d   1       3.081   1.215  -1.557  0.00  0.00     0.062 H 
ATOM     24  H   LIG d   1       2.588   1.370  -3.959  0.00  0.00     0.063 H 
ATOM     25  H   LIG d   1       5.599  -2.639  -8.326  0.00  0.00     0.069 H 
ENDROOT
BRANCH   1  26
ATOM     26  C   LIG d   1       8.721  -5.420  -4.195  0.00  0.00    -0.014 A 
ATOM     27  C   LIG d   1       8.792  -6.796  -3.980  0.00  0.00    -0.051 A 
ATOM     28  C   LIG d   1       9.397  -7.284  -2.840  0.00  0.00    -0.019 A 
ATOM     29  H   LIG d   1       8.375  -7.479  -4.704  0.00  0.00     0.062 H 
ATOM     30  C   LIG d   1       9.934  -6.407  -1.907  0.00  0.00     0.120 A 
ATOM     31  H   LIG d   1       9.453  -8.349  -2.672  0.00  0.00     0.065 H 
ATOM     32  C   LIG d   1       9.865  -5.036  -2.119  0.00  0.00    -0.019 A 
ATOM     33  C   LIG d   1       9.267  -4.543  -3.260  0.00  0.00    -0.051 A 
ATOM     34  H   LIG d   1      10.285  -4.356  -1.393  0.00  0.00     0.065 H 
ATOM     35  H   LIG d   1       9.217  -3.477  -3.426  0.00  0.00     0.062 H 
BRANCH  30  36
ATOM     36  O   LIG d   1      10.530  -6.890  -0.786  0.00  0.00    -0.495 OA
BRANCH  36  37
ATOM     37  C   LIG d   1      10.831  -8.286  -0.761  0.00  0.00     0.079 C 
ATOM     38  H   LIG d   1      11.405  -8.551  -1.649  0.00  0.00     0.066 H 
ATOM     39  H   LIG d   1      11.415  -8.516   0.131  0.00  0.00     0.066 H 
ATOM     40  H   LIG d   1       9.903  -8.858  -0.745  0.00  0.00     0.066 H 
ENDBRANCH  36  37
ENDBRANCH  30  36
ENDBRANCH   1  26
TORSDOF 3
ENDMDL
MODEL 4
REMARK VINA RESULT:      -6.9      6.120      9.800
REMARK  3 active torsions:
REMARK  status: ('A' for Active; 'I' for Inactive)
REMARK    1  A    between atoms: C_1  and  O_2 
REMARK    2  A    between atoms: O_2  and  C_3 
REMARK    3  A    between atoms: C_6  and  C_9 
ROOT
ATOM      1  C   LIG d   1       5.696  -6.146  -6.838  0.00  0.00     0.028 A 
ATOM      2  C   LIG d   1       5.686  -6.306  -8.179  0.00  0.00     0.101 A 
ATOM      3  O   LIG d   1       5.245  -5.184  -8.773  0.00  0.00    -0.462 OA
ATOM      4  C   LIG d   1       4.949  -4.234  -7.862  0.00  0.00     0.139 A 
ATOM      5  C   LIG d   1       5.215  -4.773  -6.590  0.00  0.00     0.029 A 
ATOM      6  C   LIG d   1       5.002  -4.014  -5.448  0.00  0.00    -0.039 A 
ATOM      7  C   LIG d   1       4.522  -2.715  -5.569  0.00  0.00     0.026 A 
ATOM      8  C   LIG d   1       4.288  -1.890  -4.367  0.00  0.00    -0.000 A 
ATOM      9  C   LIG d   1       4.533  -2.367  -3.085  0.00  0.00    -0.053 A 
ATOM     10  C   LIG d   1       4.296  -1.552  -1.998  0.00  0.00    -0.061 A 
ATOM     11  C   LIG d   1       3.817  -0.262  -2.173  0.00  0.00    -0.061 A 
ATOM     12  C   LIG d   1       3.568   0.230  -3.437  0.00  0.00    -0.047 A 
ATOM     13  C   LIG d   1       3.800  -0.579  -4.547  0.00  0.00     0.067 A 
ATOM     14  C   LIG d   1       3.553  -0.105  -5.917  0.00  0.00     0.345 A 
ATOM     15  O   LIG d   1       3.133   1.022  -6.100  0.00  0.00    -0.244 OA
ATOM     16  O   LIG d   1       3.788  -0.907  -6.966  0.00  0.00    -0.422 OA
ATOM     17  C   LIG d   1       4.255  -2.171  -6.836  0.00  0.00     0.143 A 
ATOM     18  C   LIG d   1       4.470  -2.936  -7.972  0.00  0.00     0.024 A 
ATOM     19  H   LIG d   1       5.986  -7.204  -8.699  0.00  0.00     0.104 H 
ATOM     20  H   LIG d   1       5.208  -4.429  -4.472  0.00  0.00     0.063 H 
ATOM     21  H   LIG d   1       4.907  -3.370  -2.942  0.00  0.00     0.062 H 
ATOM     22  H   LIG d   1       4.485  -1.921  -1.001  0.00  0.00     0.062 H 
ATOM     23  H   LIG d   1       3.637   0.363  -1.311  0.00  0.00     0.062 H 
ATOM     24  H   LIG d   1       3.195   1.235  -3.565  0.00  0.00     0.063 H 
ATOM     25  H   LIG d   1       4.265  -2.521  -8.947  0.00  0.00     0.069 H 
ENDROOT
BRANCH   1  26
ATOM     26  C   LIG d   1       6.106  -7.144  -5.821  0.00  0.00    -0.014 A 
ATOM     27  C   LIG d   1       7.394  -7.108  -5.286  0.00  0.00    -0.051 A 
ATOM     28  C   LIG d   1       7.773  -8.037  -4.340  0.00  0.00    -0.019 A 
ATOM     29  H   LIG d   1       8.093  -6.353  -5.612  0.00  0.00     0.062 H 
ATOM     30  C   LIG d   1       6.874  -9.008  -3.919  0.00  0.00     0.120 A 
ATOM     31  H   LIG d   1       8.769  -8.010  -3.925  0.00  0.00     0.065 H 
ATOM     32  C   LIG d   1       5.591  -9.047  -4.449  0.00  0.00    -0.019 A 
ATOM     33  C   LIG d   1       5.205  -8.117  -5.392  0.00  0.00    -0.051 A 
ATOM     34  H   LIG d   1       4.894  -9.803  -4.120  0.00  0.00     0.065 H 
ATOM     35  H   LIG d   1       4.205  -8.145  -5.801  0.00  0.00     0.062 H 
BRANCH  30  36
ATOM     36  O   LIG d   1       7.249  -9.922  -2.986  0.00  0.00    -0.495 OA
BRANCH  36  37
ATOM     37  C   LIG d   1       6.221 -10.459  -2.153  0.00  0.00     0.079 C 
ATOM     38  H   LIG d   1       5.974 -11.468  -2.484  0.00  0.00     0.066 H 
ATOM     39  H   LIG d   1       6.569 -10.490  -1.120  0.00  0.00     0.066 H 
ATOM     40  H   LIG d   1       5.334  -9.829  -2.219  0.00  0.00     0.066 H 
ENDBRANCH  36  37
ENDBRANCH  30  36
ENDBRANCH   1  26
TORSDOF 3
ENDMDL
MODEL 5
REMARK VINA RESULT:      -6.5      5.189      9.290
REMARK  3 active torsions:
REMARK  status: ('A' for Active; 'I' for Inactive)
REMARK    1  A    between atoms: C_1  and  O_2 
REMARK    2  A    between atoms: O_2  and  C_3 
REMARK    3  A    between atoms: C_6  and  C_9 
ROOT
ATOM      1  C   LIG d   1       9.932   6.004  -3.923  0.00  0.00     0.028 A 
ATOM      2  C   LIG d   1       9.795   4.678  -3.700  0.00  0.00     0.101 A 
ATOM      3  O   LIG d   1      10.045   4.400  -2.409  0.00  0.00    -0.462 OA
ATOM      4  C   LIG d   1      10.350   5.519  -1.720  0.00  0.00     0.139 A 
ATOM      5  C   LIG d   1      10.296   6.597  -2.622  0.00  0.00     0.029 A 
ATOM      6  C   LIG d   1      10.568   7.888  -2.190  0.00  0.00    -0.039 A 
ATOM      7  C   LIG d   1      10.895   8.109  -0.857  0.00  0.00     0.026 A 
ATOM      8  C   LIG d   1      11.187   9.474  -0.375  0.00  0.00    -0.000 A 
ATOM      9  C   LIG d   1      11.148  10.577  -1.218  0.00  0.00    -0.053 A 
ATOM     10  C   LIG d   1      11.431  11.830  -0.714  0.00  0.00    -0.061 A 
ATOM     11  C   LIG d   1      11.751  11.997   0.625  0.00  0.00    -0.061 A 
ATOM     12  C   LIG d   1      11.795  10.914   1.478  0.00  0.00    -0.047 A 
ATOM     13  C   LIG d   1      11.513   9.641   0.987  0.00  0.00     0.067 A 
ATOM     14  C   LIG d   1      11.544   8.451   1.852  0.00  0.00     0.345 A 
ATOM     15  O   LIG d   1      11.822   8.568   3.030  0.00  0.00    -0.244 OA
ATOM     16  O   LIG d   1      11.267   7.239   1.349  0.00  0.00    -0.422 OA
ATOM     17  C   LIG d   1      10.950   7.036   0.049  0.00  0.00     0.143 A 
ATOM     18  C   LIG d   1      10.678   5.750  -0.391  0.00  0.00     0.024 A 
ATOM     19  H   LIG d   1       9.528   3.948  -4.450  0.00  0.00     0.104 H 
ATOM     20  H   LIG d   1      10.524   8.714  -2.883  0.00  0.00     0.063 H 
ATOM     21  H   LIG d   1      10.898  10.454  -2.262  0.00  0.00     0.062 H 
ATOM     22  H   LIG d   1      11.402  12.689  -1.367  0.00  0.00     0.062 H 
ATOM     23  H   LIG d   1      11.970  12.984   1.004  0.00  0.00     0.062 H 
ATOM     24  H   LIG d   1      12.045  11.051   2.519  0.00  0.00     0.063 H 
ATOM     25  H   LIG d   1      10.721   4.923   0.302  0.00  0.00     0.069 H 
ENDROOT
BRANCH   1  26
ATOM     26  C   LIG d   1       9.751   6.718  -5.210  0.00  0.00    -0.014 A 
ATOM     27  C   LIG d   1       9.980   6.054  -6.415  0.00  0.00    -0.051 A 
ATOM     28  C   LIG d   1       9.810   6.721  -7.611  0.00  0.00    -0.019 A 
ATOM     29  H   LIG d   1      10.290   5.020  -6.412  0.00  0.00     0.062 H 
ATOM     30  C   LIG d   1       9.411   8.050  -7.615  0.00  0.00     0.120 A 
ATOM     31  H   LIG d   1       9.987   6.208  -8.544  0.00  0.00     0.065 H 
ATOM     32  C   LIG d   1       9.181   8.714  -6.417  0.00  0.00    -0.019 A 
ATOM     33  C   LIG d   1       9.344   8.051  -5.219  0.00  0.00    -0.051 A 
ATOM     34  H   LIG d   1       8.870   9.748  -6.424  0.00  0.00     0.065 H 
ATOM     35  H   LIG d   1       9.162   8.566  -4.287  0.00  0.00     0.062 H 
BRANCH  30  36
ATOM     36  O   LIG d   1       9.243   8.705  -8.795  0.00  0.00    -0.495 OA
BRANCH  36  37
ATOM     37  C   LIG d   1      10.004   8.237  -9.910  0.00  0.00     0.079 C 
ATOM     38  H   LIG d   1       9.444   7.462 -10.433  0.00  0.00     0.066 H 
ATOM     39  H   LIG d   1      10.199   9.066 -10.590  0.00  0.00     0.066 H 
ATOM     40  H   LIG d   1      10.949   7.826  -9.558  0.00  0.00     0.066 H 
ENDBRANCH  36  37
ENDBRANCH  30  36
ENDBRANCH   1  26
TORSDOF 3
ENDMDL
MODEL 6
REMARK VINA RESULT:      -6.4      5.446      7.735
REMARK  3 active torsions:
REMARK  status: ('A' for Active; 'I' for Inactive)
REMARK    1  A    between atoms: C_1  and  O_2 
REMARK    2  A    between atoms: O_2  and  C_3 
REMARK    3  A    between atoms: C_6  and  C_9 
ROOT
ATOM      1  C   LIG d   1      10.882   7.547  -0.012  0.00  0.00     0.028 A 
ATOM      2  C   LIG d   1      11.080   6.475   0.787  0.00  0.00     0.101 A 
ATOM      3  O   LIG d   1      10.966   5.342   0.073  0.00  0.00    -0.462 OA
ATOM      4  C   LIG d   1      10.695   5.607  -1.222  0.00  0.00     0.139 A 
ATOM      5  C   LIG d   1      10.628   7.005  -1.360  0.00  0.00     0.029 A 
ATOM      6  C   LIG d   1      10.360   7.575  -2.597  0.00  0.00    -0.039 A 
ATOM      7  C   LIG d   1      10.158   6.754  -3.700  0.00  0.00     0.026 A 
ATOM      8  C   LIG d   1       9.873   7.339  -5.026  0.00  0.00    -0.000 A 
ATOM      9  C   LIG d   1       9.795   8.712  -5.225  0.00  0.00    -0.053 A 
ATOM     10  C   LIG d   1       9.525   9.204  -6.485  0.00  0.00    -0.061 A 
ATOM     11  C   LIG d   1       9.332   8.341  -7.554  0.00  0.00    -0.061 A 
ATOM     12  C   LIG d   1       9.404   6.975  -7.377  0.00  0.00    -0.047 A 
ATOM     13  C   LIG d   1       9.676   6.459  -6.111  0.00  0.00     0.067 A 
ATOM     14  C   LIG d   1       9.765   5.012  -5.866  0.00  0.00     0.345 A 
ATOM     15  O   LIG d   1       9.601   4.232  -6.784  0.00  0.00    -0.244 OA
ATOM     16  O   LIG d   1      10.029   4.547  -4.635  0.00  0.00    -0.422 OA
ATOM     17  C   LIG d   1      10.224   5.357  -3.568  0.00  0.00     0.143 A 
ATOM     18  C   LIG d   1      10.491   4.796  -2.329  0.00  0.00     0.024 A 
ATOM     19  H   LIG d   1      11.295   6.522   1.844  0.00  0.00     0.104 H 
ATOM     20  H   LIG d   1      10.310   8.649  -2.702  0.00  0.00     0.063 H 
ATOM     21  H   LIG d   1       9.946   9.389  -4.397  0.00  0.00     0.062 H 
ATOM     22  H   LIG d   1       9.464  10.270  -6.642  0.00  0.00     0.062 H 
ATOM     23  H   LIG d   1       9.121   8.742  -8.534  0.00  0.00     0.062 H 
ATOM     24  H   LIG d   1       9.252   6.309  -8.213  0.00  0.00     0.063 H 
ATOM     25  H   LIG d   1      10.541   3.722  -2.224  0.00  0.00     0.069 H 
ENDROOT
BRANCH   1  26
ATOM     26  C   LIG d   1      10.915   8.976   0.384  0.00  0.00    -0.014 A 
ATOM     27  C   LIG d   1       9.971   9.865  -0.130  0.00  0.00    -0.051 A 
ATOM     28  C   LIG d   1      10.003  11.193   0.240  0.00  0.00    -0.019 A 
ATOM     29  H   LIG d   1       9.216   9.514  -0.818  0.00  0.00     0.062 H 
ATOM     30  C   LIG d   1      10.973  11.645   1.125  0.00  0.00     0.120 A 
ATOM     31  H   LIG d   1       9.273  11.882  -0.157  0.00  0.00     0.065 H 
ATOM     32  C   LIG d   1      11.914  10.762   1.639  0.00  0.00    -0.019 A 
ATOM     33  C   LIG d   1      11.883   9.432   1.276  0.00  0.00    -0.051 A 
ATOM     34  H   LIG d   1      12.667  11.117   2.327  0.00  0.00     0.065 H 
ATOM     35  H   LIG d   1      12.613   8.745   1.679  0.00  0.00     0.062 H 
BRANCH  30  36
ATOM     36  O   LIG d   1      11.002  12.954   1.489  0.00  0.00    -0.495 OA
BRANCH  36  37
ATOM     37  C   LIG d   1      10.402  13.891   0.593  0.00  0.00     0.079 C 
ATOM     38  H   LIG d   1       9.946  13.356  -0.240  0.00  0.00     0.066 H 
ATOM     39  H   LIG d   1       9.638  14.461   1.121  0.00  0.00     0.066 H 
ATOM     40  H   LIG d   1      11.165  14.570   0.213  0.00  0.00     0.066 H 
ENDBRANCH  36  37
ENDBRANCH  30  36
ENDBRANCH   1  26
TORSDOF 3
ENDMDL
MODEL 7
REMARK VINA RESULT:      -6.2      4.403      6.594
REMARK  3 active torsions:
REMARK  status: ('A' for Active; 'I' for Inactive)
REMARK    1  A    between atoms: C_1  and  O_2 
REMARK    2  A    between atoms: O_2  and  C_3 
REMARK    3  A    between atoms: C_6  and  C_9 
ROOT
ATOM      1  C   LIG d   1      10.553   4.184  -2.693  0.00  0.00     0.028 A 
ATOM      2  C   LIG d   1      10.615   2.851  -2.486  0.00  0.00     0.101 A 
ATOM      3  O   LIG d   1      10.402   2.196  -3.640  0.00  0.00    -0.462 OA
ATOM      4  C   LIG d   1      10.195   3.057  -4.658  0.00  0.00     0.139 A 
ATOM      5  C   LIG d   1      10.280   4.358  -4.132  0.00  0.00     0.029 A 
ATOM      6  C   LIG d   1      10.107   5.461  -4.957  0.00  0.00    -0.039 A 
ATOM      7  C   LIG d   1       9.849   5.271  -6.309  0.00  0.00     0.026 A 
ATOM      8  C   LIG d   1       9.663   6.429  -7.206  0.00  0.00    -0.000 A 
ATOM      9  C   LIG d   1       9.736   7.738  -6.744  0.00  0.00    -0.053 A 
ATOM     10  C   LIG d   1       9.552   8.783  -7.626  0.00  0.00    -0.061 A 
ATOM     11  C   LIG d   1       9.298   8.538  -8.968  0.00  0.00    -0.061 A 
ATOM     12  C   LIG d   1       9.222   7.246  -9.445  0.00  0.00    -0.047 A 
ATOM     13  C   LIG d   1       9.403   6.178  -8.569  0.00  0.00     0.067 A 
ATOM     14  C   LIG d   1       9.333   4.781  -9.024  0.00  0.00     0.345 A 
ATOM     15  O   LIG d   1       9.112   4.538 -10.195  0.00  0.00    -0.244 OA
ATOM     16  O   LIG d   1       9.514   3.774  -8.156  0.00  0.00    -0.422 OA
ATOM     17  C   LIG d   1       9.764   3.973  -6.841  0.00  0.00     0.143 A 
ATOM     18  C   LIG d   1       9.937   2.877  -6.010  0.00  0.00     0.024 A 
ATOM     19  H   LIG d   1      10.806   2.379  -1.533  0.00  0.00     0.104 H 
ATOM     20  H   LIG d   1      10.173   6.460  -4.552  0.00  0.00     0.063 H 
ATOM     21  H   LIG d   1       9.935   7.935  -5.701  0.00  0.00     0.062 H 
ATOM     22  H   LIG d   1       9.608   9.800  -7.270  0.00  0.00     0.062 H 
ATOM     23  H   LIG d   1       9.157   9.367  -9.646  0.00  0.00     0.062 H 
ATOM     24  H   LIG d   1       9.023   7.064 -10.491  0.00  0.00     0.063 H 
ATOM     25  H   LIG d   1       9.871   1.878  -6.415  0.00  0.00     0.069 H 
ENDROOT
BRANCH   1  26
ATOM     26  C   LIG d   1      10.725   5.255  -1.681  0.00  0.00    -0.014 A 
ATOM     27  C   LIG d   1       9.899   6.378  -1.705  0.00  0.00    -0.051 A 
ATOM     28  C   LIG d   1      10.061   7.373  -0.763  0.00  0.00    -0.019 A 
ATOM     29  H   LIG d   1       9.134   6.470  -2.461  0.00  0.00     0.062 H 
ATOM     30  C   LIG d   1      11.045   7.255   0.210  0.00  0.00     0.120 A 
ATOM     31  H   LIG d   1       9.422   8.242  -0.781  0.00  0.00     0.065 H 
ATOM     32  C   LIG d   1      11.869   6.137   0.237  0.00  0.00    -0.019 A 
ATOM     33  C   LIG d   1      11.708   5.138  -0.699  0.00  0.00    -0.051 A 
ATOM     34  H   LIG d   1      12.633   6.049   0.995  0.00  0.00     0.065 H 
ATOM     35  H   LIG d   1      12.347   4.267  -0.675  0.00  0.00     0.062 H 
BRANCH  30  36
ATOM     36  O   LIG d   1      11.202   8.236   1.138  0.00  0.00    -0.495 OA
BRANCH  36  37
ATOM     37  C   LIG d   1      11.045   9.584   0.691  0.00  0.00     0.079 C 
ATOM     38  H   LIG d   1      10.240  10.060   1.249  0.00  0.00     0.066 H 
ATOM     39  H   LIG d   1      11.974  10.131   0.854  0.00  0.00     0.066 H 
ATOM     40  H   LIG d   1      10.803   9.588  -0.371  0.00  0.00     0.066 H 
ENDBRANCH  36  37
ENDBRANCH  30  36
ENDBRANCH   1  26
TORSDOF 3
ENDMDL
MODEL 8
REMARK VINA RESULT:      -6.1      6.559      8.836
REMARK  3 active torsions:
REMARK  status: ('A' for Active; 'I' for Inactive)
REMARK    1  A    between atoms: C_1  and  O_2 
REMARK    2  A    between atoms: O_2  and  C_3 
REMARK    3  A    between atoms: C_6  and  C_9 
ROOT
ATOM      1  C   LIG d   1      10.411  10.246  -2.418  0.00  0.00     0.028 A 
ATOM      2  C   LIG d   1      10.352  11.596  -2.432  0.00  0.00     0.101 A 
ATOM      3  O   LIG d   1      10.131  12.033  -3.684  0.00  0.00    -0.462 OA
ATOM      4  C   LIG d   1      10.029  11.003  -4.550  0.00  0.00     0.139 A 
ATOM      5  C   LIG d   1      10.195   9.817  -3.812  0.00  0.00     0.029 A 
ATOM      6  C   LIG d   1      10.138   8.583  -4.447  0.00  0.00    -0.039 A 
ATOM      7  C   LIG d   1       9.917   8.528  -5.818  0.00  0.00     0.026 A 
ATOM      8  C   LIG d   1       9.853   7.227  -6.514  0.00  0.00    -0.000 A 
ATOM      9  C   LIG d   1      10.008   6.022  -5.840  0.00  0.00    -0.053 A 
ATOM     10  C   LIG d   1       9.939   4.836  -6.540  0.00  0.00    -0.061 A 
ATOM     11  C   LIG d   1       9.715   4.836  -7.909  0.00  0.00    -0.061 A 
ATOM     12  C   LIG d   1       9.559   6.021  -8.596  0.00  0.00    -0.047 A 
ATOM     13  C   LIG d   1       9.626   7.230  -7.906  0.00  0.00     0.067 A 
ATOM     14  C   LIG d   1       9.466   8.523  -8.588  0.00  0.00     0.345 A 
ATOM     15  O   LIG d   1       9.268   8.552  -9.788  0.00  0.00    -0.244 OA
ATOM     16  O   LIG d   1       9.535   9.669  -7.895  0.00  0.00    -0.422 OA
ATOM     17  C   LIG d   1       9.751   9.710  -6.560  0.00  0.00     0.143 A 
ATOM     18  C   LIG d   1       9.809  10.938  -5.918  0.00  0.00     0.024 A 
ATOM     19  H   LIG d   1      10.468  12.231  -1.566  0.00  0.00     0.104 H 
ATOM     20  H   LIG d   1      10.264   7.673  -3.880  0.00  0.00     0.063 H 
ATOM     21  H   LIG d   1      10.181   6.016  -4.774  0.00  0.00     0.062 H 
ATOM     22  H   LIG d   1      10.059   3.898  -6.019  0.00  0.00     0.062 H 
ATOM     23  H   LIG d   1       9.664   3.898  -8.443  0.00  0.00     0.062 H 
ATOM     24  H   LIG d   1       9.386   6.013  -9.662  0.00  0.00     0.063 H 
ATOM     25  H   LIG d   1       9.683  11.848  -6.485  0.00  0.00     0.069 H 
ENDROOT
BRANCH   1  26
ATOM     26  C   LIG d   1      10.644   9.374  -1.241  0.00  0.00    -0.014 A 
ATOM     27  C   LIG d   1      10.226   8.043  -1.265  0.00  0.00    -0.051 A 
ATOM     28  C   LIG d   1      10.445   7.234  -0.169  0.00  0.00    -0.019 A 
ATOM     29  H   LIG d   1       9.732   7.647  -2.139  0.00  0.00     0.062 H 
ATOM     30  C   LIG d   1      11.082   7.742   0.955  0.00  0.00     0.120 A 
ATOM     31  H   LIG d   1      10.122   6.204  -0.186  0.00  0.00     0.065 H 
ATOM     32  C   LIG d   1      11.500   9.066   0.981  0.00  0.00    -0.019 A 
ATOM     33  C   LIG d   1      11.289   9.879  -0.113  0.00  0.00    -0.051 A 
ATOM     34  H   LIG d   1      11.995   9.459   1.857  0.00  0.00     0.065 H 
ATOM     35  H   LIG d   1      11.617  10.908  -0.094  0.00  0.00     0.062 H 
BRANCH  30  36
ATOM     36  O   LIG d   1      11.297   6.942   2.033  0.00  0.00    -0.495 OA
BRANCH  36  37
ATOM     37  C   LIG d   1      10.928   5.568   1.905  0.00  0.00     0.079 C 
ATOM     38  H   LIG d   1      11.704   4.941   2.343  0.00  0.00     0.066 H 
ATOM     39  H   LIG d   1       9.986   5.395   2.425  0.00  0.00     0.066 H 
ATOM     40  H   LIG d   1      10.812   5.320   0.851  0.00  0.00     0.066 H 
ENDBRANCH  36  37
ENDBRANCH  30  36
ENDBRANCH   1  26
TORSDOF 3
ENDMDL
MODEL 9
REMARK VINA RESULT:      -6.1      5.739      7.516
REMARK  3 active torsions:
REMARK  status: ('A' for Active; 'I' for Inactive)
REMARK    1  A    between atoms: C_1  and  O_2 
REMARK    2  A    between atoms: O_2  and  C_3 
REMARK    3  A    between atoms: C_6  and  C_9 
ROOT
ATOM      1  C   LIG d   1      10.227   9.016  -4.209  0.00  0.00     0.028 A 
ATOM      2  C   LIG d   1       9.998  10.319  -4.486  0.00  0.00     0.101 A 
ATOM      3  O   LIG d   1       9.606  10.455  -5.765  0.00  0.00    -0.462 OA
ATOM      4  C   LIG d   1       9.551   9.259  -6.388  0.00  0.00     0.139 A 
ATOM      5  C   LIG d   1       9.934   8.280  -5.453  0.00  0.00     0.029 A 
ATOM      6  C   LIG d   1       9.971   6.941  -5.815  0.00  0.00    -0.039 A 
ATOM      7  C   LIG d   1       9.629   6.572  -7.111  0.00  0.00     0.026 A 
ATOM      8  C   LIG d   1       9.661   5.153  -7.519  0.00  0.00    -0.000 A 
ATOM      9  C   LIG d   1      10.029   4.142  -6.640  0.00  0.00    -0.053 A 
ATOM     10  C   LIG d   1      10.043   2.833  -7.075  0.00  0.00    -0.061 A 
ATOM     11  C   LIG d   1       9.691   2.518  -8.380  0.00  0.00    -0.061 A 
ATOM     12  C   LIG d   1       9.323   3.508  -9.267  0.00  0.00    -0.047 A 
ATOM     13  C   LIG d   1       9.304   4.836  -8.846  0.00  0.00     0.067 A 
ATOM     14  C   LIG d   1       8.919   5.931  -9.750  0.00  0.00     0.345 A 
ATOM     15  O   LIG d   1       8.605   5.684 -10.899  0.00  0.00    -0.244 OA
ATOM     16  O   LIG d   1       8.910   7.200  -9.314  0.00  0.00    -0.422 OA
ATOM     17  C   LIG d   1       9.246   7.546  -8.050  0.00  0.00     0.143 A 
ATOM     18  C   LIG d   1       9.211   8.881  -7.679  0.00  0.00     0.024 A 
ATOM     19  H   LIG d   1      10.116  11.132  -3.785  0.00  0.00     0.104 H 
ATOM     20  H   LIG d   1      10.264   6.190  -5.096  0.00  0.00     0.063 H 
ATOM     21  H   LIG d   1      10.303   4.380  -5.623  0.00  0.00     0.062 H 
ATOM     22  H   LIG d   1      10.328   2.045  -6.395  0.00  0.00     0.062 H 
ATOM     23  H   LIG d   1       9.706   1.489  -8.705  0.00  0.00     0.062 H 
ATOM     24  H   LIG d   1       9.050   3.255 -10.281  0.00  0.00     0.063 H 
ATOM     25  H   LIG d   1       8.919   9.632  -8.398  0.00  0.00     0.069 H 
ENDROOT
BRANCH   1  26
ATOM     26  C   LIG d   1      10.679   8.443  -2.918  0.00  0.00    -0.014 A 
ATOM     27  C   LIG d   1      11.940   7.856  -2.818  0.00  0.00    -0.051 A 
ATOM     28  C   LIG d   1      12.358   7.324  -1.615  0.00  0.00    -0.019 A 
ATOM     29  H   LIG d   1      12.588   7.817  -3.680  0.00  0.00     0.062 H 
ATOM     30  C   LIG d   1      11.525   7.374  -0.506  0.00  0.00     0.120 A 
ATOM     31  H   LIG d   1      13.334   6.870  -1.537  0.00  0.00     0.065 H 
ATOM     32  C   LIG d   1      10.270   7.959  -0.602  0.00  0.00    -0.019 A 
ATOM     33  C   LIG d   1       9.848   8.497  -1.800  0.00  0.00    -0.051 A 
ATOM     34  H   LIG d   1       9.624   7.996   0.263  0.00  0.00     0.065 H 
ATOM     35  H   LIG d   1       8.873   8.955  -1.873  0.00  0.00     0.062 H 
BRANCH  30  36
ATOM     36  O   LIG d   1      11.940   6.850   0.678  0.00  0.00    -0.495 OA
BRANCH  36  37
ATOM     37  C   LIG d   1      11.087   5.885   1.296  0.00  0.00     0.079 C 
ATOM     38  H   LIG d   1      10.062   6.037   0.958  0.00  0.00     0.066 H 
ATOM     39  H   LIG d   1      11.415   4.882   1.023  0.00  0.00     0.066 H 
ATOM     40  H   LIG d   1      11.132   6.001   2.378  0.00  0.00     0.066 H 
ENDBRANCH  36  37
ENDBRANCH  30  36
ENDBRANCH   1  26
TORSDOF 3
ENDMDL
MODEL 10
REMARK VINA RESULT:      -6.0      6.366      9.051
REMARK  3 active torsions:
REMARK  status: ('A' for Active; 'I' for Inactive)
REMARK    1  A    between atoms: C_1  and  O_2 
REMARK    2  A    between atoms: O_2  and  C_3 
REMARK    3  A    between atoms: C_6  and  C_9 
ROOT
ATOM      1  C   LIG d   1       3.051   0.302  -7.838  0.00  0.00     0.028 A 
ATOM      2  C   LIG d   1       2.838   1.498  -8.430  0.00  0.00     0.101 A 
ATOM      3  O   LIG d   1       2.586   1.324  -9.739  0.00  0.00    -0.462 OA
ATOM      4  C   LIG d   1       2.615   0.017 -10.072  0.00  0.00     0.139 A 
ATOM      5  C   LIG d   1       2.905  -0.709  -8.903  0.00  0.00     0.029 A 
ATOM      6  C   LIG d   1       2.998  -2.093  -8.942  0.00  0.00    -0.039 A 
ATOM      7  C   LIG d   1       2.804  -2.759 -10.146  0.00  0.00     0.026 A 
ATOM      8  C   LIG d   1       2.898  -4.231 -10.211  0.00  0.00    -0.000 A 
ATOM      9  C   LIG d   1       3.180  -5.002  -9.090  0.00  0.00    -0.053 A 
ATOM     10  C   LIG d   1       3.258  -6.374  -9.208  0.00  0.00    -0.061 A 
ATOM     11  C   LIG d   1       3.055  -6.990 -10.434  0.00  0.00    -0.061 A 
ATOM     12  C   LIG d   1       2.774  -6.242 -11.559  0.00  0.00    -0.047 A 
ATOM     13  C   LIG d   1       2.693  -4.855 -11.459  0.00  0.00     0.067 A 
ATOM     14  C   LIG d   1       2.395  -4.010 -12.625  0.00  0.00     0.345 A 
ATOM     15  O   LIG d   1       2.213  -4.523 -13.713  0.00  0.00    -0.244 OA
ATOM     16  O   LIG d   1       2.323  -2.676 -12.497  0.00  0.00    -0.422 OA
ATOM     17  C   LIG d   1       2.514  -2.039 -11.318  0.00  0.00     0.143 A 
ATOM     18  C   LIG d   1       2.423  -0.657 -11.270  0.00  0.00     0.024 A 
ATOM     19  H   LIG d   1       2.868   2.453  -7.927  0.00  0.00     0.104 H 
ATOM     20  H   LIG d   1       3.219  -2.649  -8.043  0.00  0.00     0.063 H 
ATOM     21  H   LIG d   1       3.338  -4.528  -8.132  0.00  0.00     0.062 H 
ATOM     22  H   LIG d   1       3.477  -6.975  -8.339  0.00  0.00     0.062 H 
ATOM     23  H   LIG d   1       3.119  -8.065 -10.510  0.00  0.00     0.062 H 
ATOM     24  H   LIG d   1       2.617  -6.729 -12.510  0.00  0.00     0.063 H 
ATOM     25  H   LIG d   1       2.201  -0.101 -12.169  0.00  0.00     0.069 H 
ENDROOT
BRANCH   1  26
ATOM     26  C   LIG d   1       3.366   0.055  -6.410  0.00  0.00    -0.014 A 
ATOM     27  C   LIG d   1       2.461   0.435  -5.419  0.00  0.00    -0.051 A 
ATOM     28  C   LIG d   1       2.756   0.204  -4.092  0.00  0.00    -0.019 A 
ATOM     29  H   LIG d   1       1.531   0.911  -5.691  0.00  0.00     0.062 H 
ATOM     30  C   LIG d   1       3.952  -0.409  -3.742  0.00  0.00     0.120 A 
ATOM     31  H   LIG d   1       2.057   0.498  -3.324  0.00  0.00     0.065 H 
ATOM     32  C   LIG d   1       4.854  -0.790  -4.726  0.00  0.00    -0.019 A 
ATOM     33  C   LIG d   1       4.562  -0.565  -6.055  0.00  0.00    -0.051 A 
ATOM     34  H   LIG d   1       5.784  -1.266  -4.451  0.00  0.00     0.065 H 
ATOM     35  H   LIG d   1       5.263  -0.865  -6.821  0.00  0.00     0.062 H 
BRANCH  30  36
ATOM     36  O   LIG d   1       4.240  -0.637  -2.433  0.00  0.00    -0.495 OA
BRANCH  36  37
ATOM     37  C   LIG d   1       4.579   0.499  -1.636  0.00  0.00     0.079 C 
ATOM     38  H   LIG d   1       4.240   1.407  -2.133  0.00  0.00     0.066 H 
ATOM     39  H   LIG d   1       4.097   0.416  -0.662  0.00  0.00     0.066 H 
ATOM     40  H   LIG d   1       5.660   0.539  -1.503  0.00  0.00     0.066 H 
ENDBRANCH  36  37
ENDBRANCH  30  36
ENDBRANCH   1  26
TORSDOF 3
ENDMDL
