MODEL 1
REMARK VINA RESULT:      -8.4      0.000      0.000
REMARK  9 active torsions:
REMARK  status: ('A' for Active; 'I' for Inactive)
REMARK    1  A    between atoms: C_1  and  C_2 
REMARK    2  A    between atoms: C_6  and  C_36 
REMARK    3  A    between atoms: C_7  and  C_35 
REMARK    4  A    between atoms: C_10  and  C_34 
REMARK    5  A    between atoms: C_15  and  C_16 
REMARK    6  A    between atoms: C_16  and  C_17 
REMARK    7  A    between atoms: C_17  and  C_18 
REMARK       I    between atoms: C_18  and  N_20 
REMARK    8  A    between atoms: N_20  and  C_21 
REMARK    9  A    between atoms: C_21  and  C_22 
ROOT
ATOM      1  C   LIG d   1       4.204   0.439  -2.186  0.00  0.00    -0.012 C 
ATOM      2  H   LIG d   1       3.552  -0.357  -1.827  0.00  0.00     0.032 H 
ATOM      3  H   LIG d   1       4.579   1.011  -1.339  0.00  0.00     0.032 H 
ENDROOT
BRANCH   1   4
ATOM      4  C   LIG d   1       5.362  -0.163  -2.940  0.00  0.00     0.041 A 
ATOM      5  C   LIG d   1       5.387  -1.496  -3.196  0.00  0.00    -0.030 A 
ATOM      6  C   LIG d   1       6.530  -2.037  -3.938  0.00  0.00     0.022 A 
ATOM      7  C   LIG d   1       7.555  -1.160  -4.352  0.00  0.00     0.146 A 
ATOM      8  C   LIG d   1       6.609  -3.398  -4.235  0.00  0.00    -0.039 A 
ATOM      9  C   LIG d   1       8.643  -1.650  -5.053  0.00  0.00     0.035 A 
ATOM     10  O   LIG d   1       7.467   0.157  -4.058  0.00  0.00    -0.422 OA
ATOM     11  C   LIG d   1       8.726  -3.003  -5.352  0.00  0.00     0.142 A 
ATOM     12  C   LIG d   1       7.702  -3.877  -4.939  0.00  0.00     0.029 A 
ATOM     13  O   LIG d   1       9.646  -3.741  -6.008  0.00  0.00    -0.459 OA
ATOM     14  C   LIG d   1       8.108  -5.213  -5.417  0.00  0.00     0.031 A 
ATOM     15  C   LIG d   1       9.290  -5.036  -6.049  0.00  0.00     0.111 A 
ATOM     16  C   LIG d   1       6.424   0.656  -3.378  0.00  0.00     0.341 A 
ATOM     17  O   LIG d   1       6.390   1.849  -3.138  0.00  0.00    -0.245 OA
ATOM     18  H   LIG d   1       5.825  -4.072  -3.920  0.00  0.00     0.063 H 
BRANCH   5  19
ATOM     19  C   LIG d   1       4.269  -2.394  -2.734  0.00  0.00    -0.039 C 
ATOM     20  H   LIG d   1       4.415  -3.394  -3.142  0.00  0.00     0.028 H 
ATOM     21  H   LIG d   1       4.268  -2.442  -1.644  0.00  0.00     0.028 H 
ATOM     22  H   LIG d   1       3.315  -1.995  -3.081  0.00  0.00     0.028 H 
ENDBRANCH   5  19
BRANCH   9  23
ATOM     23  C   LIG d   1       9.737  -0.713  -5.494  0.00  0.00    -0.033 C 
ATOM     24  H   LIG d   1      10.708  -1.169  -5.299  0.00  0.00     0.028 H 
ATOM     25  H   LIG d   1       9.637  -0.514  -6.561  0.00  0.00     0.028 H 
ATOM     26  H   LIG d   1       9.658   0.223  -4.941  0.00  0.00     0.028 H 
ENDBRANCH   9  23
BRANCH  14  27
ATOM     27  C   LIG d   1       7.372  -6.488  -5.240  0.00  0.00    -0.014 A 
ATOM     28  C   LIG d   1       6.138  -6.674  -5.859  0.00  0.00    -0.054 A 
ATOM     29  C   LIG d   1       5.460  -7.865  -5.696  0.00  0.00    -0.061 A 
ATOM     30  H   LIG d   1       5.714  -5.890  -6.470  0.00  0.00     0.062 H 
ATOM     31  C   LIG d   1       5.998  -8.868  -4.910  0.00  0.00    -0.062 A 
ATOM     32  H   LIG d   1       4.505  -8.013  -6.180  0.00  0.00     0.062 H 
ATOM     33  C   LIG d   1       7.220  -8.686  -4.287  0.00  0.00    -0.061 A 
ATOM     34  H   LIG d   1       5.462  -9.796  -4.781  0.00  0.00     0.062 H 
ATOM     35  C   LIG d   1       7.910  -7.501  -4.448  0.00  0.00    -0.054 A 
ATOM     36  H   LIG d   1       7.635  -9.472  -3.674  0.00  0.00     0.062 H 
ATOM     37  H   LIG d   1       8.864  -7.361  -3.963  0.00  0.00     0.062 H 
ENDBRANCH  14  27
BRANCH  15  38
ATOM     38  C   LIG d   1      10.092  -6.131  -6.703  0.00  0.00    -0.006 C 
ATOM     39  H   LIG d   1       9.430  -6.951  -6.980  0.00  0.00     0.031 H 
ATOM     40  H   LIG d   1      10.580  -5.740  -7.596  0.00  0.00     0.031 H 
ATOM     41  H   LIG d   1      10.847  -6.494  -6.006  0.00  0.00     0.031 H 
ENDBRANCH  15  38
ENDBRANCH   1   4
BRANCH   1  42
ATOM     42  C   LIG d   1       3.415   1.363  -3.117  0.00  0.00     0.028 C 
ATOM     43  H   LIG d   1       2.603   1.831  -2.561  0.00  0.00     0.036 H 
ATOM     44  H   LIG d   1       4.077   2.133  -3.511  0.00  0.00     0.036 H 
BRANCH  42  45
ATOM     45  C   LIG d   1       2.845   0.558  -4.257  0.00  0.00     0.213 C 
ATOM     46  O   LIG d   1       1.993  -0.278  -4.042  0.00  0.00    -0.276 OA
ATOM     47  N   LIG d   1       3.282   0.768  -5.515  0.00  0.00    -0.315 N 
ATOM     48  H   LIG d   1       3.963   1.437  -5.686  0.00  0.00     0.149 HD
BRANCH  47  49
ATOM     49  C   LIG d   1       2.728  -0.014  -6.623  0.00  0.00     0.019 C 
ATOM     50  H   LIG d   1       2.626  -1.055  -6.317  0.00  0.00     0.047 H 
ATOM     51  H   LIG d   1       1.749   0.383  -6.893  0.00  0.00     0.047 H 
BRANCH  49  52
ATOM     52  C   LIG d   1       3.665   0.075  -7.828  0.00  0.00     0.018 C 
ATOM     53  H   LIG d   1       4.562   0.629  -7.550  0.00  0.00     0.037 H 
ATOM     54  C   LIG d   1       4.058  -1.338  -8.274  0.00  0.00    -0.017 C 
ATOM     55  N   LIG d   1       2.865  -2.090  -8.673  0.00  0.00     0.238 N 
ATOM     56  H   LIG d   1       4.748  -1.275  -9.115  0.00  0.00     0.085 H 
ATOM     57  C   LIG d   1       4.746  -2.035  -7.096  0.00  0.00    -0.009 C 
ATOM     58  C   LIG d   1       2.202  -1.425  -9.804  0.00  0.00    -0.032 C 
ATOM     59  C   LIG d   1       3.240  -3.446  -9.100  0.00  0.00    -0.032 C 
ATOM     60  H   LIG d   1       2.227  -2.146  -7.895  0.00  0.00     0.204 HD
ATOM     61  C   LIG d   1       1.734  -0.028  -9.393  0.00  0.00    -0.012 C 
ATOM     62  H   LIG d   1       1.341  -2.016 -10.117  0.00  0.00     0.081 H 
ATOM     63  H   LIG d   1       2.902  -1.340 -10.635  0.00  0.00     0.081 H 
ATOM     64  C   LIG d   1       2.954   0.798  -8.973  0.00  0.00    -0.039 C 
ATOM     65  H   LIG d   1       1.042  -0.107  -8.556  0.00  0.00     0.032 H 
ATOM     66  H   LIG d   1       1.239   0.454 -10.236  0.00  0.00     0.032 H 
ATOM     67  H   LIG d   1       2.632   1.784  -8.638  0.00  0.00     0.027 H 
ATOM     68  H   LIG d   1       3.635   0.902  -9.819  0.00  0.00     0.027 H 
ATOM     69  C   LIG d   1       3.875  -4.207  -7.941  0.00  0.00    -0.012 C 
ATOM     70  H   LIG d   1       2.349  -3.979  -9.433  0.00  0.00     0.081 H 
ATOM     71  H   LIG d   1       3.950  -3.383  -9.924  0.00  0.00     0.081 H 
ATOM     72  C   LIG d   1       5.136  -3.460  -7.493  0.00  0.00    -0.043 C 
ATOM     73  H   LIG d   1       4.142  -5.212  -8.266  0.00  0.00     0.032 H 
ATOM     74  H   LIG d   1       3.171  -4.264  -7.110  0.00  0.00     0.032 H 
ATOM     75  H   LIG d   1       5.853  -3.427  -8.315  0.00  0.00     0.027 H 
ATOM     76  H   LIG d   1       5.579  -3.970  -6.638  0.00  0.00     0.027 H 
ATOM     77  H   LIG d   1       5.642  -1.479  -6.818  0.00  0.00     0.032 H 
ATOM     78  H   LIG d   1       4.064  -2.070  -6.246  0.00  0.00     0.032 H 
ENDBRANCH  49  52
ENDBRANCH  47  49
ENDBRANCH  42  45
ENDBRANCH   1  42
TORSDOF 9
ENDMDL
MODEL 2
REMARK VINA RESULT:      -7.4      7.291     11.667
REMARK  9 active torsions:
REMARK  status: ('A' for Active; 'I' for Inactive)
REMARK    1  A    between atoms: C_1  and  C_2 
REMARK    2  A    between atoms: C_6  and  C_36 
REMARK    3  A    between atoms: C_7  and  C_35 
REMARK    4  A    between atoms: C_10  and  C_34 
REMARK    5  A    between atoms: C_15  and  C_16 
REMARK    6  A    between atoms: C_16  and  C_17 
REMARK    7  A    between atoms: C_17  and  C_18 
REMARK       I    between atoms: C_18  and  N_20 
REMARK    8  A    between atoms: N_20  and  C_21 
REMARK    9  A    between atoms: C_21  and  C_22 
ROOT
ATOM      1  C   LIG d   1      10.231   3.428  -5.120  0.00  0.00    -0.012 C 
ATOM      2  H   LIG d   1      10.761   3.889  -5.953  0.00  0.00     0.032 H 
ATOM      3  H   LIG d   1      10.654   2.444  -4.920  0.00  0.00     0.032 H 
ENDROOT
BRANCH   1   4
ATOM      4  C   LIG d   1      10.371   4.295  -3.895  0.00  0.00     0.041 A 
ATOM      5  C   LIG d   1      10.270   5.644  -4.003  0.00  0.00    -0.030 A 
ATOM      6  C   LIG d   1      10.406   6.449  -2.784  0.00  0.00     0.022 A 
ATOM      7  C   LIG d   1      10.640   5.796  -1.557  0.00  0.00     0.146 A 
ATOM      8  C   LIG d   1      10.306   7.839  -2.832  0.00  0.00    -0.039 A 
ATOM      9  C   LIG d   1      10.772   6.536  -0.394  0.00  0.00     0.035 A 
ATOM     10  O   LIG d   1      10.735   4.447  -1.523  0.00  0.00    -0.422 OA
ATOM     11  C   LIG d   1      10.673   7.919  -0.435  0.00  0.00     0.142 A 
ATOM     12  C   LIG d   1      10.438   8.570  -1.662  0.00  0.00     0.029 A 
ATOM     13  O   LIG d   1      10.756   8.872   0.517  0.00  0.00    -0.459 OA
ATOM     14  C   LIG d   1      10.391  10.010  -1.341  0.00  0.00     0.031 A 
ATOM     15  C   LIG d   1      10.592  10.099  -0.007  0.00  0.00     0.111 A 
ATOM     16  C   LIG d   1      10.612   3.707  -2.635  0.00  0.00     0.341 A 
ATOM     17  O   LIG d   1      10.705   2.496  -2.555  0.00  0.00    -0.245 OA
ATOM     18  H   LIG d   1      10.126   8.342  -3.771  0.00  0.00     0.063 H 
BRANCH   5  19
ATOM     19  C   LIG d   1      10.018   6.298  -5.338  0.00  0.00    -0.039 C 
ATOM     20  H   LIG d   1      10.910   6.210  -5.958  0.00  0.00     0.028 H 
ATOM     21  H   LIG d   1       9.182   5.803  -5.832  0.00  0.00     0.028 H 
ATOM     22  H   LIG d   1       9.781   7.351  -5.188  0.00  0.00     0.028 H 
ENDBRANCH   5  19
BRANCH   9  23
ATOM     23  C   LIG d   1      11.023   5.837   0.917  0.00  0.00    -0.033 C 
ATOM     24  H   LIG d   1      10.667   4.809   0.855  0.00  0.00     0.028 H 
ATOM     25  H   LIG d   1      12.091   5.840   1.132  0.00  0.00     0.028 H 
ATOM     26  H   LIG d   1      10.490   6.358   1.713  0.00  0.00     0.028 H 
ENDBRANCH   9  23
BRANCH  14  27
ATOM     27  C   LIG d   1      10.169  11.129  -2.288  0.00  0.00    -0.014 A 
ATOM     28  C   LIG d   1       8.873  11.502  -2.639  0.00  0.00    -0.054 A 
ATOM     29  C   LIG d   1       8.673  12.549  -3.515  0.00  0.00    -0.061 A 
ATOM     30  H   LIG d   1       8.027  10.975  -2.222  0.00  0.00     0.062 H 
ATOM     31  C   LIG d   1       9.756  13.220  -4.054  0.00  0.00    -0.062 A 
ATOM     32  H   LIG d   1       7.668  12.842  -3.785  0.00  0.00     0.062 H 
ATOM     33  C   LIG d   1      11.044  12.851  -3.714  0.00  0.00    -0.061 A 
ATOM     34  H   LIG d   1       9.594  14.035  -4.744  0.00  0.00     0.062 H 
ATOM     35  C   LIG d   1      11.257  11.809  -2.834  0.00  0.00    -0.054 A 
ATOM     36  H   LIG d   1      11.886  13.378  -4.138  0.00  0.00     0.062 H 
ATOM     37  H   LIG d   1      12.264  11.522  -2.568  0.00  0.00     0.062 H 
ENDBRANCH  14  27
BRANCH  15  38
ATOM     38  C   LIG d   1      10.628  11.385   0.777  0.00  0.00    -0.006 C 
ATOM     39  H   LIG d   1      11.378  12.051   0.349  0.00  0.00     0.031 H 
ATOM     40  H   LIG d   1       9.650  11.863   0.736  0.00  0.00     0.031 H 
ATOM     41  H   LIG d   1      10.884  11.170   1.814  0.00  0.00     0.031 H 
ENDBRANCH  15  38
ENDBRANCH   1   4
BRANCH   1  42
ATOM     42  C   LIG d   1       8.750   3.283  -5.475  0.00  0.00     0.028 C 
ATOM     43  H   LIG d   1       8.143   3.764  -4.707  0.00  0.00     0.036 H 
ATOM     44  H   LIG d   1       8.558   3.756  -6.437  0.00  0.00     0.036 H 
BRANCH  42  45
ATOM     45  C   LIG d   1       8.392   1.821  -5.553  0.00  0.00     0.213 C 
ATOM     46  O   LIG d   1       9.149   1.040  -6.091  0.00  0.00    -0.276 OA
ATOM     47  N   LIG d   1       7.233   1.380  -5.026  0.00  0.00    -0.315 N 
ATOM     48  H   LIG d   1       6.628   2.005  -4.595  0.00  0.00     0.149 HD
BRANCH  47  49
ATOM     49  C   LIG d   1       6.885  -0.040  -5.102  0.00  0.00     0.019 C 
ATOM     50  H   LIG d   1       5.842  -0.143  -5.399  0.00  0.00     0.047 H 
ATOM     51  H   LIG d   1       7.523  -0.531  -5.838  0.00  0.00     0.047 H 
BRANCH  49  52
ATOM     52  C   LIG d   1       7.093  -0.691  -3.733  0.00  0.00     0.018 C 
ATOM     53  H   LIG d   1       7.883  -0.163  -3.197  0.00  0.00     0.037 H 
ATOM     54  C   LIG d   1       5.791  -0.610  -2.928  0.00  0.00    -0.017 C 
ATOM     55  N   LIG d   1       4.723  -1.333  -3.624  0.00  0.00     0.238 N 
ATOM     56  H   LIG d   1       5.946  -1.048  -1.942  0.00  0.00     0.085 H 
ATOM     57  C   LIG d   1       5.413   0.867  -2.780  0.00  0.00    -0.009 C 
ATOM     58  C   LIG d   1       5.082  -2.752  -3.767  0.00  0.00    -0.032 C 
ATOM     59  C   LIG d   1       3.473  -1.256  -2.854  0.00  0.00    -0.032 C 
ATOM     60  H   LIG d   1       4.582  -0.928  -4.536  0.00  0.00     0.204 HD
ATOM     61  C   LIG d   1       6.346  -2.892  -4.617  0.00  0.00    -0.012 C 
ATOM     62  H   LIG d   1       4.262  -3.285  -4.249  0.00  0.00     0.081 H 
ATOM     63  H   LIG d   1       5.261  -3.181  -2.781  0.00  0.00     0.081 H 
ATOM     64  C   LIG d   1       7.494  -2.155  -3.922  0.00  0.00    -0.039 C 
ATOM     65  H   LIG d   1       6.174  -2.456  -5.600  0.00  0.00     0.032 H 
ATOM     66  H   LIG d   1       6.599  -3.947  -4.723  0.00  0.00     0.032 H 
ATOM     67  H   LIG d   1       8.392  -2.212  -4.536  0.00  0.00     0.027 H 
ATOM     68  H   LIG d   1       7.685  -2.609  -2.949  0.00  0.00     0.027 H 
ATOM     69  C   LIG d   1       3.018   0.194  -2.730  0.00  0.00    -0.012 C 
ATOM     70  H   LIG d   1       2.700  -1.833  -3.362  0.00  0.00     0.081 H 
ATOM     71  H   LIG d   1       3.635  -1.671  -1.859  0.00  0.00     0.081 H 
ATOM     72  C   LIG d   1       4.103   0.991  -1.999  0.00  0.00    -0.043 C 
ATOM     73  H   LIG d   1       2.088   0.238  -2.165  0.00  0.00     0.032 H 
ATOM     74  H   LIG d   1       2.864   0.615  -3.724  0.00  0.00     0.032 H 
ATOM     75  H   LIG d   1       4.238   0.588  -0.994  0.00  0.00     0.027 H 
ATOM     76  H   LIG d   1       3.810   2.039  -1.939  0.00  0.00     0.027 H 
ATOM     77  H   LIG d   1       6.204   1.393  -2.246  0.00  0.00     0.032 H 
ATOM     78  H   LIG d   1       5.287   1.310  -3.769  0.00  0.00     0.032 H 
ENDBRANCH  49  52
ENDBRANCH  47  49
ENDBRANCH  42  45
ENDBRANCH   1  42
TORSDOF 9
ENDMDL
MODEL 3
REMARK VINA RESULT:      -7.2      7.402     11.602
REMARK  9 active torsions:
REMARK  status: ('A' for Active; 'I' for Inactive)
REMARK    1  A    between atoms: C_1  and  C_2 
REMARK    2  A    between atoms: C_6  and  C_36 
REMARK    3  A    between atoms: C_7  and  C_35 
REMARK    4  A    between atoms: C_10  and  C_34 
REMARK    5  A    between atoms: C_15  and  C_16 
REMARK    6  A    between atoms: C_16  and  C_17 
REMARK    7  A    between atoms: C_17  and  C_18 
REMARK       I    between atoms: C_18  and  N_20 
REMARK    8  A    between atoms: N_20  and  C_21 
REMARK    9  A    between atoms: C_21  and  C_22 
ROOT
ATOM      1  C   LIG d   1      10.537   3.053  -4.505  0.00  0.00    -0.012 C 
ATOM      2  H   LIG d   1      10.437   2.394  -5.367  0.00  0.00     0.032 H 
ATOM      3  H   LIG d   1      11.552   2.987  -4.115  0.00  0.00     0.032 H 
ENDROOT
BRANCH   1   4
ATOM      4  C   LIG d   1      10.249   4.472  -4.923  0.00  0.00     0.041 A 
ATOM      5  C   LIG d   1      10.402   5.486  -4.033  0.00  0.00    -0.030 A 
ATOM      6  C   LIG d   1      10.117   6.852  -4.485  0.00  0.00     0.022 A 
ATOM      7  C   LIG d   1       9.693   7.058  -5.814  0.00  0.00     0.146 A 
ATOM      8  C   LIG d   1      10.262   7.935  -3.618  0.00  0.00    -0.039 A 
ATOM      9  C   LIG d   1       9.418   8.340  -6.260  0.00  0.00     0.035 A 
ATOM     10  O   LIG d   1       9.556   6.000  -6.645  0.00  0.00    -0.422 OA
ATOM     11  C   LIG d   1       9.561   9.421  -5.403  0.00  0.00     0.142 A 
ATOM     12  C   LIG d   1       9.985   9.213  -4.077  0.00  0.00     0.029 A 
ATOM     13  O   LIG d   1       9.370  10.748  -5.562  0.00  0.00    -0.459 OA
ATOM     14  C   LIG d   1      10.027  10.555  -3.461  0.00  0.00     0.031 A 
ATOM     15  C   LIG d   1       9.640  11.417  -4.428  0.00  0.00     0.111 A 
ATOM     16  C   LIG d   1       9.815   4.749  -6.236  0.00  0.00     0.341 A 
ATOM     17  O   LIG d   1       9.678   3.829  -7.021  0.00  0.00    -0.245 OA
ATOM     18  H   LIG d   1      10.588   7.780  -2.599  0.00  0.00     0.063 H 
BRANCH   5  19
ATOM     19  C   LIG d   1      10.859   5.217  -2.623  0.00  0.00    -0.039 C 
ATOM     20  H   LIG d   1      10.581   4.201  -2.339  0.00  0.00     0.028 H 
ATOM     21  H   LIG d   1      11.942   5.327  -2.564  0.00  0.00     0.028 H 
ATOM     22  H   LIG d   1      10.384   5.926  -1.945  0.00  0.00     0.028 H 
ENDBRANCH   5  19
BRANCH   9  23
ATOM     23  C   LIG d   1       8.964   8.559  -7.680  0.00  0.00    -0.033 C 
ATOM     24  H   LIG d   1       8.348   7.719  -8.000  0.00  0.00     0.028 H 
ATOM     25  H   LIG d   1       8.382   9.479  -7.737  0.00  0.00     0.028 H 
ATOM     26  H   LIG d   1       9.835   8.639  -8.331  0.00  0.00     0.028 H 
ENDBRANCH   9  23
BRANCH  14  27
ATOM     27  C   LIG d   1      10.412  10.888  -2.069  0.00  0.00    -0.014 A 
ATOM     28  C   LIG d   1      11.601  11.568  -1.816  0.00  0.00    -0.054 A 
ATOM     29  C   LIG d   1      11.952  11.881  -0.519  0.00  0.00    -0.061 A 
ATOM     30  H   LIG d   1      12.246  11.854  -2.635  0.00  0.00     0.062 H 
ATOM     31  C   LIG d   1      11.130  11.511   0.531  0.00  0.00    -0.062 A 
ATOM     32  H   LIG d   1      12.872  12.413  -0.322  0.00  0.00     0.062 H 
ATOM     33  C   LIG d   1       9.952  10.830   0.286  0.00  0.00    -0.061 A 
ATOM     34  H   LIG d   1      11.411  11.753   1.545  0.00  0.00     0.062 H 
ATOM     35  C   LIG d   1       9.588  10.516  -1.008  0.00  0.00    -0.054 A 
ATOM     36  H   LIG d   1       9.314  10.543   1.109  0.00  0.00     0.062 H 
ATOM     37  H   LIG d   1       8.667   9.986  -1.197  0.00  0.00     0.062 H 
ENDBRANCH  14  27
BRANCH  15  38
ATOM     38  C   LIG d   1       9.529  12.910  -4.260  0.00  0.00    -0.006 C 
ATOM     39  H   LIG d   1      10.303  13.401  -4.851  0.00  0.00     0.031 H 
ATOM     40  H   LIG d   1       8.548  13.242  -4.599  0.00  0.00     0.031 H 
ATOM     41  H   LIG d   1       9.658  13.168  -3.209  0.00  0.00     0.031 H 
ENDBRANCH  15  38
ENDBRANCH   1   4
BRANCH   1  42
ATOM     42  C   LIG d   1       9.544   2.629  -3.421  0.00  0.00     0.028 C 
ATOM     43  H   LIG d   1      10.063   2.045  -2.661  0.00  0.00     0.036 H 
ATOM     44  H   LIG d   1       9.107   3.515  -2.962  0.00  0.00     0.036 H 
BRANCH  42  45
ATOM     45  C   LIG d   1       8.453   1.792  -4.039  0.00  0.00     0.213 C 
ATOM     46  O   LIG d   1       7.610   2.315  -4.736  0.00  0.00    -0.276 OA
ATOM     47  N   LIG d   1       8.415   0.464  -3.817  0.00  0.00    -0.315 N 
ATOM     48  H   LIG d   1       9.090   0.046  -3.260  0.00  0.00     0.149 HD
BRANCH  47  49
ATOM     49  C   LIG d   1       7.355  -0.349  -4.417  0.00  0.00     0.019 C 
ATOM     50  H   LIG d   1       6.542   0.299  -4.746  0.00  0.00     0.047 H 
ATOM     51  H   LIG d   1       7.755  -0.893  -5.274  0.00  0.00     0.047 H 
BRANCH  49  52
ATOM     52  C   LIG d   1       6.827  -1.345  -3.382  0.00  0.00     0.018 C 
ATOM     53  H   LIG d   1       7.451  -1.303  -2.489  0.00  0.00     0.037 H 
ATOM     54  C   LIG d   1       5.384  -0.982  -3.015  0.00  0.00    -0.017 C 
ATOM     55  N   LIG d   1       4.529  -1.055  -4.201  0.00  0.00     0.238 N 
ATOM     56  H   LIG d   1       5.018  -1.673  -2.257  0.00  0.00     0.085 H 
ATOM     57  C   LIG d   1       5.380   0.444  -2.454  0.00  0.00    -0.009 C 
ATOM     58  C   LIG d   1       4.529  -2.423  -4.742  0.00  0.00    -0.032 C 
ATOM     59  C   LIG d   1       3.144  -0.706  -3.851  0.00  0.00    -0.032 C 
ATOM     60  H   LIG d   1       4.870  -0.416  -4.902  0.00  0.00     0.204 HD
ATOM     61  C   LIG d   1       5.940  -2.814  -5.183  0.00  0.00    -0.012 C 
ATOM     62  H   LIG d   1       3.857  -2.473  -5.599  0.00  0.00     0.081 H 
ATOM     63  H   LIG d   1       4.186  -3.116  -3.974  0.00  0.00     0.081 H 
ATOM     64  C   LIG d   1       6.871  -2.758  -3.968  0.00  0.00    -0.039 C 
ATOM     65  H   LIG d   1       6.291  -2.118  -5.944  0.00  0.00     0.032 H 
ATOM     66  H   LIG d   1       5.929  -3.826  -5.588  0.00  0.00     0.032 H 
ATOM     67  H   LIG d   1       7.890  -2.995  -4.274  0.00  0.00     0.027 H 
ATOM     68  H   LIG d   1       6.537  -3.475  -3.217  0.00  0.00     0.027 H 
ATOM     69  C   LIG d   1       3.075   0.730  -3.344  0.00  0.00    -0.012 C 
ATOM     70  H   LIG d   1       2.512  -0.806  -4.734  0.00  0.00     0.081 H 
ATOM     71  H   LIG d   1       2.786  -1.382  -3.075  0.00  0.00     0.081 H 
ATOM     72  C   LIG d   1       3.951   0.854  -2.093  0.00  0.00    -0.043 C 
ATOM     73  H   LIG d   1       2.044   0.981  -3.094  0.00  0.00     0.032 H 
ATOM     74  H   LIG d   1       3.441   1.408  -4.115  0.00  0.00     0.032 H 
ATOM     75  H   LIG d   1       3.568   0.197  -1.312  0.00  0.00     0.027 H 
ATOM     76  H   LIG d   1       3.945   1.887  -1.743  0.00  0.00     0.027 H 
ATOM     77  H   LIG d   1       6.005   0.485  -1.561  0.00  0.00     0.032 H 
ATOM     78  H   LIG d   1       5.775   1.130  -3.204  0.00  0.00     0.032 H 
ENDBRANCH  49  52
ENDBRANCH  47  49
ENDBRANCH  42  45
ENDBRANCH   1  42
TORSDOF 9
ENDMDL
MODEL 4
REMARK VINA RESULT:      -7.2      7.154     11.380
REMARK  9 active torsions:
REMARK  status: ('A' for Active; 'I' for Inactive)
REMARK    1  A    between atoms: C_1  and  C_2 
REMARK    2  A    between atoms: C_6  and  C_36 
REMARK    3  A    between atoms: C_7  and  C_35 
REMARK    4  A    between atoms: C_10  and  C_34 
REMARK    5  A    between atoms: C_15  and  C_16 
REMARK    6  A    between atoms: C_16  and  C_17 
REMARK    7  A    between atoms: C_17  and  C_18 
REMARK       I    between atoms: C_18  and  N_20 
REMARK    8  A    between atoms: N_20  and  C_21 
REMARK    9  A    between atoms: C_21  and  C_22 
ROOT
ATOM      1  C   LIG d   1      10.116   3.195  -5.104  0.00  0.00    -0.012 C 
ATOM      2  H   LIG d   1      10.636   3.632  -5.957  0.00  0.00     0.032 H 
ATOM      3  H   LIG d   1      10.526   2.207  -4.898  0.00  0.00     0.032 H 
ENDROOT
BRANCH   1   4
ATOM      4  C   LIG d   1      10.300   4.078  -3.898  0.00  0.00     0.041 A 
ATOM      5  C   LIG d   1      10.180   5.425  -4.017  0.00  0.00    -0.030 A 
ATOM      6  C   LIG d   1      10.361   6.246  -2.815  0.00  0.00     0.022 A 
ATOM      7  C   LIG d   1      10.654   5.611  -1.591  0.00  0.00     0.146 A 
ATOM      8  C   LIG d   1      10.244   7.635  -2.875  0.00  0.00    -0.039 A 
ATOM      9  C   LIG d   1      10.828   6.367  -0.444  0.00  0.00     0.035 A 
ATOM     10  O   LIG d   1      10.764   4.264  -1.545  0.00  0.00    -0.422 OA
ATOM     11  C   LIG d   1      10.713   7.749  -0.498  0.00  0.00     0.142 A 
ATOM     12  C   LIG d   1      10.419   8.381  -1.721  0.00  0.00     0.029 A 
ATOM     13  O   LIG d   1      10.827   8.714   0.439  0.00  0.00    -0.459 OA
ATOM     14  C   LIG d   1      10.372   9.825  -1.416  0.00  0.00     0.031 A 
ATOM     15  C   LIG d   1      10.629   9.932  -0.093  0.00  0.00     0.111 A 
ATOM     16  C   LIG d   1      10.600   3.509  -2.642  0.00  0.00     0.341 A 
ATOM     17  O   LIG d   1      10.709   2.300  -2.551  0.00  0.00    -0.245 OA
ATOM     18  H   LIG d   1      10.019   8.124  -3.812  0.00  0.00     0.063 H 
BRANCH   5  19
ATOM     19  C   LIG d   1       9.866   6.060  -5.348  0.00  0.00    -0.039 C 
ATOM     20  H   LIG d   1      10.424   5.551  -6.133  0.00  0.00     0.028 H 
ATOM     21  H   LIG d   1       8.797   5.973  -5.547  0.00  0.00     0.028 H 
ATOM     22  H   LIG d   1      10.148   7.112  -5.324  0.00  0.00     0.028 H 
ENDBRANCH   5  19
BRANCH   9  23
ATOM     23  C   LIG d   1      11.141   5.687   0.863  0.00  0.00    -0.033 C 
ATOM     24  H   LIG d   1      11.677   4.757   0.671  0.00  0.00     0.028 H 
ATOM     25  H   LIG d   1      11.761   6.343   1.474  0.00  0.00     0.028 H 
ATOM     26  H   LIG d   1      10.212   5.469   1.391  0.00  0.00     0.028 H 
ENDBRANCH   9  23
BRANCH  14  27
ATOM     27  C   LIG d   1      10.098  10.930  -2.366  0.00  0.00    -0.014 A 
ATOM     28  C   LIG d   1      11.145  11.531  -3.061  0.00  0.00    -0.054 A 
ATOM     29  C   LIG d   1      10.883  12.555  -3.948  0.00  0.00    -0.061 A 
ATOM     30  H   LIG d   1      12.160  11.192  -2.909  0.00  0.00     0.062 H 
ATOM     31  C   LIG d   1       9.585  12.993  -4.139  0.00  0.00    -0.062 A 
ATOM     32  H   LIG d   1      11.695  13.018  -4.491  0.00  0.00     0.062 H 
ATOM     33  C   LIG d   1       8.543  12.405  -3.447  0.00  0.00    -0.061 A 
ATOM     34  H   LIG d   1       9.386  13.798  -4.831  0.00  0.00     0.062 H 
ATOM     35  C   LIG d   1       8.791  11.376  -2.562  0.00  0.00    -0.054 A 
ATOM     36  H   LIG d   1       7.531  12.751  -3.600  0.00  0.00     0.062 H 
ATOM     37  H   LIG d   1       7.976  10.917  -2.023  0.00  0.00     0.062 H 
ENDBRANCH  14  27
BRANCH  15  38
ATOM     38  C   LIG d   1      10.685  11.228   0.673  0.00  0.00    -0.006 C 
ATOM     39  H   LIG d   1      11.440  11.155   1.456  0.00  0.00     0.031 H 
ATOM     40  H   LIG d   1      10.943  12.041  -0.006  0.00  0.00     0.031 H 
ATOM     41  H   LIG d   1       9.713  11.426   1.125  0.00  0.00     0.031 H 
ENDBRANCH  15  38
ENDBRANCH   1   4
BRANCH   1  42
ATOM     42  C   LIG d   1       8.625   3.072  -5.424  0.00  0.00     0.028 C 
ATOM     43  H   LIG d   1       8.097   3.942  -5.031  0.00  0.00     0.036 H 
ATOM     44  H   LIG d   1       8.487   3.020  -6.503  0.00  0.00     0.036 H 
BRANCH  42  45
ATOM     45  C   LIG d   1       8.076   1.821  -4.786  0.00  0.00     0.213 C 
ATOM     46  O   LIG d   1       8.636   0.759  -4.955  0.00  0.00    -0.276 OA
ATOM     47  N   LIG d   1       6.962   1.883  -4.029  0.00  0.00    -0.315 N 
ATOM     48  H   LIG d   1       6.514   2.733  -3.895  0.00  0.00     0.149 HD
BRANCH  47  49
ATOM     49  C   LIG d   1       6.429   0.668  -3.410  0.00  0.00     0.019 C 
ATOM     50  H   LIG d   1       6.973  -0.199  -3.784  0.00  0.00     0.047 H 
ATOM     51  H   LIG d   1       6.544   0.731  -2.328  0.00  0.00     0.047 H 
BRANCH  49  52
ATOM     52  C   LIG d   1       4.945   0.528  -3.757  0.00  0.00     0.018 C 
ATOM     53  H   LIG d   1       4.649   1.344  -4.417  0.00  0.00     0.037 H 
ATOM     54  C   LIG d   1       4.712  -0.811  -4.467  0.00  0.00    -0.017 C 
ATOM     55  N   LIG d   1       5.085  -1.919  -3.586  0.00  0.00     0.238 N 
ATOM     56  H   LIG d   1       3.661  -0.899  -4.740  0.00  0.00     0.085 H 
ATOM     57  C   LIG d   1       5.575  -0.835  -5.733  0.00  0.00    -0.009 C 
ATOM     58  C   LIG d   1       4.259  -1.900  -2.370  0.00  0.00    -0.032 C 
ATOM     59  C   LIG d   1       4.863  -3.204  -4.265  0.00  0.00    -0.032 C 
ATOM     60  H   LIG d   1       6.058  -1.836  -3.333  0.00  0.00     0.204 HD
ATOM     61  C   LIG d   1       4.500  -0.607  -1.589  0.00  0.00    -0.012 C 
ATOM     62  H   LIG d   1       4.518  -2.754  -1.743  0.00  0.00     0.081 H 
ATOM     63  H   LIG d   1       3.206  -1.963  -2.646  0.00  0.00     0.081 H 
ATOM     64  C   LIG d   1       4.115   0.583  -2.473  0.00  0.00    -0.039 C 
ATOM     65  H   LIG d   1       5.553  -0.536  -1.319  0.00  0.00     0.032 H 
ATOM     66  H   LIG d   1       3.888  -0.606  -0.687  0.00  0.00     0.032 H 
ATOM     67  H   LIG d   1       4.321   1.514  -1.945  0.00  0.00     0.027 H 
ATOM     68  H   LIG d   1       3.055   0.527  -2.721  0.00  0.00     0.027 H 
ATOM     69  C   LIG d   1       5.748  -3.306  -5.503  0.00  0.00    -0.012 C 
ATOM     70  H   LIG d   1       5.105  -4.020  -3.583  0.00  0.00     0.081 H 
ATOM     71  H   LIG d   1       3.817  -3.281  -4.561  0.00  0.00     0.081 H 
ATOM     72  C   LIG d   1       5.387  -2.167  -6.462  0.00  0.00    -0.043 C 
ATOM     73  H   LIG d   1       5.582  -4.264  -5.994  0.00  0.00     0.032 H 
ATOM     74  H   LIG d   1       6.796  -3.220  -5.212  0.00  0.00     0.032 H 
ATOM     75  H   LIG d   1       4.348  -2.269  -6.775  0.00  0.00     0.027 H 
ATOM     76  H   LIG d   1       6.041  -2.202  -7.334  0.00  0.00     0.027 H 
ATOM     77  H   LIG d   1       5.278  -0.017  -6.390  0.00  0.00     0.032 H 
ATOM     78  H   LIG d   1       6.624  -0.717  -5.459  0.00  0.00     0.032 H 
ENDBRANCH  49  52
ENDBRANCH  47  49
ENDBRANCH  42  45
ENDBRANCH   1  42
TORSDOF 9
ENDMDL
MODEL 5
REMARK VINA RESULT:      -7.0      3.051      6.647
REMARK  9 active torsions:
REMARK  status: ('A' for Active; 'I' for Inactive)
REMARK    1  A    between atoms: C_1  and  C_2 
REMARK    2  A    between atoms: C_6  and  C_36 
REMARK    3  A    between atoms: C_7  and  C_35 
REMARK    4  A    between atoms: C_10  and  C_34 
REMARK    5  A    between atoms: C_15  and  C_16 
REMARK    6  A    between atoms: C_16  and  C_17 
REMARK    7  A    between atoms: C_17  and  C_18 
REMARK       I    between atoms: C_18  and  N_20 
REMARK    8  A    between atoms: N_20  and  C_21 
REMARK    9  A    between atoms: C_21  and  C_22 
ROOT
ATOM      1  C   LIG d   1      10.322  -4.419  -5.360  0.00  0.00    -0.012 C 
ATOM      2  H   LIG d   1      11.261  -4.562  -5.895  0.00  0.00     0.032 H 
ATOM      3  H   LIG d   1       9.496  -4.428  -6.069  0.00  0.00     0.032 H 
ENDROOT
BRANCH   1   4
ATOM      4  C   LIG d   1      10.140  -5.530  -4.359  0.00  0.00     0.041 A 
ATOM      5  C   LIG d   1       9.085  -6.378  -4.470  0.00  0.00    -0.030 A 
ATOM      6  C   LIG d   1       8.951  -7.450  -3.477  0.00  0.00     0.022 A 
ATOM      7  C   LIG d   1       9.912  -7.555  -2.450  0.00  0.00     0.146 A 
ATOM      8  C   LIG d   1       7.892  -8.355  -3.543  0.00  0.00    -0.039 A 
ATOM      9  C   LIG d   1       9.804  -8.558  -1.503  0.00  0.00     0.035 A 
ATOM     10  O   LIG d   1      10.934  -6.671  -2.397  0.00  0.00    -0.422 OA
ATOM     11  C   LIG d   1       8.752  -9.462  -1.563  0.00  0.00     0.142 A 
ATOM     12  C   LIG d   1       7.794  -9.356  -2.590  0.00  0.00     0.029 A 
ATOM     13  O   LIG d   1       8.405 -10.516  -0.795  0.00  0.00    -0.459 OA
ATOM     14  C   LIG d   1       6.839 -10.457  -2.353  0.00  0.00     0.031 A 
ATOM     15  C   LIG d   1       7.285 -11.102  -1.252  0.00  0.00     0.111 A 
ATOM     16  C   LIG d   1      11.061  -5.690  -3.302  0.00  0.00     0.341 A 
ATOM     17  O   LIG d   1      11.999  -4.919  -3.213  0.00  0.00    -0.245 OA
ATOM     18  H   LIG d   1       7.154  -8.277  -4.329  0.00  0.00     0.063 H 
BRANCH   5  19
ATOM     19  C   LIG d   1       8.084  -6.226  -5.585  0.00  0.00    -0.039 C 
ATOM     20  H   LIG d   1       8.070  -7.135  -6.187  0.00  0.00     0.028 H 
ATOM     21  H   LIG d   1       7.093  -6.056  -5.162  0.00  0.00     0.028 H 
ATOM     22  H   LIG d   1       8.363  -5.379  -6.211  0.00  0.00     0.028 H 
ENDBRANCH   5  19
BRANCH   9  23
ATOM     23  C   LIG d   1      10.830  -8.670  -0.406  0.00  0.00    -0.033 C 
ATOM     24  H   LIG d   1      10.362  -9.077   0.491  0.00  0.00     0.028 H 
ATOM     25  H   LIG d   1      11.635  -9.331  -0.727  0.00  0.00     0.028 H 
ATOM     26  H   LIG d   1      11.236  -7.683  -0.186  0.00  0.00     0.028 H 
ENDBRANCH   9  23
BRANCH  14  27
ATOM     27  C   LIG d   1       5.638 -10.786  -3.156  0.00  0.00    -0.014 A 
ATOM     28  C   LIG d   1       5.759 -11.548  -4.316  0.00  0.00    -0.054 A 
ATOM     29  C   LIG d   1       4.636 -11.857  -5.056  0.00  0.00    -0.061 A 
ATOM     30  H   LIG d   1       6.730 -11.902  -4.633  0.00  0.00     0.062 H 
ATOM     31  C   LIG d   1       3.393 -11.401  -4.655  0.00  0.00    -0.062 A 
ATOM     32  H   LIG d   1       4.729 -12.452  -5.953  0.00  0.00     0.062 H 
ATOM     33  C   LIG d   1       3.268 -10.638  -3.509  0.00  0.00    -0.061 A 
ATOM     34  H   LIG d   1       2.518 -11.641  -5.241  0.00  0.00     0.062 H 
ATOM     35  C   LIG d   1       4.383 -10.328  -2.757  0.00  0.00    -0.054 A 
ATOM     36  H   LIG d   1       2.295 -10.284  -3.200  0.00  0.00     0.062 H 
ATOM     37  H   LIG d   1       4.283  -9.734  -1.861  0.00  0.00     0.062 H 
ENDBRANCH  14  27
BRANCH  15  38
ATOM     38  C   LIG d   1       6.624 -12.304  -0.628  0.00  0.00    -0.006 C 
ATOM     39  H   LIG d   1       7.044 -12.477   0.363  0.00  0.00     0.031 H 
ATOM     40  H   LIG d   1       5.552 -12.125  -0.542  0.00  0.00     0.031 H 
ATOM     41  H   LIG d   1       6.797 -13.179  -1.253  0.00  0.00     0.031 H 
ENDBRANCH  15  38
ENDBRANCH   1   4
BRANCH   1  42
ATOM     42  C   LIG d   1      10.352  -3.075  -4.629  0.00  0.00     0.028 C 
ATOM     43  H   LIG d   1      10.463  -3.246  -3.558  0.00  0.00     0.036 H 
ATOM     44  H   LIG d   1      11.192  -2.483  -4.991  0.00  0.00     0.036 H 
BRANCH  42  45
ATOM     45  C   LIG d   1       9.065  -2.334  -4.888  0.00  0.00     0.213 C 
ATOM     46  O   LIG d   1       8.695  -2.142  -6.027  0.00  0.00    -0.276 OA
ATOM     47  N   LIG d   1       8.327  -1.883  -3.854  0.00  0.00    -0.315 N 
ATOM     48  H   LIG d   1       8.624  -2.036  -2.943  0.00  0.00     0.149 HD
BRANCH  47  49
ATOM     49  C   LIG d   1       7.077  -1.162  -4.106  0.00  0.00     0.019 C 
ATOM     50  H   LIG d   1       7.108  -0.196  -3.603  0.00  0.00     0.047 H 
ATOM     51  H   LIG d   1       6.955  -1.010  -5.178  0.00  0.00     0.047 H 
BRANCH  49  52
ATOM     52  C   LIG d   1       5.900  -1.979  -3.569  0.00  0.00     0.018 C 
ATOM     53  H   LIG d   1       6.209  -2.510  -2.668  0.00  0.00     0.037 H 
ATOM     54  C   LIG d   1       4.737  -1.039  -3.234  0.00  0.00    -0.017 C 
ATOM     55  N   LIG d   1       4.296  -0.334  -4.439  0.00  0.00     0.238 N 
ATOM     56  H   LIG d   1       3.909  -1.617  -2.825  0.00  0.00     0.085 H 
ATOM     57  C   LIG d   1       5.226  -0.031  -2.188  0.00  0.00    -0.009 C 
ATOM     58  C   LIG d   1       3.826  -1.297  -5.446  0.00  0.00    -0.032 C 
ATOM     59  C   LIG d   1       3.181   0.570  -4.119  0.00  0.00    -0.032 C 
ATOM     60  H   LIG d   1       5.064   0.200  -4.818  0.00  0.00     0.204 HD
ATOM     61  C   LIG d   1       4.968  -2.224  -5.862  0.00  0.00    -0.012 C 
ATOM     62  H   LIG d   1       3.462  -0.757  -6.320  0.00  0.00     0.081 H 
ATOM     63  H   LIG d   1       3.013  -1.891  -5.026  0.00  0.00     0.081 H 
ATOM     64  C   LIG d   1       5.458  -2.990  -4.629  0.00  0.00    -0.039 C 
ATOM     65  H   LIG d   1       5.785  -1.634  -6.274  0.00  0.00     0.032 H 
ATOM     66  H   LIG d   1       4.610  -2.930  -6.612  0.00  0.00     0.032 H 
ATOM     67  H   LIG d   1       6.300  -3.625  -4.902  0.00  0.00     0.027 H 
ATOM     68  H   LIG d   1       4.648  -3.603  -4.233  0.00  0.00     0.027 H 
ATOM     69  C   LIG d   1       3.634   1.634  -3.126  0.00  0.00    -0.012 C 
ATOM     70  H   LIG d   1       2.836   1.056  -5.033  0.00  0.00     0.081 H 
ATOM     71  H   LIG d   1       2.363  -0.004  -3.687  0.00  0.00     0.081 H 
ATOM     72  C   LIG d   1       4.099   0.942  -1.840  0.00  0.00    -0.043 C 
ATOM     73  H   LIG d   1       2.803   2.302  -2.902  0.00  0.00     0.032 H 
ATOM     74  H   LIG d   1       4.460   2.205  -3.551  0.00  0.00     0.032 H 
ATOM     75  H   LIG d   1       3.266   0.394  -1.398  0.00  0.00     0.027 H 
ATOM     76  H   LIG d   1       4.464   1.688  -1.134  0.00  0.00     0.027 H 
ATOM     77  H   LIG d   1       5.536  -0.564  -1.288  0.00  0.00     0.032 H 
ATOM     78  H   LIG d   1       6.074   0.525  -2.588  0.00  0.00     0.032 H 
ENDBRANCH  49  52
ENDBRANCH  47  49
ENDBRANCH  42  45
ENDBRANCH   1  42
TORSDOF 9
ENDMDL
MODEL 6
REMARK VINA RESULT:      -6.7      7.019     11.268
REMARK  9 active torsions:
REMARK  status: ('A' for Active; 'I' for Inactive)
REMARK    1  A    between atoms: C_1  and  C_2 
REMARK    2  A    between atoms: C_6  and  C_36 
REMARK    3  A    between atoms: C_7  and  C_35 
REMARK    4  A    between atoms: C_10  and  C_34 
REMARK    5  A    between atoms: C_15  and  C_16 
REMARK    6  A    between atoms: C_16  and  C_17 
REMARK    7  A    between atoms: C_17  and  C_18 
REMARK       I    between atoms: C_18  and  N_20 
REMARK    8  A    between atoms: N_20  and  C_21 
REMARK    9  A    between atoms: C_21  and  C_22 
ROOT
ATOM      1  C   LIG d   1       9.799   2.673  -6.731  0.00  0.00    -0.012 C 
ATOM      2  H   LIG d   1      10.560   2.858  -7.490  0.00  0.00     0.032 H 
ATOM      3  H   LIG d   1       9.974   1.702  -6.271  0.00  0.00     0.032 H 
ENDROOT
BRANCH   1   4
ATOM      4  C   LIG d   1       9.870   3.749  -5.679  0.00  0.00     0.041 A 
ATOM      5  C   LIG d   1      10.026   5.047  -6.043  0.00  0.00    -0.030 A 
ATOM      6  C   LIG d   1      10.082   6.062  -4.985  0.00  0.00     0.022 A 
ATOM      7  C   LIG d   1       9.978   5.653  -3.640  0.00  0.00     0.146 A 
ATOM      8  C   LIG d   1      10.236   7.412  -5.299  0.00  0.00    -0.039 A 
ATOM      9  C   LIG d   1      10.029   6.594  -2.626  0.00  0.00     0.035 A 
ATOM     10  O   LIG d   1       9.829   4.341  -3.348  0.00  0.00    -0.422 OA
ATOM     11  C   LIG d   1      10.181   7.939  -2.932  0.00  0.00     0.142 A 
ATOM     12  C   LIG d   1      10.284   8.346  -4.276  0.00  0.00     0.029 A 
ATOM     13  O   LIG d   1      10.259   9.049  -2.168  0.00  0.00    -0.459 OA
ATOM     14  C   LIG d   1      10.433   9.814  -4.233  0.00  0.00     0.031 A 
ATOM     15  C   LIG d   1      10.407  10.150  -2.924  0.00  0.00     0.111 A 
ATOM     16  C   LIG d   1       9.778   3.410  -4.312  0.00  0.00     0.341 A 
ATOM     17  O   LIG d   1       9.642   2.241  -4.000  0.00  0.00    -0.245 OA
ATOM     18  H   LIG d   1      10.315   7.728  -6.329  0.00  0.00     0.063 H 
BRANCH   5  19
ATOM     19  C   LIG d   1      10.132   5.436  -7.495  0.00  0.00    -0.039 C 
ATOM     20  H   LIG d   1       9.467   4.809  -8.089  0.00  0.00     0.028 H 
ATOM     21  H   LIG d   1       9.846   6.482  -7.613  0.00  0.00     0.028 H 
ATOM     22  H   LIG d   1      11.160   5.300  -7.833  0.00  0.00     0.028 H 
ENDBRANCH   5  19
BRANCH   9  23
ATOM     23  C   LIG d   1       9.918   6.157  -1.188  0.00  0.00    -0.033 C 
ATOM     24  H   LIG d   1      10.629   6.718  -0.581  0.00  0.00     0.028 H 
ATOM     25  H   LIG d   1       8.906   6.344  -0.829  0.00  0.00     0.028 H 
ATOM     26  H   LIG d   1      10.139   5.092  -1.114  0.00  0.00     0.028 H 
ENDBRANCH   9  23
BRANCH  14  27
ATOM     27  C   LIG d   1      10.580  10.731  -5.389  0.00  0.00    -0.014 A 
ATOM     28  C   LIG d   1       9.543  11.595  -5.732  0.00  0.00    -0.054 A 
ATOM     29  C   LIG d   1       9.689  12.451  -6.805  0.00  0.00    -0.061 A 
ATOM     30  H   LIG d   1       8.628  11.599  -5.158  0.00  0.00     0.062 H 
ATOM     31  C   LIG d   1      10.857  12.444  -7.546  0.00  0.00    -0.062 A 
ATOM     32  H   LIG d   1       8.887  13.125  -7.070  0.00  0.00     0.062 H 
ATOM     33  C   LIG d   1      11.887  11.583  -7.213  0.00  0.00    -0.061 A 
ATOM     34  H   LIG d   1      10.965  13.112  -8.387  0.00  0.00     0.062 H 
ATOM     35  C   LIG d   1      11.756  10.727  -6.139  0.00  0.00    -0.054 A 
ATOM     36  H   LIG d   1      12.797  11.582  -7.795  0.00  0.00     0.062 H 
ATOM     37  H   LIG d   1      12.562  10.057  -5.879  0.00  0.00     0.062 H 
ENDBRANCH  14  27
BRANCH  15  38
ATOM     38  C   LIG d   1      10.527  11.554  -2.391  0.00  0.00    -0.006 C 
ATOM     39  H   LIG d   1      11.575  11.858  -2.397  0.00  0.00     0.031 H 
ATOM     40  H   LIG d   1       9.948  12.232  -3.018  0.00  0.00     0.031 H 
ATOM     41  H   LIG d   1      10.146  11.588  -1.370  0.00  0.00     0.031 H 
ENDBRANCH  15  38
ENDBRANCH   1   4
BRANCH   1  42
ATOM     42  C   LIG d   1       8.415   2.688  -7.383  0.00  0.00     0.028 C 
ATOM     43  H   LIG d   1       7.848   3.542  -7.012  0.00  0.00     0.036 H 
ATOM     44  H   LIG d   1       8.523   2.765  -8.464  0.00  0.00     0.036 H 
BRANCH  42  45
ATOM     45  C   LIG d   1       7.686   1.414  -7.040  0.00  0.00     0.213 C 
ATOM     46  O   LIG d   1       7.449   0.599  -7.907  0.00  0.00    -0.276 OA
ATOM     47  N   LIG d   1       7.295   1.181  -5.771  0.00  0.00    -0.315 N 
ATOM     48  H   LIG d   1       7.484   1.834  -5.079  0.00  0.00     0.149 HD
BRANCH  47  49
ATOM     49  C   LIG d   1       6.586  -0.056  -5.438  0.00  0.00     0.019 C 
ATOM     50  H   LIG d   1       5.514   0.140  -5.397  0.00  0.00     0.047 H 
ATOM     51  H   LIG d   1       6.789  -0.808  -6.201  0.00  0.00     0.047 H 
BRANCH  49  52
ATOM     52  C   LIG d   1       7.063  -0.567  -4.078  0.00  0.00     0.018 C 
ATOM     53  H   LIG d   1       7.896   0.046  -3.732  0.00  0.00     0.037 H 
ATOM     54  C   LIG d   1       5.913  -0.479  -3.068  0.00  0.00    -0.017 C 
ATOM     55  N   LIG d   1       4.793  -1.315  -3.506  0.00  0.00     0.238 N 
ATOM     56  H   LIG d   1       6.261  -0.817  -2.092  0.00  0.00     0.085 H 
ATOM     57  C   LIG d   1       5.470   0.984  -2.977  0.00  0.00    -0.009 C 
ATOM     58  C   LIG d   1       5.214  -2.721  -3.594  0.00  0.00    -0.032 C 
ATOM     59  C   LIG d   1       3.689  -1.232  -2.539  0.00  0.00    -0.032 C 
ATOM     60  H   LIG d   1       4.474  -1.003  -4.410  0.00  0.00     0.204 HD
ATOM     61  C   LIG d   1       6.323  -2.875  -4.636  0.00  0.00    -0.012 C 
ATOM     62  H   LIG d   1       4.361  -3.337  -3.880  0.00  0.00     0.081 H 
ATOM     63  H   LIG d   1       5.585  -3.050  -2.623  0.00  0.00     0.081 H 
ATOM     64  C   LIG d   1       7.521  -2.021  -4.214  0.00  0.00    -0.039 C 
ATOM     65  H   LIG d   1       5.959  -2.540  -5.607  0.00  0.00     0.032 H 
ATOM     66  H   LIG d   1       6.623  -3.921  -4.698  0.00  0.00     0.032 H 
ATOM     67  H   LIG d   1       8.305  -2.088  -4.968  0.00  0.00     0.027 H 
ATOM     68  H   LIG d   1       7.903  -2.374  -3.255  0.00  0.00     0.027 H 
ATOM     69  C   LIG d   1       3.168   0.199  -2.457  0.00  0.00    -0.012 C 
ATOM     70  H   LIG d   1       2.880  -1.890  -2.857  0.00  0.00     0.081 H 
ATOM     71  H   LIG d   1       4.043  -1.545  -1.558  0.00  0.00     0.081 H 
ATOM     72  C   LIG d   1       4.306   1.113  -1.992  0.00  0.00    -0.043 C 
ATOM     73  H   LIG d   1       2.345   0.248  -1.744  0.00  0.00     0.032 H 
ATOM     74  H   LIG d   1       2.821   0.519  -3.440  0.00  0.00     0.032 H 
ATOM     75  H   LIG d   1       4.635   0.811  -0.997  0.00  0.00     0.027 H 
ATOM     76  H   LIG d   1       3.960   2.146  -1.968  0.00  0.00     0.027 H 
ATOM     77  H   LIG d   1       6.305   1.596  -2.633  0.00  0.00     0.032 H 
ATOM     78  H   LIG d   1       5.151   1.328  -3.961  0.00  0.00     0.032 H 
ENDBRANCH  49  52
ENDBRANCH  47  49
ENDBRANCH  42  45
ENDBRANCH   1  42
TORSDOF 9
ENDMDL
MODEL 7
REMARK VINA RESULT:      -6.6      2.786      6.182
REMARK  9 active torsions:
REMARK  status: ('A' for Active; 'I' for Inactive)
REMARK    1  A    between atoms: C_1  and  C_2 
REMARK    2  A    between atoms: C_6  and  C_36 
REMARK    3  A    between atoms: C_7  and  C_35 
REMARK    4  A    between atoms: C_10  and  C_34 
REMARK    5  A    between atoms: C_15  and  C_16 
REMARK    6  A    between atoms: C_16  and  C_17 
REMARK    7  A    between atoms: C_17  and  C_18 
REMARK       I    between atoms: C_18  and  N_20 
REMARK    8  A    between atoms: N_20  and  C_21 
REMARK    9  A    between atoms: C_21  and  C_22 
ROOT
ATOM      1  C   LIG d   1       3.105  -0.251 -10.093  0.00  0.00    -0.012 C 
ATOM      2  H   LIG d   1       4.152   0.011  -9.943  0.00  0.00     0.032 H 
ATOM      3  H   LIG d   1       2.791   0.064 -11.087  0.00  0.00     0.032 H 
ENDROOT
BRANCH   1   4
ATOM      4  C   LIG d   1       2.938  -1.743  -9.961  0.00  0.00     0.041 A 
ATOM      5  C   LIG d   1       3.876  -2.477  -9.309  0.00  0.00    -0.030 A 
ATOM      6  C   LIG d   1       3.669  -3.925  -9.199  0.00  0.00     0.022 A 
ATOM      7  C   LIG d   1       2.515  -4.497  -9.773  0.00  0.00     0.146 A 
ATOM      8  C   LIG d   1       4.596  -4.730  -8.536  0.00  0.00    -0.039 A 
ATOM      9  C   LIG d   1       2.300  -5.861  -9.681  0.00  0.00     0.035 A 
ATOM     10  O   LIG d   1       1.624  -3.706 -10.413  0.00  0.00    -0.422 OA
ATOM     11  C   LIG d   1       3.218  -6.667  -9.022  0.00  0.00     0.142 A 
ATOM     12  C   LIG d   1       4.370  -6.094  -8.449  0.00  0.00     0.029 A 
ATOM     13  O   LIG d   1       3.266  -7.994  -8.782  0.00  0.00    -0.459 OA
ATOM     14  C   LIG d   1       5.109  -7.219  -7.843  0.00  0.00     0.031 A 
ATOM     15  C   LIG d   1       4.371  -8.324  -8.092  0.00  0.00     0.111 A 
ATOM     16  C   LIG d   1       1.809  -2.381 -10.517  0.00  0.00     0.341 A 
ATOM     17  O   LIG d   1       0.978  -1.711 -11.102  0.00  0.00    -0.245 OA
ATOM     18  H   LIG d   1       5.481  -4.294  -8.095  0.00  0.00     0.063 H 
BRANCH   5  19
ATOM     19  C   LIG d   1       5.094  -1.821  -8.711  0.00  0.00    -0.039 C 
ATOM     20  H   LIG d   1       5.806  -2.588  -8.407  0.00  0.00     0.028 H 
ATOM     21  H   LIG d   1       5.557  -1.170  -9.453  0.00  0.00     0.028 H 
ATOM     22  H   LIG d   1       4.800  -1.232  -7.843  0.00  0.00     0.028 H 
ENDBRANCH   5  19
BRANCH   9  23
ATOM     23  C   LIG d   1       1.067  -6.471 -10.294  0.00  0.00    -0.033 C 
ATOM     24  H   LIG d   1       0.182  -6.102  -9.776  0.00  0.00     0.028 H 
ATOM     25  H   LIG d   1       1.011  -6.196 -11.347  0.00  0.00     0.028 H 
ATOM     26  H   LIG d   1       1.115  -7.556 -10.203  0.00  0.00     0.028 H 
ENDBRANCH   9  23
BRANCH  14  27
ATOM     27  C   LIG d   1       6.397  -7.152  -7.111  0.00  0.00    -0.014 A 
ATOM     28  C   LIG d   1       6.409  -7.122  -5.718  0.00  0.00    -0.054 A 
ATOM     29  C   LIG d   1       7.611  -7.066  -5.042  0.00  0.00    -0.061 A 
ATOM     30  H   LIG d   1       5.479  -7.149  -5.167  0.00  0.00     0.062 H 
ATOM     31  C   LIG d   1       8.802  -7.026  -5.745  0.00  0.00    -0.062 A 
ATOM     32  H   LIG d   1       7.622  -7.048  -3.962  0.00  0.00     0.062 H 
ATOM     33  C   LIG d   1       8.795  -7.049  -7.128  0.00  0.00    -0.061 A 
ATOM     34  H   LIG d   1       9.739  -6.977  -5.212  0.00  0.00     0.062 H 
ATOM     35  C   LIG d   1       7.600  -7.111  -7.815  0.00  0.00    -0.054 A 
ATOM     36  H   LIG d   1       9.728  -7.018  -7.672  0.00  0.00     0.062 H 
ATOM     37  H   LIG d   1       7.596  -7.130  -8.894  0.00  0.00     0.062 H 
ENDBRANCH  14  27
BRANCH  15  38
ATOM     38  C   LIG d   1       4.734  -9.721  -7.660  0.00  0.00    -0.006 C 
ATOM     39  H   LIG d   1       5.706  -9.989  -8.076  0.00  0.00     0.031 H 
ATOM     40  H   LIG d   1       4.779  -9.765  -6.572  0.00  0.00     0.031 H 
ATOM     41  H   LIG d   1       3.980 -10.420  -8.022  0.00  0.00     0.031 H 
ENDBRANCH  15  38
ENDBRANCH   1   4
BRANCH   1  42
ATOM     42  C   LIG d   1       2.247   0.452  -9.039  0.00  0.00     0.028 C 
ATOM     43  H   LIG d   1       1.950   1.433  -9.409  0.00  0.00     0.036 H 
ATOM     44  H   LIG d   1       1.359  -0.144  -8.835  0.00  0.00     0.036 H 
BRANCH  42  45
ATOM     45  C   LIG d   1       3.045   0.616  -7.770  0.00  0.00     0.213 C 
ATOM     46  O   LIG d   1       3.970   1.398  -7.732  0.00  0.00    -0.276 OA
ATOM     47  N   LIG d   1       2.730  -0.109  -6.678  0.00  0.00    -0.315 N 
ATOM     48  H   LIG d   1       1.989  -0.735  -6.709  0.00  0.00     0.149 HD
BRANCH  47  49
ATOM     49  C   LIG d   1       3.504   0.049  -5.445  0.00  0.00     0.019 C 
ATOM     50  H   LIG d   1       4.564  -0.081  -5.663  0.00  0.00     0.047 H 
ATOM     51  H   LIG d   1       3.337   1.046  -5.037  0.00  0.00     0.047 H 
BRANCH  49  52
ATOM     52  C   LIG d   1       3.060  -1.001  -4.425  0.00  0.00     0.018 C 
ATOM     53  H   LIG d   1       2.262  -1.608  -4.854  0.00  0.00     0.037 H 
ATOM     54  C   LIG d   1       4.249  -1.902  -4.071  0.00  0.00    -0.017 C 
ATOM     55  N   LIG d   1       5.323  -1.106  -3.473  0.00  0.00     0.238 N 
ATOM     56  H   LIG d   1       3.926  -2.668  -3.366  0.00  0.00     0.085 H 
ATOM     57  C   LIG d   1       4.744  -2.566  -5.360  0.00  0.00    -0.009 C 
ATOM     58  C   LIG d   1       4.852  -0.467  -2.235  0.00  0.00    -0.032 C 
ATOM     59  C   LIG d   1       6.465  -1.968  -3.133  0.00  0.00    -0.032 C 
ATOM     60  H   LIG d   1       5.620  -0.396  -4.125  0.00  0.00     0.204 HD
ATOM     61  C   LIG d   1       3.701   0.492  -2.542  0.00  0.00    -0.012 C 
ATOM     62  H   LIG d   1       5.672   0.088  -1.779  0.00  0.00     0.081 H 
ATOM     63  H   LIG d   1       4.507  -1.234  -1.541  0.00  0.00     0.081 H 
ATOM     64  C   LIG d   1       2.548  -0.301  -3.165  0.00  0.00    -0.039 C 
ATOM     65  H   LIG d   1       4.040   1.255  -3.243  0.00  0.00     0.032 H 
ATOM     66  H   LIG d   1       3.364   0.965  -1.620  0.00  0.00     0.032 H 
ATOM     67  H   LIG d   1       1.736   0.376  -3.427  0.00  0.00     0.027 H 
ATOM     68  H   LIG d   1       2.190  -1.046  -2.454  0.00  0.00     0.027 H 
ATOM     69  C   LIG d   1       7.036  -2.606  -4.394  0.00  0.00    -0.012 C 
ATOM     70  H   LIG d   1       7.238  -1.369  -2.651  0.00  0.00     0.081 H 
ATOM     71  H   LIG d   1       6.136  -2.749  -2.448  0.00  0.00     0.081 H 
ATOM     72  C   LIG d   1       5.947  -3.460  -5.052  0.00  0.00    -0.043 C 
ATOM     73  H   LIG d   1       7.886  -3.237  -4.132  0.00  0.00     0.032 H 
ATOM     74  H   LIG d   1       7.357  -1.827  -5.086  0.00  0.00     0.032 H 
ATOM     75  H   LIG d   1       5.646  -4.257  -4.371  0.00  0.00     0.027 H 
ATOM     76  H   LIG d   1       6.329  -3.890  -5.978  0.00  0.00     0.027 H 
ATOM     77  H   LIG d   1       3.944  -3.170  -5.788  0.00  0.00     0.032 H 
ATOM     78  H   LIG d   1       5.038  -1.796  -6.074  0.00  0.00     0.032 H 
ENDBRANCH  49  52
ENDBRANCH  47  49
ENDBRANCH  42  45
ENDBRANCH   1  42
TORSDOF 9
ENDMDL
MODEL 8
REMARK VINA RESULT:      -6.3      4.243      6.657
REMARK  9 active torsions:
REMARK  status: ('A' for Active; 'I' for Inactive)
REMARK    1  A    between atoms: C_1  and  C_2 
REMARK    2  A    between atoms: C_6  and  C_36 
REMARK    3  A    between atoms: C_7  and  C_35 
REMARK    4  A    between atoms: C_10  and  C_34 
REMARK    5  A    between atoms: C_15  and  C_16 
REMARK    6  A    between atoms: C_16  and  C_17 
REMARK    7  A    between atoms: C_17  and  C_18 
REMARK       I    between atoms: C_18  and  N_20 
REMARK    8  A    between atoms: N_20  and  C_21 
REMARK    9  A    between atoms: C_21  and  C_22 
ROOT
ATOM      1  C   LIG d   1       8.567  -3.368  -4.543  0.00  0.00    -0.012 C 
ATOM      2  H   LIG d   1       9.500  -2.882  -4.257  0.00  0.00     0.032 H 
ATOM      3  H   LIG d   1       8.418  -3.261  -5.617  0.00  0.00     0.032 H 
ENDROOT
BRANCH   1   4
ATOM      4  C   LIG d   1       8.633  -4.830  -4.187  0.00  0.00     0.041 A 
ATOM      5  C   LIG d   1       9.273  -5.226  -3.057  0.00  0.00    -0.030 A 
ATOM      6  C   LIG d   1       9.307  -6.659  -2.746  0.00  0.00     0.022 A 
ATOM      7  C   LIG d   1       8.681  -7.565  -3.628  0.00  0.00     0.146 A 
ATOM      8  C   LIG d   1       9.945  -7.125  -1.597  0.00  0.00    -0.039 A 
ATOM      9  C   LIG d   1       8.701  -8.922  -3.353  0.00  0.00     0.035 A 
ATOM     10  O   LIG d   1       8.066  -7.101  -4.739  0.00  0.00    -0.422 OA
ATOM     11  C   LIG d   1       9.334  -9.391  -2.211  0.00  0.00     0.142 A 
ATOM     12  C   LIG d   1       9.957  -8.485  -1.332  0.00  0.00     0.029 A 
ATOM     13  O   LIG d   1       9.505 -10.630  -1.702  0.00  0.00    -0.459 OA
ATOM     14  C   LIG d   1      10.518  -9.313  -0.245  0.00  0.00     0.031 A 
ATOM     15  C   LIG d   1      10.198 -10.590  -0.551  0.00  0.00     0.111 A 
ATOM     16  C   LIG d   1       8.033  -5.792  -5.028  0.00  0.00     0.341 A 
ATOM     17  O   LIG d   1       7.466  -5.422  -6.039  0.00  0.00    -0.245 OA
ATOM     18  H   LIG d   1      10.424  -6.433  -0.919  0.00  0.00     0.063 H 
BRANCH   5  19
ATOM     19  C   LIG d   1       9.927  -4.221  -2.145  0.00  0.00    -0.039 C 
ATOM     20  H   LIG d   1      10.731  -3.715  -2.680  0.00  0.00     0.028 H 
ATOM     21  H   LIG d   1       9.187  -3.487  -1.824  0.00  0.00     0.028 H 
ATOM     22  H   LIG d   1      10.335  -4.732  -1.273  0.00  0.00     0.028 H 
ENDBRANCH   5  19
BRANCH   9  23
ATOM     23  C   LIG d   1       8.034  -9.889  -4.295  0.00  0.00    -0.033 C 
ATOM     24  H   LIG d   1       7.745  -9.368  -5.208  0.00  0.00     0.028 H 
ATOM     25  H   LIG d   1       8.726 -10.694  -4.541  0.00  0.00     0.028 H 
ATOM     26  H   LIG d   1       7.146 -10.306  -3.819  0.00  0.00     0.028 H 
ENDBRANCH   9  23
BRANCH  14  27
ATOM     27  C   LIG d   1      11.277  -8.841   0.938  0.00  0.00    -0.014 A 
ATOM     28  C   LIG d   1      10.677  -8.831   2.195  0.00  0.00    -0.054 A 
ATOM     29  C   LIG d   1      11.391  -8.397   3.293  0.00  0.00    -0.061 A 
ATOM     30  H   LIG d   1       9.657  -9.169   2.311  0.00  0.00     0.062 H 
ATOM     31  C   LIG d   1      12.695  -7.959   3.146  0.00  0.00    -0.062 A 
ATOM     32  H   LIG d   1      10.929  -8.393   4.270  0.00  0.00     0.062 H 
ATOM     33  C   LIG d   1      13.293  -7.960   1.899  0.00  0.00    -0.061 A 
ATOM     34  H   LIG d   1      13.248  -7.615   4.007  0.00  0.00     0.062 H 
ATOM     35  C   LIG d   1      12.592  -8.398   0.794  0.00  0.00    -0.054 A 
ATOM     36  H   LIG d   1      14.311  -7.617   1.789  0.00  0.00     0.062 H 
ATOM     37  H   LIG d   1      13.060  -8.400  -0.179  0.00  0.00     0.062 H 
ENDBRANCH  14  27
BRANCH  15  38
ATOM     38  C   LIG d   1      10.565 -11.795   0.277  0.00  0.00    -0.006 C 
ATOM     39  H   LIG d   1      11.624 -12.019   0.143  0.00  0.00     0.031 H 
ATOM     40  H   LIG d   1      10.367 -11.587   1.328  0.00  0.00     0.031 H 
ATOM     41  H   LIG d   1       9.970 -12.650  -0.043  0.00  0.00     0.031 H 
ENDBRANCH  15  38
ENDBRANCH   1   4
BRANCH   1  42
ATOM     42  C   LIG d   1       7.402  -2.714  -3.798  0.00  0.00     0.028 C 
ATOM     43  H   LIG d   1       6.600  -3.441  -3.668  0.00  0.00     0.036 H 
ATOM     44  H   LIG d   1       7.742  -2.369  -2.822  0.00  0.00     0.036 H 
BRANCH  42  45
ATOM     45  C   LIG d   1       6.891  -1.540  -4.595  0.00  0.00     0.213 C 
ATOM     46  O   LIG d   1       7.327  -0.429  -4.385  0.00  0.00    -0.276 OA
ATOM     47  N   LIG d   1       5.949  -1.727  -5.541  0.00  0.00    -0.315 N 
ATOM     48  H   LIG d   1       5.600  -2.617  -5.709  0.00  0.00     0.149 HD
BRANCH  47  49
ATOM     49  C   LIG d   1       5.453  -0.587  -6.316  0.00  0.00     0.019 C 
ATOM     50  H   LIG d   1       4.383  -0.470  -6.143  0.00  0.00     0.047 H 
ATOM     51  H   LIG d   1       5.973   0.318  -6.003  0.00  0.00     0.047 H 
BRANCH  49  52
ATOM     52  C   LIG d   1       5.706  -0.833  -7.804  0.00  0.00     0.018 C 
ATOM     53  H   LIG d   1       5.477  -1.871  -8.044  0.00  0.00     0.037 H 
ATOM     54  C   LIG d   1       4.807   0.092  -8.633  0.00  0.00    -0.017 C 
ATOM     55  N   LIG d   1       5.118   1.493  -8.339  0.00  0.00     0.238 N 
ATOM     56  H   LIG d   1       4.967  -0.102  -9.694  0.00  0.00     0.085 H 
ATOM     57  C   LIG d   1       3.350  -0.209  -8.269  0.00  0.00    -0.009 C 
ATOM     58  C   LIG d   1       6.516   1.786  -8.687  0.00  0.00    -0.032 C 
ATOM     59  C   LIG d   1       4.256   2.381  -9.132  0.00  0.00    -0.032 C 
ATOM     60  H   LIG d   1       4.972   1.671  -7.357  0.00  0.00     0.204 HD
ATOM     61  C   LIG d   1       7.460   0.930  -7.841  0.00  0.00    -0.012 C 
ATOM     62  H   LIG d   1       6.721   2.841  -8.502  0.00  0.00     0.081 H 
ATOM     63  H   LIG d   1       6.679   1.567  -9.743  0.00  0.00     0.081 H 
ATOM     64  C   LIG d   1       7.175  -0.548  -8.124  0.00  0.00    -0.039 C 
ATOM     65  H   LIG d   1       7.294   1.139  -6.785  0.00  0.00     0.032 H 
ATOM     66  H   LIG d   1       8.493   1.160  -8.103  0.00  0.00     0.032 H 
ATOM     67  H   LIG d   1       7.812  -1.171  -7.497  0.00  0.00     0.027 H 
ATOM     68  H   LIG d   1       7.368  -0.764  -9.175  0.00  0.00     0.027 H 
ATOM     69  C   LIG d   1       2.793   2.165  -8.762  0.00  0.00    -0.012 C 
ATOM     70  H   LIG d   1       4.527   3.419  -8.934  0.00  0.00     0.081 H 
ATOM     71  H   LIG d   1       4.397   2.169 -10.192  0.00  0.00     0.081 H 
ATOM     72  C   LIG d   1       2.418   0.710  -9.062  0.00  0.00    -0.043 C 
ATOM     73  H   LIG d   1       2.164   2.833  -9.350  0.00  0.00     0.032 H 
ATOM     74  H   LIG d   1       2.650   2.367  -7.700  0.00  0.00     0.032 H 
ATOM     75  H   LIG d   1       2.533   0.515 -10.129  0.00  0.00     0.027 H 
ATOM     76  H   LIG d   1       1.385   0.529  -8.764  0.00  0.00     0.027 H 
ATOM     77  H   LIG d   1       3.123  -1.248  -8.509  0.00  0.00     0.032 H 
ATOM     78  H   LIG d   1       3.201  -0.043  -7.202  0.00  0.00     0.032 H 
ENDBRANCH  49  52
ENDBRANCH  47  49
ENDBRANCH  42  45
ENDBRANCH   1  42
TORSDOF 9
ENDMDL
MODEL 9
REMARK VINA RESULT:      -6.1      7.283     11.255
REMARK  9 active torsions:
REMARK  status: ('A' for Active; 'I' for Inactive)
REMARK    1  A    between atoms: C_1  and  C_2 
REMARK    2  A    between atoms: C_6  and  C_36 
REMARK    3  A    between atoms: C_7  and  C_35 
REMARK    4  A    between atoms: C_10  and  C_34 
REMARK    5  A    between atoms: C_15  and  C_16 
REMARK    6  A    between atoms: C_16  and  C_17 
REMARK    7  A    between atoms: C_17  and  C_18 
REMARK       I    between atoms: C_18  and  N_20 
REMARK    8  A    between atoms: N_20  and  C_21 
REMARK    9  A    between atoms: C_21  and  C_22 
ROOT
ATOM      1  C   LIG d   1      10.196   2.913  -4.311  0.00  0.00    -0.012 C 
ATOM      2  H   LIG d   1      10.450   2.285  -5.166  0.00  0.00     0.032 H 
ATOM      3  H   LIG d   1      10.999   2.867  -3.577  0.00  0.00     0.032 H 
ENDROOT
BRANCH   1   4
ATOM      4  C   LIG d   1      10.015   4.336  -4.771  0.00  0.00     0.041 A 
ATOM      5  C   LIG d   1      10.145   5.358  -3.887  0.00  0.00    -0.030 A 
ATOM      6  C   LIG d   1       9.966   6.728  -4.380  0.00  0.00     0.022 A 
ATOM      7  C   LIG d   1       9.664   6.930  -5.742  0.00  0.00     0.146 A 
ATOM      8  C   LIG d   1      10.094   7.818  -3.520  0.00  0.00    -0.039 A 
ATOM      9  C   LIG d   1       9.491   8.215  -6.228  0.00  0.00     0.035 A 
ATOM     10  O   LIG d   1       9.543   5.865  -6.567  0.00  0.00    -0.422 OA
ATOM     11  C   LIG d   1       9.617   9.304  -5.377  0.00  0.00     0.142 A 
ATOM     12  C   LIG d   1       9.920   9.100  -4.018  0.00  0.00     0.029 A 
ATOM     13  O   LIG d   1       9.506  10.635  -5.571  0.00  0.00    -0.459 OA
ATOM     14  C   LIG d   1       9.977  10.449  -3.420  0.00  0.00     0.031 A 
ATOM     15  C   LIG d   1       9.716  11.311  -4.428  0.00  0.00     0.111 A 
ATOM     16  C   LIG d   1       9.705   4.611  -6.120  0.00  0.00     0.341 A 
ATOM     17  O   LIG d   1       9.587   3.684  -6.901  0.00  0.00    -0.245 OA
ATOM     18  H   LIG d   1      10.326   7.666  -2.475  0.00  0.00     0.063 H 
BRANCH   5  19
ATOM     19  C   LIG d   1      10.469   5.093  -2.440  0.00  0.00    -0.039 C 
ATOM     20  H   LIG d   1       9.611   4.627  -1.955  0.00  0.00     0.028 H 
ATOM     21  H   LIG d   1      11.329   4.424  -2.377  0.00  0.00     0.028 H 
ATOM     22  H   LIG d   1      10.703   6.033  -1.941  0.00  0.00     0.028 H 
ENDBRANCH   5  19
BRANCH   9  23
ATOM     23  C   LIG d   1       9.168   8.431  -7.684  0.00  0.00    -0.033 C 
ATOM     24  H   LIG d   1       9.112   7.467  -8.191  0.00  0.00     0.028 H 
ATOM     25  H   LIG d   1       8.209   8.942  -7.771  0.00  0.00     0.028 H 
ATOM     26  H   LIG d   1       9.948   9.038  -8.143  0.00  0.00     0.028 H 
ENDBRANCH   9  23
BRANCH  14  27
ATOM     27  C   LIG d   1      10.263  10.788  -2.005  0.00  0.00    -0.014 A 
ATOM     28  C   LIG d   1       9.370  10.416  -1.003  0.00  0.00    -0.054 A 
ATOM     29  C   LIG d   1       9.645  10.729   0.313  0.00  0.00    -0.061 A 
ATOM     30  H   LIG d   1       8.467   9.879  -1.254  0.00  0.00     0.062 H 
ATOM     31  C   LIG d   1      10.798  11.422   0.636  0.00  0.00    -0.062 A 
ATOM     32  H   LIG d   1       8.955  10.437   1.092  0.00  0.00     0.062 H 
ATOM     33  C   LIG d   1      11.685  11.799  -0.356  0.00  0.00    -0.061 A 
ATOM     34  H   LIG d   1      11.006  11.669   1.666  0.00  0.00     0.062 H 
ATOM     35  C   LIG d   1      11.424  11.486  -1.675  0.00  0.00    -0.054 A 
ATOM     36  H   LIG d   1      12.584  12.339  -0.099  0.00  0.00     0.062 H 
ATOM     37  H   LIG d   1      12.118  11.780  -2.448  0.00  0.00     0.062 H 
ENDBRANCH  14  27
BRANCH  15  38
ATOM     38  C   LIG d   1       9.666  12.811  -4.291  0.00  0.00    -0.006 C 
ATOM     39  H   LIG d   1       9.178  13.074  -3.352  0.00  0.00     0.031 H 
ATOM     40  H   LIG d   1      10.680  13.210  -4.298  0.00  0.00     0.031 H 
ATOM     41  H   LIG d   1       9.104  13.233  -5.123  0.00  0.00     0.031 H 
ENDBRANCH  15  38
ENDBRANCH   1   4
BRANCH   1  42
ATOM     42  C   LIG d   1       8.896   2.413  -3.679  0.00  0.00     0.028 C 
ATOM     43  H   LIG d   1       9.100   2.045  -2.673  0.00  0.00     0.036 H 
ATOM     44  H   LIG d   1       8.178   3.230  -3.628  0.00  0.00     0.036 H 
BRANCH  42  45
ATOM     45  C   LIG d   1       8.328   1.295  -4.516  0.00  0.00     0.213 C 
ATOM     46  O   LIG d   1       9.062   0.624  -5.210  0.00  0.00    -0.276 OA
ATOM     47  N   LIG d   1       7.005   1.042  -4.494  0.00  0.00    -0.315 N 
ATOM     48  H   LIG d   1       6.418   1.579  -3.938  0.00  0.00     0.149 HD
BRANCH  47  49
ATOM     49  C   LIG d   1       6.452  -0.043  -5.308  0.00  0.00     0.019 C 
ATOM     50  H   LIG d   1       6.252   0.323  -6.314  0.00  0.00     0.047 H 
ATOM     51  H   LIG d   1       7.169  -0.863  -5.355  0.00  0.00     0.047 H 
BRANCH  49  52
ATOM     52  C   LIG d   1       5.150  -0.541  -4.678  0.00  0.00     0.018 C 
ATOM     53  H   LIG d   1       4.604   0.304  -4.258  0.00  0.00     0.037 H 
ATOM     54  C   LIG d   1       4.291  -1.218  -5.752  0.00  0.00    -0.017 C 
ATOM     55  N   LIG d   1       5.001  -2.371  -6.312  0.00  0.00     0.238 N 
ATOM     56  H   LIG d   1       3.351  -1.548  -5.310  0.00  0.00     0.085 H 
ATOM     57  C   LIG d   1       4.009  -0.192  -6.853  0.00  0.00    -0.009 C 
ATOM     58  C   LIG d   1       5.273  -3.359  -5.258  0.00  0.00    -0.032 C 
ATOM     59  C   LIG d   1       4.179  -3.021  -7.343  0.00  0.00    -0.032 C 
ATOM     60  H   LIG d   1       5.871  -2.065  -6.719  0.00  0.00     0.204 HD
ATOM     61  C   LIG d   1       6.180  -2.751  -4.187  0.00  0.00    -0.012 C 
ATOM     62  H   LIG d   1       5.764  -4.229  -5.696  0.00  0.00     0.081 H 
ATOM     63  H   LIG d   1       4.333  -3.669  -4.801  0.00  0.00     0.081 H 
ATOM     64  C   LIG d   1       5.472  -1.543  -3.567  0.00  0.00    -0.039 C 
ATOM     65  H   LIG d   1       7.117  -2.432  -4.642  0.00  0.00     0.032 H 
ATOM     66  H   LIG d   1       6.381  -3.493  -3.415  0.00  0.00     0.032 H 
ATOM     67  H   LIG d   1       6.124  -1.074  -2.831  0.00  0.00     0.027 H 
ATOM     68  H   LIG d   1       4.548  -1.866  -3.087  0.00  0.00     0.027 H 
ATOM     69  C   LIG d   1       3.920  -2.058  -8.496  0.00  0.00    -0.012 C 
ATOM     70  H   LIG d   1       4.702  -3.900  -7.720  0.00  0.00     0.081 H 
ATOM     71  H   LIG d   1       3.228  -3.328  -6.907  0.00  0.00     0.081 H 
ATOM     72  C   LIG d   1       3.169  -0.835  -7.958  0.00  0.00    -0.043 C 
ATOM     73  H   LIG d   1       3.317  -2.552  -9.257  0.00  0.00     0.032 H 
ATOM     74  H   LIG d   1       4.870  -1.741  -8.928  0.00  0.00     0.032 H 
ATOM     75  H   LIG d   1       2.207  -1.148  -7.551  0.00  0.00     0.027 H 
ATOM     76  H   LIG d   1       3.013  -0.118  -8.764  0.00  0.00     0.027 H 
ATOM     77  H   LIG d   1       3.464   0.654  -6.431  0.00  0.00     0.032 H 
ATOM     78  H   LIG d   1       4.952   0.159  -7.273  0.00  0.00     0.032 H 
ENDBRANCH  49  52
ENDBRANCH  47  49
ENDBRANCH  42  45
ENDBRANCH   1  42
TORSDOF 9
ENDMDL
MODEL 10
REMARK VINA RESULT:      -6.1      4.387      7.986
REMARK  9 active torsions:
REMARK  status: ('A' for Active; 'I' for Inactive)
REMARK    1  A    between atoms: C_1  and  C_2 
REMARK    2  A    between atoms: C_6  and  C_36 
REMARK    3  A    between atoms: C_7  and  C_35 
REMARK    4  A    between atoms: C_10  and  C_34 
REMARK    5  A    between atoms: C_15  and  C_16 
REMARK    6  A    between atoms: C_16  and  C_17 
REMARK    7  A    between atoms: C_17  and  C_18 
REMARK       I    between atoms: C_18  and  N_20 
REMARK    8  A    between atoms: N_20  and  C_21 
REMARK    9  A    between atoms: C_21  and  C_22 
ROOT
ATOM      1  C   LIG d   1       7.254  -6.375  -5.917  0.00  0.00    -0.012 C 
ATOM      2  H   LIG d   1       7.946  -5.593  -5.605  0.00  0.00     0.032 H 
ATOM      3  H   LIG d   1       7.400  -6.586  -6.976  0.00  0.00     0.032 H 
ENDROOT
BRANCH   1   4
ATOM      4  C   LIG d   1       7.513  -7.624  -5.115  0.00  0.00     0.041 A 
ATOM      5  C   LIG d   1       8.334  -7.580  -4.034  0.00  0.00    -0.030 A 
ATOM      6  C   LIG d   1       8.552  -8.818  -3.279  0.00  0.00     0.022 A 
ATOM      7  C   LIG d   1       7.911 -10.000  -3.703  0.00  0.00     0.146 A 
ATOM      8  C   LIG d   1       9.380  -8.832  -2.156  0.00  0.00    -0.039 A 
ATOM      9  C   LIG d   1       8.104 -11.179  -3.005  0.00  0.00     0.035 A 
ATOM     10  O   LIG d   1       7.111  -9.973  -4.793  0.00  0.00    -0.422 OA
ATOM     11  C   LIG d   1       8.925 -11.200  -1.887  0.00  0.00     0.142 A 
ATOM     12  C   LIG d   1       9.564 -10.019  -1.464  0.00  0.00     0.029 A 
ATOM     13  O   LIG d   1       9.286 -12.181  -1.032  0.00  0.00    -0.459 OA
ATOM     14  C   LIG d   1      10.344 -10.398  -0.269  0.00  0.00     0.031 A 
ATOM     15  C   LIG d   1      10.117 -11.718  -0.083  0.00  0.00     0.111 A 
ATOM     16  C   LIG d   1       6.908  -8.843  -5.487  0.00  0.00     0.341 A 
ATOM     17  O   LIG d   1       6.179  -8.869  -6.461  0.00  0.00    -0.245 OA
ATOM     18  H   LIG d   1       9.872  -7.928  -1.829  0.00  0.00     0.063 H 
BRANCH   5  19
ATOM     19  C   LIG d   1       8.997  -6.292  -3.619  0.00  0.00    -0.039 C 
ATOM     20  H   LIG d   1       9.868  -6.515  -3.002  0.00  0.00     0.028 H 
ATOM     21  H   LIG d   1       9.312  -5.743  -4.507  0.00  0.00     0.028 H 
ATOM     22  H   LIG d   1       8.293  -5.688  -3.048  0.00  0.00     0.028 H 
ENDBRANCH   5  19
BRANCH   9  23
ATOM     23  C   LIG d   1       7.418 -12.442  -3.458  0.00  0.00    -0.033 C 
ATOM     24  H   LIG d   1       8.134 -13.264  -3.461  0.00  0.00     0.028 H 
ATOM     25  H   LIG d   1       6.600 -12.676  -2.778  0.00  0.00     0.028 H 
ATOM     26  H   LIG d   1       7.025 -12.300  -4.465  0.00  0.00     0.028 H 
ENDBRANCH   9  23
BRANCH  14  27
ATOM     27  C   LIG d   1      11.200  -9.514   0.557  0.00  0.00    -0.014 A 
ATOM     28  C   LIG d   1      10.754  -9.069   1.799  0.00  0.00    -0.054 A 
ATOM     29  C   LIG d   1      11.558  -8.251   2.567  0.00  0.00    -0.061 A 
ATOM     30  H   LIG d   1       9.781  -9.368   2.164  0.00  0.00     0.062 H 
ATOM     31  C   LIG d   1      12.801  -7.864   2.099  0.00  0.00    -0.062 A 
ATOM     32  H   LIG d   1      11.214  -7.910   3.533  0.00  0.00     0.062 H 
ATOM     33  C   LIG d   1      13.247  -8.297   0.864  0.00  0.00    -0.061 A 
ATOM     34  H   LIG d   1      13.425  -7.220   2.701  0.00  0.00     0.062 H 
ATOM     35  C   LIG d   1      12.454  -9.120   0.090  0.00  0.00    -0.054 A 
ATOM     36  H   LIG d   1      14.218  -7.991   0.504  0.00  0.00     0.062 H 
ATOM     37  H   LIG d   1      12.804  -9.458  -0.873  0.00  0.00     0.062 H 
ENDBRANCH  14  27
BRANCH  15  38
ATOM     38  C   LIG d   1      10.709 -12.548   1.026  0.00  0.00    -0.006 C 
ATOM     39  H   LIG d   1      10.221 -13.523   1.050  0.00  0.00     0.031 H 
ATOM     40  H   LIG d   1      11.776 -12.680   0.850  0.00  0.00     0.031 H 
ATOM     41  H   LIG d   1      10.557 -12.043   1.979  0.00  0.00     0.031 H 
ENDBRANCH  15  38
ENDBRANCH   1   4
BRANCH   1  42
ATOM     42  C   LIG d   1       5.817  -5.908  -5.682  0.00  0.00     0.028 C 
ATOM     43  H   LIG d   1       5.227  -6.078  -6.583  0.00  0.00     0.036 H 
ATOM     44  H   LIG d   1       5.383  -6.467  -4.854  0.00  0.00     0.036 H 
BRANCH  42  45
ATOM     45  C   LIG d   1       5.815  -4.437  -5.351  0.00  0.00     0.213 C 
ATOM     46  O   LIG d   1       6.830  -3.786  -5.478  0.00  0.00    -0.276 OA
ATOM     47  N   LIG d   1       4.685  -3.846  -4.915  0.00  0.00    -0.315 N 
ATOM     48  H   LIG d   1       3.873  -4.367  -4.814  0.00  0.00     0.149 HD
BRANCH  47  49
ATOM     49  C   LIG d   1       4.683  -2.417  -4.593  0.00  0.00     0.019 C 
ATOM     50  H   LIG d   1       5.445  -1.911  -5.185  0.00  0.00     0.047 H 
ATOM     51  H   LIG d   1       3.704  -1.995  -4.823  0.00  0.00     0.047 H 
BRANCH  49  52
ATOM     52  C   LIG d   1       4.983  -2.229  -3.105  0.00  0.00     0.018 C 
ATOM     53  H   LIG d   1       5.604  -3.053  -2.753  0.00  0.00     0.037 H 
ATOM     54  C   LIG d   1       5.728  -0.905  -2.899  0.00  0.00    -0.017 C 
ATOM     55  N   LIG d   1       4.897   0.215  -3.346  0.00  0.00     0.238 N 
ATOM     56  H   LIG d   1       5.967  -0.784  -1.843  0.00  0.00     0.085 H 
ATOM     57  C   LIG d   1       7.022  -0.956  -3.716  0.00  0.00    -0.009 C 
ATOM     58  C   LIG d   1       3.653   0.267  -2.564  0.00  0.00    -0.032 C 
ATOM     59  C   LIG d   1       5.611   1.486  -3.150  0.00  0.00    -0.032 C 
ATOM     60  H   LIG d   1       4.675   0.101  -4.323  0.00  0.00     0.204 HD
ATOM     61  C   LIG d   1       2.839  -1.009  -2.782  0.00  0.00    -0.012 C 
ATOM     62  H   LIG d   1       3.064   1.130  -2.878  0.00  0.00     0.081 H 
ATOM     63  H   LIG d   1       3.895   0.364  -1.505  0.00  0.00     0.081 H 
ATOM     64  C   LIG d   1       3.670  -2.210  -2.320  0.00  0.00    -0.039 C 
ATOM     65  H   LIG d   1       2.603  -1.113  -3.840  0.00  0.00     0.032 H 
ATOM     66  H   LIG d   1       1.917  -0.957  -2.203  0.00  0.00     0.032 H 
ATOM     67  H   LIG d   1       3.118  -3.131  -2.508  0.00  0.00     0.027 H 
ATOM     68  H   LIG d   1       3.883  -2.120  -1.254  0.00  0.00     0.027 H 
ATOM     69  C   LIG d   1       6.881   1.512  -3.993  0.00  0.00    -0.012 C 
ATOM     70  H   LIG d   1       4.965   2.312  -3.448  0.00  0.00     0.081 H 
ATOM     71  H   LIG d   1       5.872   1.595  -2.098  0.00  0.00     0.081 H 
ATOM     72  C   LIG d   1       7.789   0.359  -3.554  0.00  0.00    -0.043 C 
ATOM     73  H   LIG d   1       7.397   2.461  -3.847  0.00  0.00     0.032 H 
ATOM     74  H   LIG d   1       6.623   1.394  -5.046  0.00  0.00     0.032 H 
ATOM     75  H   LIG d   1       8.069   0.492  -2.509  0.00  0.00     0.027 H 
ATOM     76  H   LIG d   1       8.683   0.340  -4.177  0.00  0.00     0.027 H 
ATOM     77  H   LIG d   1       7.642  -1.781  -3.364  0.00  0.00     0.032 H 
ATOM     78  H   LIG d   1       6.782  -1.107  -4.769  0.00  0.00     0.032 H 
ENDBRANCH  49  52
ENDBRANCH  47  49
ENDBRANCH  42  45
ENDBRANCH   1  42
TORSDOF 9
ENDMDL
