MODEL 1
REMARK VINA RESULT:      -6.6      0.000      0.000
REMARK  9 active torsions:
REMARK  status: ('A' for Active; 'I' for Inactive)
REMARK    1  A    between atoms: C_1  and  C_2 
REMARK    2  A    between atoms: C_5  and  N_21 
REMARK    3  A    between atoms: C_10  and  C_11 
REMARK    4  A    between atoms: C_11  and  C_13 
REMARK    5  A    between atoms: C_17  and  O_19 
REMARK    6  A    between atoms: O_19  and  C_20 
REMARK       I    between atoms: N_21  and  C_22 
REMARK    7  A    between atoms: C_22  and  C_24 
REMARK    8  A    between atoms: C_28  and  O_30 
REMARK    9  A    between atoms: O_30  and  C_31 
ROOT
ATOM      1  C   LIG d   1       5.040  -8.654  -5.963  0.00  0.00     0.006 A 
ATOM      2  C   LIG d   1       4.731  -7.238  -6.152  0.00  0.00     0.025 A 
ATOM      3  C   LIG d   1       4.628  -6.141  -5.291  0.00  0.00    -0.029 A 
ATOM      4  C   LIG d   1       4.306  -4.900  -5.805  0.00  0.00     0.035 A 
ATOM      5  C   LIG d   1       4.095  -4.741  -7.174  0.00  0.00    -0.037 A 
ATOM      6  C   LIG d   1       4.200  -5.815  -8.030  0.00  0.00    -0.017 A 
ATOM      7  C   LIG d   1       4.518  -7.073  -7.534  0.00  0.00     0.136 A 
ATOM      8  O   LIG d   1       4.684  -8.278  -8.117  0.00  0.00    -0.451 OA
ATOM      9  C   LIG d   1       4.992  -9.218  -7.200  0.00  0.00     0.179 A 
ATOM     10  H   LIG d   1       4.796  -6.265  -4.231  0.00  0.00     0.064 H 
ATOM     11  H   LIG d   1       3.848  -3.767  -7.568  0.00  0.00     0.064 H 
ATOM     12  H   LIG d   1       4.035  -5.678  -9.089  0.00  0.00     0.066 H 
ENDROOT
BRANCH   4  13
ATOM     13  N   LIG d   1       4.195  -3.797  -4.949  0.00  0.00    -0.281 N 
ATOM     14  C   LIG d   1       5.303  -3.147  -4.540  0.00  0.00     0.248 C 
ATOM     15  O   LIG d   1       6.402  -3.575  -4.836  0.00  0.00    -0.270 OA
ATOM     16  H   LIG d   1       3.320  -3.499  -4.652  0.00  0.00     0.155 HD
BRANCH  14  17
ATOM     17  C   LIG d   1       5.182  -1.916  -3.731  0.00  0.00     0.041 A 
ATOM     18  C   LIG d   1       5.868  -0.761  -4.109  0.00  0.00    -0.008 A 
ATOM     19  C   LIG d   1       5.753   0.387  -3.343  0.00  0.00     0.121 A 
ATOM     20  H   LIG d   1       6.488  -0.763  -4.993  0.00  0.00     0.066 H 
ATOM     21  C   LIG d   1       4.950   0.392  -2.211  0.00  0.00    -0.020 A 
ATOM     22  C   LIG d   1       4.266  -0.751  -1.839  0.00  0.00    -0.058 A 
ATOM     23  H   LIG d   1       4.859   1.290  -1.619  0.00  0.00     0.065 H 
ATOM     24  C   LIG d   1       4.377  -1.903  -2.591  0.00  0.00    -0.049 A 
ATOM     25  H   LIG d   1       3.643  -0.743  -0.957  0.00  0.00     0.062 H 
ATOM     26  H   LIG d   1       3.841  -2.794  -2.298  0.00  0.00     0.062 H 
BRANCH  19  27
ATOM     27  O   LIG d   1       6.423   1.514  -3.705  0.00  0.00    -0.495 OA
BRANCH  27  28
ATOM     28  C   LIG d   1       7.837   1.400  -3.879  0.00  0.00     0.079 C 
ATOM     29  H   LIG d   1       8.062   1.253  -4.936  0.00  0.00     0.066 H 
ATOM     30  H   LIG d   1       8.207   0.549  -3.307  0.00  0.00     0.066 H 
ATOM     31  H   LIG d   1       8.321   2.312  -3.528  0.00  0.00     0.066 H 
ENDBRANCH  27  28
ENDBRANCH  19  27
ENDBRANCH  14  17
ENDBRANCH   4  13
BRANCH   1  32
ATOM     32  C   LIG d   1       5.348  -9.347  -4.661  0.00  0.00    -0.035 C 
ATOM     33  H   LIG d   1       4.617  -9.050  -3.909  0.00  0.00     0.028 H 
ATOM     34  H   LIG d   1       5.303 -10.427  -4.805  0.00  0.00     0.028 H 
ATOM     35  H   LIG d   1       6.348  -9.067  -4.327  0.00  0.00     0.028 H 
ENDBRANCH   1  32
BRANCH   9  36
ATOM     36  C   LIG d   1       5.239 -10.635  -7.492  0.00  0.00     0.228 C 
ATOM     37  O   LIG d   1       6.373 -11.027  -7.691  0.00  0.00    -0.283 OA
BRANCH  36  38
ATOM     38  C   LIG d   1       4.108 -11.587  -7.541  0.00  0.00     0.029 A 
ATOM     39  C   LIG d   1       3.477 -11.862  -8.754  0.00  0.00    -0.009 A 
ATOM     40  C   LIG d   1       2.423 -12.759  -8.794  0.00  0.00     0.121 A 
ATOM     41  H   LIG d   1       3.811 -11.381  -9.661  0.00  0.00     0.066 H 
ATOM     42  C   LIG d   1       1.990 -13.374  -7.626  0.00  0.00    -0.020 A 
ATOM     43  C   LIG d   1       2.611 -13.098  -6.421  0.00  0.00    -0.058 A 
ATOM     44  H   LIG d   1       1.164 -14.069  -7.658  0.00  0.00     0.065 H 
ATOM     45  C   LIG d   1       3.665 -12.209  -6.372  0.00  0.00    -0.051 A 
ATOM     46  H   LIG d   1       2.269 -13.578  -5.517  0.00  0.00     0.062 H 
ATOM     47  H   LIG d   1       4.148 -11.996  -5.430  0.00  0.00     0.062 H 
BRANCH  40  48
ATOM     48  O   LIG d   1       1.808 -13.035  -9.974  0.00  0.00    -0.495 OA
BRANCH  48  49
ATOM     49  C   LIG d   1       0.410 -13.325  -9.925  0.00  0.00     0.079 C 
ATOM     50  H   LIG d   1       0.010 -13.361 -10.938  0.00  0.00     0.066 H 
ATOM     51  H   LIG d   1       0.256 -14.289  -9.439  0.00  0.00     0.066 H 
ATOM     52  H   LIG d   1      -0.104 -12.547  -9.359  0.00  0.00     0.066 H 
ENDBRANCH  48  49
ENDBRANCH  40  48
ENDBRANCH  36  38
ENDBRANCH   9  36
TORSDOF 9
ENDMDL
MODEL 2
REMARK VINA RESULT:      -6.6      6.080     15.108
REMARK  9 active torsions:
REMARK  status: ('A' for Active; 'I' for Inactive)
REMARK    1  A    between atoms: C_1  and  C_2 
REMARK    2  A    between atoms: C_5  and  N_21 
REMARK    3  A    between atoms: C_10  and  C_11 
REMARK    4  A    between atoms: C_11  and  C_13 
REMARK    5  A    between atoms: C_17  and  O_19 
REMARK    6  A    between atoms: O_19  and  C_20 
REMARK       I    between atoms: N_21  and  C_22 
REMARK    7  A    between atoms: C_22  and  C_24 
REMARK    8  A    between atoms: C_28  and  O_30 
REMARK    9  A    between atoms: O_30  and  C_31 
ROOT
ATOM      1  C   LIG d   1      10.231   4.743  -3.522  0.00  0.00     0.006 A 
ATOM      2  C   LIG d   1       9.538   3.659  -4.217  0.00  0.00     0.025 A 
ATOM      3  C   LIG d   1       8.804   2.547  -3.798  0.00  0.00    -0.029 A 
ATOM      4  C   LIG d   1       8.269   1.689  -4.739  0.00  0.00     0.035 A 
ATOM      5  C   LIG d   1       8.453   1.938  -6.099  0.00  0.00    -0.037 A 
ATOM      6  C   LIG d   1       9.171   3.035  -6.522  0.00  0.00    -0.017 A 
ATOM      7  C   LIG d   1       9.722   3.908  -5.591  0.00  0.00     0.136 A 
ATOM      8  O   LIG d   1      10.455   5.034  -5.706  0.00  0.00    -0.451 OA
ATOM      9  C   LIG d   1      10.761   5.535  -4.492  0.00  0.00     0.179 A 
ATOM     10  H   LIG d   1       8.659   2.358  -2.744  0.00  0.00     0.064 H 
ATOM     11  H   LIG d   1       8.028   1.265  -6.828  0.00  0.00     0.064 H 
ATOM     12  H   LIG d   1       9.306   3.217  -7.578  0.00  0.00     0.066 H 
ENDROOT
BRANCH   4  13
ATOM     13  N   LIG d   1       7.537   0.569  -4.328  0.00  0.00    -0.281 N 
ATOM     14  C   LIG d   1       6.389   0.729  -3.641  0.00  0.00     0.248 C 
ATOM     15  O   LIG d   1       6.038   1.841  -3.297  0.00  0.00    -0.270 OA
ATOM     16  H   LIG d   1       7.855  -0.324  -4.539  0.00  0.00     0.155 HD
BRANCH  14  17
ATOM     17  C   LIG d   1       5.556  -0.445  -3.307  0.00  0.00     0.041 A 
ATOM     18  C   LIG d   1       5.473  -1.519  -4.193  0.00  0.00    -0.008 A 
ATOM     19  C   LIG d   1       4.687  -2.614  -3.875  0.00  0.00     0.121 A 
ATOM     20  H   LIG d   1       6.017  -1.496  -5.126  0.00  0.00     0.066 H 
ATOM     21  C   LIG d   1       3.994  -2.647  -2.673  0.00  0.00    -0.020 A 
ATOM     22  C   LIG d   1       4.079  -1.585  -1.791  0.00  0.00    -0.058 A 
ATOM     23  H   LIG d   1       3.385  -3.504  -2.425  0.00  0.00     0.065 H 
ATOM     24  C   LIG d   1       4.855  -0.486  -2.101  0.00  0.00    -0.049 A 
ATOM     25  H   LIG d   1       3.537  -1.615  -0.858  0.00  0.00     0.062 H 
ATOM     26  H   LIG d   1       4.919   0.342  -1.410  0.00  0.00     0.062 H 
BRANCH  19  27
ATOM     27  O   LIG d   1       4.600  -3.661  -4.737  0.00  0.00    -0.495 OA
BRANCH  27  28
ATOM     28  C   LIG d   1       4.761  -3.372  -6.127  0.00  0.00     0.079 C 
ATOM     29  H   LIG d   1       4.127  -4.039  -6.713  0.00  0.00     0.066 H 
ATOM     30  H   LIG d   1       5.802  -3.518  -6.411  0.00  0.00     0.066 H 
ATOM     31  H   LIG d   1       4.474  -2.338  -6.319  0.00  0.00     0.066 H 
ENDBRANCH  27  28
ENDBRANCH  19  27
ENDBRANCH  14  17
ENDBRANCH   4  13
BRANCH   1  32
ATOM     32  C   LIG d   1      10.336   4.940  -2.032  0.00  0.00    -0.035 C 
ATOM     33  H   LIG d   1      11.260   4.488  -1.669  0.00  0.00     0.028 H 
ATOM     34  H   LIG d   1      10.341   6.007  -1.806  0.00  0.00     0.028 H 
ATOM     35  H   LIG d   1       9.484   4.469  -1.541  0.00  0.00     0.028 H 
ENDBRANCH   1  32
BRANCH   9  36
ATOM     36  C   LIG d   1      11.547   6.752  -4.253  0.00  0.00     0.228 C 
ATOM     37  O   LIG d   1      12.753   6.680  -4.113  0.00  0.00    -0.283 OA
BRANCH  36  38
ATOM     38  C   LIG d   1      10.871   8.065  -4.184  0.00  0.00     0.029 A 
ATOM     39  C   LIG d   1      10.599   8.649  -2.947  0.00  0.00    -0.009 A 
ATOM     40  C   LIG d   1       9.971   9.883  -2.891  0.00  0.00     0.121 A 
ATOM     41  H   LIG d   1      10.879   8.143  -2.035  0.00  0.00     0.066 H 
ATOM     42  C   LIG d   1       9.606  10.530  -4.064  0.00  0.00    -0.020 A 
ATOM     43  C   LIG d   1       9.870   9.950  -5.292  0.00  0.00    -0.058 A 
ATOM     44  H   LIG d   1       9.112  11.489  -4.017  0.00  0.00     0.065 H 
ATOM     45  C   LIG d   1      10.499   8.724  -5.359  0.00  0.00    -0.051 A 
ATOM     46  H   LIG d   1       9.583  10.458  -6.200  0.00  0.00     0.062 H 
ATOM     47  H   LIG d   1      10.705   8.274  -6.319  0.00  0.00     0.062 H 
BRANCH  40  48
ATOM     48  O   LIG d   1       9.708  10.457  -1.688  0.00  0.00    -0.495 OA
BRANCH  48  49
ATOM     49  C   LIG d   1       8.882   9.721  -0.784  0.00  0.00     0.079 C 
ATOM     50  H   LIG d   1       9.405   8.820  -0.465  0.00  0.00     0.066 H 
ATOM     51  H   LIG d   1       8.657  10.338   0.087  0.00  0.00     0.066 H 
ATOM     52  H   LIG d   1       7.953   9.445  -1.283  0.00  0.00     0.066 H 
ENDBRANCH  48  49
ENDBRANCH  40  48
ENDBRANCH  36  38
ENDBRANCH   9  36
TORSDOF 9
ENDMDL
MODEL 3
REMARK VINA RESULT:      -6.6      7.206     15.846
REMARK  9 active torsions:
REMARK  status: ('A' for Active; 'I' for Inactive)
REMARK    1  A    between atoms: C_1  and  C_2 
REMARK    2  A    between atoms: C_5  and  N_21 
REMARK    3  A    between atoms: C_10  and  C_11 
REMARK    4  A    between atoms: C_11  and  C_13 
REMARK    5  A    between atoms: C_17  and  O_19 
REMARK    6  A    between atoms: O_19  and  C_20 
REMARK       I    between atoms: N_21  and  C_22 
REMARK    7  A    between atoms: C_22  and  C_24 
REMARK    8  A    between atoms: C_28  and  O_30 
REMARK    9  A    between atoms: O_30  and  C_31 
ROOT
ATOM      1  C   LIG d   1      10.971   5.191  -2.227  0.00  0.00     0.006 A 
ATOM      2  C   LIG d   1      10.295   4.297  -3.165  0.00  0.00     0.025 A 
ATOM      3  C   LIG d   1       9.744   3.017  -3.064  0.00  0.00    -0.029 A 
ATOM      4  C   LIG d   1       9.165   2.435  -4.175  0.00  0.00     0.035 A 
ATOM      5  C   LIG d   1       9.122   3.125  -5.386  0.00  0.00    -0.037 A 
ATOM      6  C   LIG d   1       9.658   4.389  -5.494  0.00  0.00    -0.017 A 
ATOM      7  C   LIG d   1      10.250   4.991  -4.390  0.00  0.00     0.136 A 
ATOM      8  O   LIG d   1      10.844   6.188  -4.201  0.00  0.00    -0.451 OA
ATOM      9  C   LIG d   1      11.272   6.317  -2.929  0.00  0.00     0.179 A 
ATOM     10  H   LIG d   1       9.773   2.486  -2.124  0.00  0.00     0.064 H 
ATOM     11  H   LIG d   1       8.664   2.665  -6.248  0.00  0.00     0.064 H 
ATOM     12  H   LIG d   1       9.619   4.914  -6.437  0.00  0.00     0.066 H 
ENDROOT
BRANCH   4  13
ATOM     13  N   LIG d   1       8.614   1.151  -4.085  0.00  0.00    -0.281 N 
ATOM     14  C   LIG d   1       7.310   0.996  -3.785  0.00  0.00     0.248 C 
ATOM     15  O   LIG d   1       6.633   1.965  -3.500  0.00  0.00    -0.270 OA
ATOM     16  H   LIG d   1       9.172   0.372  -4.239  0.00  0.00     0.155 HD
BRANCH  14  17
ATOM     17  C   LIG d   1       6.701  -0.351  -3.802  0.00  0.00     0.041 A 
ATOM     18  C   LIG d   1       5.353  -0.514  -3.482  0.00  0.00    -0.008 A 
ATOM     19  C   LIG d   1       4.792  -1.780  -3.495  0.00  0.00     0.121 A 
ATOM     20  H   LIG d   1       4.750   0.343  -3.222  0.00  0.00     0.066 H 
ATOM     21  C   LIG d   1       5.566  -2.881  -3.836  0.00  0.00    -0.020 A 
ATOM     22  C   LIG d   1       6.901  -2.719  -4.158  0.00  0.00    -0.058 A 
ATOM     23  H   LIG d   1       5.124  -3.866  -3.850  0.00  0.00     0.065 H 
ATOM     24  C   LIG d   1       7.473  -1.463  -4.143  0.00  0.00    -0.049 A 
ATOM     25  H   LIG d   1       7.499  -3.579  -4.422  0.00  0.00     0.062 H 
ATOM     26  H   LIG d   1       8.515  -1.341  -4.395  0.00  0.00     0.062 H 
BRANCH  19  27
ATOM     27  O   LIG d   1       3.480  -1.944  -3.181  0.00  0.00    -0.495 OA
BRANCH  27  28
ATOM     28  C   LIG d   1       2.668  -0.768  -3.149  0.00  0.00     0.079 C 
ATOM     29  H   LIG d   1       2.882  -0.203  -2.241  0.00  0.00     0.066 H 
ATOM     30  H   LIG d   1       1.616  -1.052  -3.161  0.00  0.00     0.066 H 
ATOM     31  H   LIG d   1       2.888  -0.151  -4.021  0.00  0.00     0.066 H 
ENDBRANCH  27  28
ENDBRANCH  19  27
ENDBRANCH  14  17
ENDBRANCH   4  13
BRANCH   1  32
ATOM     32  C   LIG d   1      11.273   4.919  -0.776  0.00  0.00    -0.035 C 
ATOM     33  H   LIG d   1      10.568   5.466  -0.149  0.00  0.00     0.028 H 
ATOM     34  H   LIG d   1      11.181   3.851  -0.579  0.00  0.00     0.028 H 
ATOM     35  H   LIG d   1      12.289   5.245  -0.548  0.00  0.00     0.028 H 
ENDBRANCH   1  32
BRANCH   9  36
ATOM     36  C   LIG d   1      11.960   7.493  -2.384  0.00  0.00     0.228 C 
ATOM     37  O   LIG d   1      13.167   7.599  -2.497  0.00  0.00    -0.283 OA
BRANCH  36  38
ATOM     38  C   LIG d   1      11.186   8.550  -1.698  0.00  0.00     0.029 A 
ATOM     39  C   LIG d   1      10.330   9.375  -2.427  0.00  0.00    -0.009 A 
ATOM     40  C   LIG d   1       9.602  10.359  -1.777  0.00  0.00     0.121 A 
ATOM     41  H   LIG d   1      10.231   9.247  -3.495  0.00  0.00     0.066 H 
ATOM     42  C   LIG d   1       9.734  10.527  -0.405  0.00  0.00    -0.020 A 
ATOM     43  C   LIG d   1      10.586   9.713   0.319  0.00  0.00    -0.058 A 
ATOM     44  H   LIG d   1       9.170  11.298   0.099  0.00  0.00     0.065 H 
ATOM     45  C   LIG d   1      11.312   8.727  -0.319  0.00  0.00    -0.051 A 
ATOM     46  H   LIG d   1      10.685   9.849   1.385  0.00  0.00     0.062 H 
ATOM     47  H   LIG d   1      11.976   8.093   0.249  0.00  0.00     0.062 H 
BRANCH  40  48
ATOM     48  O   LIG d   1       8.763  11.162  -2.483  0.00  0.00    -0.495 OA
BRANCH  48  49
ATOM     49  C   LIG d   1       9.015  11.292  -3.883  0.00  0.00     0.079 C 
ATOM     50  H   LIG d   1       8.161  11.770  -4.363  0.00  0.00     0.066 H 
ATOM     51  H   LIG d   1       9.906  11.902  -4.037  0.00  0.00     0.066 H 
ATOM     52  H   LIG d   1       9.172  10.305  -4.318  0.00  0.00     0.066 H 
ENDBRANCH  48  49
ENDBRANCH  40  48
ENDBRANCH  36  38
ENDBRANCH   9  36
TORSDOF 9
ENDMDL
MODEL 4
REMARK VINA RESULT:      -6.5      5.194     13.222
REMARK  9 active torsions:
REMARK  status: ('A' for Active; 'I' for Inactive)
REMARK    1  A    between atoms: C_1  and  C_2 
REMARK    2  A    between atoms: C_5  and  N_21 
REMARK    3  A    between atoms: C_10  and  C_11 
REMARK    4  A    between atoms: C_11  and  C_13 
REMARK    5  A    between atoms: C_17  and  O_19 
REMARK    6  A    between atoms: O_19  and  C_20 
REMARK       I    between atoms: N_21  and  C_22 
REMARK    7  A    between atoms: C_22  and  C_24 
REMARK    8  A    between atoms: C_28  and  O_30 
REMARK    9  A    between atoms: O_30  and  C_31 
ROOT
ATOM      1  C   LIG d   1       8.629   1.589  -5.185  0.00  0.00     0.006 A 
ATOM      2  C   LIG d   1       7.368   0.852  -5.144  0.00  0.00     0.025 A 
ATOM      3  C   LIG d   1       6.597   0.189  -6.103  0.00  0.00    -0.029 A 
ATOM      4  C   LIG d   1       5.417  -0.422  -5.725  0.00  0.00     0.035 A 
ATOM      5  C   LIG d   1       5.004  -0.385  -4.394  0.00  0.00    -0.037 A 
ATOM      6  C   LIG d   1       5.760   0.261  -3.441  0.00  0.00    -0.017 A 
ATOM      7  C   LIG d   1       6.948   0.886  -3.801  0.00  0.00     0.136 A 
ATOM      8  O   LIG d   1       7.872   1.579  -3.103  0.00  0.00    -0.451 OA
ATOM      9  C   LIG d   1       8.868   1.999  -3.909  0.00  0.00     0.179 A 
ATOM     10  H   LIG d   1       6.921   0.158  -7.133  0.00  0.00     0.064 H 
ATOM     11  H   LIG d   1       4.083  -0.869  -4.106  0.00  0.00     0.064 H 
ATOM     12  H   LIG d   1       5.429   0.281  -2.413  0.00  0.00     0.066 H 
ENDROOT
BRANCH   4  13
ATOM     13  N   LIG d   1       4.636  -1.084  -6.680  0.00  0.00    -0.281 N 
ATOM     14  C   LIG d   1       3.741  -0.394  -7.415  0.00  0.00     0.248 C 
ATOM     15  O   LIG d   1       3.545   0.783  -7.184  0.00  0.00    -0.270 OA
ATOM     16  H   LIG d   1       4.739  -2.040  -6.814  0.00  0.00     0.155 HD
BRANCH  14  17
ATOM     17  C   LIG d   1       2.999  -1.068  -8.501  0.00  0.00     0.041 A 
ATOM     18  C   LIG d   1       3.232  -2.416  -8.776  0.00  0.00    -0.008 A 
ATOM     19  C   LIG d   1       2.536  -3.039  -9.798  0.00  0.00     0.121 A 
ATOM     20  H   LIG d   1       3.955  -2.970  -8.197  0.00  0.00     0.066 H 
ATOM     21  C   LIG d   1       1.601  -2.327 -10.538  0.00  0.00    -0.020 A 
ATOM     22  C   LIG d   1       1.365  -0.993 -10.262  0.00  0.00    -0.058 A 
ATOM     23  H   LIG d   1       1.056  -2.817 -11.332  0.00  0.00     0.065 H 
ATOM     24  C   LIG d   1       2.057  -0.360  -9.249  0.00  0.00    -0.049 A 
ATOM     25  H   LIG d   1       0.637  -0.444 -10.841  0.00  0.00     0.062 H 
ATOM     26  H   LIG d   1       1.871   0.682  -9.037  0.00  0.00     0.062 H 
BRANCH  19  27
ATOM     27  O   LIG d   1       2.763  -4.350 -10.074  0.00  0.00    -0.495 OA
BRANCH  27  28
ATOM     28  C   LIG d   1       3.269  -5.158  -9.009  0.00  0.00     0.079 C 
ATOM     29  H   LIG d   1       4.157  -4.687  -8.585  0.00  0.00     0.066 H 
ATOM     30  H   LIG d   1       3.529  -6.144  -9.392  0.00  0.00     0.066 H 
ATOM     31  H   LIG d   1       2.507  -5.259  -8.235  0.00  0.00     0.066 H 
ENDBRANCH  27  28
ENDBRANCH  19  27
ENDBRANCH  14  17
ENDBRANCH   4  13
BRANCH   1  32
ATOM     32  C   LIG d   1       9.490   1.844  -6.395  0.00  0.00    -0.035 C 
ATOM     33  H   LIG d   1       8.893   2.321  -7.173  0.00  0.00     0.028 H 
ATOM     34  H   LIG d   1      10.319   2.498  -6.121  0.00  0.00     0.028 H 
ATOM     35  H   LIG d   1       9.883   0.897  -6.768  0.00  0.00     0.028 H 
ENDBRANCH   1  32
BRANCH   9  36
ATOM     36  C   LIG d   1      10.034   2.779  -3.477  0.00  0.00     0.228 C 
ATOM     37  O   LIG d   1      11.091   2.220  -3.254  0.00  0.00    -0.283 OA
BRANCH  36  38
ATOM     38  C   LIG d   1       9.923   4.244  -3.315  0.00  0.00     0.029 A 
ATOM     39  C   LIG d   1      10.193   4.835  -2.081  0.00  0.00    -0.009 A 
ATOM     40  C   LIG d   1      10.094   6.209  -1.939  0.00  0.00     0.121 A 
ATOM     41  H   LIG d   1      10.483   4.224  -1.239  0.00  0.00     0.066 H 
ATOM     42  C   LIG d   1       9.715   6.993  -3.020  0.00  0.00    -0.020 A 
ATOM     43  C   LIG d   1       9.442   6.409  -4.244  0.00  0.00    -0.058 A 
ATOM     44  H   LIG d   1       9.633   8.064  -2.905  0.00  0.00     0.065 H 
ATOM     45  C   LIG d   1       9.542   5.041  -4.397  0.00  0.00    -0.051 A 
ATOM     46  H   LIG d   1       9.147   7.024  -5.080  0.00  0.00     0.062 H 
ATOM     47  H   LIG d   1       9.329   4.588  -5.354  0.00  0.00     0.062 H 
BRANCH  40  48
ATOM     48  O   LIG d   1      10.361   6.789  -0.739  0.00  0.00    -0.495 OA
BRANCH  48  49
ATOM     49  C   LIG d   1      11.078   6.005   0.216  0.00  0.00     0.079 C 
ATOM     50  H   LIG d   1      10.773   6.289   1.222  0.00  0.00     0.066 H 
ATOM     51  H   LIG d   1      10.860   4.948   0.055  0.00  0.00     0.066 H 
ATOM     52  H   LIG d   1      12.148   6.176   0.097  0.00  0.00     0.066 H 
ENDBRANCH  48  49
ENDBRANCH  40  48
ENDBRANCH  36  38
ENDBRANCH   9  36
TORSDOF 9
ENDMDL
MODEL 5
REMARK VINA RESULT:      -6.2      8.090     10.801
REMARK  9 active torsions:
REMARK  status: ('A' for Active; 'I' for Inactive)
REMARK    1  A    between atoms: C_1  and  C_2 
REMARK    2  A    between atoms: C_5  and  N_21 
REMARK    3  A    between atoms: C_10  and  C_11 
REMARK    4  A    between atoms: C_11  and  C_13 
REMARK    5  A    between atoms: C_17  and  O_19 
REMARK    6  A    between atoms: O_19  and  C_20 
REMARK       I    between atoms: N_21  and  C_22 
REMARK    7  A    between atoms: C_22  and  C_24 
REMARK    8  A    between atoms: C_28  and  O_30 
REMARK    9  A    between atoms: O_30  and  C_31 
ROOT
ATOM      1  C   LIG d   1       7.204   0.641  -4.720  0.00  0.00     0.006 A 
ATOM      2  C   LIG d   1       8.326   1.567  -4.576  0.00  0.00     0.025 A 
ATOM      3  C   LIG d   1       8.810   2.353  -3.526  0.00  0.00    -0.029 A 
ATOM      4  C   LIG d   1       9.924   3.145  -3.725  0.00  0.00     0.035 A 
ATOM      5  C   LIG d   1      10.568   3.151  -4.963  0.00  0.00    -0.037 A 
ATOM      6  C   LIG d   1      10.101   2.375  -6.000  0.00  0.00    -0.017 A 
ATOM      7  C   LIG d   1       8.979   1.576  -5.823  0.00  0.00     0.136 A 
ATOM      8  O   LIG d   1       8.310   0.734  -6.638  0.00  0.00    -0.451 OA
ATOM      9  C   LIG d   1       7.261   0.177  -5.998  0.00  0.00     0.179 A 
ATOM     10  H   LIG d   1       8.313   2.344  -2.567  0.00  0.00     0.064 H 
ATOM     11  H   LIG d   1      11.441   3.768  -5.108  0.00  0.00     0.064 H 
ATOM     12  H   LIG d   1      10.609   2.388  -6.954  0.00  0.00     0.066 H 
ENDROOT
BRANCH   4  13
ATOM     13  N   LIG d   1      10.412   3.939  -2.681  0.00  0.00    -0.281 N 
ATOM     14  C   LIG d   1      10.039   5.230  -2.585  0.00  0.00     0.248 C 
ATOM     15  O   LIG d   1       9.354   5.731  -3.456  0.00  0.00    -0.270 OA
ATOM     16  H   LIG d   1      11.020   3.560  -2.025  0.00  0.00     0.155 HD
BRANCH  14  17
ATOM     17  C   LIG d   1      10.461   6.039  -1.421  0.00  0.00     0.041 A 
ATOM     18  C   LIG d   1      10.032   7.360  -1.295  0.00  0.00    -0.008 A 
ATOM     19  C   LIG d   1      10.436   8.112  -0.205  0.00  0.00     0.121 A 
ATOM     20  H   LIG d   1       9.391   7.797  -2.047  0.00  0.00     0.066 H 
ATOM     21  C   LIG d   1      11.255   7.549   0.764  0.00  0.00    -0.020 A 
ATOM     22  C   LIG d   1      11.676   6.237   0.642  0.00  0.00    -0.058 A 
ATOM     23  H   LIG d   1      11.565   8.137   1.616  0.00  0.00     0.065 H 
ATOM     24  C   LIG d   1      11.284   5.480  -0.443  0.00  0.00    -0.049 A 
ATOM     25  H   LIG d   1      12.313   5.804   1.399  0.00  0.00     0.062 H 
ATOM     26  H   LIG d   1      11.615   4.456  -0.535  0.00  0.00     0.062 H 
BRANCH  19  27
ATOM     27  O   LIG d   1      10.025   9.402  -0.080  0.00  0.00    -0.495 OA
BRANCH  27  28
ATOM     28  C   LIG d   1       8.784   9.750  -0.697  0.00  0.00     0.079 C 
ATOM     29  H   LIG d   1       8.349  10.607  -0.181  0.00  0.00     0.066 H 
ATOM     30  H   LIG d   1       8.099   8.905  -0.638  0.00  0.00     0.066 H 
ATOM     31  H   LIG d   1       8.957  10.005  -1.743  0.00  0.00     0.066 H 
ENDBRANCH  27  28
ENDBRANCH  19  27
ENDBRANCH  14  17
ENDBRANCH   4  13
BRANCH   1  32
ATOM     32  C   LIG d   1       6.190   0.276  -3.667  0.00  0.00    -0.035 C 
ATOM     33  H   LIG d   1       6.634   0.394  -2.678  0.00  0.00     0.028 H 
ATOM     34  H   LIG d   1       5.322   0.930  -3.756  0.00  0.00     0.028 H 
ATOM     35  H   LIG d   1       5.880  -0.760  -3.804  0.00  0.00     0.028 H 
ENDBRANCH   1  32
BRANCH   9  36
ATOM     36  C   LIG d   1       6.323  -0.785  -6.589  0.00  0.00     0.228 C 
ATOM     37  O   LIG d   1       6.513  -1.979  -6.457  0.00  0.00    -0.283 OA
BRANCH  36  38
ATOM     38  C   LIG d   1       5.148  -0.301  -7.344  0.00  0.00     0.029 A 
ATOM     39  C   LIG d   1       5.314   0.287  -8.598  0.00  0.00    -0.009 A 
ATOM     40  C   LIG d   1       4.207   0.732  -9.302  0.00  0.00     0.121 A 
ATOM     41  H   LIG d   1       6.302   0.393  -9.021  0.00  0.00     0.066 H 
ATOM     42  C   LIG d   1       2.938   0.601  -8.755  0.00  0.00    -0.020 A 
ATOM     43  C   LIG d   1       2.771   0.022  -7.510  0.00  0.00    -0.058 A 
ATOM     44  H   LIG d   1       2.077   0.954  -9.303  0.00  0.00     0.065 H 
ATOM     45  C   LIG d   1       3.867  -0.428  -6.802  0.00  0.00    -0.051 A 
ATOM     46  H   LIG d   1       1.782  -0.076  -7.089  0.00  0.00     0.062 H 
ATOM     47  H   LIG d   1       3.734  -0.880  -5.830  0.00  0.00     0.062 H 
BRANCH  40  48
ATOM     48  O   LIG d   1       4.364   1.302 -10.526  0.00  0.00    -0.495 OA
BRANCH  48  49
ATOM     49  C   LIG d   1       4.026   0.503 -11.661  0.00  0.00     0.079 C 
ATOM     50  H   LIG d   1       4.714   0.722 -12.477  0.00  0.00     0.066 H 
ATOM     51  H   LIG d   1       4.100  -0.553 -11.397  0.00  0.00     0.066 H 
ATOM     52  H   LIG d   1       3.007   0.728 -11.974  0.00  0.00     0.066 H 
ENDBRANCH  48  49
ENDBRANCH  40  48
ENDBRANCH  36  38
ENDBRANCH   9  36
TORSDOF 9
ENDMDL
MODEL 6
REMARK VINA RESULT:      -6.1      8.556     11.943
REMARK  9 active torsions:
REMARK  status: ('A' for Active; 'I' for Inactive)
REMARK    1  A    between atoms: C_1  and  C_2 
REMARK    2  A    between atoms: C_5  and  N_21 
REMARK    3  A    between atoms: C_10  and  C_11 
REMARK    4  A    between atoms: C_11  and  C_13 
REMARK    5  A    between atoms: C_17  and  O_19 
REMARK    6  A    between atoms: O_19  and  C_20 
REMARK       I    between atoms: N_21  and  C_22 
REMARK    7  A    between atoms: C_22  and  C_24 
REMARK    8  A    between atoms: C_28  and  O_30 
REMARK    9  A    between atoms: O_30  and  C_31 
ROOT
ATOM      1  C   LIG d   1       8.073   1.361  -5.493  0.00  0.00     0.006 A 
ATOM      2  C   LIG d   1       8.790   2.593  -5.171  0.00  0.00     0.025 A 
ATOM      3  C   LIG d   1       9.312   3.642  -5.933  0.00  0.00    -0.029 A 
ATOM      4  C   LIG d   1       9.956   4.688  -5.301  0.00  0.00     0.035 A 
ATOM      5  C   LIG d   1      10.075   4.701  -3.911  0.00  0.00    -0.037 A 
ATOM      6  C   LIG d   1       9.559   3.675  -3.153  0.00  0.00    -0.017 A 
ATOM      7  C   LIG d   1       8.911   2.610  -3.768  0.00  0.00     0.136 A 
ATOM      8  O   LIG d   1       8.322   1.492  -3.296  0.00  0.00    -0.451 OA
ATOM      9  C   LIG d   1       7.824   0.748  -4.304  0.00  0.00     0.179 A 
ATOM     10  H   LIG d   1       9.216   3.632  -7.009  0.00  0.00     0.064 H 
ATOM     11  H   LIG d   1      10.576   5.524  -3.425  0.00  0.00     0.064 H 
ATOM     12  H   LIG d   1       9.656   3.697  -2.077  0.00  0.00     0.066 H 
ENDROOT
BRANCH   4  13
ATOM     13  N   LIG d   1      10.488   5.740  -6.056  0.00  0.00    -0.281 N 
ATOM     14  C   LIG d   1       9.923   6.962  -6.000  0.00  0.00     0.248 C 
ATOM     15  O   LIG d   1       8.898   7.129  -5.368  0.00  0.00    -0.270 OA
ATOM     16  H   LIG d   1      11.263   5.590  -6.620  0.00  0.00     0.155 HD
BRANCH  14  17
ATOM     17  C   LIG d   1      10.550   8.100  -6.706  0.00  0.00     0.041 A 
ATOM     18  C   LIG d   1       9.812   9.257  -6.961  0.00  0.00    -0.008 A 
ATOM     19  C   LIG d   1      10.405  10.316  -7.627  0.00  0.00     0.121 A 
ATOM     20  H   LIG d   1       8.782   9.324  -6.643  0.00  0.00     0.066 H 
ATOM     21  C   LIG d   1      11.731  10.232  -8.029  0.00  0.00    -0.020 A 
ATOM     22  C   LIG d   1      12.464   9.087  -7.772  0.00  0.00    -0.058 A 
ATOM     23  H   LIG d   1      12.192  11.061  -8.544  0.00  0.00     0.065 H 
ATOM     24  C   LIG d   1      11.882   8.023  -7.114  0.00  0.00    -0.049 A 
ATOM     25  H   LIG d   1      13.495   9.026  -8.087  0.00  0.00     0.062 H 
ATOM     26  H   LIG d   1      12.457   7.131  -6.915  0.00  0.00     0.062 H 
BRANCH  19  27
ATOM     27  O   LIG d   1       9.690  11.444  -7.882  0.00  0.00    -0.495 OA
BRANCH  27  28
ATOM     28  C   LIG d   1       9.967  12.586  -7.068  0.00  0.00     0.079 C 
ATOM     29  H   LIG d   1       9.366  12.539  -6.159  0.00  0.00     0.066 H 
ATOM     30  H   LIG d   1       9.722  13.493  -7.619  0.00  0.00     0.066 H 
ATOM     31  H   LIG d   1      11.025  12.596  -6.804  0.00  0.00     0.066 H 
ENDBRANCH  27  28
ENDBRANCH  19  27
ENDBRANCH  14  17
ENDBRANCH   4  13
BRANCH   1  32
ATOM     32  C   LIG d   1       7.688   0.869  -6.865  0.00  0.00    -0.035 C 
ATOM     33  H   LIG d   1       8.191  -0.078  -7.066  0.00  0.00     0.028 H 
ATOM     34  H   LIG d   1       6.609   0.724  -6.910  0.00  0.00     0.028 H 
ATOM     35  H   LIG d   1       7.987   1.605  -7.612  0.00  0.00     0.028 H 
ENDBRANCH   1  32
BRANCH   9  36
ATOM     36  C   LIG d   1       7.119  -0.530  -4.143  0.00  0.00     0.228 C 
ATOM     37  O   LIG d   1       7.716  -1.577  -4.303  0.00  0.00    -0.283 OA
BRANCH  36  38
ATOM     38  C   LIG d   1       5.685  -0.542  -3.786  0.00  0.00     0.029 A 
ATOM     39  C   LIG d   1       4.730  -0.101  -4.703  0.00  0.00    -0.009 A 
ATOM     40  C   LIG d   1       3.388  -0.122  -4.363  0.00  0.00     0.121 A 
ATOM     41  H   LIG d   1       5.036   0.252  -5.677  0.00  0.00     0.066 H 
ATOM     42  C   LIG d   1       2.996  -0.570  -3.109  0.00  0.00    -0.020 A 
ATOM     43  C   LIG d   1       3.941  -1.003  -2.196  0.00  0.00    -0.058 A 
ATOM     44  H   LIG d   1       1.949  -0.581  -2.845  0.00  0.00     0.065 H 
ATOM     45  C   LIG d   1       5.280  -0.991  -2.527  0.00  0.00    -0.051 A 
ATOM     46  H   LIG d   1       3.630  -1.349  -1.222  0.00  0.00     0.062 H 
ATOM     47  H   LIG d   1       6.016  -1.330  -1.812  0.00  0.00     0.062 H 
BRANCH  40  48
ATOM     48  O   LIG d   1       2.454   0.302  -5.255  0.00  0.00    -0.495 OA
BRANCH  48  49
ATOM     49  C   LIG d   1       2.813   0.262  -6.638  0.00  0.00     0.079 C 
ATOM     50  H   LIG d   1       3.732  -0.311  -6.758  0.00  0.00     0.066 H 
ATOM     51  H   LIG d   1       2.012  -0.212  -7.207  0.00  0.00     0.066 H 
ATOM     52  H   LIG d   1       2.967   1.277  -7.004  0.00  0.00     0.066 H 
ENDBRANCH  48  49
ENDBRANCH  40  48
ENDBRANCH  36  38
ENDBRANCH   9  36
TORSDOF 9
ENDMDL
MODEL 7
REMARK VINA RESULT:      -6.1      6.068     14.533
REMARK  9 active torsions:
REMARK  status: ('A' for Active; 'I' for Inactive)
REMARK    1  A    between atoms: C_1  and  C_2 
REMARK    2  A    between atoms: C_5  and  N_21 
REMARK    3  A    between atoms: C_10  and  C_11 
REMARK    4  A    between atoms: C_11  and  C_13 
REMARK    5  A    between atoms: C_17  and  O_19 
REMARK    6  A    between atoms: O_19  and  C_20 
REMARK       I    between atoms: N_21  and  C_22 
REMARK    7  A    between atoms: C_22  and  C_24 
REMARK    8  A    between atoms: C_28  and  O_30 
REMARK    9  A    between atoms: O_30  and  C_31 
ROOT
ATOM      1  C   LIG d   1       9.832   3.858  -7.146  0.00  0.00     0.006 A 
ATOM      2  C   LIG d   1       9.601   3.090  -5.924  0.00  0.00     0.025 A 
ATOM      3  C   LIG d   1       8.739   2.046  -5.579  0.00  0.00    -0.029 A 
ATOM      4  C   LIG d   1       8.770   1.532  -4.297  0.00  0.00     0.035 A 
ATOM      5  C   LIG d   1       9.663   2.046  -3.357  0.00  0.00    -0.037 A 
ATOM      6  C   LIG d   1      10.519   3.072  -3.689  0.00  0.00    -0.017 A 
ATOM      7  C   LIG d   1      10.501   3.607  -4.972  0.00  0.00     0.136 A 
ATOM      8  O   LIG d   1      11.204   4.591  -5.569  0.00  0.00    -0.451 OA
ATOM      9  C   LIG d   1      10.818   4.748  -6.852  0.00  0.00     0.179 A 
ATOM     10  H   LIG d   1       8.052   1.645  -6.310  0.00  0.00     0.064 H 
ATOM     11  H   LIG d   1       9.683   1.635  -2.359  0.00  0.00     0.064 H 
ATOM     12  H   LIG d   1      11.206   3.461  -2.952  0.00  0.00     0.066 H 
ENDROOT
BRANCH   4  13
ATOM     13  N   LIG d   1       7.906   0.488  -3.942  0.00  0.00    -0.281 N 
ATOM     14  C   LIG d   1       6.666   0.764  -3.493  0.00  0.00     0.248 C 
ATOM     15  O   LIG d   1       6.329   1.917  -3.307  0.00  0.00    -0.270 OA
ATOM     16  H   LIG d   1       8.201  -0.433  -4.019  0.00  0.00     0.155 HD
BRANCH  14  17
ATOM     17  C   LIG d   1       5.715  -0.336  -3.226  0.00  0.00     0.041 A 
ATOM     18  C   LIG d   1       5.680  -1.450  -4.066  0.00  0.00    -0.008 A 
ATOM     19  C   LIG d   1       4.782  -2.474  -3.812  0.00  0.00     0.121 A 
ATOM     20  H   LIG d   1       6.347  -1.512  -4.913  0.00  0.00     0.066 H 
ATOM     21  C   LIG d   1       3.929  -2.396  -2.720  0.00  0.00    -0.020 A 
ATOM     22  C   LIG d   1       3.967  -1.295  -1.884  0.00  0.00    -0.058 A 
ATOM     23  H   LIG d   1       3.233  -3.199  -2.522  0.00  0.00     0.065 H 
ATOM     24  C   LIG d   1       4.853  -0.266  -2.130  0.00  0.00    -0.049 A 
ATOM     25  H   LIG d   1       3.301  -1.240  -1.036  0.00  0.00     0.062 H 
ATOM     26  H   LIG d   1       4.880   0.592  -1.476  0.00  0.00     0.062 H 
BRANCH  19  27
ATOM     27  O   LIG d   1       4.741  -3.558  -4.630  0.00  0.00    -0.495 OA
BRANCH  27  28
ATOM     28  C   LIG d   1       5.972  -3.965  -5.231  0.00  0.00     0.079 C 
ATOM     29  H   LIG d   1       5.935  -3.770  -6.304  0.00  0.00     0.066 H 
ATOM     30  H   LIG d   1       6.127  -5.030  -5.060  0.00  0.00     0.066 H 
ATOM     31  H   LIG d   1       6.796  -3.403  -4.789  0.00  0.00     0.066 H 
ENDBRANCH  27  28
ENDBRANCH  19  27
ENDBRANCH  14  17
ENDBRANCH   4  13
BRANCH   1  32
ATOM     32  C   LIG d   1       9.121   3.696  -8.464  0.00  0.00    -0.035 C 
ATOM     33  H   LIG d   1       8.043   3.707  -8.300  0.00  0.00     0.028 H 
ATOM     34  H   LIG d   1       9.395   4.515  -9.129  0.00  0.00     0.028 H 
ATOM     35  H   LIG d   1       9.409   2.747  -8.919  0.00  0.00     0.028 H 
ENDBRANCH   1  32
BRANCH   9  36
ATOM     36  C   LIG d   1      11.377   5.729  -7.789  0.00  0.00     0.228 C 
ATOM     37  O   LIG d   1      12.267   5.404  -8.552  0.00  0.00    -0.283 OA
BRANCH  36  38
ATOM     38  C   LIG d   1      10.857   7.113  -7.806  0.00  0.00     0.029 A 
ATOM     39  C   LIG d   1      11.011   7.934  -6.689  0.00  0.00    -0.009 A 
ATOM     40  C   LIG d   1      10.527   9.231  -6.715  0.00  0.00     0.121 A 
ATOM     41  H   LIG d   1      11.510   7.561  -5.807  0.00  0.00     0.066 H 
ATOM     42  C   LIG d   1       9.880   9.708  -7.848  0.00  0.00    -0.020 A 
ATOM     43  C   LIG d   1       9.721   8.894  -8.955  0.00  0.00    -0.058 A 
ATOM     44  H   LIG d   1       9.498  10.718  -7.864  0.00  0.00     0.065 H 
ATOM     45  C   LIG d   1      10.204   7.602  -8.940  0.00  0.00    -0.051 A 
ATOM     46  H   LIG d   1       9.216   9.270  -9.832  0.00  0.00     0.062 H 
ATOM     47  H   LIG d   1      10.079   6.969  -9.807  0.00  0.00     0.062 H 
BRANCH  40  48
ATOM     48  O   LIG d   1      10.680  10.036  -5.631  0.00  0.00    -0.495 OA
BRANCH  48  49
ATOM     49  C   LIG d   1       9.513  10.300  -4.850  0.00  0.00     0.079 C 
ATOM     50  H   LIG d   1       8.624  10.046  -5.427  0.00  0.00     0.066 H 
ATOM     51  H   LIG d   1       9.540   9.697  -3.941  0.00  0.00     0.066 H 
ATOM     52  H   LIG d   1       9.484  11.356  -4.584  0.00  0.00     0.066 H 
ENDBRANCH  48  49
ENDBRANCH  40  48
ENDBRANCH  36  38
ENDBRANCH   9  36
TORSDOF 9
ENDMDL
MODEL 8
REMARK VINA RESULT:      -6.0      5.943     13.398
REMARK  9 active torsions:
REMARK  status: ('A' for Active; 'I' for Inactive)
REMARK    1  A    between atoms: C_1  and  C_2 
REMARK    2  A    between atoms: C_5  and  N_21 
REMARK    3  A    between atoms: C_10  and  C_11 
REMARK    4  A    between atoms: C_11  and  C_13 
REMARK    5  A    between atoms: C_17  and  O_19 
REMARK    6  A    between atoms: O_19  and  C_20 
REMARK       I    between atoms: N_21  and  C_22 
REMARK    7  A    between atoms: C_22  and  C_24 
REMARK    8  A    between atoms: C_28  and  O_30 
REMARK    9  A    between atoms: O_30  and  C_31 
ROOT
ATOM      1  C   LIG d   1       9.076   2.231  -5.766  0.00  0.00     0.006 A 
ATOM      2  C   LIG d   1       7.984   1.272  -5.616  0.00  0.00     0.025 A 
ATOM      3  C   LIG d   1       7.129   0.624  -6.511  0.00  0.00    -0.029 A 
ATOM      4  C   LIG d   1       6.170  -0.246  -6.030  0.00  0.00     0.035 A 
ATOM      5  C   LIG d   1       6.064  -0.483  -4.659  0.00  0.00    -0.037 A 
ATOM      6  C   LIG d   1       6.905   0.148  -3.770  0.00  0.00    -0.017 A 
ATOM      7  C   LIG d   1       7.873   1.031  -4.233  0.00  0.00     0.136 A 
ATOM      8  O   LIG d   1       8.812   1.776  -3.614  0.00  0.00    -0.451 OA
ATOM      9  C   LIG d   1       9.528   2.488  -4.508  0.00  0.00     0.179 A 
ATOM     10  H   LIG d   1       7.216   0.804  -7.573  0.00  0.00     0.064 H 
ATOM     11  H   LIG d   1       5.315  -1.168  -4.291  0.00  0.00     0.064 H 
ATOM     12  H   LIG d   1       6.813  -0.044  -2.711  0.00  0.00     0.066 H 
ENDROOT
BRANCH   4  13
ATOM     13  N   LIG d   1       5.306  -0.897  -6.919  0.00  0.00    -0.281 N 
ATOM     14  C   LIG d   1       4.129  -0.331  -7.250  0.00  0.00     0.248 C 
ATOM     15  O   LIG d   1       3.774   0.697  -6.705  0.00  0.00    -0.270 OA
ATOM     16  H   LIG d   1       5.555  -1.755  -7.298  0.00  0.00     0.155 HD
BRANCH  14  17
ATOM     17  C   LIG d   1       3.268  -0.959  -8.275  0.00  0.00     0.041 A 
ATOM     18  C   LIG d   1       3.433  -2.306  -8.597  0.00  0.00    -0.008 A 
ATOM     19  C   LIG d   1       2.626  -2.886  -9.561  0.00  0.00     0.121 A 
ATOM     20  H   LIG d   1       4.189  -2.894  -8.098  0.00  0.00     0.066 H 
ATOM     21  C   LIG d   1       1.649  -2.132 -10.196  0.00  0.00    -0.020 A 
ATOM     22  C   LIG d   1       1.481  -0.797  -9.874  0.00  0.00    -0.058 A 
ATOM     23  H   LIG d   1       1.018  -2.588 -10.945  0.00  0.00     0.065 H 
ATOM     24  C   LIG d   1       2.284  -0.207  -8.918  0.00  0.00    -0.049 A 
ATOM     25  H   LIG d   1       0.720  -0.215 -10.371  0.00  0.00     0.062 H 
ATOM     26  H   LIG d   1       2.150   0.835  -8.669  0.00  0.00     0.062 H 
BRANCH  19  27
ATOM     27  O   LIG d   1       2.786  -4.197  -9.881  0.00  0.00    -0.495 OA
BRANCH  27  28
ATOM     28  C   LIG d   1       1.754  -4.805 -10.662  0.00  0.00     0.079 C 
ATOM     29  H   LIG d   1       2.130  -5.727 -11.107  0.00  0.00     0.066 H 
ATOM     30  H   LIG d   1       1.444  -4.121 -11.451  0.00  0.00     0.066 H 
ATOM     31  H   LIG d   1       0.900  -5.033 -10.022  0.00  0.00     0.066 H 
ENDBRANCH  27  28
ENDBRANCH  19  27
ENDBRANCH  14  17
ENDBRANCH   4  13
BRANCH   1  32
ATOM     32  C   LIG d   1       9.597   2.817  -7.053  0.00  0.00    -0.035 C 
ATOM     33  H   LIG d   1      10.250   2.095  -7.543  0.00  0.00     0.028 H 
ATOM     34  H   LIG d   1       8.759   3.053  -7.710  0.00  0.00     0.028 H 
ATOM     35  H   LIG d   1      10.157   3.727  -6.838  0.00  0.00     0.028 H 
ENDBRANCH   1  32
BRANCH   9  36
ATOM     36  C   LIG d   1      10.628   3.401  -4.176  0.00  0.00     0.228 C 
ATOM     37  O   LIG d   1      11.780   3.061  -4.368  0.00  0.00    -0.283 OA
BRANCH  36  38
ATOM     38  C   LIG d   1      10.335   4.735  -3.609  0.00  0.00     0.029 A 
ATOM     39  C   LIG d   1      10.136   5.827  -4.454  0.00  0.00    -0.009 A 
ATOM     40  C   LIG d   1       9.855   7.071  -3.916  0.00  0.00     0.121 A 
ATOM     41  H   LIG d   1      10.197   5.702  -5.525  0.00  0.00     0.066 H 
ATOM     42  C   LIG d   1       9.782   7.232  -2.538  0.00  0.00    -0.020 A 
ATOM     43  C   LIG d   1       9.984   6.151  -1.699  0.00  0.00    -0.058 A 
ATOM     44  H   LIG d   1       9.568   8.205  -2.121  0.00  0.00     0.065 H 
ATOM     45  C   LIG d   1      10.260   4.906  -2.225  0.00  0.00    -0.051 A 
ATOM     46  H   LIG d   1       9.927   6.283  -0.629  0.00  0.00     0.062 H 
ATOM     47  H   LIG d   1      10.416   4.064  -1.567  0.00  0.00     0.062 H 
BRANCH  40  48
ATOM     48  O   LIG d   1       9.656   8.137  -4.735  0.00  0.00    -0.495 OA
BRANCH  48  49
ATOM     49  C   LIG d   1       9.403   7.857  -6.114  0.00  0.00     0.079 C 
ATOM     50  H   LIG d   1      10.344   7.643  -6.619  0.00  0.00     0.066 H 
ATOM     51  H   LIG d   1       8.743   6.992  -6.193  0.00  0.00     0.066 H 
ATOM     52  H   LIG d   1       8.928   8.720  -6.579  0.00  0.00     0.066 H 
ENDBRANCH  48  49
ENDBRANCH  40  48
ENDBRANCH  36  38
ENDBRANCH   9  36
TORSDOF 9
ENDMDL
MODEL 9
REMARK VINA RESULT:      -6.0      7.109     15.625
REMARK  9 active torsions:
REMARK  status: ('A' for Active; 'I' for Inactive)
REMARK    1  A    between atoms: C_1  and  C_2 
REMARK    2  A    between atoms: C_5  and  N_21 
REMARK    3  A    between atoms: C_10  and  C_11 
REMARK    4  A    between atoms: C_11  and  C_13 
REMARK    5  A    between atoms: C_17  and  O_19 
REMARK    6  A    between atoms: O_19  and  C_20 
REMARK       I    between atoms: N_21  and  C_22 
REMARK    7  A    between atoms: C_22  and  C_24 
REMARK    8  A    between atoms: C_28  and  O_30 
REMARK    9  A    between atoms: O_30  and  C_31 
ROOT
ATOM      1  C   LIG d   1      10.195   5.433  -6.011  0.00  0.00     0.006 A 
ATOM      2  C   LIG d   1      10.011   4.341  -5.057  0.00  0.00     0.025 A 
ATOM      3  C   LIG d   1       9.393   3.089  -5.119  0.00  0.00    -0.029 A 
ATOM      4  C   LIG d   1       9.392   2.274  -4.005  0.00  0.00     0.035 A 
ATOM      5  C   LIG d   1      10.013   2.694  -2.829  0.00  0.00    -0.037 A 
ATOM      6  C   LIG d   1      10.629   3.923  -2.760  0.00  0.00    -0.017 A 
ATOM      7  C   LIG d   1      10.637   4.761  -3.868  0.00  0.00     0.136 A 
ATOM      8  O   LIG d   1      11.148   5.990  -4.090  0.00  0.00    -0.451 OA
ATOM      9  C   LIG d   1      10.894   6.396  -5.351  0.00  0.00     0.179 A 
ATOM     10  H   LIG d   1       8.916   2.764  -6.033  0.00  0.00     0.064 H 
ATOM     11  H   LIG d   1      10.012   2.048  -1.963  0.00  0.00     0.064 H 
ATOM     12  H   LIG d   1      11.108   4.236  -1.844  0.00  0.00     0.066 H 
ENDROOT
BRANCH   4  13
ATOM     13  N   LIG d   1       8.770   1.020  -4.056  0.00  0.00    -0.281 N 
ATOM     14  C   LIG d   1       7.454   0.909  -3.789  0.00  0.00     0.248 C 
ATOM     15  O   LIG d   1       6.827   1.880  -3.411  0.00  0.00    -0.270 OA
ATOM     16  H   LIG d   1       9.287   0.231  -4.285  0.00  0.00     0.155 HD
BRANCH  14  17
ATOM     17  C   LIG d   1       6.772  -0.392  -3.954  0.00  0.00     0.041 A 
ATOM     18  C   LIG d   1       5.426  -0.525  -3.613  0.00  0.00    -0.008 A 
ATOM     19  C   LIG d   1       4.796  -1.749  -3.766  0.00  0.00     0.121 A 
ATOM     20  H   LIG d   1       4.878   0.322  -3.228  0.00  0.00     0.066 H 
ATOM     21  C   LIG d   1       5.500  -2.836  -4.268  0.00  0.00    -0.020 A 
ATOM     22  C   LIG d   1       6.833  -2.703  -4.611  0.00  0.00    -0.058 A 
ATOM     23  H   LIG d   1       5.004  -3.788  -4.391  0.00  0.00     0.065 H 
ATOM     24  C   LIG d   1       7.472  -1.490  -4.458  0.00  0.00    -0.049 A 
ATOM     25  H   LIG d   1       7.375  -3.552  -5.001  0.00  0.00     0.062 H 
ATOM     26  H   LIG d   1       8.513  -1.390  -4.726  0.00  0.00     0.062 H 
BRANCH  19  27
ATOM     27  O   LIG d   1       3.486  -1.885  -3.431  0.00  0.00    -0.495 OA
BRANCH  27  28
ATOM     28  C   LIG d   1       2.758  -0.685  -3.160  0.00  0.00     0.079 C 
ATOM     29  H   LIG d   1       1.692  -0.868  -3.298  0.00  0.00     0.066 H 
ATOM     30  H   LIG d   1       3.083   0.099  -3.843  0.00  0.00     0.066 H 
ATOM     31  H   LIG d   1       2.943  -0.372  -2.132  0.00  0.00     0.066 H 
ENDBRANCH  27  28
ENDBRANCH  19  27
ENDBRANCH  14  17
ENDBRANCH   4  13
BRANCH   1  32
ATOM     32  C   LIG d   1       9.709   5.482  -7.437  0.00  0.00    -0.035 C 
ATOM     33  H   LIG d   1      10.371   6.118  -8.025  0.00  0.00     0.028 H 
ATOM     34  H   LIG d   1       9.705   4.475  -7.854  0.00  0.00     0.028 H 
ATOM     35  H   LIG d   1       8.697   5.890  -7.462  0.00  0.00     0.028 H 
ENDBRANCH   1  32
BRANCH   9  36
ATOM     36  C   LIG d   1      11.308   7.683  -5.924  0.00  0.00     0.228 C 
ATOM     37  O   LIG d   1      12.205   7.722  -6.744  0.00  0.00    -0.283 OA
BRANCH  36  38
ATOM     38  C   LIG d   1      10.631   8.929  -5.507  0.00  0.00     0.029 A 
ATOM     39  C   LIG d   1      10.357   9.159  -4.159  0.00  0.00    -0.009 A 
ATOM     40  C   LIG d   1       9.728  10.332  -3.774  0.00  0.00     0.121 A 
ATOM     41  H   LIG d   1      10.636   8.427  -3.415  0.00  0.00     0.066 H 
ATOM     42  C   LIG d   1       9.364  11.270  -4.731  0.00  0.00    -0.020 A 
ATOM     43  C   LIG d   1       9.631  11.042  -6.069  0.00  0.00    -0.058 A 
ATOM     44  H   LIG d   1       8.870  12.182  -4.429  0.00  0.00     0.065 H 
ATOM     45  C   LIG d   1      10.260   9.879  -6.462  0.00  0.00    -0.051 A 
ATOM     46  H   LIG d   1       9.344  11.775  -6.808  0.00  0.00     0.062 H 
ATOM     47  H   LIG d   1      10.468   9.703  -7.507  0.00  0.00     0.062 H 
BRANCH  40  48
ATOM     48  O   LIG d   1       9.463  10.563  -2.461  0.00  0.00    -0.495 OA
BRANCH  48  49
ATOM     49  C   LIG d   1       9.619   9.461  -1.565  0.00  0.00     0.079 C 
ATOM     50  H   LIG d   1       9.443   8.529  -2.101  0.00  0.00     0.066 H 
ATOM     51  H   LIG d   1      10.632   9.462  -1.161  0.00  0.00     0.066 H 
ATOM     52  H   LIG d   1       8.903   9.552  -0.749  0.00  0.00     0.066 H 
ENDBRANCH  48  49
ENDBRANCH  40  48
ENDBRANCH  36  38
ENDBRANCH   9  36
TORSDOF 9
ENDMDL
