MODEL 1
REMARK VINA RESULT:      -6.6      0.000      0.000
REMARK  9 active torsions:
REMARK  status: ('A' for Active; 'I' for Inactive)
REMARK    1  A    between atoms: C_1  and  C_2 
REMARK    2  A    between atoms: C_6  and  C_7 
REMARK    3  A    between atoms: C_7  and  C_8 
REMARK    4  A    between atoms: C_14  and  O_28 
REMARK    5  A    between atoms: C_15  and  C_18 
REMARK    6  A    between atoms: C_18  and  N_19 
REMARK    7  A    between atoms: N_22  and  C_25 
REMARK    8  A    between atoms: C_25  and  C_26 
REMARK    9  A    between atoms: C_26  and  O_27 
ROOT
ATOM      1  C   LIG d   1       3.338   0.419  -6.178  0.00  0.00     0.177 A 
ATOM      2  C   LIG d   1       2.755  -0.074  -4.980  0.00  0.00     0.232 A 
ATOM      3  O   LIG d   1       1.581  -0.021  -4.651  0.00  0.00    -0.283 OA
ATOM      4  C   LIG d   1       3.871  -0.661  -4.220  0.00  0.00     0.068 A 
ATOM      5  C   LIG d   1       3.961  -1.297  -2.982  0.00  0.00    -0.044 A 
ATOM      6  C   LIG d   1       5.172  -1.745  -2.534  0.00  0.00    -0.019 A 
ATOM      7  C   LIG d   1       6.316  -1.568  -3.309  0.00  0.00     0.129 A 
ATOM      8  C   LIG d   1       6.241  -0.939  -4.541  0.00  0.00     0.081 A 
ATOM      9  C   LIG d   1       5.019  -0.478  -5.010  0.00  0.00     0.151 A 
ATOM     10  O   LIG d   1       4.665   0.152  -6.151  0.00  0.00    -0.451 OA
ATOM     11  H   LIG d   1       3.077  -1.435  -2.379  0.00  0.00     0.063 H 
ATOM     12  H   LIG d   1       5.242  -2.238  -1.575  0.00  0.00     0.065 H 
ENDROOT
BRANCH   8  13
ATOM     13  C   LIG d   1       7.486  -0.754  -5.369  0.00  0.00     0.001 C 
ATOM     14  H   LIG d   1       7.939  -1.725  -5.567  0.00  0.00     0.087 H 
ATOM     15  H   LIG d   1       7.227  -0.275  -6.314  0.00  0.00     0.087 H 
BRANCH  13  16
ATOM     16  N   LIG d   1       8.440   0.090  -4.638  0.00  0.00     0.240 N 
ATOM     17  C   LIG d   1       9.722   0.113  -5.354  0.00  0.00    -0.018 C 
ATOM     18  C   LIG d   1      10.722   0.978  -4.582  0.00  0.00     0.039 C 
ATOM     19  H   LIG d   1      10.110  -0.902  -5.438  0.00  0.00     0.083 H 
ATOM     20  H   LIG d   1       9.575   0.530  -6.350  0.00  0.00     0.083 H 
ATOM     21  N   LIG d   1      10.189   2.341  -4.453  0.00  0.00    -0.290 N 
ATOM     22  H   LIG d   1      11.670   1.007  -5.121  0.00  0.00     0.048 H 
ATOM     23  H   LIG d   1      10.881   0.554  -3.591  0.00  0.00     0.048 H 
ATOM     24  C   LIG d   1       8.893   2.331  -3.760  0.00  0.00     0.039 C 
ATOM     25  C   LIG d   1       7.908   1.456  -4.539  0.00  0.00    -0.018 C 
ATOM     26  H   LIG d   1       8.506   3.349  -3.699  0.00  0.00     0.048 H 
ATOM     27  H   LIG d   1       9.021   1.930  -2.755  0.00  0.00     0.048 H 
ATOM     28  H   LIG d   1       7.770   1.866  -5.539  0.00  0.00     0.083 H 
ATOM     29  H   LIG d   1       6.951   1.437  -4.019  0.00  0.00     0.083 H 
ATOM     30  H   LIG d   1       8.578  -0.284  -3.712  0.00  0.00     0.204 HD
BRANCH  21  31
ATOM     31  C   LIG d   1      11.147   3.217  -3.765  0.00  0.00     0.022 C 
ATOM     32  H   LIG d   1      11.952   2.616  -3.343  0.00  0.00     0.045 H 
ATOM     33  H   LIG d   1      11.561   3.933  -4.475  0.00  0.00     0.045 H 
BRANCH  31  34
ATOM     34  C   LIG d   1      10.432   3.971  -2.641  0.00  0.00     0.057 C 
ATOM     35  H   LIG d   1      10.362   5.027  -2.899  0.00  0.00     0.057 H 
ATOM     36  H   LIG d   1       9.430   3.562  -2.510  0.00  0.00     0.057 H 
BRANCH  34  37
ATOM     37  O   LIG d   1      11.168   3.824  -1.426  0.00  0.00    -0.394 OA
ATOM     38  H   LIG d   1      10.619   3.829  -0.630  0.00  0.00     0.209 HD
ENDBRANCH  34  37
ENDBRANCH  31  34
ENDBRANCH  21  31
ENDBRANCH  13  16
ENDBRANCH   8  13
BRANCH   7  39
ATOM     39  O   LIG d   1       7.513  -2.017  -2.853  0.00  0.00    -0.506 OA
ATOM     40  H   LIG d   1       7.514  -2.256  -1.916  0.00  0.00     0.292 HD
ENDBRANCH   7  39
BRANCH   1  41
ATOM     41  C   LIG d   1       2.672   1.048  -7.189  0.00  0.00    -0.002 C 
ATOM     42  H   LIG d   1       1.958   1.826  -6.963  0.00  0.00     0.067 H 
BRANCH  41  43
ATOM     43  C   LIG d   1       2.917   0.683  -8.532  0.00  0.00     0.019 A 
ATOM     44  C   LIG d   1       3.550   1.407  -9.538  0.00  0.00    -0.036 A 
ATOM     45  C   LIG d   1       3.644   0.777 -10.754  0.00  0.00    -0.051 A 
ATOM     46  C   LIG d   1       3.126  -0.469 -10.894  0.00  0.00    -0.024 A 
ATOM     47  H   LIG d   1       4.123   1.267 -11.588  0.00  0.00     0.063 H 
ATOM     48  S   LIG d   1       2.494  -0.827  -9.380  0.00  0.00    -0.097 SA
ATOM     49  H   LIG d   1       3.120  -1.089 -11.779  0.00  0.00     0.069 H 
BRANCH  44  50
ATOM     50  C   LIG d   1       4.102   2.790  -9.305  0.00  0.00    -0.039 C 
ATOM     51  H   LIG d   1       4.524   2.849  -8.303  0.00  0.00     0.028 H 
ATOM     52  H   LIG d   1       4.879   3.000 -10.040  0.00  0.00     0.028 H 
ATOM     53  H   LIG d   1       3.300   3.522  -9.406  0.00  0.00     0.028 H 
ENDBRANCH  44  50
ENDBRANCH  41  43
ENDBRANCH   1  41
TORSDOF 9
ENDMDL
MODEL 2
REMARK VINA RESULT:      -6.1      2.226      2.612
REMARK  9 active torsions:
REMARK  status: ('A' for Active; 'I' for Inactive)
REMARK    1  A    between atoms: C_1  and  C_2 
REMARK    2  A    between atoms: C_6  and  C_7 
REMARK    3  A    between atoms: C_7  and  C_8 
REMARK    4  A    between atoms: C_14  and  O_28 
REMARK    5  A    between atoms: C_15  and  C_18 
REMARK    6  A    between atoms: C_18  and  N_19 
REMARK    7  A    between atoms: N_22  and  C_25 
REMARK    8  A    between atoms: C_25  and  C_26 
REMARK    9  A    between atoms: C_26  and  O_27 
ROOT
ATOM      1  C   LIG d   1       3.329   0.365  -6.424  0.00  0.00     0.177 A 
ATOM      2  C   LIG d   1       2.802   0.006  -5.155  0.00  0.00     0.232 A 
ATOM      3  O   LIG d   1       1.653   0.136  -4.765  0.00  0.00    -0.283 OA
ATOM      4  C   LIG d   1       3.941  -0.556  -4.409  0.00  0.00     0.068 A 
ATOM      5  C   LIG d   1       4.084  -1.081  -3.124  0.00  0.00    -0.044 A 
ATOM      6  C   LIG d   1       5.303  -1.537  -2.708  0.00  0.00    -0.019 A 
ATOM      7  C   LIG d   1       6.403  -1.476  -3.559  0.00  0.00     0.129 A 
ATOM      8  C   LIG d   1       6.276  -0.957  -4.838  0.00  0.00     0.081 A 
ATOM      9  C   LIG d   1       5.045  -0.491  -5.277  0.00  0.00     0.151 A 
ATOM     10  O   LIG d   1       4.645   0.049  -6.448  0.00  0.00    -0.451 OA
ATOM     11  H   LIG d   1       3.233  -1.129  -2.462  0.00  0.00     0.063 H 
ATOM     12  H   LIG d   1       5.413  -1.944  -1.713  0.00  0.00     0.065 H 
ENDROOT
BRANCH   8  13
ATOM     13  C   LIG d   1       7.474  -0.897  -5.749  0.00  0.00     0.001 C 
ATOM     14  H   LIG d   1       8.360  -1.230  -5.208  0.00  0.00     0.087 H 
ATOM     15  H   LIG d   1       7.310  -1.547  -6.609  0.00  0.00     0.087 H 
BRANCH  13  16
ATOM     16  N   LIG d   1       7.672   0.483  -6.208  0.00  0.00     0.240 N 
ATOM     17  C   LIG d   1       8.757   1.105  -5.438  0.00  0.00    -0.018 C 
ATOM     18  C   LIG d   1       8.951   2.550  -5.903  0.00  0.00     0.039 C 
ATOM     19  H   LIG d   1       8.502   1.096  -4.378  0.00  0.00     0.083 H 
ATOM     20  H   LIG d   1       9.680   0.546  -5.595  0.00  0.00     0.083 H 
ATOM     21  N   LIG d   1       9.276   2.561  -7.337  0.00  0.00    -0.290 N 
ATOM     22  H   LIG d   1       9.766   3.007  -5.342  0.00  0.00     0.048 H 
ATOM     23  H   LIG d   1       8.033   3.113  -5.734  0.00  0.00     0.048 H 
ATOM     24  C   LIG d   1       8.210   1.919  -8.118  0.00  0.00     0.039 C 
ATOM     25  C   LIG d   1       8.022   0.479  -7.635  0.00  0.00    -0.018 C 
ATOM     26  H   LIG d   1       8.484   1.916  -9.174  0.00  0.00     0.048 H 
ATOM     27  H   LIG d   1       7.280   2.472  -7.986  0.00  0.00     0.048 H 
ATOM     28  H   LIG d   1       8.948  -0.076  -7.780  0.00  0.00     0.083 H 
ATOM     29  H   LIG d   1       7.222   0.007  -8.205  0.00  0.00     0.083 H 
ATOM     30  H   LIG d   1       6.821   1.008  -6.074  0.00  0.00     0.204 HD
BRANCH  21  31
ATOM     31  C   LIG d   1       9.525   3.929  -7.810  0.00  0.00     0.022 C 
ATOM     32  H   LIG d   1       9.113   4.641  -7.095  0.00  0.00     0.045 H 
ATOM     33  H   LIG d   1      10.598   4.092  -7.908  0.00  0.00     0.045 H 
BRANCH  31  34
ATOM     34  C   LIG d   1       8.853   4.128  -9.170  0.00  0.00     0.057 C 
ATOM     35  H   LIG d   1       9.501   3.739  -9.956  0.00  0.00     0.057 H 
ATOM     36  H   LIG d   1       7.902   3.596  -9.187  0.00  0.00     0.057 H 
BRANCH  34  37
ATOM     37  O   LIG d   1       8.622   5.521  -9.388  0.00  0.00    -0.394 OA
ATOM     38  H   LIG d   1       8.841   6.080  -8.629  0.00  0.00     0.209 HD
ENDBRANCH  34  37
ENDBRANCH  31  34
ENDBRANCH  21  31
ENDBRANCH  13  16
ENDBRANCH   8  13
BRANCH   7  39
ATOM     39  O   LIG d   1       7.609  -1.931  -3.133  0.00  0.00    -0.506 OA
ATOM     40  H   LIG d   1       8.334  -1.762  -3.752  0.00  0.00     0.292 HD
ENDBRANCH   7  39
BRANCH   1  41
ATOM     41  C   LIG d   1       2.626   0.928  -7.448  0.00  0.00    -0.002 C 
ATOM     42  H   LIG d   1       1.782   1.567  -7.238  0.00  0.00     0.067 H 
BRANCH  41  43
ATOM     43  C   LIG d   1       3.002   0.675  -8.787  0.00  0.00     0.019 A 
ATOM     44  C   LIG d   1       3.725   1.479  -9.663  0.00  0.00    -0.036 A 
ATOM     45  C   LIG d   1       3.941   0.952 -10.912  0.00  0.00    -0.051 A 
ATOM     46  C   LIG d   1       3.446  -0.277 -11.205  0.00  0.00    -0.024 A 
ATOM     47  H   LIG d   1       4.495   1.508 -11.653  0.00  0.00     0.063 H 
ATOM     48  S   LIG d   1       2.672  -0.759  -9.794  0.00  0.00    -0.097 SA
ATOM     49  H   LIG d   1       3.530  -0.822 -12.135  0.00  0.00     0.069 H 
BRANCH  44  50
ATOM     50  C   LIG d   1       4.244   2.837  -9.264  0.00  0.00    -0.039 C 
ATOM     51  H   LIG d   1       5.102   3.095  -9.884  0.00  0.00     0.028 H 
ATOM     52  H   LIG d   1       3.459   3.580  -9.402  0.00  0.00     0.028 H 
ATOM     53  H   LIG d   1       4.545   2.817  -8.216  0.00  0.00     0.028 H 
ENDBRANCH  44  50
ENDBRANCH  41  43
ENDBRANCH   1  41
TORSDOF 9
ENDMDL
MODEL 3
REMARK VINA RESULT:      -6.1      4.323      6.993
REMARK  9 active torsions:
REMARK  status: ('A' for Active; 'I' for Inactive)
REMARK    1  A    between atoms: C_1  and  C_2 
REMARK    2  A    between atoms: C_6  and  C_7 
REMARK    3  A    between atoms: C_7  and  C_8 
REMARK    4  A    between atoms: C_14  and  O_28 
REMARK    5  A    between atoms: C_15  and  C_18 
REMARK    6  A    between atoms: C_18  and  N_19 
REMARK    7  A    between atoms: N_22  and  C_25 
REMARK    8  A    between atoms: C_25  and  C_26 
REMARK    9  A    between atoms: C_26  and  O_27 
ROOT
ATOM      1  C   LIG d   1       5.086  -1.791  -5.741  0.00  0.00     0.177 A 
ATOM      2  C   LIG d   1       5.463  -2.926  -4.974  0.00  0.00     0.232 A 
ATOM      3  O   LIG d   1       6.055  -2.935  -3.907  0.00  0.00    -0.283 OA
ATOM      4  C   LIG d   1       4.987  -4.088  -5.744  0.00  0.00     0.068 A 
ATOM      5  C   LIG d   1       5.045  -5.466  -5.537  0.00  0.00    -0.044 A 
ATOM      6  C   LIG d   1       4.498  -6.315  -6.458  0.00  0.00    -0.019 A 
ATOM      7  C   LIG d   1       3.886  -5.810  -7.602  0.00  0.00     0.129 A 
ATOM      8  C   LIG d   1       3.821  -4.443  -7.820  0.00  0.00     0.081 A 
ATOM      9  C   LIG d   1       4.371  -3.567  -6.895  0.00  0.00     0.151 A 
ATOM     10  O   LIG d   1       4.444  -2.219  -6.854  0.00  0.00    -0.451 OA
ATOM     11  H   LIG d   1       5.519  -5.862  -4.651  0.00  0.00     0.063 H 
ATOM     12  H   LIG d   1       4.543  -7.383  -6.298  0.00  0.00     0.065 H 
ENDROOT
BRANCH   8  13
ATOM     13  C   LIG d   1       3.155  -3.909  -9.062  0.00  0.00     0.001 C 
ATOM     14  H   LIG d   1       3.502  -4.470  -9.930  0.00  0.00     0.087 H 
ATOM     15  H   LIG d   1       2.075  -4.014  -8.970  0.00  0.00     0.087 H 
BRANCH  13  16
ATOM     16  N   LIG d   1       3.497  -2.490  -9.228  0.00  0.00     0.240 N 
ATOM     17  C   LIG d   1       4.412  -2.338 -10.367  0.00  0.00    -0.018 C 
ATOM     18  C   LIG d   1       4.783  -0.862 -10.530  0.00  0.00     0.039 C 
ATOM     19  H   LIG d   1       5.316  -2.921 -10.188  0.00  0.00     0.083 H 
ATOM     20  H   LIG d   1       3.924  -2.692 -11.276  0.00  0.00     0.083 H 
ATOM     21  N   LIG d   1       3.562  -0.074 -10.752  0.00  0.00    -0.290 N 
ATOM     22  H   LIG d   1       5.451  -0.746 -11.384  0.00  0.00     0.048 H 
ATOM     23  H   LIG d   1       5.283  -0.510  -9.627  0.00  0.00     0.048 H 
ATOM     24  C   LIG d   1       2.626  -0.237  -9.631  0.00  0.00     0.039 C 
ATOM     25  C   LIG d   1       2.272  -1.718  -9.476  0.00  0.00    -0.018 C 
ATOM     26  H   LIG d   1       1.718   0.335  -9.830  0.00  0.00     0.048 H 
ATOM     27  H   LIG d   1       3.090   0.125  -8.714  0.00  0.00     0.048 H 
ATOM     28  H   LIG d   1       1.796  -2.075 -10.389  0.00  0.00     0.083 H 
ATOM     29  H   LIG d   1       1.588  -1.842  -8.637  0.00  0.00     0.083 H 
ATOM     30  H   LIG d   1       3.944  -2.151  -8.390  0.00  0.00     0.204 HD
BRANCH  21  31
ATOM     31  C   LIG d   1       3.882   1.343 -10.969  0.00  0.00     0.022 C 
ATOM     32  H   LIG d   1       4.860   1.427 -11.443  0.00  0.00     0.045 H 
ATOM     33  H   LIG d   1       3.126   1.793 -11.612  0.00  0.00     0.045 H 
BRANCH  31  34
ATOM     34  C   LIG d   1       3.906   2.072  -9.624  0.00  0.00     0.057 C 
ATOM     35  H   LIG d   1       3.172   2.877  -9.633  0.00  0.00     0.057 H 
ATOM     36  H   LIG d   1       3.664   1.369  -8.826  0.00  0.00     0.057 H 
BRANCH  34  37
ATOM     37  O   LIG d   1       5.208   2.615  -9.399  0.00  0.00    -0.394 OA
ATOM     38  H   LIG d   1       5.719   2.148  -8.723  0.00  0.00     0.209 HD
ENDBRANCH  34  37
ENDBRANCH  31  34
ENDBRANCH  21  31
ENDBRANCH  13  16
ENDBRANCH   8  13
BRANCH   7  39
ATOM     39  O   LIG d   1       3.347  -6.663  -8.510  0.00  0.00    -0.506 OA
ATOM     40  H   LIG d   1       2.741  -6.242  -9.135  0.00  0.00     0.292 HD
ENDBRANCH   7  39
BRANCH   1  41
ATOM     41  C   LIG d   1       5.324  -0.490  -5.410  0.00  0.00    -0.002 C 
ATOM     42  H   LIG d   1       5.881   0.146  -6.082  0.00  0.00     0.067 H 
BRANCH  41  43
ATOM     43  C   LIG d   1       4.843   0.028  -4.186  0.00  0.00     0.019 A 
ATOM     44  C   LIG d   1       3.547   0.397  -3.838  0.00  0.00    -0.036 A 
ATOM     45  C   LIG d   1       3.386   0.866  -2.558  0.00  0.00    -0.051 A 
ATOM     46  C   LIG d   1       4.468   0.943  -1.742  0.00  0.00    -0.024 A 
ATOM     47  H   LIG d   1       2.413   1.171  -2.204  0.00  0.00     0.063 H 
ATOM     48  S   LIG d   1       5.739   0.380  -2.686  0.00  0.00    -0.097 SA
ATOM     49  H   LIG d   1       4.505   1.288  -0.719  0.00  0.00     0.069 H 
BRANCH  44  50
ATOM     50  C   LIG d   1       2.393   0.282  -4.801  0.00  0.00    -0.039 C 
ATOM     51  H   LIG d   1       1.491   0.004  -4.256  0.00  0.00     0.028 H 
ATOM     52  H   LIG d   1       2.237   1.239  -5.297  0.00  0.00     0.028 H 
ATOM     53  H   LIG d   1       2.617  -0.482  -5.546  0.00  0.00     0.028 H 
ENDBRANCH  44  50
ENDBRANCH  41  43
ENDBRANCH   1  41
TORSDOF 9
ENDMDL
MODEL 4
REMARK VINA RESULT:      -6.1      4.652      9.419
REMARK  9 active torsions:
REMARK  status: ('A' for Active; 'I' for Inactive)
REMARK    1  A    between atoms: C_1  and  C_2 
REMARK    2  A    between atoms: C_6  and  C_7 
REMARK    3  A    between atoms: C_7  and  C_8 
REMARK    4  A    between atoms: C_14  and  O_28 
REMARK    5  A    between atoms: C_15  and  C_18 
REMARK    6  A    between atoms: C_18  and  N_19 
REMARK    7  A    between atoms: N_22  and  C_25 
REMARK    8  A    between atoms: C_25  and  C_26 
REMARK    9  A    between atoms: C_26  and  O_27 
ROOT
ATOM      1  C   LIG d   1       3.238  -0.020  -7.213  0.00  0.00     0.177 A 
ATOM      2  C   LIG d   1       3.233   1.010  -8.190  0.00  0.00     0.232 A 
ATOM      3  O   LIG d   1       3.086   2.207  -8.005  0.00  0.00    -0.283 OA
ATOM      4  C   LIG d   1       3.444   0.323  -9.476  0.00  0.00     0.068 A 
ATOM      5  C   LIG d   1       3.537   0.764 -10.797  0.00  0.00    -0.044 A 
ATOM      6  C   LIG d   1       3.741  -0.140 -11.802  0.00  0.00    -0.019 A 
ATOM      7  C   LIG d   1       3.853  -1.497 -11.513  0.00  0.00     0.129 A 
ATOM      8  C   LIG d   1       3.762  -1.949 -10.206  0.00  0.00     0.081 A 
ATOM      9  C   LIG d   1       3.556  -1.044  -9.173  0.00  0.00     0.151 A 
ATOM     10  O   LIG d   1       3.436  -1.205  -7.838  0.00  0.00    -0.451 OA
ATOM     11  H   LIG d   1       3.450   1.816 -11.024  0.00  0.00     0.063 H 
ATOM     12  H   LIG d   1       3.814   0.201 -12.824  0.00  0.00     0.065 H 
ENDROOT
BRANCH   8  13
ATOM     13  C   LIG d   1       3.886  -3.420  -9.906  0.00  0.00     0.001 C 
ATOM     14  H   LIG d   1       4.794  -3.810 -10.367  0.00  0.00     0.087 H 
ATOM     15  H   LIG d   1       3.934  -3.570  -8.828  0.00  0.00     0.087 H 
BRANCH  13  16
ATOM     16  N   LIG d   1       2.719  -4.129 -10.448  0.00  0.00     0.240 N 
ATOM     17  C   LIG d   1       2.624  -5.458  -9.829  0.00  0.00    -0.018 C 
ATOM     18  C   LIG d   1       1.419  -6.205 -10.407  0.00  0.00     0.039 C 
ATOM     19  H   LIG d   1       3.533  -6.022 -10.036  0.00  0.00     0.083 H 
ATOM     20  H   LIG d   1       2.500  -5.349  -8.751  0.00  0.00     0.083 H 
ATOM     21  N   LIG d   1       0.196  -5.434 -10.143  0.00  0.00    -0.290 N 
ATOM     22  H   LIG d   1       1.339  -7.185  -9.937  0.00  0.00     0.048 H 
ATOM     23  H   LIG d   1       1.548  -6.326 -11.482  0.00  0.00     0.048 H 
ATOM     24  C   LIG d   1       0.288  -4.092 -10.736  0.00  0.00     0.039 C 
ATOM     25  C   LIG d   1       1.502  -3.362 -10.155  0.00  0.00    -0.018 C 
ATOM     26  H   LIG d   1      -0.619  -3.530 -10.506  0.00  0.00     0.048 H 
ATOM     27  H   LIG d   1       0.397  -4.178 -11.817  0.00  0.00     0.048 H 
ATOM     28  H   LIG d   1       1.384  -3.264  -9.076  0.00  0.00     0.083 H 
ATOM     29  H   LIG d   1       1.578  -2.372 -10.604  0.00  0.00     0.083 H 
ATOM     30  H   LIG d   1       2.821  -4.230 -11.446  0.00  0.00     0.204 HD
BRANCH  21  31
ATOM     31  C   LIG d   1      -0.991  -6.146 -10.635  0.00  0.00     0.022 C 
ATOM     32  H   LIG d   1      -1.741  -5.423 -10.959  0.00  0.00     0.045 H 
ATOM     33  H   LIG d   1      -0.713  -6.783 -11.474  0.00  0.00     0.045 H 
BRANCH  31  34
ATOM     34  C   LIG d   1      -1.570  -7.008  -9.511  0.00  0.00     0.057 C 
ATOM     35  H   LIG d   1      -2.592  -7.292  -9.760  0.00  0.00     0.057 H 
ATOM     36  H   LIG d   1      -0.963  -7.906  -9.393  0.00  0.00     0.057 H 
BRANCH  34  37
ATOM     37  O   LIG d   1      -1.564  -6.267  -8.290  0.00  0.00    -0.394 OA
ATOM     38  H   LIG d   1      -1.576  -5.307  -8.412  0.00  0.00     0.209 HD
ENDBRANCH  34  37
ENDBRANCH  31  34
ENDBRANCH  21  31
ENDBRANCH  13  16
ENDBRANCH   8  13
BRANCH   7  39
ATOM     39  O   LIG d   1       4.054  -2.385 -12.519  0.00  0.00    -0.506 OA
ATOM     40  H   LIG d   1       4.470  -3.212 -12.238  0.00  0.00     0.292 HD
ENDBRANCH   7  39
BRANCH   1  41
ATOM     41  C   LIG d   1       3.075   0.154  -5.870  0.00  0.00    -0.002 C 
ATOM     42  H   LIG d   1       2.196   0.654  -5.492  0.00  0.00     0.067 H 
BRANCH  41  43
ATOM     43  C   LIG d   1       4.058  -0.320  -4.971  0.00  0.00     0.019 A 
ATOM     44  C   LIG d   1       3.905  -0.780  -3.666  0.00  0.00    -0.036 A 
ATOM     45  C   LIG d   1       5.058  -1.185  -3.041  0.00  0.00    -0.051 A 
ATOM     46  C   LIG d   1       6.235  -1.108  -3.711  0.00  0.00    -0.024 A 
ATOM     47  H   LIG d   1       5.030  -1.558  -2.028  0.00  0.00     0.063 H 
ATOM     48  S   LIG d   1       5.816  -0.484  -5.214  0.00  0.00    -0.097 SA
ATOM     49  H   LIG d   1       7.219  -1.384  -3.360  0.00  0.00     0.069 H 
BRANCH  44  50
ATOM     50  C   LIG d   1       2.561  -0.836  -2.986  0.00  0.00    -0.039 C 
ATOM     51  H   LIG d   1       2.660  -0.494  -1.957  0.00  0.00     0.028 H 
ATOM     52  H   LIG d   1       1.858  -0.194  -3.517  0.00  0.00     0.028 H 
ATOM     53  H   LIG d   1       2.193  -1.862  -2.995  0.00  0.00     0.028 H 
ENDBRANCH  44  50
ENDBRANCH  41  43
ENDBRANCH   1  41
TORSDOF 9
ENDMDL
MODEL 5
REMARK VINA RESULT:      -6.0      7.753     10.197
REMARK  9 active torsions:
REMARK  status: ('A' for Active; 'I' for Inactive)
REMARK    1  A    between atoms: C_1  and  C_2 
REMARK    2  A    between atoms: C_6  and  C_7 
REMARK    3  A    between atoms: C_7  and  C_8 
REMARK    4  A    between atoms: C_14  and  O_28 
REMARK    5  A    between atoms: C_15  and  C_18 
REMARK    6  A    between atoms: C_18  and  N_19 
REMARK    7  A    between atoms: N_22  and  C_25 
REMARK    8  A    between atoms: C_25  and  C_26 
REMARK    9  A    between atoms: C_26  and  O_27 
ROOT
ATOM      1  C   LIG d   1       9.535   6.320  -3.355  0.00  0.00     0.177 A 
ATOM      2  C   LIG d   1      10.041   5.414  -2.386  0.00  0.00     0.232 A 
ATOM      3  O   LIG d   1      10.126   4.200  -2.479  0.00  0.00    -0.283 OA
ATOM      4  C   LIG d   1      10.441   6.254  -1.243  0.00  0.00     0.068 A 
ATOM      5  C   LIG d   1      10.999   5.976   0.005  0.00  0.00    -0.044 A 
ATOM      6  C   LIG d   1      11.264   6.997   0.873  0.00  0.00    -0.019 A 
ATOM      7  C   LIG d   1      10.977   8.312   0.518  0.00  0.00     0.129 A 
ATOM      8  C   LIG d   1      10.422   8.603  -0.718  0.00  0.00     0.081 A 
ATOM      9  C   LIG d   1      10.148   7.578  -1.612  0.00  0.00     0.151 A 
ATOM     10  O   LIG d   1       9.624   7.576  -2.857  0.00  0.00    -0.451 OA
ATOM     11  H   LIG d   1      11.223   4.957   0.283  0.00  0.00     0.063 H 
ATOM     12  H   LIG d   1      11.697   6.782   1.840  0.00  0.00     0.065 H 
ENDROOT
BRANCH   8  13
ATOM     13  C   LIG d   1      10.116  10.031  -1.090  0.00  0.00     0.001 C 
ATOM     14  H   LIG d   1       9.129  10.300  -0.715  0.00  0.00     0.087 H 
ATOM     15  H   LIG d   1      10.864  10.690  -0.649  0.00  0.00     0.087 H 
BRANCH  13  16
ATOM     16  N   LIG d   1      10.139  10.171  -2.551  0.00  0.00     0.240 N 
ATOM     17  C   LIG d   1       9.124  11.149  -2.965  0.00  0.00    -0.018 C 
ATOM     18  C   LIG d   1       9.135  11.283  -4.490  0.00  0.00     0.039 C 
ATOM     19  H   LIG d   1       8.140  10.813  -2.637  0.00  0.00     0.083 H 
ATOM     20  H   LIG d   1       9.346  12.117  -2.514  0.00  0.00     0.083 H 
ATOM     21  N   LIG d   1      10.467  11.718  -4.931  0.00  0.00    -0.290 N 
ATOM     22  H   LIG d   1       8.391  12.019  -4.796  0.00  0.00     0.048 H 
ATOM     23  H   LIG d   1       8.899  10.319  -4.941  0.00  0.00     0.048 H 
ATOM     24  C   LIG d   1      11.497  10.761  -4.502  0.00  0.00     0.039 C 
ATOM     25  C   LIG d   1      11.467  10.632  -2.977  0.00  0.00    -0.018 C 
ATOM     26  H   LIG d   1      12.479  11.118  -4.818  0.00  0.00     0.048 H 
ATOM     27  H   LIG d   1      11.300   9.789  -4.954  0.00  0.00     0.048 H 
ATOM     28  H   LIG d   1      11.677  11.602  -2.527  0.00  0.00     0.083 H 
ATOM     29  H   LIG d   1      12.221   9.913  -2.659  0.00  0.00     0.083 H 
ATOM     30  H   LIG d   1       9.940   9.280  -2.978  0.00  0.00     0.204 HD
BRANCH  21  31
ATOM     31  C   LIG d   1      10.502  11.912  -6.386  0.00  0.00     0.022 C 
ATOM     32  H   LIG d   1      11.520  12.148  -6.698  0.00  0.00     0.045 H 
ATOM     33  H   LIG d   1      10.172  11.000  -6.884  0.00  0.00     0.045 H 
BRANCH  31  34
ATOM     34  C   LIG d   1       9.573  13.066  -6.770  0.00  0.00     0.057 C 
ATOM     35  H   LIG d   1       8.867  13.248  -5.960  0.00  0.00     0.057 H 
ATOM     36  H   LIG d   1      10.164  13.965  -6.946  0.00  0.00     0.057 H 
BRANCH  34  37
ATOM     37  O   LIG d   1       8.858  12.727  -7.959  0.00  0.00    -0.394 OA
ATOM     38  H   LIG d   1       8.943  11.799  -8.219  0.00  0.00     0.209 HD
ENDBRANCH  34  37
ENDBRANCH  31  34
ENDBRANCH  21  31
ENDBRANCH  13  16
ENDBRANCH   8  13
BRANCH   7  39
ATOM     39  O   LIG d   1      11.243   9.318   1.390  0.00  0.00    -0.506 OA
ATOM     40  H   LIG d   1      10.494   9.908   1.552  0.00  0.00     0.292 HD
ENDBRANCH   7  39
BRANCH   1  41
ATOM     41  C   LIG d   1       9.047   5.983  -4.583  0.00  0.00    -0.002 C 
ATOM     42  H   LIG d   1       8.009   5.709  -4.696  0.00  0.00     0.067 H 
BRANCH  41  43
ATOM     43  C   LIG d   1       9.900   5.994  -5.710  0.00  0.00     0.019 A 
ATOM     44  C   LIG d   1      10.063   6.980  -6.679  0.00  0.00    -0.036 A 
ATOM     45  C   LIG d   1      10.982   6.702  -7.661  0.00  0.00    -0.051 A 
ATOM     46  C   LIG d   1      11.647   5.520  -7.627  0.00  0.00    -0.024 A 
ATOM     47  H   LIG d   1      11.172   7.414  -8.449  0.00  0.00     0.063 H 
ATOM     48  S   LIG d   1      11.047   4.746  -6.262  0.00  0.00    -0.097 SA
ATOM     49  H   LIG d   1      12.392   5.157  -8.320  0.00  0.00     0.069 H 
BRANCH  44  50
ATOM     50  C   LIG d   1       9.286   8.271  -6.650  0.00  0.00    -0.039 C 
ATOM     51  H   LIG d   1       9.415   8.795  -7.596  0.00  0.00     0.028 H 
ATOM     52  H   LIG d   1       8.229   8.055  -6.495  0.00  0.00     0.028 H 
ATOM     53  H   LIG d   1       9.652   8.896  -5.835  0.00  0.00     0.028 H 
ENDBRANCH  44  50
ENDBRANCH  41  43
ENDBRANCH   1  41
TORSDOF 9
ENDMDL
MODEL 6
REMARK VINA RESULT:      -5.9      3.433      7.165
REMARK  9 active torsions:
REMARK  status: ('A' for Active; 'I' for Inactive)
REMARK    1  A    between atoms: C_1  and  C_2 
REMARK    2  A    between atoms: C_6  and  C_7 
REMARK    3  A    between atoms: C_7  and  C_8 
REMARK    4  A    between atoms: C_14  and  O_28 
REMARK    5  A    between atoms: C_15  and  C_18 
REMARK    6  A    between atoms: C_18  and  N_19 
REMARK    7  A    between atoms: N_22  and  C_25 
REMARK    8  A    between atoms: C_25  and  C_26 
REMARK    9  A    between atoms: C_26  and  O_27 
ROOT
ATOM      1  C   LIG d   1       7.351   1.100  -4.189  0.00  0.00     0.177 A 
ATOM      2  C   LIG d   1       8.458   1.981  -4.311  0.00  0.00     0.232 A 
ATOM      3  O   LIG d   1       9.126   2.462  -3.410  0.00  0.00    -0.283 OA
ATOM      4  C   LIG d   1       8.627   2.190  -5.760  0.00  0.00     0.068 A 
ATOM      5  C   LIG d   1       9.523   2.938  -6.524  0.00  0.00    -0.044 A 
ATOM      6  C   LIG d   1       9.424   2.930  -7.888  0.00  0.00    -0.019 A 
ATOM      7  C   LIG d   1       8.431   2.181  -8.515  0.00  0.00     0.129 A 
ATOM      8  C   LIG d   1       7.536   1.434  -7.767  0.00  0.00     0.081 A 
ATOM      9  C   LIG d   1       7.623   1.430  -6.382  0.00  0.00     0.151 A 
ATOM     10  O   LIG d   1       6.900   0.802  -5.430  0.00  0.00    -0.451 OA
ATOM     11  H   LIG d   1      10.293   3.520  -6.041  0.00  0.00     0.063 H 
ATOM     12  H   LIG d   1      10.117   3.509  -8.480  0.00  0.00     0.065 H 
ENDROOT
BRANCH   8  13
ATOM     13  C   LIG d   1       6.466   0.627  -8.458  0.00  0.00     0.001 C 
ATOM     14  H   LIG d   1       5.532   1.189  -8.461  0.00  0.00     0.087 H 
ATOM     15  H   LIG d   1       6.770   0.424  -9.485  0.00  0.00     0.087 H 
BRANCH  13  16
ATOM     16  N   LIG d   1       6.273  -0.642  -7.745  0.00  0.00     0.240 N 
ATOM     17  C   LIG d   1       4.904  -1.126  -7.971  0.00  0.00    -0.018 C 
ATOM     18  C   LIG d   1       4.696  -2.439  -7.212  0.00  0.00     0.039 C 
ATOM     19  H   LIG d   1       4.192  -0.383  -7.612  0.00  0.00     0.083 H 
ATOM     20  H   LIG d   1       4.749  -1.294  -9.037  0.00  0.00     0.083 H 
ATOM     21  N   LIG d   1       5.670  -3.434  -7.684  0.00  0.00    -0.290 N 
ATOM     22  H   LIG d   1       3.685  -2.806  -7.392  0.00  0.00     0.048 H 
ATOM     23  H   LIG d   1       4.837  -2.269  -6.145  0.00  0.00     0.048 H 
ATOM     24  C   LIG d   1       7.044  -2.951  -7.487  0.00  0.00     0.039 C 
ATOM     25  C   LIG d   1       7.233  -1.635  -8.243  0.00  0.00    -0.018 C 
ATOM     26  H   LIG d   1       7.747  -3.694  -7.867  0.00  0.00     0.048 H 
ATOM     27  H   LIG d   1       7.224  -2.791  -6.424  0.00  0.00     0.048 H 
ATOM     28  H   LIG d   1       7.067  -1.800  -9.307  0.00  0.00     0.083 H 
ATOM     29  H   LIG d   1       8.248  -1.269  -8.087  0.00  0.00     0.083 H 
ATOM     30  H   LIG d   1       6.420  -0.498  -6.758  0.00  0.00     0.204 HD
BRANCH  21  31
ATOM     31  C   LIG d   1       5.465  -4.727  -7.018  0.00  0.00     0.022 C 
ATOM     32  H   LIG d   1       5.678  -5.534  -7.719  0.00  0.00     0.045 H 
ATOM     33  H   LIG d   1       6.132  -4.805  -6.160  0.00  0.00     0.045 H 
BRANCH  31  34
ATOM     34  C   LIG d   1       4.014  -4.833  -6.545  0.00  0.00     0.057 C 
ATOM     35  H   LIG d   1       3.620  -3.836  -6.353  0.00  0.00     0.057 H 
ATOM     36  H   LIG d   1       3.415  -5.318  -7.317  0.00  0.00     0.057 H 
BRANCH  34  37
ATOM     37  O   LIG d   1       3.958  -5.607  -5.346  0.00  0.00    -0.394 OA
ATOM     38  H   LIG d   1       4.037  -5.084  -4.536  0.00  0.00     0.209 HD
ENDBRANCH  34  37
ENDBRANCH  31  34
ENDBRANCH  21  31
ENDBRANCH  13  16
ENDBRANCH   8  13
BRANCH   7  39
ATOM     39  O   LIG d   1       8.342   2.183  -9.869  0.00  0.00    -0.506 OA
ATOM     40  H   LIG d   1       8.437   3.059 -10.269  0.00  0.00     0.292 HD
ENDBRANCH   7  39
BRANCH   1  41
ATOM     41  C   LIG d   1       6.832   0.630  -3.018  0.00  0.00    -0.002 C 
ATOM     42  H   LIG d   1       7.204   1.001  -2.075  0.00  0.00     0.067 H 
BRANCH  41  43
ATOM     43  C   LIG d   1       5.807  -0.343  -3.040  0.00  0.00     0.019 A 
ATOM     44  C   LIG d   1       4.488  -0.237  -2.607  0.00  0.00    -0.036 A 
ATOM     45  C   LIG d   1       3.720  -1.365  -2.766  0.00  0.00    -0.051 A 
ATOM     46  C   LIG d   1       4.279  -2.474  -3.310  0.00  0.00    -0.024 A 
ATOM     47  H   LIG d   1       2.684  -1.369  -2.460  0.00  0.00     0.063 H 
ATOM     48  S   LIG d   1       5.867  -2.025  -3.627  0.00  0.00    -0.097 SA
ATOM     49  H   LIG d   1       3.811  -3.430  -3.498  0.00  0.00     0.069 H 
BRANCH  44  50
ATOM     50  C   LIG d   1       3.936   1.032  -2.011  0.00  0.00    -0.039 C 
ATOM     51  H   LIG d   1       4.454   1.890  -2.439  0.00  0.00     0.028 H 
ATOM     52  H   LIG d   1       2.871   1.104  -2.230  0.00  0.00     0.028 H 
ATOM     53  H   LIG d   1       4.085   1.020  -0.931  0.00  0.00     0.028 H 
ENDBRANCH  44  50
ENDBRANCH  41  43
ENDBRANCH   1  41
TORSDOF 9
ENDMDL
MODEL 7
REMARK VINA RESULT:      -5.9      3.271      7.356
REMARK  9 active torsions:
REMARK  status: ('A' for Active; 'I' for Inactive)
REMARK    1  A    between atoms: C_1  and  C_2 
REMARK    2  A    between atoms: C_6  and  C_7 
REMARK    3  A    between atoms: C_7  and  C_8 
REMARK    4  A    between atoms: C_14  and  O_28 
REMARK    5  A    between atoms: C_15  and  C_18 
REMARK    6  A    between atoms: C_18  and  N_19 
REMARK    7  A    between atoms: N_22  and  C_25 
REMARK    8  A    between atoms: C_25  and  C_26 
REMARK    9  A    between atoms: C_26  and  O_27 
ROOT
ATOM      1  C   LIG d   1       7.256   0.827  -4.758  0.00  0.00     0.177 A 
ATOM      2  C   LIG d   1       8.134   1.881  -4.389  0.00  0.00     0.232 A 
ATOM      3  O   LIG d   1       8.430   2.238  -3.260  0.00  0.00    -0.283 OA
ATOM      4  C   LIG d   1       8.609   2.451  -5.661  0.00  0.00     0.068 A 
ATOM      5  C   LIG d   1       9.477   3.495  -5.982  0.00  0.00    -0.044 A 
ATOM      6  C   LIG d   1       9.727   3.793  -7.292  0.00  0.00    -0.019 A 
ATOM      7  C   LIG d   1       9.117   3.061  -8.307  0.00  0.00     0.129 A 
ATOM      8  C   LIG d   1       8.253   2.022  -8.003  0.00  0.00     0.081 A 
ATOM      9  C   LIG d   1       7.989   1.705  -6.678  0.00  0.00     0.151 A 
ATOM     10  O   LIG d   1       7.209   0.760  -6.110  0.00  0.00    -0.451 OA
ATOM     11  H   LIG d   1       9.952   4.065  -5.197  0.00  0.00     0.063 H 
ATOM     12  H   LIG d   1      10.400   4.602  -7.540  0.00  0.00     0.065 H 
ENDROOT
BRANCH   8  13
ATOM     13  C   LIG d   1       7.599   1.237  -9.111  0.00  0.00     0.001 C 
ATOM     14  H   LIG d   1       7.525   1.860 -10.003  0.00  0.00     0.087 H 
ATOM     15  H   LIG d   1       8.198   0.354  -9.334  0.00  0.00     0.087 H 
BRANCH  13  16
ATOM     16  N   LIG d   1       6.254   0.824  -8.690  0.00  0.00     0.240 N 
ATOM     17  C   LIG d   1       5.266   1.787  -9.194  0.00  0.00    -0.018 C 
ATOM     18  C   LIG d   1       3.866   1.367  -8.740  0.00  0.00     0.039 C 
ATOM     19  H   LIG d   1       5.493   2.779  -8.802  0.00  0.00     0.083 H 
ATOM     20  H   LIG d   1       5.303   1.810 -10.284  0.00  0.00     0.083 H 
ATOM     21  N   LIG d   1       3.571   0.022  -9.255  0.00  0.00    -0.290 N 
ATOM     22  H   LIG d   1       3.131   2.074  -9.126  0.00  0.00     0.048 H 
ATOM     23  H   LIG d   1       3.824   1.357  -7.651  0.00  0.00     0.048 H 
ATOM     24  C   LIG d   1       4.567  -0.949  -8.779  0.00  0.00     0.039 C 
ATOM     25  C   LIG d   1       5.961  -0.510  -9.232  0.00  0.00    -0.018 C 
ATOM     26  H   LIG d   1       4.342  -1.933  -9.193  0.00  0.00     0.048 H 
ATOM     27  H   LIG d   1       4.536  -0.997  -7.690  0.00  0.00     0.048 H 
ATOM     28  H   LIG d   1       5.994  -0.475 -10.321  0.00  0.00     0.083 H 
ATOM     29  H   LIG d   1       6.701  -1.222  -8.869  0.00  0.00     0.083 H 
ATOM     30  H   LIG d   1       6.211   0.793  -7.683  0.00  0.00     0.204 HD
BRANCH  21  31
ATOM     31  C   LIG d   1       2.211  -0.395  -8.886  0.00  0.00     0.022 C 
ATOM     32  H   LIG d   1       2.263  -1.263  -8.228  0.00  0.00     0.045 H 
ATOM     33  H   LIG d   1       1.706   0.422  -8.372  0.00  0.00     0.045 H 
BRANCH  31  34
ATOM     34  C   LIG d   1       1.430  -0.762 -10.150  0.00  0.00     0.057 C 
ATOM     35  H   LIG d   1       1.167  -1.818 -10.121  0.00  0.00     0.057 H 
ATOM     36  H   LIG d   1       0.522  -0.162 -10.202  0.00  0.00     0.057 H 
BRANCH  34  37
ATOM     37  O   LIG d   1       2.237  -0.502 -11.301  0.00  0.00    -0.394 OA
ATOM     38  H   LIG d   1       2.941   0.144 -11.151  0.00  0.00     0.209 HD
ENDBRANCH  34  37
ENDBRANCH  31  34
ENDBRANCH  21  31
ENDBRANCH  13  16
ENDBRANCH   8  13
BRANCH   7  39
ATOM     39  O   LIG d   1       9.372   3.368  -9.604  0.00  0.00    -0.506 OA
ATOM     40  H   LIG d   1      10.289   3.215  -9.872  0.00  0.00     0.292 HD
ENDBRANCH   7  39
BRANCH   1  41
ATOM     41  C   LIG d   1       6.579   0.015  -3.896  0.00  0.00    -0.002 C 
ATOM     42  H   LIG d   1       7.122  -0.633  -3.225  0.00  0.00     0.067 H 
BRANCH  41  43
ATOM     43  C   LIG d   1       5.166   0.021  -3.882  0.00  0.00     0.019 A 
ATOM     44  C   LIG d   1       4.300   0.407  -2.862  0.00  0.00    -0.036 A 
ATOM     45  C   LIG d   1       2.961   0.305  -3.150  0.00  0.00    -0.051 A 
ATOM     46  C   LIG d   1       2.581  -0.154  -4.369  0.00  0.00    -0.024 A 
ATOM     47  H   LIG d   1       2.221   0.587  -2.417  0.00  0.00     0.063 H 
ATOM     48  S   LIG d   1       4.027  -0.464  -5.165  0.00  0.00    -0.097 SA
ATOM     49  H   LIG d   1       1.576  -0.291  -4.743  0.00  0.00     0.069 H 
BRANCH  44  50
ATOM     50  C   LIG d   1       4.799   0.908  -1.531  0.00  0.00    -0.039 C 
ATOM     51  H   LIG d   1       4.035   0.746  -0.772  0.00  0.00     0.028 H 
ATOM     52  H   LIG d   1       5.705   0.369  -1.256  0.00  0.00     0.028 H 
ATOM     53  H   LIG d   1       5.019   1.974  -1.605  0.00  0.00     0.028 H 
ENDBRANCH  44  50
ENDBRANCH  41  43
ENDBRANCH   1  41
TORSDOF 9
ENDMDL
MODEL 8
REMARK VINA RESULT:      -5.9      3.730      6.085
REMARK  9 active torsions:
REMARK  status: ('A' for Active; 'I' for Inactive)
REMARK    1  A    between atoms: C_1  and  C_2 
REMARK    2  A    between atoms: C_6  and  C_7 
REMARK    3  A    between atoms: C_7  and  C_8 
REMARK    4  A    between atoms: C_14  and  O_28 
REMARK    5  A    between atoms: C_15  and  C_18 
REMARK    6  A    between atoms: C_18  and  N_19 
REMARK    7  A    between atoms: N_22  and  C_25 
REMARK    8  A    between atoms: C_25  and  C_26 
REMARK    9  A    between atoms: C_26  and  O_27 
ROOT
ATOM      1  C   LIG d   1       3.363  -0.156  -6.661  0.00  0.00     0.177 A 
ATOM      2  C   LIG d   1       3.266   0.467  -5.389  0.00  0.00     0.232 A 
ATOM      3  O   LIG d   1       2.456   1.309  -5.035  0.00  0.00    -0.283 OA
ATOM      4  C   LIG d   1       4.353  -0.120  -4.587  0.00  0.00     0.068 A 
ATOM      5  C   LIG d   1       4.788   0.067  -3.275  0.00  0.00    -0.044 A 
ATOM      6  C   LIG d   1       5.856  -0.645  -2.805  0.00  0.00    -0.019 A 
ATOM      7  C   LIG d   1       6.511  -1.554  -3.631  0.00  0.00     0.129 A 
ATOM      8  C   LIG d   1       6.090  -1.750  -4.936  0.00  0.00     0.081 A 
ATOM      9  C   LIG d   1       5.007  -1.036  -5.429  0.00  0.00     0.151 A 
ATOM     10  O   LIG d   1       4.395  -1.033  -6.633  0.00  0.00    -0.451 OA
ATOM     11  H   LIG d   1       4.282   0.771  -2.632  0.00  0.00     0.063 H 
ATOM     12  H   LIG d   1       6.193  -0.501  -1.789  0.00  0.00     0.065 H 
ENDROOT
BRANCH   8  13
ATOM     13  C   LIG d   1       6.808  -2.737  -5.820  0.00  0.00     0.001 C 
ATOM     14  H   LIG d   1       6.486  -2.602  -6.853  0.00  0.00     0.087 H 
ATOM     15  H   LIG d   1       7.883  -2.573  -5.751  0.00  0.00     0.087 H 
BRANCH  13  16
ATOM     16  N   LIG d   1       6.492  -4.104  -5.385  0.00  0.00     0.240 N 
ATOM     17  C   LIG d   1       5.258  -4.554  -6.043  0.00  0.00    -0.018 C 
ATOM     18  C   LIG d   1       4.918  -5.972  -5.576  0.00  0.00     0.039 C 
ATOM     19  H   LIG d   1       4.441  -3.881  -5.783  0.00  0.00     0.083 H 
ATOM     20  H   LIG d   1       5.401  -4.553  -7.124  0.00  0.00     0.083 H 
ATOM     21  N   LIG d   1       6.029  -6.874  -5.910  0.00  0.00    -0.290 N 
ATOM     22  H   LIG d   1       4.011  -6.311  -6.075  0.00  0.00     0.048 H 
ATOM     23  H   LIG d   1       4.762  -5.972  -4.497  0.00  0.00     0.048 H 
ATOM     24  C   LIG d   1       7.277  -6.421  -5.279  0.00  0.00     0.039 C 
ATOM     25  C   LIG d   1       7.597  -5.000  -5.748  0.00  0.00    -0.018 C 
ATOM     26  H   LIG d   1       8.091  -7.091  -5.561  0.00  0.00     0.048 H 
ATOM     27  H   LIG d   1       7.160  -6.429  -4.195  0.00  0.00     0.048 H 
ATOM     28  H   LIG d   1       7.728  -4.997  -6.830  0.00  0.00     0.083 H 
ATOM     29  H   LIG d   1       8.515  -4.659  -5.270  0.00  0.00     0.083 H 
ATOM     30  H   LIG d   1       6.364  -4.117  -4.385  0.00  0.00     0.204 HD
BRANCH  21  31
ATOM     31  C   LIG d   1       5.717  -8.257  -5.527  0.00  0.00     0.022 C 
ATOM     32  H   LIG d   1       6.628  -8.856  -5.551  0.00  0.00     0.045 H 
ATOM     33  H   LIG d   1       5.299  -8.271  -4.520  0.00  0.00     0.045 H 
BRANCH  31  34
ATOM     34  C   LIG d   1       4.699  -8.841  -6.509  0.00  0.00     0.057 C 
ATOM     35  H   LIG d   1       3.888  -8.129  -6.658  0.00  0.00     0.057 H 
ATOM     36  H   LIG d   1       5.188  -9.040  -7.463  0.00  0.00     0.057 H 
BRANCH  34  37
ATOM     37  O   LIG d   1       4.174 -10.060  -5.981  0.00  0.00    -0.394 OA
ATOM     38  H   LIG d   1       3.589 -10.533  -6.590  0.00  0.00     0.209 HD
ENDBRANCH  34  37
ENDBRANCH  31  34
ENDBRANCH  21  31
ENDBRANCH  13  16
ENDBRANCH   8  13
BRANCH   7  39
ATOM     39  O   LIG d   1       7.571  -2.255  -3.153  0.00  0.00    -0.506 OA
ATOM     40  H   LIG d   1       7.608  -2.305  -2.188  0.00  0.00     0.292 HD
ENDBRANCH   7  39
BRANCH   1  41
ATOM     41  C   LIG d   1       2.551   0.083  -7.730  0.00  0.00    -0.002 C 
ATOM     42  H   LIG d   1       1.494   0.246  -7.581  0.00  0.00     0.067 H 
BRANCH  41  43
ATOM     43  C   LIG d   1       3.092   0.118  -9.036  0.00  0.00     0.019 A 
ATOM     44  C   LIG d   1       3.633   1.195  -9.733  0.00  0.00    -0.036 A 
ATOM     45  C   LIG d   1       4.089   0.914 -10.997  0.00  0.00    -0.051 A 
ATOM     46  C   LIG d   1       3.981  -0.353 -11.472  0.00  0.00    -0.024 A 
ATOM     47  H   LIG d   1       4.527   1.690 -11.606  0.00  0.00     0.063 H 
ATOM     48  S   LIG d   1       3.258  -1.205 -10.218  0.00  0.00    -0.097 SA
ATOM     49  H   LIG d   1       4.290  -0.728 -12.437  0.00  0.00     0.069 H 
BRANCH  44  50
ATOM     50  C   LIG d   1       3.719   2.576  -9.137  0.00  0.00    -0.039 C 
ATOM     51  H   LIG d   1       4.297   2.539  -8.215  0.00  0.00     0.028 H 
ATOM     52  H   LIG d   1       4.206   3.247  -9.845  0.00  0.00     0.028 H 
ATOM     53  H   LIG d   1       2.714   2.942  -8.922  0.00  0.00     0.028 H 
ENDBRANCH  44  50
ENDBRANCH  41  43
ENDBRANCH   1  41
TORSDOF 9
ENDMDL
MODEL 9
REMARK VINA RESULT:      -5.9      7.248     11.295
REMARK  9 active torsions:
REMARK  status: ('A' for Active; 'I' for Inactive)
REMARK    1  A    between atoms: C_1  and  C_2 
REMARK    2  A    between atoms: C_6  and  C_7 
REMARK    3  A    between atoms: C_7  and  C_8 
REMARK    4  A    between atoms: C_14  and  O_28 
REMARK    5  A    between atoms: C_15  and  C_18 
REMARK    6  A    between atoms: C_18  and  N_19 
REMARK    7  A    between atoms: N_22  and  C_25 
REMARK    8  A    between atoms: C_25  and  C_26 
REMARK    9  A    between atoms: C_26  and  O_27 
ROOT
ATOM      1  C   LIG d   1      10.468   6.461  -1.237  0.00  0.00     0.177 A 
ATOM      2  C   LIG d   1      11.235   6.738  -0.074  0.00  0.00     0.232 A 
ATOM      3  O   LIG d   1      11.924   5.958   0.563  0.00  0.00    -0.283 OA
ATOM      4  C   LIG d   1      11.020   8.170   0.198  0.00  0.00     0.068 A 
ATOM      5  C   LIG d   1      11.485   9.041   1.183  0.00  0.00    -0.044 A 
ATOM      6  C   LIG d   1      11.098  10.351   1.170  0.00  0.00    -0.019 A 
ATOM      7  C   LIG d   1      10.239  10.819   0.179  0.00  0.00     0.129 A 
ATOM      8  C   LIG d   1       9.770   9.965  -0.807  0.00  0.00     0.081 A 
ATOM      9  C   LIG d   1      10.155   8.632  -0.808  0.00  0.00     0.151 A 
ATOM     10  O   LIG d   1       9.858   7.604  -1.632  0.00  0.00    -0.451 OA
ATOM     11  H   LIG d   1      12.151   8.681   1.954  0.00  0.00     0.063 H 
ATOM     12  H   LIG d   1      11.458  11.026   1.933  0.00  0.00     0.065 H 
ENDROOT
BRANCH   8  13
ATOM     13  C   LIG d   1       8.842  10.484  -1.874  0.00  0.00     0.001 C 
ATOM     14  H   LIG d   1       8.348   9.646  -2.365  0.00  0.00     0.087 H 
ATOM     15  H   LIG d   1       8.092  11.132  -1.421  0.00  0.00     0.087 H 
BRANCH  13  16
ATOM     16  N   LIG d   1       9.613  11.245  -2.866  0.00  0.00     0.240 N 
ATOM     17  C   LIG d   1       9.867  10.402  -4.041  0.00  0.00    -0.018 C 
ATOM     18  C   LIG d   1      10.687  11.188  -5.067  0.00  0.00     0.039 C 
ATOM     19  H   LIG d   1      10.422   9.513  -3.738  0.00  0.00     0.083 H 
ATOM     20  H   LIG d   1       8.918  10.104  -4.487  0.00  0.00     0.083 H 
ATOM     21  N   LIG d   1       9.946  12.396  -5.460  0.00  0.00    -0.290 N 
ATOM     22  H   LIG d   1      10.863  10.567  -5.945  0.00  0.00     0.048 H 
ATOM     23  H   LIG d   1      11.642  11.475  -4.626  0.00  0.00     0.048 H 
ATOM     24  C   LIG d   1       9.663  13.238  -4.289  0.00  0.00     0.039 C 
ATOM     25  C   LIG d   1       8.851  12.434  -3.270  0.00  0.00    -0.018 C 
ATOM     26  H   LIG d   1       9.091  14.113  -4.601  0.00  0.00     0.048 H 
ATOM     27  H   LIG d   1      10.601  13.558  -3.836  0.00  0.00     0.048 H 
ATOM     28  H   LIG d   1       7.908  12.126  -3.719  0.00  0.00     0.083 H 
ATOM     29  H   LIG d   1       8.652  13.053  -2.395  0.00  0.00     0.083 H 
ATOM     30  H   LIG d   1      10.492  11.531  -2.461  0.00  0.00     0.204 HD
BRANCH  21  31
ATOM     31  C   LIG d   1      10.676  13.150  -6.486  0.00  0.00     0.022 C 
ATOM     32  H   LIG d   1      11.231  13.962  -6.015  0.00  0.00     0.045 H 
ATOM     33  H   LIG d   1      11.370  12.487  -7.002  0.00  0.00     0.045 H 
BRANCH  31  34
ATOM     34  C   LIG d   1       9.683  13.732  -7.495  0.00  0.00     0.057 C 
ATOM     35  H   LIG d   1       9.096  14.516  -7.017  0.00  0.00     0.057 H 
ATOM     36  H   LIG d   1      10.228  14.150  -8.341  0.00  0.00     0.057 H 
BRANCH  34  37
ATOM     37  O   LIG d   1       8.812  12.697  -7.956  0.00  0.00    -0.394 OA
ATOM     38  H   LIG d   1       9.270  11.896  -8.245  0.00  0.00     0.209 HD
ENDBRANCH  34  37
ENDBRANCH  31  34
ENDBRANCH  21  31
ENDBRANCH  13  16
ENDBRANCH   8  13
BRANCH   7  39
ATOM     39  O   LIG d   1       9.861  12.123   0.176  0.00  0.00    -0.506 OA
ATOM     40  H   LIG d   1       9.120  12.316  -0.415  0.00  0.00     0.292 HD
ENDBRANCH   7  39
BRANCH   1  41
ATOM     41  C   LIG d   1      10.368   5.250  -1.856  0.00  0.00    -0.002 C 
ATOM     42  H   LIG d   1      10.407   4.341  -1.274  0.00  0.00     0.067 H 
BRANCH  41  43
ATOM     43  C   LIG d   1      10.212   5.183  -3.259  0.00  0.00     0.019 A 
ATOM     44  C   LIG d   1       9.712   4.143  -4.038  0.00  0.00    -0.036 A 
ATOM     45  C   LIG d   1       9.678   4.378  -5.390  0.00  0.00    -0.051 A 
ATOM     46  C   LIG d   1      10.124   5.568  -5.865  0.00  0.00    -0.024 A 
ATOM     47  H   LIG d   1       9.302   3.626  -6.067  0.00  0.00     0.063 H 
ATOM     48  S   LIG d   1      10.604   6.408  -4.492  0.00  0.00    -0.097 SA
ATOM     49  H   LIG d   1      10.163   5.900  -6.893  0.00  0.00     0.069 H 
BRANCH  44  50
ATOM     50  C   LIG d   1       9.234   2.846  -3.436  0.00  0.00    -0.039 C 
ATOM     51  H   LIG d   1       9.912   2.544  -2.639  0.00  0.00     0.028 H 
ATOM     52  H   LIG d   1       8.232   2.982  -3.030  0.00  0.00     0.028 H 
ATOM     53  H   LIG d   1       9.212   2.075  -4.207  0.00  0.00     0.028 H 
ENDBRANCH  44  50
ENDBRANCH  41  43
ENDBRANCH   1  41
TORSDOF 9
ENDMDL
MODEL 10
REMARK VINA RESULT:      -5.7      3.997      7.632
REMARK  9 active torsions:
REMARK  status: ('A' for Active; 'I' for Inactive)
REMARK    1  A    between atoms: C_1  and  C_2 
REMARK    2  A    between atoms: C_6  and  C_7 
REMARK    3  A    between atoms: C_7  and  C_8 
REMARK    4  A    between atoms: C_14  and  O_28 
REMARK    5  A    between atoms: C_15  and  C_18 
REMARK    6  A    between atoms: C_18  and  N_19 
REMARK    7  A    between atoms: N_22  and  C_25 
REMARK    8  A    between atoms: C_25  and  C_26 
REMARK    9  A    between atoms: C_26  and  O_27 
ROOT
ATOM      1  C   LIG d   1       3.711  -0.371  -6.063  0.00  0.00     0.177 A 
ATOM      2  C   LIG d   1       3.104   0.886  -6.329  0.00  0.00     0.232 A 
ATOM      3  O   LIG d   1       2.560   1.630  -5.530  0.00  0.00    -0.283 OA
ATOM      4  C   LIG d   1       3.270   1.096  -7.777  0.00  0.00     0.068 A 
ATOM      5  C   LIG d   1       2.898   2.120  -8.648  0.00  0.00    -0.044 A 
ATOM      6  C   LIG d   1       3.201   2.025  -9.978  0.00  0.00    -0.019 A 
ATOM      7  C   LIG d   1       3.877   0.910 -10.465  0.00  0.00     0.129 A 
ATOM      8  C   LIG d   1       4.253  -0.114  -9.611  0.00  0.00     0.081 A 
ATOM      9  C   LIG d   1       3.953  -0.034  -8.259  0.00  0.00     0.151 A 
ATOM     10  O   LIG d   1       4.199  -0.866  -7.225  0.00  0.00    -0.451 OA
ATOM     11  H   LIG d   1       2.373   2.986  -8.273  0.00  0.00     0.063 H 
ATOM     12  H   LIG d   1       2.913   2.819 -10.652  0.00  0.00     0.065 H 
ENDROOT
BRANCH   8  13
ATOM     13  C   LIG d   1       4.985  -1.316 -10.152  0.00  0.00     0.001 C 
ATOM     14  H   LIG d   1       4.651  -1.516 -11.170  0.00  0.00     0.087 H 
ATOM     15  H   LIG d   1       6.057  -1.119 -10.153  0.00  0.00     0.087 H 
BRANCH  13  16
ATOM     16  N   LIG d   1       4.702  -2.482  -9.306  0.00  0.00     0.240 N 
ATOM     17  C   LIG d   1       3.631  -3.281  -9.916  0.00  0.00    -0.018 C 
ATOM     18  C   LIG d   1       3.323  -4.487  -9.026  0.00  0.00     0.039 C 
ATOM     19  H   LIG d   1       2.735  -2.669 -10.020  0.00  0.00     0.083 H 
ATOM     20  H   LIG d   1       3.951  -3.628 -10.899  0.00  0.00     0.083 H 
ATOM     21  N   LIG d   1       4.537  -5.301  -8.871  0.00  0.00    -0.290 N 
ATOM     22  H   LIG d   1       2.538  -5.088  -9.486  0.00  0.00     0.048 H 
ATOM     23  H   LIG d   1       2.990  -4.142  -8.047  0.00  0.00     0.048 H 
ATOM     24  C   LIG d   1       5.626  -4.507  -8.284  0.00  0.00     0.039 C 
ATOM     25  C   LIG d   1       5.915  -3.301  -9.181  0.00  0.00    -0.018 C 
ATOM     26  H   LIG d   1       6.522  -5.124  -8.203  0.00  0.00     0.048 H 
ATOM     27  H   LIG d   1       5.331  -4.162  -7.293  0.00  0.00     0.048 H 
ATOM     28  H   LIG d   1       6.223  -3.648 -10.167  0.00  0.00     0.083 H 
ATOM     29  H   LIG d   1       6.713  -2.705  -8.740  0.00  0.00     0.083 H 
ATOM     30  H   LIG d   1       4.411  -2.172  -8.392  0.00  0.00     0.204 HD
BRANCH  21  31
ATOM     31  C   LIG d   1       4.267  -6.500  -8.067  0.00  0.00     0.022 C 
ATOM     32  H   LIG d   1       3.199  -6.716  -8.082  0.00  0.00     0.045 H 
ATOM     33  H   LIG d   1       4.816  -7.347  -8.479  0.00  0.00     0.045 H 
BRANCH  31  34
ATOM     34  C   LIG d   1       4.716  -6.258  -6.624  0.00  0.00     0.057 C 
ATOM     35  H   LIG d   1       5.059  -7.196  -6.187  0.00  0.00     0.057 H 
ATOM     36  H   LIG d   1       5.530  -5.533  -6.614  0.00  0.00     0.057 H 
BRANCH  34  37
ATOM     37  O   LIG d   1       3.619  -5.750  -5.863  0.00  0.00    -0.394 OA
ATOM     38  H   LIG d   1       3.511  -6.171  -4.999  0.00  0.00     0.209 HD
ENDBRANCH  34  37
ENDBRANCH  31  34
ENDBRANCH  21  31
ENDBRANCH  13  16
ENDBRANCH   8  13
BRANCH   7  39
ATOM     39  O   LIG d   1       4.172   0.827 -11.788  0.00  0.00    -0.506 OA
ATOM     40  H   LIG d   1       5.119   0.857 -11.983  0.00  0.00     0.292 HD
ENDBRANCH   7  39
BRANCH   1  41
ATOM     41  C   LIG d   1       3.794  -0.973  -4.842  0.00  0.00    -0.002 C 
ATOM     42  H   LIG d   1       2.905  -1.108  -4.244  0.00  0.00     0.067 H 
BRANCH  41  43
ATOM     43  C   LIG d   1       5.044  -1.422  -4.359  0.00  0.00     0.019 A 
ATOM     44  C   LIG d   1       5.919  -0.796  -3.475  0.00  0.00    -0.036 A 
ATOM     45  C   LIG d   1       7.068  -1.491  -3.185  0.00  0.00    -0.051 A 
ATOM     46  C   LIG d   1       7.272  -2.700  -3.765  0.00  0.00    -0.024 A 
ATOM     47  H   LIG d   1       7.799  -1.080  -2.507  0.00  0.00     0.063 H 
ATOM     48  S   LIG d   1       5.911  -2.936  -4.722  0.00  0.00    -0.097 SA
ATOM     49  H   LIG d   1       8.117  -3.362  -3.641  0.00  0.00     0.069 H 
BRANCH  44  50
ATOM     50  C   LIG d   1       5.622   0.552  -2.869  0.00  0.00    -0.039 C 
ATOM     51  H   LIG d   1       4.891   0.438  -2.070  0.00  0.00     0.028 H 
ATOM     52  H   LIG d   1       6.540   0.979  -2.466  0.00  0.00     0.028 H 
ATOM     53  H   LIG d   1       5.221   1.213  -3.638  0.00  0.00     0.028 H 
ENDBRANCH  44  50
ENDBRANCH  41  43
ENDBRANCH   1  41
TORSDOF 9
ENDMDL
