MODEL 1
REMARK VINA RESULT:      -7.3      0.000      0.000
REMARK  13 active torsions:
REMARK  status: ('A' for Active; 'I' for Inactive)
REMARK    1  A    between atoms: C_1  and  C_2 
REMARK    2  A    between atoms: C_3  and  C_10 
REMARK    3  A    between atoms: C_4  and  C_8 
REMARK    4  A    between atoms: C_4  and  C_9 
REMARK    5  A    between atoms: C_10  and  C_11 
REMARK    6  A    between atoms: C_11  and  C_12 
REMARK    7  A    between atoms: C_12  and  C_33 
REMARK    8  A    between atoms: C_13  and  C_14 
REMARK    9  A    between atoms: C_14  and  C_15 
REMARK   10  A    between atoms: C_15  and  C_16 
REMARK   11  A    between atoms: C_19  and  C_25 
REMARK   12  A    between atoms: C_22  and  O_24 
REMARK   13  A    between atoms: C_30  and  O_32 
ROOT
ATOM      1  C   LIG d   1       8.578   0.702  -4.507  0.00  0.00    -0.076 C 
ATOM      2  C   LIG d   1       9.463   1.665  -4.432  0.00  0.00    -0.085 C 
ATOM      3  H   LIG d   1      10.468   1.503  -4.791  0.00  0.00     0.057 H 
ENDROOT
BRANCH   1   4
ATOM      4  C   LIG d   1       7.214   0.884  -3.892  0.00  0.00    -0.028 C 
ATOM      5  H   LIG d   1       7.315   1.367  -2.920  0.00  0.00     0.031 H 
ATOM      6  H   LIG d   1       6.601   1.506  -4.545  0.00  0.00     0.031 H 
BRANCH   4   7
ATOM      7  C   LIG d   1       6.547  -0.482  -3.716  0.00  0.00    -0.027 C 
ATOM      8  H   LIG d   1       6.914  -1.167  -4.480  0.00  0.00     0.031 H 
ATOM      9  H   LIG d   1       6.784  -0.877  -2.729  0.00  0.00     0.031 H 
BRANCH   7  10
ATOM     10  C   LIG d   1       5.053  -0.333  -3.851  0.00  0.00    -0.065 C 
ATOM     11  C   LIG d   1       4.553  -0.291  -5.045  0.00  0.00    -0.073 C 
ATOM     12  C   LIG d   1       3.090  -0.137  -5.337  0.00  0.00    -0.032 C 
ATOM     13  C   LIG d   1       2.265  -0.462  -4.090  0.00  0.00    -0.049 C 
ATOM     14  H   LIG d   1       2.889   0.889  -5.646  0.00  0.00     0.031 H 
ATOM     15  H   LIG d   1       2.809  -0.818  -6.141  0.00  0.00     0.031 H 
ATOM     16  C   LIG d   1       2.850   0.319  -2.905  0.00  0.00    -0.044 C 
ATOM     17  H   LIG d   1       1.229  -0.164  -4.248  0.00  0.00     0.027 H 
ATOM     18  H   LIG d   1       2.316  -1.531  -3.885  0.00  0.00     0.027 H 
ATOM     19  C   LIG d   1       4.238  -0.249  -2.593  0.00  0.00    -0.014 C 
ATOM     20  H   LIG d   1       2.931   1.374  -3.167  0.00  0.00     0.027 H 
ATOM     21  H   LIG d   1       2.204   0.202  -2.035  0.00  0.00     0.027 H 
BRANCH  11  22
ATOM     22  C   LIG d   1       5.500  -0.404  -6.212  0.00  0.00    -0.043 C 
ATOM     23  H   LIG d   1       5.130   0.205  -7.038  0.00  0.00     0.027 H 
ATOM     24  H   LIG d   1       6.487  -0.053  -5.914  0.00  0.00     0.027 H 
ATOM     25  H   LIG d   1       5.562  -1.445  -6.529  0.00  0.00     0.027 H 
ENDBRANCH  11  22
BRANCH  19  26
ATOM     26  C   LIG d   1       4.096  -1.645  -1.987  0.00  0.00    -0.056 C 
ATOM     27  H   LIG d   1       3.248  -2.156  -2.445  0.00  0.00     0.024 H 
ATOM     28  H   LIG d   1       5.006  -2.216  -2.173  0.00  0.00     0.024 H 
ATOM     29  H   LIG d   1       3.933  -1.562  -0.913  0.00  0.00     0.024 H 
ENDBRANCH  19  26
BRANCH  19  30
ATOM     30  C   LIG d   1       4.945   0.666  -1.592  0.00  0.00    -0.056 C 
ATOM     31  H   LIG d   1       5.919   0.247  -1.341  0.00  0.00     0.024 H 
ATOM     32  H   LIG d   1       5.079   1.654  -2.034  0.00  0.00     0.024 H 
ATOM     33  H   LIG d   1       4.342   0.752  -0.688  0.00  0.00     0.024 H 
ENDBRANCH  19  30
ENDBRANCH   7  10
ENDBRANCH   4   7
ENDBRANCH   1   4
BRANCH   1  34
ATOM     34  C   LIG d   1       8.923  -0.586  -5.206  0.00  0.00    -0.044 C 
ATOM     35  H   LIG d   1       8.019  -1.022  -5.631  0.00  0.00     0.027 H 
ATOM     36  H   LIG d   1       9.639  -0.388  -6.003  0.00  0.00     0.027 H 
ATOM     37  H   LIG d   1       9.360  -1.282  -4.490  0.00  0.00     0.027 H 
ENDBRANCH   1  34
BRANCH   2  38
ATOM     38  C   LIG d   1       9.078   2.999  -3.846  0.00  0.00    -0.031 C 
ATOM     39  H   LIG d   1       9.253   2.987  -2.770  0.00  0.00     0.031 H 
ATOM     40  H   LIG d   1       8.022   3.190  -4.040  0.00  0.00     0.031 H 
BRANCH  38  41
ATOM     41  C   LIG d   1       9.923   4.101  -4.488  0.00  0.00    -0.024 C 
ATOM     42  H   LIG d   1       9.484   4.384  -5.445  0.00  0.00     0.032 H 
ATOM     43  H   LIG d   1      10.938   3.735  -4.646  0.00  0.00     0.032 H 
BRANCH  41  44
ATOM     44  C   LIG d   1       9.957   5.302  -3.577  0.00  0.00    -0.018 C 
ATOM     45  C   LIG d   1       9.808   6.668  -4.182  0.00  0.00     0.179 C 
ATOM     46  O   LIG d   1      10.222   7.668  -3.250  0.00  0.00    -0.340 OA
ATOM     47  H   LIG d   1      10.422   6.735  -5.080  0.00  0.00     0.096 H 
ATOM     48  C   LIG d   1       9.618   7.514  -1.959  0.00  0.00     0.093 C 
ATOM     49  C   LIG d   1      10.175   6.241  -1.314  0.00  0.00    -0.004 C 
ATOM     50  H   LIG d   1       8.536   7.427  -2.066  0.00  0.00     0.065 H 
ATOM     51  C   LIG d   1      10.118   5.109  -2.301  0.00  0.00    -0.077 C 
ATOM     52  H   LIG d   1       9.580   5.989  -0.436  0.00  0.00     0.034 H 
ATOM     53  H   LIG d   1      11.210   6.411  -1.015  0.00  0.00     0.034 H 
ATOM     54  H   LIG d   1      10.213   4.097  -1.936  0.00  0.00     0.057 H 
BRANCH  45  55
ATOM     55  O   LIG d   1       8.438   6.885  -4.530  0.00  0.00    -0.363 OA
ATOM     56  H   LIG d   1       7.974   7.491  -3.937  0.00  0.00     0.213 HD
ENDBRANCH  45  55
BRANCH  48  57
ATOM     57  C   LIG d   1       9.947   8.706  -1.097  0.00  0.00     0.033 A 
ATOM     58  C   LIG d   1       9.491  10.129  -1.319  0.00  0.00     0.228 A 
ATOM     59  O   LIG d   1      10.061  10.907  -0.228  0.00  0.00    -0.428 OA
ATOM     60  H   LIG d   1       9.859  10.495  -2.276  0.00  0.00     0.111 H 
ATOM     61  C   LIG d   1      10.774  10.065   0.543  0.00  0.00     0.335 A 
ATOM     62  C   LIG d   1      10.700   8.706   0.001  0.00  0.00     0.030 A 
ATOM     63  O   LIG d   1      11.388  10.385   1.541  0.00  0.00    -0.245 OA
ATOM     64  H   LIG d   1      11.181   7.838   0.427  0.00  0.00     0.069 H 
BRANCH  58  65
ATOM     65  O   LIG d   1       8.064  10.200  -1.277  0.00  0.00    -0.354 OA
ATOM     66  H   LIG d   1       7.707  11.065  -1.525  0.00  0.00     0.214 HD
ENDBRANCH  58  65
ENDBRANCH  48  57
ENDBRANCH  41  44
ENDBRANCH  38  41
ENDBRANCH   2  38
TORSDOF 13
ENDMDL
MODEL 2
REMARK VINA RESULT:      -7.3      2.013      3.702
REMARK  13 active torsions:
REMARK  status: ('A' for Active; 'I' for Inactive)
REMARK    1  A    between atoms: C_1  and  C_2 
REMARK    2  A    between atoms: C_3  and  C_10 
REMARK    3  A    between atoms: C_4  and  C_8 
REMARK    4  A    between atoms: C_4  and  C_9 
REMARK    5  A    between atoms: C_10  and  C_11 
REMARK    6  A    between atoms: C_11  and  C_12 
REMARK    7  A    between atoms: C_12  and  C_33 
REMARK    8  A    between atoms: C_13  and  C_14 
REMARK    9  A    between atoms: C_14  and  C_15 
REMARK   10  A    between atoms: C_15  and  C_16 
REMARK   11  A    between atoms: C_19  and  C_25 
REMARK   12  A    between atoms: C_22  and  O_24 
REMARK   13  A    between atoms: C_30  and  O_32 
ROOT
ATOM      1  C   LIG d   1       5.961  -0.889  -7.009  0.00  0.00    -0.076 C 
ATOM      2  C   LIG d   1       6.734   0.162  -7.125  0.00  0.00    -0.085 C 
ATOM      3  H   LIG d   1       6.815   0.670  -8.074  0.00  0.00     0.057 H 
ENDROOT
BRANCH   1   4
ATOM      4  C   LIG d   1       5.944  -1.672  -5.721  0.00  0.00    -0.028 C 
ATOM      5  H   LIG d   1       6.308  -2.683  -5.907  0.00  0.00     0.031 H 
ATOM      6  H   LIG d   1       6.588  -1.183  -4.990  0.00  0.00     0.031 H 
BRANCH   4   7
ATOM      7  C   LIG d   1       4.514  -1.736  -5.181  0.00  0.00    -0.027 C 
ATOM      8  H   LIG d   1       3.810  -1.608  -6.002  0.00  0.00     0.031 H 
ATOM      9  H   LIG d   1       4.348  -2.702  -4.706  0.00  0.00     0.031 H 
BRANCH   7  10
ATOM     10  C   LIG d   1       4.310  -0.638  -4.169  0.00  0.00    -0.065 C 
ATOM     11  C   LIG d   1       3.518   0.337  -4.482  0.00  0.00    -0.073 C 
ATOM     12  C   LIG d   1       3.225   1.503  -3.585  0.00  0.00    -0.032 C 
ATOM     13  C   LIG d   1       3.627   1.175  -2.145  0.00  0.00    -0.049 C 
ATOM     14  H   LIG d   1       3.785   2.373  -3.927  0.00  0.00     0.031 H 
ATOM     15  H   LIG d   1       2.158   1.725  -3.618  0.00  0.00     0.031 H 
ATOM     16  C   LIG d   1       5.056   0.616  -2.157  0.00  0.00    -0.044 C 
ATOM     17  H   LIG d   1       3.594   2.081  -1.540  0.00  0.00     0.027 H 
ATOM     18  H   LIG d   1       2.945   0.431  -1.734  0.00  0.00     0.027 H 
ATOM     19  C   LIG d   1       5.033  -0.746  -2.857  0.00  0.00    -0.014 C 
ATOM     20  H   LIG d   1       5.712   1.299  -2.696  0.00  0.00     0.027 H 
ATOM     21  H   LIG d   1       5.409   0.493  -1.133  0.00  0.00     0.027 H 
BRANCH  11  22
ATOM     22  C   LIG d   1       2.850   0.299  -5.833  0.00  0.00    -0.043 C 
ATOM     23  H   LIG d   1       2.784   1.311  -6.233  0.00  0.00     0.027 H 
ATOM     24  H   LIG d   1       3.435  -0.323  -6.510  0.00  0.00     0.027 H 
ATOM     25  H   LIG d   1       1.848  -0.118  -5.730  0.00  0.00     0.027 H 
ENDBRANCH  11  22
BRANCH  19  26
ATOM     26  C   LIG d   1       4.321  -1.768  -1.970  0.00  0.00    -0.056 C 
ATOM     27  H   LIG d   1       3.341  -1.995  -2.390  0.00  0.00     0.024 H 
ATOM     28  H   LIG d   1       4.914  -2.681  -1.920  0.00  0.00     0.024 H 
ATOM     29  H   LIG d   1       4.201  -1.358  -0.967  0.00  0.00     0.024 H 
ENDBRANCH  19  26
BRANCH  19  30
ATOM     30  C   LIG d   1       6.469  -1.209  -3.108  0.00  0.00    -0.056 C 
ATOM     31  H   LIG d   1       7.070  -1.030  -2.216  0.00  0.00     0.024 H 
ATOM     32  H   LIG d   1       6.473  -2.275  -3.338  0.00  0.00     0.024 H 
ATOM     33  H   LIG d   1       6.890  -0.655  -3.947  0.00  0.00     0.024 H 
ENDBRANCH  19  30
ENDBRANCH   7  10
ENDBRANCH   4   7
ENDBRANCH   1   4
BRANCH   1  34
ATOM     34  C   LIG d   1       5.090  -1.315  -8.161  0.00  0.00    -0.044 C 
ATOM     35  H   LIG d   1       4.210  -1.833  -7.779  0.00  0.00     0.027 H 
ATOM     36  H   LIG d   1       4.777  -0.437  -8.726  0.00  0.00     0.027 H 
ATOM     37  H   LIG d   1       5.651  -1.985  -8.812  0.00  0.00     0.027 H 
ENDBRANCH   1  34
BRANCH   2  38
ATOM     38  C   LIG d   1       7.509   0.664  -5.934  0.00  0.00    -0.031 C 
ATOM     39  H   LIG d   1       7.889  -0.184  -5.364  0.00  0.00     0.031 H 
ATOM     40  H   LIG d   1       6.853   1.263  -5.299  0.00  0.00     0.031 H 
BRANCH  38  41
ATOM     41  C   LIG d   1       8.680   1.524  -6.412  0.00  0.00    -0.024 C 
ATOM     42  H   LIG d   1       8.401   2.038  -7.333  0.00  0.00     0.032 H 
ATOM     43  H   LIG d   1       9.545   0.887  -6.598  0.00  0.00     0.032 H 
BRANCH  41  44
ATOM     44  C   LIG d   1       9.022   2.541  -5.353  0.00  0.00    -0.018 C 
ATOM     45  C   LIG d   1       9.169   2.076  -3.932  0.00  0.00     0.179 C 
ATOM     46  O   LIG d   1       9.129   3.193  -3.043  0.00  0.00    -0.340 OA
ATOM     47  H   LIG d   1       8.356   1.392  -3.689  0.00  0.00     0.096 H 
ATOM     48  C   LIG d   1      10.022   4.247  -3.426  0.00  0.00     0.093 C 
ATOM     49  C   LIG d   1       9.505   4.870  -4.726  0.00  0.00    -0.004 C 
ATOM     50  H   LIG d   1      11.021   3.842  -3.585  0.00  0.00     0.065 H 
ATOM     51  C   LIG d   1       9.174   3.782  -5.709  0.00  0.00    -0.077 C 
ATOM     52  H   LIG d   1      10.271   5.519  -5.147  0.00  0.00     0.034 H 
ATOM     53  H   LIG d   1       8.609   5.455  -4.515  0.00  0.00     0.034 H 
ATOM     54  H   LIG d   1       9.058   4.041  -6.751  0.00  0.00     0.057 H 
BRANCH  45  55
ATOM     55  O   LIG d   1      10.419   1.399  -3.782  0.00  0.00    -0.363 OA
ATOM     56  H   LIG d   1      11.078   1.897  -3.281  0.00  0.00     0.213 HD
ENDBRANCH  45  55
BRANCH  48  57
ATOM     57  C   LIG d   1      10.066   5.295  -2.343  0.00  0.00     0.033 A 
ATOM     58  C   LIG d   1      10.672   5.142  -0.968  0.00  0.00     0.228 A 
ATOM     59  O   LIG d   1      10.472   6.418  -0.297  0.00  0.00    -0.428 OA
ATOM     60  H   LIG d   1      10.168   4.346  -0.423  0.00  0.00     0.111 H 
ATOM     61  C   LIG d   1       9.823   7.230  -1.153  0.00  0.00     0.335 A 
ATOM     62  C   LIG d   1       9.575   6.530  -2.416  0.00  0.00     0.030 A 
ATOM     63  O   LIG d   1       9.491   8.374  -0.913  0.00  0.00    -0.245 OA
ATOM     64  H   LIG d   1       9.072   6.951  -3.274  0.00  0.00     0.069 H 
BRANCH  58  65
ATOM     65  O   LIG d   1      12.069   4.859  -1.074  0.00  0.00    -0.354 OA
ATOM     66  H   LIG d   1      12.641   5.582  -0.778  0.00  0.00     0.214 HD
ENDBRANCH  58  65
ENDBRANCH  48  57
ENDBRANCH  41  44
ENDBRANCH  38  41
ENDBRANCH   2  38
TORSDOF 13
ENDMDL
MODEL 3
REMARK VINA RESULT:      -7.1      3.995      6.529
REMARK  13 active torsions:
REMARK  status: ('A' for Active; 'I' for Inactive)
REMARK    1  A    between atoms: C_1  and  C_2 
REMARK    2  A    between atoms: C_3  and  C_10 
REMARK    3  A    between atoms: C_4  and  C_8 
REMARK    4  A    between atoms: C_4  and  C_9 
REMARK    5  A    between atoms: C_10  and  C_11 
REMARK    6  A    between atoms: C_11  and  C_12 
REMARK    7  A    between atoms: C_12  and  C_33 
REMARK    8  A    between atoms: C_13  and  C_14 
REMARK    9  A    between atoms: C_14  and  C_15 
REMARK   10  A    between atoms: C_15  and  C_16 
REMARK   11  A    between atoms: C_19  and  C_25 
REMARK   12  A    between atoms: C_22  and  O_24 
REMARK   13  A    between atoms: C_30  and  O_32 
ROOT
ATOM      1  C   LIG d   1       3.711  -1.007  -8.432  0.00  0.00    -0.076 C 
ATOM      2  C   LIG d   1       4.359  -1.102  -9.567  0.00  0.00    -0.085 C 
ATOM      3  H   LIG d   1       3.894  -0.770 -10.483  0.00  0.00     0.057 H 
ENDROOT
BRANCH   1   4
ATOM      4  C   LIG d   1       4.306  -1.585  -7.174  0.00  0.00    -0.028 C 
ATOM      5  H   LIG d   1       3.578  -2.242  -6.697  0.00  0.00     0.031 H 
ATOM      6  H   LIG d   1       5.201  -2.155  -7.424  0.00  0.00     0.031 H 
BRANCH   4   7
ATOM      7  C   LIG d   1       4.675  -0.451  -6.215  0.00  0.00    -0.027 C 
ATOM      8  H   LIG d   1       5.737  -0.224  -6.313  0.00  0.00     0.031 H 
ATOM      9  H   LIG d   1       4.090   0.435  -6.459  0.00  0.00     0.031 H 
BRANCH   7  10
ATOM     10  C   LIG d   1       4.381  -0.874  -4.799  0.00  0.00    -0.065 C 
ATOM     11  C   LIG d   1       3.317  -0.402  -4.233  0.00  0.00    -0.073 C 
ATOM     12  C   LIG d   1       2.899  -0.724  -2.829  0.00  0.00    -0.032 C 
ATOM     13  C   LIG d   1       3.634  -1.970  -2.331  0.00  0.00    -0.049 C 
ATOM     14  H   LIG d   1       3.136   0.119  -2.179  0.00  0.00     0.031 H 
ATOM     15  H   LIG d   1       1.824  -0.907  -2.804  0.00  0.00     0.031 H 
ATOM     16  C   LIG d   1       5.132  -1.795  -2.617  0.00  0.00    -0.044 C 
ATOM     17  H   LIG d   1       3.477  -2.085  -1.259  0.00  0.00     0.027 H 
ATOM     18  H   LIG d   1       3.261  -2.850  -2.856  0.00  0.00     0.027 H 
ATOM     19  C   LIG d   1       5.338  -1.820  -4.134  0.00  0.00    -0.014 C 
ATOM     20  H   LIG d   1       5.473  -0.843  -2.212  0.00  0.00     0.027 H 
ATOM     21  H   LIG d   1       5.689  -2.613  -2.160  0.00  0.00     0.027 H 
BRANCH  11  22
ATOM     22  C   LIG d   1       2.443   0.528  -5.035  0.00  0.00    -0.043 C 
ATOM     23  H   LIG d   1       1.654   0.926  -4.396  0.00  0.00     0.027 H 
ATOM     24  H   LIG d   1       3.046   1.348  -5.423  0.00  0.00     0.027 H 
ATOM     25  H   LIG d   1       1.996  -0.020  -5.865  0.00  0.00     0.027 H 
ENDBRANCH  11  22
BRANCH  19  26
ATOM     26  C   LIG d   1       5.099  -3.236  -4.661  0.00  0.00    -0.056 C 
ATOM     27  H   LIG d   1       4.070  -3.325  -5.010  0.00  0.00     0.024 H 
ATOM     28  H   LIG d   1       5.781  -3.436  -5.488  0.00  0.00     0.024 H 
ATOM     29  H   LIG d   1       5.275  -3.956  -3.863  0.00  0.00     0.024 H 
ENDBRANCH  19  26
BRANCH  19  30
ATOM     30  C   LIG d   1       6.773  -1.398  -4.456  0.00  0.00    -0.056 C 
ATOM     31  H   LIG d   1       6.919  -1.400  -5.536  0.00  0.00     0.024 H 
ATOM     32  H   LIG d   1       6.952  -0.395  -4.067  0.00  0.00     0.024 H 
ATOM     33  H   LIG d   1       7.470  -2.097  -3.994  0.00  0.00     0.024 H 
ENDBRANCH  19  30
ENDBRANCH   7  10
ENDBRANCH   4   7
ENDBRANCH   1   4
BRANCH   1  34
ATOM     34  C   LIG d   1       2.372  -0.319  -8.384  0.00  0.00    -0.044 C 
ATOM     35  H   LIG d   1       2.384   0.447  -7.608  0.00  0.00     0.027 H 
ATOM     36  H   LIG d   1       2.165   0.145  -9.349  0.00  0.00     0.027 H 
ATOM     37  H   LIG d   1       1.596  -1.051  -8.160  0.00  0.00     0.027 H 
ENDBRANCH   1  34
BRANCH   2  38
ATOM     38  C   LIG d   1       5.752  -1.675  -9.593  0.00  0.00    -0.031 C 
ATOM     39  H   LIG d   1       5.771  -2.553 -10.239  0.00  0.00     0.031 H 
ATOM     40  H   LIG d   1       6.047  -1.962  -8.583  0.00  0.00     0.031 H 
BRANCH  38  41
ATOM     41  C   LIG d   1       6.726  -0.625 -10.131  0.00  0.00    -0.024 C 
ATOM     42  H   LIG d   1       6.198   0.046 -10.810  0.00  0.00     0.032 H 
ATOM     43  H   LIG d   1       7.536  -1.121 -10.665  0.00  0.00     0.032 H 
BRANCH  41  44
ATOM     44  C   LIG d   1       7.293   0.169  -8.981  0.00  0.00    -0.018 C 
ATOM     45  C   LIG d   1       7.073   1.654  -8.956  0.00  0.00     0.179 C 
ATOM     46  O   LIG d   1       7.964   2.268  -8.023  0.00  0.00    -0.340 OA
ATOM     47  H   LIG d   1       7.253   2.064  -9.950  0.00  0.00     0.096 H 
ATOM     48  C   LIG d   1       7.950   1.636  -6.736  0.00  0.00     0.093 C 
ATOM     49  C   LIG d   1       8.564   0.241  -6.876  0.00  0.00    -0.004 C 
ATOM     50  H   LIG d   1       6.923   1.552  -6.380  0.00  0.00     0.065 H 
ATOM     51  C   LIG d   1       7.952  -0.463  -8.056  0.00  0.00    -0.077 C 
ATOM     52  H   LIG d   1       8.370  -0.334  -5.971  0.00  0.00     0.034 H 
ATOM     53  H   LIG d   1       9.640   0.332  -7.025  0.00  0.00     0.034 H 
ATOM     54  H   LIG d   1       8.065  -1.534  -8.138  0.00  0.00     0.057 H 
BRANCH  45  55
ATOM     55  O   LIG d   1       5.724   1.928  -8.569  0.00  0.00    -0.363 OA
ATOM     56  H   LIG d   1       5.536   1.737  -7.640  0.00  0.00     0.213 HD
ENDBRANCH  45  55
BRANCH  48  57
ATOM     57  C   LIG d   1       8.760   2.451  -5.760  0.00  0.00     0.033 A 
ATOM     58  C   LIG d   1       9.980   3.283  -6.079  0.00  0.00     0.228 A 
ATOM     59  O   LIG d   1      10.401   3.878  -4.819  0.00  0.00    -0.428 OA
ATOM     60  H   LIG d   1      10.771   2.650  -6.480  0.00  0.00     0.111 H 
ATOM     61  C   LIG d   1       9.550   3.453  -3.866  0.00  0.00     0.335 A 
ATOM     62  C   LIG d   1       8.539   2.572  -4.454  0.00  0.00     0.030 A 
ATOM     63  O   LIG d   1       9.614   3.756  -2.690  0.00  0.00    -0.245 OA
ATOM     64  H   LIG d   1       7.736   2.094  -3.911  0.00  0.00     0.069 H 
BRANCH  58  65
ATOM     65  O   LIG d   1       9.646   4.308  -7.017  0.00  0.00    -0.354 OA
ATOM     66  H   LIG d   1       9.019   4.962  -6.678  0.00  0.00     0.214 HD
ENDBRANCH  58  65
ENDBRANCH  48  57
ENDBRANCH  41  44
ENDBRANCH  38  41
ENDBRANCH   2  38
TORSDOF 13
ENDMDL
MODEL 4
REMARK VINA RESULT:      -7.1      2.069      2.888
REMARK  13 active torsions:
REMARK  status: ('A' for Active; 'I' for Inactive)
REMARK    1  A    between atoms: C_1  and  C_2 
REMARK    2  A    between atoms: C_3  and  C_10 
REMARK    3  A    between atoms: C_4  and  C_8 
REMARK    4  A    between atoms: C_4  and  C_9 
REMARK    5  A    between atoms: C_10  and  C_11 
REMARK    6  A    between atoms: C_11  and  C_12 
REMARK    7  A    between atoms: C_12  and  C_33 
REMARK    8  A    between atoms: C_13  and  C_14 
REMARK    9  A    between atoms: C_14  and  C_15 
REMARK   10  A    between atoms: C_15  and  C_16 
REMARK   11  A    between atoms: C_19  and  C_25 
REMARK   12  A    between atoms: C_22  and  O_24 
REMARK   13  A    between atoms: C_30  and  O_32 
ROOT
ATOM      1  C   LIG d   1       7.576   0.159  -6.763  0.00  0.00    -0.076 C 
ATOM      2  C   LIG d   1       8.434   1.139  -6.903  0.00  0.00    -0.085 C 
ATOM      3  H   LIG d   1       9.124   1.139  -7.734  0.00  0.00     0.057 H 
ENDROOT
BRANCH   1   4
ATOM      4  C   LIG d   1       6.701   0.093  -5.538  0.00  0.00    -0.028 C 
ATOM      5  H   LIG d   1       7.161  -0.562  -4.798  0.00  0.00     0.031 H 
ATOM      6  H   LIG d   1       6.589   1.093  -5.118  0.00  0.00     0.031 H 
BRANCH   4   7
ATOM      7  C   LIG d   1       5.326  -0.457  -5.921  0.00  0.00    -0.027 C 
ATOM      8  H   LIG d   1       4.722   0.343  -6.350  0.00  0.00     0.031 H 
ATOM      9  H   LIG d   1       5.446  -1.255  -6.653  0.00  0.00     0.031 H 
BRANCH   7  10
ATOM     10  C   LIG d   1       4.641  -1.000  -4.693  0.00  0.00    -0.065 C 
ATOM     11  C   LIG d   1       4.943  -2.199  -4.310  0.00  0.00    -0.073 C 
ATOM     12  C   LIG d   1       4.338  -2.876  -3.116  0.00  0.00    -0.032 C 
ATOM     13  C   LIG d   1       3.673  -1.843  -2.203  0.00  0.00    -0.049 C 
ATOM     14  H   LIG d   1       3.591  -3.597  -3.448  0.00  0.00     0.031 H 
ATOM     15  H   LIG d   1       5.119  -3.395  -2.561  0.00  0.00     0.031 H 
ATOM     16  C   LIG d   1       2.767  -0.950  -3.062  0.00  0.00    -0.044 C 
ATOM     17  H   LIG d   1       3.075  -2.352  -1.448  0.00  0.00     0.027 H 
ATOM     18  H   LIG d   1       4.437  -1.234  -1.721  0.00  0.00     0.027 H 
ATOM     19  C   LIG d   1       3.655  -0.114  -3.988  0.00  0.00    -0.014 C 
ATOM     20  H   LIG d   1       2.095  -1.571  -3.654  0.00  0.00     0.027 H 
ATOM     21  H   LIG d   1       2.188  -0.289  -2.418  0.00  0.00     0.027 H 
BRANCH  11  22
ATOM     22  C   LIG d   1       5.965  -2.962  -5.113  0.00  0.00    -0.043 C 
ATOM     23  H   LIG d   1       6.391  -2.307  -5.873  0.00  0.00     0.027 H 
ATOM     24  H   LIG d   1       6.754  -3.316  -4.452  0.00  0.00     0.027 H 
ATOM     25  H   LIG d   1       5.484  -3.813  -5.596  0.00  0.00     0.027 H 
ENDBRANCH  11  22
BRANCH  19  26
ATOM     26  C   LIG d   1       4.411   0.932  -3.168  0.00  0.00    -0.056 C 
ATOM     27  H   LIG d   1       4.990   0.434  -2.389  0.00  0.00     0.024 H 
ATOM     28  H   LIG d   1       5.085   1.488  -3.820  0.00  0.00     0.024 H 
ATOM     29  H   LIG d   1       3.700   1.619  -2.709  0.00  0.00     0.024 H 
ENDBRANCH  19  26
BRANCH  19  30
ATOM     30  C   LIG d   1       2.780   0.594  -5.024  0.00  0.00    -0.056 C 
ATOM     31  H   LIG d   1       3.412   1.154  -5.713  0.00  0.00     0.024 H 
ATOM     32  H   LIG d   1       2.204  -0.146  -5.580  0.00  0.00     0.024 H 
ATOM     33  H   LIG d   1       2.099   1.279  -4.518  0.00  0.00     0.024 H 
ENDBRANCH  19  30
ENDBRANCH   7  10
ENDBRANCH   4   7
ENDBRANCH   1   4
BRANCH   1  34
ATOM     34  C   LIG d   1       7.464  -0.902  -7.826  0.00  0.00    -0.044 C 
ATOM     35  H   LIG d   1       8.400  -1.458  -7.885  0.00  0.00     0.027 H 
ATOM     36  H   LIG d   1       6.652  -1.584  -7.576  0.00  0.00     0.027 H 
ATOM     37  H   LIG d   1       7.260  -0.432  -8.788  0.00  0.00     0.027 H 
ENDBRANCH   1  34
BRANCH   2  38
ATOM     38  C   LIG d   1       8.458   2.268  -5.905  0.00  0.00    -0.031 C 
ATOM     39  H   LIG d   1       8.360   1.864  -4.897  0.00  0.00     0.031 H 
ATOM     40  H   LIG d   1       7.630   2.949  -6.105  0.00  0.00     0.031 H 
BRANCH  38  41
ATOM     41  C   LIG d   1       9.782   3.026  -6.024  0.00  0.00    -0.024 C 
ATOM     42  H   LIG d   1       9.738   3.703  -6.877  0.00  0.00     0.032 H 
ATOM     43  H   LIG d   1      10.596   2.315  -6.163  0.00  0.00     0.032 H 
BRANCH  41  44
ATOM     44  C   LIG d   1      10.019   3.821  -4.765  0.00  0.00    -0.018 C 
ATOM     45  C   LIG d   1       9.510   3.273  -3.462  0.00  0.00     0.179 C 
ATOM     46  O   LIG d   1       9.499   4.299  -2.468  0.00  0.00    -0.340 OA
ATOM     47  H   LIG d   1       8.498   2.893  -3.600  0.00  0.00     0.096 H 
ATOM     48  C   LIG d   1      10.744   5.005  -2.377  0.00  0.00     0.093 C 
ATOM     49  C   LIG d   1      10.930   5.821  -3.659  0.00  0.00    -0.004 C 
ATOM     50  H   LIG d   1      11.563   4.294  -2.273  0.00  0.00     0.065 H 
ATOM     51  C   LIG d   1      10.653   4.952  -4.855  0.00  0.00    -0.077 C 
ATOM     52  H   LIG d   1      11.953   6.192  -3.709  0.00  0.00     0.034 H 
ATOM     53  H   LIG d   1      10.238   6.664  -3.655  0.00  0.00     0.034 H 
ATOM     54  H   LIG d   1      10.995   5.280  -5.826  0.00  0.00     0.057 H 
BRANCH  45  55
ATOM     55  O   LIG d   1      10.361   2.208  -3.032  0.00  0.00    -0.363 OA
ATOM     56  H   LIG d   1      10.088   1.800  -2.199  0.00  0.00     0.213 HD
ENDBRANCH  45  55
BRANCH  48  57
ATOM     57  C   LIG d   1      10.719   5.929  -1.187  0.00  0.00     0.033 A 
ATOM     58  C   LIG d   1      10.107   7.310  -1.132  0.00  0.00     0.228 A 
ATOM     59  O   LIG d   1      10.333   7.795   0.221  0.00  0.00    -0.428 OA
ATOM     60  H   LIG d   1      10.595   7.964  -1.854  0.00  0.00     0.111 H 
ATOM     61  C   LIG d   1      11.000   6.836   0.891  0.00  0.00     0.335 A 
ATOM     62  C   LIG d   1      11.235   5.686   0.015  0.00  0.00     0.030 A 
ATOM     63  O   LIG d   1      11.354   6.915   2.051  0.00  0.00    -0.245 OA
ATOM     64  H   LIG d   1      11.749   4.779   0.301  0.00  0.00     0.069 H 
BRANCH  58  65
ATOM     65  O   LIG d   1       8.705   7.238  -1.400  0.00  0.00    -0.354 OA
ATOM     66  H   LIG d   1       8.253   8.092  -1.359  0.00  0.00     0.214 HD
ENDBRANCH  58  65
ENDBRANCH  48  57
ENDBRANCH  41  44
ENDBRANCH  38  41
ENDBRANCH   2  38
TORSDOF 13
ENDMDL
MODEL 5
REMARK VINA RESULT:      -7.0      7.205     10.974
REMARK  13 active torsions:
REMARK  status: ('A' for Active; 'I' for Inactive)
REMARK    1  A    between atoms: C_1  and  C_2 
REMARK    2  A    between atoms: C_3  and  C_10 
REMARK    3  A    between atoms: C_4  and  C_8 
REMARK    4  A    between atoms: C_4  and  C_9 
REMARK    5  A    between atoms: C_10  and  C_11 
REMARK    6  A    between atoms: C_11  and  C_12 
REMARK    7  A    between atoms: C_12  and  C_33 
REMARK    8  A    between atoms: C_13  and  C_14 
REMARK    9  A    between atoms: C_14  and  C_15 
REMARK   10  A    between atoms: C_15  and  C_16 
REMARK   11  A    between atoms: C_19  and  C_25 
REMARK   12  A    between atoms: C_22  and  O_24 
REMARK   13  A    between atoms: C_30  and  O_32 
ROOT
ATOM      1  C   LIG d   1       3.809  -0.859  -2.935  0.00  0.00    -0.076 C 
ATOM      2  C   LIG d   1       2.964   0.021  -3.413  0.00  0.00    -0.085 C 
ATOM      3  H   LIG d   1       2.667   0.866  -2.810  0.00  0.00     0.057 H 
ENDROOT
BRANCH   1   4
ATOM      4  C   LIG d   1       4.127  -2.103  -3.725  0.00  0.00    -0.028 C 
ATOM      5  H   LIG d   1       3.681  -2.968  -3.234  0.00  0.00     0.031 H 
ATOM      6  H   LIG d   1       3.722  -2.007  -4.732  0.00  0.00     0.031 H 
BRANCH   4   7
ATOM      7  C   LIG d   1       5.644  -2.285  -3.800  0.00  0.00    -0.027 C 
ATOM      8  H   LIG d   1       6.136  -1.441  -3.315  0.00  0.00     0.031 H 
ATOM      9  H   LIG d   1       5.924  -3.209  -3.295  0.00  0.00     0.031 H 
BRANCH   7  10
ATOM     10  C   LIG d   1       6.072  -2.353  -5.244  0.00  0.00    -0.065 C 
ATOM     11  C   LIG d   1       6.475  -1.261  -5.809  0.00  0.00    -0.073 C 
ATOM     12  C   LIG d   1       6.921  -1.170  -7.239  0.00  0.00    -0.032 C 
ATOM     13  C   LIG d   1       7.235  -2.566  -7.784  0.00  0.00    -0.049 C 
ATOM     14  H   LIG d   1       6.130  -0.719  -7.837  0.00  0.00     0.031 H 
ATOM     15  H   LIG d   1       7.817  -0.552  -7.299  0.00  0.00     0.031 H 
ATOM     16  C   LIG d   1       6.056  -3.491  -7.453  0.00  0.00    -0.044 C 
ATOM     17  H   LIG d   1       7.369  -2.516  -8.864  0.00  0.00     0.027 H 
ATOM     18  H   LIG d   1       8.142  -2.947  -7.315  0.00  0.00     0.027 H 
ATOM     19  C   LIG d   1       6.008  -3.685  -5.934  0.00  0.00    -0.014 C 
ATOM     20  H   LIG d   1       5.127  -3.038  -7.798  0.00  0.00     0.027 H 
ATOM     21  H   LIG d   1       6.200  -4.456  -7.939  0.00  0.00     0.027 H 
BRANCH  11  22
ATOM     22  C   LIG d   1       6.498  -0.002  -4.981  0.00  0.00    -0.043 C 
ATOM     23  H   LIG d   1       7.127  -0.157  -4.104  0.00  0.00     0.027 H 
ATOM     24  H   LIG d   1       6.898   0.817  -5.577  0.00  0.00     0.027 H 
ATOM     25  H   LIG d   1       5.484   0.240  -4.662  0.00  0.00     0.027 H 
ENDBRANCH  11  22
BRANCH  19  26
ATOM     26  C   LIG d   1       7.193  -4.543  -5.489  0.00  0.00    -0.056 C 
ATOM     27  H   LIG d   1       6.978  -4.984  -4.516  0.00  0.00     0.024 H 
ATOM     28  H   LIG d   1       7.361  -5.336  -6.218  0.00  0.00     0.024 H 
ATOM     29  H   LIG d   1       8.086  -3.922  -5.418  0.00  0.00     0.024 H 
ENDBRANCH  19  26
BRANCH  19  30
ATOM     30  C   LIG d   1       4.705  -4.390  -5.556  0.00  0.00    -0.056 C 
ATOM     31  H   LIG d   1       4.192  -4.716  -6.461  0.00  0.00     0.024 H 
ATOM     32  H   LIG d   1       4.927  -5.256  -4.933  0.00  0.00     0.024 H 
ATOM     33  H   LIG d   1       4.065  -3.701  -5.005  0.00  0.00     0.024 H 
ENDBRANCH  19  30
ENDBRANCH   7  10
ENDBRANCH   4   7
ENDBRANCH   1   4
BRANCH   1  34
ATOM     34  C   LIG d   1       4.461  -0.629  -1.597  0.00  0.00    -0.044 C 
ATOM     35  H   LIG d   1       5.373  -0.047  -1.733  0.00  0.00     0.027 H 
ATOM     36  H   LIG d   1       3.777  -0.085  -0.946  0.00  0.00     0.027 H 
ATOM     37  H   LIG d   1       4.707  -1.589  -1.143  0.00  0.00     0.027 H 
ENDBRANCH   1  34
BRANCH   2  38
ATOM     38  C   LIG d   1       2.409  -0.144  -4.804  0.00  0.00    -0.031 C 
ATOM     39  H   LIG d   1       1.323  -0.056  -4.774  0.00  0.00     0.031 H 
ATOM     40  H   LIG d   1       2.684  -1.127  -5.190  0.00  0.00     0.031 H 
BRANCH  38  41
ATOM     41  C   LIG d   1       2.985   0.942  -5.715  0.00  0.00    -0.024 C 
ATOM     42  H   LIG d   1       4.005   1.172  -5.407  0.00  0.00     0.032 H 
ATOM     43  H   LIG d   1       2.370   1.839  -5.643  0.00  0.00     0.032 H 
BRANCH  41  44
ATOM     44  C   LIG d   1       2.990   0.449  -7.140  0.00  0.00    -0.018 C 
ATOM     45  C   LIG d   1       2.746   1.439  -8.244  0.00  0.00     0.179 C 
ATOM     46  O   LIG d   1       2.430   0.755  -9.457  0.00  0.00    -0.340 OA
ATOM     47  H   LIG d   1       1.915   2.090  -7.969  0.00  0.00     0.096 H 
ATOM     48  C   LIG d   1       3.367  -0.281  -9.777  0.00  0.00     0.093 C 
ATOM     49  C   LIG d   1       3.218  -1.402  -8.744  0.00  0.00    -0.004 C 
ATOM     50  H   LIG d   1       4.381   0.117  -9.742  0.00  0.00     0.065 H 
ATOM     51  C   LIG d   1       3.204  -0.814  -7.360  0.00  0.00    -0.077 C 
ATOM     52  H   LIG d   1       4.055  -2.094  -8.835  0.00  0.00     0.034 H 
ATOM     53  H   LIG d   1       2.285  -1.936  -8.922  0.00  0.00     0.034 H 
ATOM     54  H   LIG d   1       3.378  -1.466  -6.517  0.00  0.00     0.057 H 
BRANCH  45  55
ATOM     55  O   LIG d   1       3.921   2.229  -8.440  0.00  0.00    -0.363 OA
ATOM     56  H   LIG d   1       4.701   1.894  -7.978  0.00  0.00     0.213 HD
ENDBRANCH  45  55
BRANCH  48  57
ATOM     57  C   LIG d   1       3.080  -0.820 -11.155  0.00  0.00     0.033 A 
ATOM     58  C   LIG d   1       1.910  -1.687 -11.556  0.00  0.00     0.228 A 
ATOM     59  O   LIG d   1       2.068  -1.942 -12.980  0.00  0.00    -0.428 OA
ATOM     60  H   LIG d   1       1.929  -2.624 -11.000  0.00  0.00     0.111 H 
ATOM     61  C   LIG d   1       3.191  -1.317 -13.381  0.00  0.00     0.335 A 
ATOM     62  C   LIG d   1       3.812  -0.626 -12.249  0.00  0.00     0.030 A 
ATOM     63  O   LIG d   1       3.625  -1.327 -14.517  0.00  0.00    -0.245 OA
ATOM     64  H   LIG d   1       4.723  -0.048 -12.295  0.00  0.00     0.069 H 
BRANCH  58  65
ATOM     65  O   LIG d   1       0.681  -0.997 -11.316  0.00  0.00    -0.354 OA
ATOM     66  H   LIG d   1       0.562  -0.714 -10.398  0.00  0.00     0.214 HD
ENDBRANCH  58  65
ENDBRANCH  48  57
ENDBRANCH  41  44
ENDBRANCH  38  41
ENDBRANCH   2  38
TORSDOF 13
ENDMDL
MODEL 6
REMARK VINA RESULT:      -6.9      4.175      9.138
REMARK  13 active torsions:
REMARK  status: ('A' for Active; 'I' for Inactive)
REMARK    1  A    between atoms: C_1  and  C_2 
REMARK    2  A    between atoms: C_3  and  C_10 
REMARK    3  A    between atoms: C_4  and  C_8 
REMARK    4  A    between atoms: C_4  and  C_9 
REMARK    5  A    between atoms: C_10  and  C_11 
REMARK    6  A    between atoms: C_11  and  C_12 
REMARK    7  A    between atoms: C_12  and  C_33 
REMARK    8  A    between atoms: C_13  and  C_14 
REMARK    9  A    between atoms: C_14  and  C_15 
REMARK   10  A    between atoms: C_15  and  C_16 
REMARK   11  A    between atoms: C_19  and  C_25 
REMARK   12  A    between atoms: C_22  and  O_24 
REMARK   13  A    between atoms: C_30  and  O_32 
ROOT
ATOM      1  C   LIG d   1       9.542   6.528  -5.466  0.00  0.00    -0.076 C 
ATOM      2  C   LIG d   1       9.853   5.579  -6.313  0.00  0.00    -0.085 C 
ATOM      3  H   LIG d   1       9.733   5.742  -7.374  0.00  0.00     0.057 H 
ENDROOT
BRANCH   1   4
ATOM      4  C   LIG d   1       9.588   6.259  -3.984  0.00  0.00    -0.028 C 
ATOM      5  H   LIG d   1       8.581   6.327  -3.571  0.00  0.00     0.031 H 
ATOM      6  H   LIG d   1       9.986   5.259  -3.808  0.00  0.00     0.031 H 
BRANCH   4   7
ATOM      7  C   LIG d   1      10.488   7.293  -3.304  0.00  0.00    -0.027 C 
ATOM      8  H   LIG d   1      11.352   7.494  -3.938  0.00  0.00     0.031 H 
ATOM      9  H   LIG d   1       9.928   8.215  -3.150  0.00  0.00     0.031 H 
BRANCH   7  10
ATOM     10  C   LIG d   1      10.953   6.759  -1.974  0.00  0.00    -0.065 C 
ATOM     11  C   LIG d   1      10.414   7.246  -0.903  0.00  0.00    -0.073 C 
ATOM     12  C   LIG d   1      10.781   6.821   0.489  0.00  0.00    -0.032 C 
ATOM     13  C   LIG d   1      11.530   5.487   0.455  0.00  0.00    -0.049 C 
ATOM     14  H   LIG d   1      11.417   7.581   0.943  0.00  0.00     0.031 H 
ATOM     15  H   LIG d   1       9.874   6.709   1.083  0.00  0.00     0.031 H 
ATOM     16  C   LIG d   1      12.651   5.588  -0.588  0.00  0.00    -0.044 C 
ATOM     17  H   LIG d   1      11.959   5.282   1.435  0.00  0.00     0.027 H 
ATOM     18  H   LIG d   1      10.842   4.688   0.177  0.00  0.00     0.027 H 
ATOM     19  C   LIG d   1      12.010   5.693  -1.976  0.00  0.00    -0.014 C 
ATOM     20  H   LIG d   1      13.255   6.474  -0.391  0.00  0.00     0.027 H 
ATOM     21  H   LIG d   1      13.275   4.696  -0.542  0.00  0.00     0.027 H 
BRANCH  11  22
ATOM     22  C   LIG d   1       9.352   8.303  -1.062  0.00  0.00    -0.043 C 
ATOM     23  H   LIG d   1       8.499   8.058  -0.430  0.00  0.00     0.027 H 
ATOM     24  H   LIG d   1       9.757   9.271  -0.770  0.00  0.00     0.027 H 
ATOM     25  H   LIG d   1       9.033   8.341  -2.104  0.00  0.00     0.027 H 
ENDBRANCH  11  22
BRANCH  19  26
ATOM     26  C   LIG d   1      11.376   4.353  -2.350  0.00  0.00    -0.056 C 
ATOM     27  H   LIG d   1      11.753   3.574  -1.686  0.00  0.00     0.024 H 
ATOM     28  H   LIG d   1      10.293   4.422  -2.248  0.00  0.00     0.024 H 
ATOM     29  H   LIG d   1      11.629   4.105  -3.381  0.00  0.00     0.024 H 
ENDBRANCH  19  26
BRANCH  19  30
ATOM     30  C   LIG d   1      13.086   6.047  -3.003  0.00  0.00    -0.056 C 
ATOM     31  H   LIG d   1      13.890   6.597  -2.514  0.00  0.00     0.024 H 
ATOM     32  H   LIG d   1      13.486   5.132  -3.441  0.00  0.00     0.024 H 
ATOM     33  H   LIG d   1      12.650   6.664  -3.789  0.00  0.00     0.024 H 
ENDBRANCH  19  30
ENDBRANCH   7  10
ENDBRANCH   4   7
ENDBRANCH   1   4
BRANCH   1  34
ATOM     34  C   LIG d   1       9.138   7.888  -5.972  0.00  0.00    -0.044 C 
ATOM     35  H   LIG d   1       8.863   8.522  -5.129  0.00  0.00     0.027 H 
ATOM     36  H   LIG d   1       9.973   8.339  -6.509  0.00  0.00     0.027 H 
ATOM     37  H   LIG d   1       8.286   7.787  -6.644  0.00  0.00     0.027 H 
ENDBRANCH   1  34
BRANCH   2  38
ATOM     38  C   LIG d   1      10.378   4.260  -5.809  0.00  0.00    -0.031 C 
ATOM     39  H   LIG d   1      10.109   4.140  -4.759  0.00  0.00     0.031 H 
ATOM     40  H   LIG d   1      11.464   4.238  -5.910  0.00  0.00     0.031 H 
BRANCH  38  41
ATOM     41  C   LIG d   1       9.766   3.120  -6.626  0.00  0.00    -0.024 C 
ATOM     42  H   LIG d   1      10.557   2.454  -6.971  0.00  0.00     0.032 H 
ATOM     43  H   LIG d   1       9.236   3.533  -7.484  0.00  0.00     0.032 H 
BRANCH  41  44
ATOM     44  C   LIG d   1       8.800   2.347  -5.764  0.00  0.00    -0.018 C 
ATOM     45  C   LIG d   1       7.830   1.414  -6.430  0.00  0.00     0.179 C 
ATOM     46  O   LIG d   1       6.784   1.061  -5.523  0.00  0.00    -0.340 OA
ATOM     47  H   LIG d   1       7.400   1.902  -7.305  0.00  0.00     0.096 H 
ATOM     48  C   LIG d   1       7.273   0.612  -4.252  0.00  0.00     0.093 C 
ATOM     49  C   LIG d   1       7.914   1.803  -3.534  0.00  0.00    -0.004 C 
ATOM     50  H   LIG d   1       8.016  -0.171  -4.400  0.00  0.00     0.065 H 
ATOM     51  C   LIG d   1       8.841   2.520  -4.476  0.00  0.00    -0.077 C 
ATOM     52  H   LIG d   1       8.476   1.447  -2.672  0.00  0.00     0.034 H 
ATOM     53  H   LIG d   1       7.134   2.488  -3.201  0.00  0.00     0.034 H 
ATOM     54  H   LIG d   1       9.570   3.204  -4.067  0.00  0.00     0.057 H 
BRANCH  45  55
ATOM     55  O   LIG d   1       8.518   0.230  -6.840  0.00  0.00    -0.363 OA
ATOM     56  H   LIG d   1       8.787  -0.342  -6.109  0.00  0.00     0.213 HD
ENDBRANCH  45  55
BRANCH  48  57
ATOM     57  C   LIG d   1       6.129   0.078  -3.428  0.00  0.00     0.033 A 
ATOM     58  C   LIG d   1       5.236   0.875  -2.506  0.00  0.00     0.228 A 
ATOM     59  O   LIG d   1       4.289  -0.076  -1.944  0.00  0.00    -0.428 OA
ATOM     60  H   LIG d   1       5.828   1.333  -1.714  0.00  0.00     0.111 H 
ATOM     61  C   LIG d   1       4.580  -1.288  -2.453  0.00  0.00     0.335 A 
ATOM     62  C   LIG d   1       5.718  -1.186  -3.369  0.00  0.00     0.030 A 
ATOM     63  O   LIG d   1       3.985  -2.315  -2.191  0.00  0.00    -0.245 OA
ATOM     64  H   LIG d   1       6.156  -2.010  -3.914  0.00  0.00     0.069 H 
BRANCH  58  65
ATOM     65  O   LIG d   1       4.539   1.881  -3.245  0.00  0.00    -0.354 OA
ATOM     66  H   LIG d   1       3.617   1.998  -2.976  0.00  0.00     0.214 HD
ENDBRANCH  58  65
ENDBRANCH  48  57
ENDBRANCH  41  44
ENDBRANCH  38  41
ENDBRANCH   2  38
TORSDOF 13
ENDMDL
MODEL 7
REMARK VINA RESULT:      -6.9      7.261     11.032
REMARK  13 active torsions:
REMARK  status: ('A' for Active; 'I' for Inactive)
REMARK    1  A    between atoms: C_1  and  C_2 
REMARK    2  A    between atoms: C_3  and  C_10 
REMARK    3  A    between atoms: C_4  and  C_8 
REMARK    4  A    between atoms: C_4  and  C_9 
REMARK    5  A    between atoms: C_10  and  C_11 
REMARK    6  A    between atoms: C_11  and  C_12 
REMARK    7  A    between atoms: C_12  and  C_33 
REMARK    8  A    between atoms: C_13  and  C_14 
REMARK    9  A    between atoms: C_14  and  C_15 
REMARK   10  A    between atoms: C_15  and  C_16 
REMARK   11  A    between atoms: C_19  and  C_25 
REMARK   12  A    between atoms: C_22  and  O_24 
REMARK   13  A    between atoms: C_30  and  O_32 
ROOT
ATOM      1  C   LIG d   1       7.061  -3.664  -4.601  0.00  0.00    -0.076 C 
ATOM      2  C   LIG d   1       7.317  -4.762  -5.268  0.00  0.00    -0.085 C 
ATOM      3  H   LIG d   1       8.327  -4.982  -5.579  0.00  0.00     0.057 H 
ENDROOT
BRANCH   1   4
ATOM      4  C   LIG d   1       5.636  -3.294  -4.277  0.00  0.00    -0.028 C 
ATOM      5  H   LIG d   1       4.971  -4.093  -4.606  0.00  0.00     0.031 H 
ATOM      6  H   LIG d   1       5.533  -3.155  -3.201  0.00  0.00     0.031 H 
BRANCH   4   7
ATOM      7  C   LIG d   1       5.269  -1.996  -4.997  0.00  0.00    -0.027 C 
ATOM      8  H   LIG d   1       6.053  -1.741  -5.711  0.00  0.00     0.031 H 
ATOM      9  H   LIG d   1       4.326  -2.128  -5.526  0.00  0.00     0.031 H 
BRANCH   7  10
ATOM     10  C   LIG d   1       5.128  -0.884  -3.990  0.00  0.00    -0.065 C 
ATOM     11  C   LIG d   1       5.958   0.107  -4.058  0.00  0.00    -0.073 C 
ATOM     12  C   LIG d   1       5.948   1.278  -3.121  0.00  0.00    -0.032 C 
ATOM     13  C   LIG d   1       4.610   1.351  -2.381  0.00  0.00    -0.049 C 
ATOM     14  H   LIG d   1       6.755   1.168  -2.396  0.00  0.00     0.031 H 
ATOM     15  H   LIG d   1       6.095   2.197  -3.689  0.00  0.00     0.031 H 
ATOM     16  C   LIG d   1       4.299  -0.037  -1.805  0.00  0.00    -0.044 C 
ATOM     17  H   LIG d   1       4.678   2.076  -1.571  0.00  0.00     0.027 H 
ATOM     18  H   LIG d   1       3.823   1.645  -3.076  0.00  0.00     0.027 H 
ATOM     19  C   LIG d   1       4.029  -0.992  -2.972  0.00  0.00    -0.014 C 
ATOM     20  H   LIG d   1       5.150  -0.392  -1.225  0.00  0.00     0.027 H 
ATOM     21  H   LIG d   1       3.415   0.021  -1.170  0.00  0.00     0.027 H 
BRANCH  11  22
ATOM     22  C   LIG d   1       7.000   0.082  -5.147  0.00  0.00    -0.043 C 
ATOM     23  H   LIG d   1       7.159   1.094  -5.519  0.00  0.00     0.027 H 
ATOM     24  H   LIG d   1       7.934  -0.310  -4.747  0.00  0.00     0.027 H 
ATOM     25  H   LIG d   1       6.657  -0.555  -5.963  0.00  0.00     0.027 H 
ENDBRANCH  11  22
BRANCH  19  26
ATOM     26  C   LIG d   1       2.695  -0.636  -3.628  0.00  0.00    -0.056 C 
ATOM     27  H   LIG d   1       2.622  -1.132  -4.597  0.00  0.00     0.024 H 
ATOM     28  H   LIG d   1       1.876  -0.968  -2.989  0.00  0.00     0.024 H 
ATOM     29  H   LIG d   1       2.633   0.443  -3.767  0.00  0.00     0.024 H 
ENDBRANCH  19  26
BRANCH  19  30
ATOM     30  C   LIG d   1       3.966  -2.427  -2.446  0.00  0.00    -0.056 C 
ATOM     31  H   LIG d   1       2.960  -2.636  -2.080  0.00  0.00     0.024 H 
ATOM     32  H   LIG d   1       4.210  -3.121  -3.251  0.00  0.00     0.024 H 
ATOM     33  H   LIG d   1       4.681  -2.548  -1.632  0.00  0.00     0.024 H 
ENDBRANCH  19  30
ENDBRANCH   7  10
ENDBRANCH   4   7
ENDBRANCH   1   4
BRANCH   1  34
ATOM     34  C   LIG d   1       8.190  -2.771  -4.159  0.00  0.00    -0.044 C 
ATOM     35  H   LIG d   1       7.916  -2.272  -3.229  0.00  0.00     0.027 H 
ATOM     36  H   LIG d   1       9.087  -3.369  -3.999  0.00  0.00     0.027 H 
ATOM     37  H   LIG d   1       8.384  -2.023  -4.928  0.00  0.00     0.027 H 
ENDBRANCH   1  34
BRANCH   2  38
ATOM     38  C   LIG d   1       6.201  -5.720  -5.600  0.00  0.00    -0.031 C 
ATOM     39  H   LIG d   1       5.252  -5.301  -5.265  0.00  0.00     0.031 H 
ATOM     40  H   LIG d   1       6.376  -6.671  -5.095  0.00  0.00     0.031 H 
BRANCH  38  41
ATOM     41  C   LIG d   1       6.155  -5.945  -7.112  0.00  0.00    -0.024 C 
ATOM     42  H   LIG d   1       5.783  -6.949  -7.319  0.00  0.00     0.032 H 
ATOM     43  H   LIG d   1       7.158  -5.835  -7.526  0.00  0.00     0.032 H 
BRANCH  41  44
ATOM     44  C   LIG d   1       5.237  -4.930  -7.743  0.00  0.00    -0.018 C 
ATOM     45  C   LIG d   1       3.766  -5.231  -7.804  0.00  0.00     0.179 C 
ATOM     46  O   LIG d   1       3.123  -4.357  -8.733  0.00  0.00    -0.340 OA
ATOM     47  H   LIG d   1       3.621  -6.264  -8.120  0.00  0.00     0.096 H 
ATOM     48  C   LIG d   1       3.445  -2.977  -8.519  0.00  0.00     0.093 C 
ATOM     49  C   LIG d   1       4.921  -2.765  -8.869  0.00  0.00    -0.004 C 
ATOM     50  H   LIG d   1       3.275  -2.717  -7.474  0.00  0.00     0.065 H 
ATOM     51  C   LIG d   1       5.752  -3.833  -8.213  0.00  0.00    -0.077 C 
ATOM     52  H   LIG d   1       5.241  -1.786  -8.514  0.00  0.00     0.034 H 
ATOM     53  H   LIG d   1       5.048  -2.819  -9.950  0.00  0.00     0.034 H 
ATOM     54  H   LIG d   1       6.819  -3.682  -8.128  0.00  0.00     0.057 H 
BRANCH  45  55
ATOM     55  O   LIG d   1       3.191  -5.048  -6.509  0.00  0.00    -0.363 OA
ATOM     56  H   LIG d   1       3.640  -5.538  -5.807  0.00  0.00     0.213 HD
ENDBRANCH  45  55
BRANCH  48  57
ATOM     57  C   LIG d   1       2.585  -2.111  -9.404  0.00  0.00     0.033 A 
ATOM     58  C   LIG d   1       2.058  -0.733  -9.075  0.00  0.00     0.228 A 
ATOM     59  O   LIG d   1       1.288  -0.310 -10.236  0.00  0.00    -0.428 OA
ATOM     60  H   LIG d   1       1.418  -0.778  -8.194  0.00  0.00     0.111 H 
ATOM     61  C   LIG d   1       1.339  -1.306 -11.141  0.00  0.00     0.335 A 
ATOM     62  C   LIG d   1       2.142  -2.415 -10.621  0.00  0.00     0.030 A 
ATOM     63  O   LIG d   1       0.798  -1.286 -12.229  0.00  0.00    -0.245 OA
ATOM     64  H   LIG d   1       2.343  -3.338 -11.144  0.00  0.00     0.069 H 
BRANCH  58  65
ATOM     65  O   LIG d   1       3.143   0.169  -8.851  0.00  0.00    -0.354 OA
ATOM     66  H   LIG d   1       3.932  -0.249  -8.477  0.00  0.00     0.214 HD
ENDBRANCH  58  65
ENDBRANCH  48  57
ENDBRANCH  41  44
ENDBRANCH  38  41
ENDBRANCH   2  38
TORSDOF 13
ENDMDL
MODEL 8
REMARK VINA RESULT:      -6.8      9.989     13.436
REMARK  13 active torsions:
REMARK  status: ('A' for Active; 'I' for Inactive)
REMARK    1  A    between atoms: C_1  and  C_2 
REMARK    2  A    between atoms: C_3  and  C_10 
REMARK    3  A    between atoms: C_4  and  C_8 
REMARK    4  A    between atoms: C_4  and  C_9 
REMARK    5  A    between atoms: C_10  and  C_11 
REMARK    6  A    between atoms: C_11  and  C_12 
REMARK    7  A    between atoms: C_12  and  C_33 
REMARK    8  A    between atoms: C_13  and  C_14 
REMARK    9  A    between atoms: C_14  and  C_15 
REMARK   10  A    between atoms: C_15  and  C_16 
REMARK   11  A    between atoms: C_19  and  C_25 
REMARK   12  A    between atoms: C_22  and  O_24 
REMARK   13  A    between atoms: C_30  and  O_32 
ROOT
ATOM      1  C   LIG d   1       5.321  -2.205  -8.031  0.00  0.00    -0.076 C 
ATOM      2  C   LIG d   1       5.220  -3.419  -8.512  0.00  0.00    -0.085 C 
ATOM      3  H   LIG d   1       5.978  -3.800  -9.180  0.00  0.00     0.057 H 
ENDROOT
BRANCH   1   4
ATOM      4  C   LIG d   1       4.203  -1.627  -7.202  0.00  0.00    -0.028 C 
ATOM      5  H   LIG d   1       3.450  -1.194  -7.860  0.00  0.00     0.031 H 
ATOM      6  H   LIG d   1       3.751  -2.417  -6.602  0.00  0.00     0.031 H 
BRANCH   4   7
ATOM      7  C   LIG d   1       4.760  -0.541  -6.279  0.00  0.00    -0.027 C 
ATOM      8  H   LIG d   1       5.840  -0.471  -6.411  0.00  0.00     0.031 H 
ATOM      9  H   LIG d   1       4.301   0.415  -6.527  0.00  0.00     0.031 H 
BRANCH   7  10
ATOM     10  C   LIG d   1       4.451  -0.891  -4.846  0.00  0.00    -0.065 C 
ATOM     11  C   LIG d   1       3.364  -0.419  -4.327  0.00  0.00    -0.073 C 
ATOM     12  C   LIG d   1       2.929  -0.673  -2.914  0.00  0.00    -0.032 C 
ATOM     13  C   LIG d   1       3.690  -1.867  -2.333  0.00  0.00    -0.049 C 
ATOM     14  H   LIG d   1       3.130   0.212  -2.309  0.00  0.00     0.031 H 
ATOM     15  H   LIG d   1       1.860  -0.886  -2.897  0.00  0.00     0.031 H 
ATOM     16  C   LIG d   1       5.187  -1.664  -2.602  0.00  0.00    -0.044 C 
ATOM     17  H   LIG d   1       3.516  -1.925  -1.259  0.00  0.00     0.027 H 
ATOM     18  H   LIG d   1       3.352  -2.785  -2.813  0.00  0.00     0.027 H 
ATOM     19  C   LIG d   1       5.423  -1.769  -4.112  0.00  0.00    -0.014 C 
ATOM     20  H   LIG d   1       5.493  -0.680  -2.247  0.00  0.00     0.027 H 
ATOM     21  H   LIG d   1       5.759  -2.438  -2.089  0.00  0.00     0.027 H 
BRANCH  11  22
ATOM     22  C   LIG d   1       2.479   0.437  -5.196  0.00  0.00    -0.043 C 
ATOM     23  H   LIG d   1       1.517   0.582  -4.703  0.00  0.00     0.027 H 
ATOM     24  H   LIG d   1       2.955   1.404  -5.357  0.00  0.00     0.027 H 
ATOM     25  H   LIG d   1       2.324  -0.058  -6.155  0.00  0.00     0.027 H 
ENDBRANCH  11  22
BRANCH  19  26
ATOM     26  C   LIG d   1       5.234  -3.219  -4.561  0.00  0.00    -0.056 C 
ATOM     27  H   LIG d   1       5.879  -3.870  -3.971  0.00  0.00     0.024 H 
ATOM     28  H   LIG d   1       4.194  -3.511  -4.414  0.00  0.00     0.024 H 
ATOM     29  H   LIG d   1       5.491  -3.310  -5.616  0.00  0.00     0.024 H 
ENDBRANCH  19  26
BRANCH  19  30
ATOM     30  C   LIG d   1       6.851  -1.324  -4.432  0.00  0.00    -0.056 C 
ATOM     31  H   LIG d   1       7.364  -1.057  -3.508  0.00  0.00     0.024 H 
ATOM     32  H   LIG d   1       7.385  -2.139  -4.921  0.00  0.00     0.024 H 
ATOM     33  H   LIG d   1       6.822  -0.459  -5.095  0.00  0.00     0.024 H 
ENDBRANCH  19  30
ENDBRANCH   7  10
ENDBRANCH   4   7
ENDBRANCH   1   4
BRANCH   1  34
ATOM     34  C   LIG d   1       6.555  -1.385  -8.307  0.00  0.00    -0.044 C 
ATOM     35  H   LIG d   1       7.128  -1.271  -7.387  0.00  0.00     0.027 H 
ATOM     36  H   LIG d   1       7.167  -1.888  -9.056  0.00  0.00     0.027 H 
ATOM     37  H   LIG d   1       6.263  -0.403  -8.678  0.00  0.00     0.027 H 
ENDBRANCH   1  34
BRANCH   2  38
ATOM     38  C   LIG d   1       4.047  -4.285  -8.132  0.00  0.00    -0.031 C 
ATOM     39  H   LIG d   1       3.128  -3.839  -8.514  0.00  0.00     0.031 H 
ATOM     40  H   LIG d   1       3.988  -4.362  -7.045  0.00  0.00     0.031 H 
BRANCH  38  41
ATOM     41  C   LIG d   1       4.226  -5.680  -8.733  0.00  0.00    -0.024 C 
ATOM     42  H   LIG d   1       5.100  -5.685  -9.385  0.00  0.00     0.032 H 
ATOM     43  H   LIG d   1       3.339  -5.943  -9.310  0.00  0.00     0.032 H 
BRANCH  41  44
ATOM     44  C   LIG d   1       4.420  -6.683  -7.625  0.00  0.00    -0.018 C 
ATOM     45  C   LIG d   1       4.295  -8.145  -7.948  0.00  0.00     0.179 C 
ATOM     46  O   LIG d   1       4.148  -8.903  -6.747  0.00  0.00    -0.340 OA
ATOM     47  H   LIG d   1       3.424  -8.302  -8.583  0.00  0.00     0.096 H 
ATOM     48  C   LIG d   1       5.139  -8.589  -5.760  0.00  0.00     0.093 C 
ATOM     49  C   LIG d   1       4.886  -7.165  -5.257  0.00  0.00    -0.004 C 
ATOM     50  H   LIG d   1       6.133  -8.649  -6.205  0.00  0.00     0.065 H 
ATOM     51  C   LIG d   1       4.685  -6.245  -6.430  0.00  0.00    -0.077 C 
ATOM     52  H   LIG d   1       5.742  -6.828  -4.674  0.00  0.00     0.034 H 
ATOM     53  H   LIG d   1       3.993  -7.156  -4.632  0.00  0.00     0.034 H 
ATOM     54  H   LIG d   1       4.766  -5.179  -6.273  0.00  0.00     0.057 H 
BRANCH  45  55
ATOM     55  O   LIG d   1       5.469  -8.579  -8.639  0.00  0.00    -0.363 OA
ATOM     56  H   LIG d   1       5.781  -9.454  -8.372  0.00  0.00     0.213 HD
ENDBRANCH  45  55
BRANCH  48  57
ATOM     57  C   LIG d   1       5.039  -9.558  -4.610  0.00  0.00     0.033 A 
ATOM     58  C   LIG d   1       3.848 -10.422  -4.264  0.00  0.00     0.228 A 
ATOM     59  O   LIG d   1       4.233 -11.181  -3.083  0.00  0.00    -0.428 OA
ATOM     60  H   LIG d   1       2.983  -9.798  -4.046  0.00  0.00     0.111 H 
ATOM     61  C   LIG d   1       5.487 -10.816  -2.757  0.00  0.00     0.335 A 
ATOM     62  C   LIG d   1       5.979  -9.812  -3.704  0.00  0.00     0.030 A 
ATOM     63  O   LIG d   1       6.117 -11.254  -1.814  0.00  0.00    -0.245 OA
ATOM     64  H   LIG d   1       6.955  -9.350  -3.671  0.00  0.00     0.069 H 
BRANCH  58  65
ATOM     65  O   LIG d   1       3.556 -11.312  -5.344  0.00  0.00    -0.354 OA
ATOM     66  H   LIG d   1       3.607 -12.248  -5.107  0.00  0.00     0.214 HD
ENDBRANCH  58  65
ENDBRANCH  48  57
ENDBRANCH  41  44
ENDBRANCH  38  41
ENDBRANCH   2  38
TORSDOF 13
ENDMDL
MODEL 9
REMARK VINA RESULT:      -6.8      6.536      9.735
REMARK  13 active torsions:
REMARK  status: ('A' for Active; 'I' for Inactive)
REMARK    1  A    between atoms: C_1  and  C_2 
REMARK    2  A    between atoms: C_3  and  C_10 
REMARK    3  A    between atoms: C_4  and  C_8 
REMARK    4  A    between atoms: C_4  and  C_9 
REMARK    5  A    between atoms: C_10  and  C_11 
REMARK    6  A    between atoms: C_11  and  C_12 
REMARK    7  A    between atoms: C_12  and  C_33 
REMARK    8  A    between atoms: C_13  and  C_14 
REMARK    9  A    between atoms: C_14  and  C_15 
REMARK   10  A    between atoms: C_15  and  C_16 
REMARK   11  A    between atoms: C_19  and  C_25 
REMARK   12  A    between atoms: C_22  and  O_24 
REMARK   13  A    between atoms: C_30  and  O_32 
ROOT
ATOM      1  C   LIG d   1       4.208  -0.573  -2.823  0.00  0.00    -0.076 C 
ATOM      2  C   LIG d   1       3.034  -0.250  -3.306  0.00  0.00    -0.085 C 
ATOM      3  H   LIG d   1       2.148  -0.764  -2.963  0.00  0.00     0.057 H 
ENDROOT
BRANCH   1   4
ATOM      4  C   LIG d   1       5.455   0.054  -3.390  0.00  0.00    -0.028 C 
ATOM      5  H   LIG d   1       5.349   0.159  -4.470  0.00  0.00     0.031 H 
ATOM      6  H   LIG d   1       5.603   1.037  -2.943  0.00  0.00     0.031 H 
BRANCH   4   7
ATOM      7  C   LIG d   1       6.660  -0.836  -3.081  0.00  0.00    -0.027 C 
ATOM      8  H   LIG d   1       7.349  -0.300  -2.427  0.00  0.00     0.031 H 
ATOM      9  H   LIG d   1       6.323  -1.745  -2.586  0.00  0.00     0.031 H 
BRANCH   7  10
ATOM     10  C   LIG d   1       7.365  -1.193  -4.364  0.00  0.00    -0.065 C 
ATOM     11  C   LIG d   1       7.961  -0.246  -5.014  0.00  0.00    -0.073 C 
ATOM     12  C   LIG d   1       8.693  -0.446  -6.308  0.00  0.00    -0.032 C 
ATOM     13  C   LIG d   1       8.997  -1.932  -6.518  0.00  0.00    -0.049 C 
ATOM     14  H   LIG d   1       8.079  -0.083  -7.131  0.00  0.00     0.031 H 
ATOM     15  H   LIG d   1       9.630   0.111  -6.283  0.00  0.00     0.031 H 
ATOM     16  C   LIG d   1       7.704  -2.727  -6.290  0.00  0.00    -0.044 C 
ATOM     17  H   LIG d   1       9.350  -2.093  -7.536  0.00  0.00     0.027 H 
ATOM     18  H   LIG d   1       9.757  -2.255  -5.807  0.00  0.00     0.027 H 
ATOM     19  C   LIG d   1       7.334  -2.628  -4.807  0.00  0.00    -0.014 C 
ATOM     20  H   LIG d   1       6.904  -2.309  -6.900  0.00  0.00     0.027 H 
ATOM     21  H   LIG d   1       7.866  -3.772  -6.556  0.00  0.00     0.027 H 
BRANCH  11  22
ATOM     22  C   LIG d   1       7.917   1.145  -4.435  0.00  0.00    -0.043 C 
ATOM     23  H   LIG d   1       6.919   1.562  -4.569  0.00  0.00     0.027 H 
ATOM     24  H   LIG d   1       8.155   1.103  -3.373  0.00  0.00     0.027 H 
ATOM     25  H   LIG d   1       8.646   1.774  -4.947  0.00  0.00     0.027 H 
ENDBRANCH  11  22
BRANCH  19  26
ATOM     26  C   LIG d   1       8.331  -3.435  -3.975  0.00  0.00    -0.056 C 
ATOM     27  H   LIG d   1       7.832  -4.310  -3.557  0.00  0.00     0.024 H 
ATOM     28  H   LIG d   1       9.157  -3.758  -4.609  0.00  0.00     0.024 H 
ATOM     29  H   LIG d   1       8.717  -2.815  -3.165  0.00  0.00     0.024 H 
ENDBRANCH  19  26
BRANCH  19  30
ATOM     30  C   LIG d   1       5.928  -3.193  -4.598  0.00  0.00    -0.056 C 
ATOM     31  H   LIG d   1       5.816  -3.516  -3.563  0.00  0.00     0.024 H 
ATOM     32  H   LIG d   1       5.190  -2.421  -4.819  0.00  0.00     0.024 H 
ATOM     33  H   LIG d   1       5.775  -4.043  -5.262  0.00  0.00     0.024 H 
ENDBRANCH  19  30
ENDBRANCH   7  10
ENDBRANCH   4   7
ENDBRANCH   1   4
BRANCH   1  34
ATOM     34  C   LIG d   1       4.311  -1.571  -1.699  0.00  0.00    -0.044 C 
ATOM     35  H   LIG d   1       4.905  -2.425  -2.025  0.00  0.00     0.027 H 
ATOM     36  H   LIG d   1       4.790  -1.103  -0.839  0.00  0.00     0.027 H 
ATOM     37  H   LIG d   1       3.313  -1.908  -1.420  0.00  0.00     0.027 H 
ENDBRANCH   1  34
BRANCH   2  38
ATOM     38  C   LIG d   1       2.919   0.840  -4.340  0.00  0.00    -0.031 C 
ATOM     39  H   LIG d   1       3.916   1.157  -4.646  0.00  0.00     0.031 H 
ATOM     40  H   LIG d   1       2.383   1.690  -3.915  0.00  0.00     0.031 H 
BRANCH  38  41
ATOM     41  C   LIG d   1       2.155   0.312  -5.556  0.00  0.00    -0.024 C 
ATOM     42  H   LIG d   1       1.358   1.009  -5.815  0.00  0.00     0.032 H 
ATOM     43  H   LIG d   1       1.726  -0.662  -5.320  0.00  0.00     0.032 H 
BRANCH  41  44
ATOM     44  C   LIG d   1       3.101   0.175  -6.722  0.00  0.00    -0.018 C 
ATOM     45  C   LIG d   1       2.739   0.834  -8.022  0.00  0.00     0.179 C 
ATOM     46  O   LIG d   1       3.540   0.307  -9.081  0.00  0.00    -0.340 OA
ATOM     47  H   LIG d   1       1.686   0.650  -8.240  0.00  0.00     0.096 H 
ATOM     48  C   LIG d   1       4.941   0.309  -8.777  0.00  0.00     0.093 C 
ATOM     49  C   LIG d   1       5.194  -0.711  -7.663  0.00  0.00    -0.004 C 
ATOM     50  H   LIG d   1       5.243   1.301  -8.442  0.00  0.00     0.065 H 
ATOM     51  C   LIG d   1       4.194  -0.510  -6.559  0.00  0.00    -0.077 C 
ATOM     52  H   LIG d   1       6.201  -0.576  -7.270  0.00  0.00     0.034 H 
ATOM     53  H   LIG d   1       5.094  -1.719  -8.065  0.00  0.00     0.034 H 
ATOM     54  H   LIG d   1       4.391  -0.950  -5.592  0.00  0.00     0.057 H 
BRANCH  45  55
ATOM     55  O   LIG d   1       2.961   2.242  -7.918  0.00  0.00    -0.363 OA
ATOM     56  H   LIG d   1       3.323   2.643  -8.720  0.00  0.00     0.213 HD
ENDBRANCH  45  55
BRANCH  48  57
ATOM     57  C   LIG d   1       5.728  -0.074 -10.004  0.00  0.00     0.033 A 
ATOM     58  C   LIG d   1       5.162  -0.467 -11.349  0.00  0.00     0.228 A 
ATOM     59  O   LIG d   1       6.309  -0.741 -12.202  0.00  0.00    -0.428 OA
ATOM     60  H   LIG d   1       4.544  -1.358 -11.250  0.00  0.00     0.111 H 
ATOM     61  C   LIG d   1       7.419  -0.548 -11.465  0.00  0.00     0.335 A 
ATOM     62  C   LIG d   1       7.053  -0.136 -10.108  0.00  0.00     0.030 A 
ATOM     63  O   LIG d   1       8.557  -0.693 -11.868  0.00  0.00    -0.245 OA
ATOM     64  H   LIG d   1       7.751   0.085  -9.314  0.00  0.00     0.069 H 
BRANCH  58  65
ATOM     65  O   LIG d   1       4.393   0.608 -11.893  0.00  0.00    -0.354 OA
ATOM     66  H   LIG d   1       4.716   1.486 -11.646  0.00  0.00     0.214 HD
ENDBRANCH  58  65
ENDBRANCH  48  57
ENDBRANCH  41  44
ENDBRANCH  38  41
ENDBRANCH   2  38
TORSDOF 13
ENDMDL
