MODEL 1
REMARK VINA RESULT:      -6.3      0.000      0.000
REMARK  9 active torsions:
REMARK  status: ('A' for Active; 'I' for Inactive)
REMARK    1  A    between atoms: C_1  and  C_2 
REMARK    2  A    between atoms: C_3  and  O_26 
REMARK    3  A    between atoms: C_4  and  C_23 
REMARK    4  A    between atoms: C_7  and  O_8 
REMARK    5  A    between atoms: C_9  and  C_22 
REMARK    6  A    between atoms: C_14  and  C_18 
REMARK    7  A    between atoms: C_16  and  O_17 
REMARK    8  A    between atoms: C_18  and  C_20 
REMARK    9  A    between atoms: C_23  and  C_25 
ROOT
ATOM      1  C   LIG d   1       2.470  -1.359  -9.391  0.00  0.00     0.034 A 
ATOM      2  C   LIG d   1       2.623  -2.721  -9.575  0.00  0.00     0.137 A 
ATOM      3  C   LIG d   1       3.477  -3.454  -8.733  0.00  0.00     0.101 A 
ATOM      4  C   LIG d   1       4.177  -2.798  -7.698  0.00  0.00     0.150 A 
ATOM      5  C   LIG d   1       4.014  -1.429  -7.544  0.00  0.00     0.058 A 
ATOM      6  C   LIG d   1       3.168  -0.715  -8.376  0.00  0.00     0.131 A 
ATOM      7  C   LIG d   1       4.902  -1.051  -6.391  0.00  0.00     0.115 C 
ATOM      8  C   LIG d   1       5.230  -2.413  -5.778  0.00  0.00     0.127 C 
ATOM      9  C   LIG d   1       4.758  -2.681  -3.702  0.00  0.00     0.025 C 
ATOM     10  C   LIG d   1       5.494  -1.490  -3.595  0.00  0.00     0.196 C 
ATOM     11  O   LIG d   1       6.629  -1.541  -3.167  0.00  0.00    -0.287 OA
ATOM     12  C   LIG d   1       4.930  -0.152  -3.992  0.00  0.00     0.102 C 
ATOM     13  C   LIG d   1       4.185  -0.278  -5.310  0.00  0.00     0.126 C 
ATOM     14  O   LIG d   1       5.028  -3.290  -6.761  0.00  0.00    -0.458 OA
ATOM     15  H   LIG d   1       5.208  -3.618  -3.408  0.00  0.00     0.069 H 
ENDROOT
BRANCH   3  16
ATOM     16  C   LIG d   1       3.644  -4.892  -8.932  0.00  0.00     0.167 C 
ATOM     17  O   LIG d   1       2.746  -5.655  -8.638  0.00  0.00    -0.292 OA
BRANCH  16  18
ATOM     18  C   LIG d   1       4.932  -5.429  -9.502  0.00  0.00    -0.001 C 
ATOM     19  H   LIG d   1       5.428  -5.929  -8.793  0.00  0.00     0.031 H 
ATOM     20  H   LIG d   1       4.710  -6.100 -10.332  0.00  0.00     0.031 H 
ATOM     21  H   LIG d   1       5.544  -4.601  -9.859  0.00  0.00     0.031 H 
ENDBRANCH  16  18
ENDBRANCH   3  16
BRANCH   2  22
ATOM     22  O   LIG d   1       1.947  -3.350 -10.567  0.00  0.00    -0.506 OA
ATOM     23  H   LIG d   1       1.049  -3.616 -10.325  0.00  0.00     0.292 HD
ENDBRANCH   2  22
BRANCH   1  24
ATOM     24  C   LIG d   1       1.549  -0.575 -10.289  0.00  0.00    -0.033 C 
ATOM     25  H   LIG d   1       0.650  -1.159 -10.486  0.00  0.00     0.028 H 
ATOM     26  H   LIG d   1       1.274   0.360  -9.800  0.00  0.00     0.028 H 
ATOM     27  H   LIG d   1       2.056  -0.359 -11.229  0.00  0.00     0.028 H 
ENDBRANCH   1  24
BRANCH   6  28
ATOM     28  O   LIG d   1       3.019   0.621  -8.198  0.00  0.00    -0.506 OA
ATOM     29  H   LIG d   1       3.779   1.050  -7.781  0.00  0.00     0.292 HD
ENDBRANCH   6  28
BRANCH   7  30
ATOM     30  C   LIG d   1       6.166  -0.323  -6.852  0.00  0.00    -0.041 C 
ATOM     31  H   LIG d   1       6.085   0.736  -6.603  0.00  0.00     0.025 H 
ATOM     32  H   LIG d   1       7.034  -0.748  -6.350  0.00  0.00     0.025 H 
ATOM     33  H   LIG d   1       6.277  -0.435  -7.930  0.00  0.00     0.025 H 
ENDBRANCH   7  30
BRANCH  13  34
ATOM     34  O   LIG d   1       3.093   0.207  -5.482  0.00  0.00    -0.509 OA
ATOM     35  H   LIG d   1       7.558   0.023  -3.636  0.00  0.00     0.292 HD
ENDBRANCH  13  34
BRANCH  12  36
ATOM     36  C   LIG d   1       5.292   0.874  -2.948  0.00  0.00     0.167 C 
ATOM     37  O   LIG d   1       6.172   1.672  -3.165  0.00  0.00    -0.292 OA
BRANCH  36  38
ATOM     38  C   LIG d   1       4.557   0.902  -1.633  0.00  0.00    -0.001 C 
ATOM     39  H   LIG d   1       3.809   1.695  -1.652  0.00  0.00     0.031 H 
ATOM     40  H   LIG d   1       4.065  -0.057  -1.471  0.00  0.00     0.031 H 
ATOM     41  H   LIG d   1       5.264   1.089  -0.825  0.00  0.00     0.031 H 
ENDBRANCH  36  38
ENDBRANCH  12  36
TORSDOF 9
ENDMDL
MODEL 2
REMARK VINA RESULT:      -5.5      3.336      5.195
REMARK  9 active torsions:
REMARK  status: ('A' for Active; 'I' for Inactive)
REMARK    1  A    between atoms: C_1  and  C_2 
REMARK    2  A    between atoms: C_3  and  O_26 
REMARK    3  A    between atoms: C_4  and  C_23 
REMARK    4  A    between atoms: C_7  and  O_8 
REMARK    5  A    between atoms: C_9  and  C_22 
REMARK    6  A    between atoms: C_14  and  C_18 
REMARK    7  A    between atoms: C_16  and  O_17 
REMARK    8  A    between atoms: C_18  and  C_20 
REMARK    9  A    between atoms: C_23  and  C_25 
ROOT
ATOM      1  C   LIG d   1       5.846  -6.643  -5.444  0.00  0.00     0.034 A 
ATOM      2  C   LIG d   1       7.226  -6.679  -5.517  0.00  0.00     0.137 A 
ATOM      3  C   LIG d   1       7.961  -5.481  -5.524  0.00  0.00     0.101 A 
ATOM      4  C   LIG d   1       7.289  -4.242  -5.454  0.00  0.00     0.150 A 
ATOM      5  C   LIG d   1       5.903  -4.236  -5.394  0.00  0.00     0.058 A 
ATOM      6  C   LIG d   1       5.186  -5.421  -5.385  0.00  0.00     0.131 A 
ATOM      7  C   LIG d   1       5.514  -2.785  -5.357  0.00  0.00     0.115 C 
ATOM      8  C   LIG d   1       6.845  -2.103  -5.043  0.00  0.00     0.127 C 
ATOM      9  C   LIG d   1       6.904  -0.842  -3.308  0.00  0.00     0.025 C 
ATOM     10  C   LIG d   1       5.778  -0.282  -3.933  0.00  0.00     0.196 C 
ATOM     11  O   LIG d   1       5.895   0.785  -4.501  0.00  0.00    -0.287 OA
ATOM     12  C   LIG d   1       4.431  -0.955  -3.927  0.00  0.00     0.102 C 
ATOM     13  C   LIG d   1       4.597  -2.439  -4.208  0.00  0.00     0.126 C 
ATOM     14  O   LIG d   1       7.778  -2.976  -5.426  0.00  0.00    -0.458 OA
ATOM     15  H   LIG d   1       7.851  -0.322  -3.344  0.00  0.00     0.069 H 
ENDROOT
BRANCH   3  16
ATOM     16  C   LIG d   1       9.420  -5.518  -5.607  0.00  0.00     0.167 C 
ATOM     17  O   LIG d   1       9.963  -5.763  -6.666  0.00  0.00    -0.292 OA
BRANCH  16  18
ATOM     18  C   LIG d   1      10.252  -5.253  -4.378  0.00  0.00    -0.001 C 
ATOM     19  H   LIG d   1      10.875  -6.020  -4.225  0.00  0.00     0.031 H 
ATOM     20  H   LIG d   1      10.828  -4.339  -4.520  0.00  0.00     0.031 H 
ATOM     21  H   LIG d   1       9.597  -5.139  -3.514  0.00  0.00     0.031 H 
ENDBRANCH  16  18
ENDBRANCH   3  16
BRANCH   2  22
ATOM     22  O   LIG d   1       7.871  -7.870  -5.579  0.00  0.00    -0.506 OA
ATOM     23  H   LIG d   1       7.344  -8.619  -5.268  0.00  0.00     0.292 HD
ENDBRANCH   2  22
BRANCH   1  24
ATOM     24  C   LIG d   1       5.058  -7.927  -5.429  0.00  0.00    -0.033 C 
ATOM     25  H   LIG d   1       4.294  -7.876  -4.653  0.00  0.00     0.028 H 
ATOM     26  H   LIG d   1       4.581  -8.073  -6.399  0.00  0.00     0.028 H 
ATOM     27  H   LIG d   1       5.728  -8.762  -5.223  0.00  0.00     0.028 H 
ENDBRANCH   1  24
BRANCH   6  28
ATOM     28  O   LIG d   1       3.832  -5.388  -5.316  0.00  0.00    -0.506 OA
ATOM     29  H   LIG d   1       3.447  -4.531  -5.547  0.00  0.00     0.292 HD
ENDBRANCH   6  28
BRANCH   7  30
ATOM     30  C   LIG d   1       4.938  -2.308  -6.692  0.00  0.00    -0.041 C 
ATOM     31  H   LIG d   1       4.575  -3.167  -7.258  0.00  0.00     0.025 H 
ATOM     32  H   LIG d   1       4.114  -1.620  -6.507  0.00  0.00     0.025 H 
ATOM     33  H   LIG d   1       5.715  -1.800  -7.262  0.00  0.00     0.025 H 
ENDBRANCH   7  30
BRANCH  13  34
ATOM     34  O   LIG d   1       4.032  -3.286  -3.558  0.00  0.00    -0.509 OA
ATOM     35  H   LIG d   1       5.171  -0.925  -7.622  0.00  0.00     0.292 HD
ENDBRANCH  13  34
BRANCH  12  36
ATOM     36  C   LIG d   1       3.361   0.068  -3.642  0.00  0.00     0.167 C 
ATOM     37  O   LIG d   1       3.280   0.567  -2.544  0.00  0.00    -0.292 OA
BRANCH  36  38
ATOM     38  C   LIG d   1       2.393   0.468  -4.725  0.00  0.00    -0.001 C 
ATOM     39  H   LIG d   1       2.940   0.660  -5.648  0.00  0.00     0.031 H 
ATOM     40  H   LIG d   1       1.678  -0.337  -4.888  0.00  0.00     0.031 H 
ATOM     41  H   LIG d   1       1.863   1.370  -4.422  0.00  0.00     0.031 H 
ENDBRANCH  36  38
ENDBRANCH  12  36
TORSDOF 9
ENDMDL
MODEL 3
REMARK VINA RESULT:      -5.5      2.392      5.798
REMARK  9 active torsions:
REMARK  status: ('A' for Active; 'I' for Inactive)
REMARK    1  A    between atoms: C_1  and  C_2 
REMARK    2  A    between atoms: C_3  and  O_26 
REMARK    3  A    between atoms: C_4  and  C_23 
REMARK    4  A    between atoms: C_7  and  O_8 
REMARK    5  A    between atoms: C_9  and  C_22 
REMARK    6  A    between atoms: C_14  and  C_18 
REMARK    7  A    between atoms: C_16  and  O_17 
REMARK    8  A    between atoms: C_18  and  C_20 
REMARK    9  A    between atoms: C_23  and  C_25 
ROOT
ATOM      1  C   LIG d   1       3.562  -0.448  -4.084  0.00  0.00     0.034 A 
ATOM      2  C   LIG d   1       3.186   0.240  -5.223  0.00  0.00     0.137 A 
ATOM      3  C   LIG d   1       3.585  -0.224  -6.489  0.00  0.00     0.101 A 
ATOM      4  C   LIG d   1       4.366  -1.394  -6.596  0.00  0.00     0.150 A 
ATOM      5  C   LIG d   1       4.739  -2.057  -5.436  0.00  0.00     0.058 A 
ATOM      6  C   LIG d   1       4.340  -1.595  -4.193  0.00  0.00     0.131 A 
ATOM      7  C   LIG d   1       5.570  -3.222  -5.894  0.00  0.00     0.115 C 
ATOM      8  C   LIG d   1       5.266  -3.265  -7.392  0.00  0.00     0.127 C 
ATOM      9  C   LIG d   1       4.500  -5.109  -8.175  0.00  0.00     0.025 C 
ATOM     10  C   LIG d   1       5.628  -5.619  -7.512  0.00  0.00     0.196 C 
ATOM     11  O   LIG d   1       6.597  -5.941  -8.170  0.00  0.00    -0.287 OA
ATOM     12  C   LIG d   1       5.684  -5.779  -6.016  0.00  0.00     0.102 C 
ATOM     13  C   LIG d   1       5.100  -4.548  -5.344  0.00  0.00     0.126 C 
ATOM     14  O   LIG d   1       4.846  -2.036  -7.692  0.00  0.00    -0.458 OA
ATOM     15  H   LIG d   1       4.510  -5.009  -9.250  0.00  0.00     0.069 H 
ENDROOT
BRANCH   3  16
ATOM     16  C   LIG d   1       3.193   0.507  -7.693  0.00  0.00     0.167 C 
ATOM     17  O   LIG d   1       3.617   1.628  -7.889  0.00  0.00    -0.292 OA
BRANCH  16  18
ATOM     18  C   LIG d   1       2.262  -0.132  -8.692  0.00  0.00    -0.001 C 
ATOM     19  H   LIG d   1       2.396   0.290  -9.589  0.00  0.00     0.031 H 
ATOM     20  H   LIG d   1       2.477  -1.199  -8.757  0.00  0.00     0.031 H 
ATOM     21  H   LIG d   1       1.231   0.013  -8.371  0.00  0.00     0.031 H 
ENDBRANCH  16  18
ENDBRANCH   3  16
BRANCH   2  22
ATOM     22  O   LIG d   1       2.432   1.361  -5.120  0.00  0.00    -0.506 OA
ATOM     23  H   LIG d   1       1.527   1.258  -5.447  0.00  0.00     0.292 HD
ENDBRANCH   2  22
BRANCH   1  24
ATOM     24  C   LIG d   1       3.129   0.045  -2.728  0.00  0.00    -0.033 C 
ATOM     25  H   LIG d   1       3.979   0.024  -2.046  0.00  0.00     0.028 H 
ATOM     26  H   LIG d   1       2.757   1.066  -2.814  0.00  0.00     0.028 H 
ATOM     27  H   LIG d   1       2.338  -0.599  -2.343  0.00  0.00     0.028 H 
ENDBRANCH   1  24
BRANCH   6  28
ATOM     28  O   LIG d   1       4.710  -2.267  -3.074  0.00  0.00    -0.506 OA
ATOM     29  H   LIG d   1       3.982  -2.725  -2.631  0.00  0.00     0.292 HD
ENDBRANCH   6  28
BRANCH   7  30
ATOM     30  C   LIG d   1       7.061  -3.006  -5.628  0.00  0.00    -0.041 C 
ATOM     31  H   LIG d   1       7.258  -3.105  -4.560  0.00  0.00     0.025 H 
ATOM     32  H   LIG d   1       7.639  -3.752  -6.174  0.00  0.00     0.025 H 
ATOM     33  H   LIG d   1       7.349  -2.009  -5.959  0.00  0.00     0.025 H 
ENDBRANCH   7  30
BRANCH  13  34
ATOM     34  O   LIG d   1       4.313  -4.623  -4.431  0.00  0.00    -0.509 OA
ATOM     35  H   LIG d   1       7.720  -6.304  -7.423  0.00  0.00     0.292 HD
ENDBRANCH  13  34
BRANCH  12  36
ATOM     36  C   LIG d   1       6.302  -7.113  -5.678  0.00  0.00     0.167 C 
ATOM     37  O   LIG d   1       5.687  -8.132  -5.885  0.00  0.00    -0.292 OA
BRANCH  36  38
ATOM     38  C   LIG d   1       7.684  -7.173  -5.083  0.00  0.00    -0.001 C 
ATOM     39  H   LIG d   1       8.319  -7.809  -5.701  0.00  0.00     0.031 H 
ATOM     40  H   LIG d   1       8.106  -6.170  -5.041  0.00  0.00     0.031 H 
ATOM     41  H   LIG d   1       7.628  -7.585  -4.075  0.00  0.00     0.031 H 
ENDBRANCH  36  38
ENDBRANCH  12  36
TORSDOF 9
ENDMDL
MODEL 4
REMARK VINA RESULT:      -5.3      3.174      5.576
REMARK  9 active torsions:
REMARK  status: ('A' for Active; 'I' for Inactive)
REMARK    1  A    between atoms: C_1  and  C_2 
REMARK    2  A    between atoms: C_3  and  O_26 
REMARK    3  A    between atoms: C_4  and  C_23 
REMARK    4  A    between atoms: C_7  and  O_8 
REMARK    5  A    between atoms: C_9  and  C_22 
REMARK    6  A    between atoms: C_14  and  C_18 
REMARK    7  A    between atoms: C_16  and  O_17 
REMARK    8  A    between atoms: C_18  and  C_20 
REMARK    9  A    between atoms: C_23  and  C_25 
ROOT
ATOM      1  C   LIG d   1       3.701  -0.176  -6.458  0.00  0.00     0.034 A 
ATOM      2  C   LIG d   1       3.309  -0.239  -5.134  0.00  0.00     0.137 A 
ATOM      3  C   LIG d   1       4.274  -0.220  -4.112  0.00  0.00     0.101 A 
ATOM      4  C   LIG d   1       5.644  -0.134  -4.440  0.00  0.00     0.150 A 
ATOM      5  C   LIG d   1       6.009  -0.085  -5.778  0.00  0.00     0.058 A 
ATOM      6  C   LIG d   1       5.051  -0.101  -6.778  0.00  0.00     0.131 A 
ATOM      7  C   LIG d   1       7.511  -0.026  -5.777  0.00  0.00     0.115 C 
ATOM      8  C   LIG d   1       7.819   0.310  -4.318  0.00  0.00     0.127 C 
ATOM      9  C   LIG d   1       8.996   2.067  -3.953  0.00  0.00     0.025 C 
ATOM     10  C   LIG d   1       9.838   1.443  -4.888  0.00  0.00     0.196 C 
ATOM     11  O   LIG d   1      10.846   0.894  -4.492  0.00  0.00    -0.287 OA
ATOM     12  C   LIG d   1       9.538   1.428  -6.364  0.00  0.00     0.102 C 
ATOM     13  C   LIG d   1       8.067   1.122  -6.586  0.00  0.00     0.126 C 
ATOM     14  O   LIG d   1       6.740  -0.081  -3.640  0.00  0.00    -0.458 OA
ATOM     15  H   LIG d   1       9.252   2.046  -2.904  0.00  0.00     0.069 H 
ENDROOT
BRANCH   3  16
ATOM     16  C   LIG d   1       3.860  -0.293  -2.713  0.00  0.00     0.167 C 
ATOM     17  O   LIG d   1       3.247   0.627  -2.210  0.00  0.00    -0.292 OA
BRANCH  16  18
ATOM     18  C   LIG d   1       4.196  -1.512  -1.891  0.00  0.00    -0.001 C 
ATOM     19  H   LIG d   1       4.985  -1.316  -1.310  0.00  0.00     0.031 H 
ATOM     20  H   LIG d   1       3.342  -1.775  -1.267  0.00  0.00     0.031 H 
ATOM     21  H   LIG d   1       4.430  -2.344  -2.555  0.00  0.00     0.031 H 
ENDBRANCH  16  18
ENDBRANCH   3  16
BRANCH   2  22
ATOM     22  O   LIG d   1       1.992  -0.316  -4.820  0.00  0.00    -0.506 OA
ATOM     23  H   LIG d   1       1.789  -0.968  -4.134  0.00  0.00     0.292 HD
ENDBRANCH   2  22
BRANCH   1  24
ATOM     24  C   LIG d   1       2.666  -0.188  -7.553  0.00  0.00    -0.033 C 
ATOM     25  H   LIG d   1       1.882   0.533  -7.320  0.00  0.00     0.028 H 
ATOM     26  H   LIG d   1       3.135   0.079  -8.500  0.00  0.00     0.028 H 
ATOM     27  H   LIG d   1       2.231  -1.185  -7.630  0.00  0.00     0.028 H 
ENDBRANCH   1  24
BRANCH   6  28
ATOM     28  O   LIG d   1       5.435  -0.042  -8.078  0.00  0.00    -0.506 OA
ATOM     29  H   LIG d   1       5.095  -0.766  -8.622  0.00  0.00     0.292 HD
ENDBRANCH   6  28
BRANCH   7  30
ATOM     30  C   LIG d   1       8.140  -1.356  -6.194  0.00  0.00    -0.041 C 
ATOM     31  H   LIG d   1       8.738  -1.749  -5.370  0.00  0.00     0.025 H 
ATOM     32  H   LIG d   1       7.354  -2.068  -6.442  0.00  0.00     0.025 H 
ATOM     33  H   LIG d   1       8.778  -1.201  -7.063  0.00  0.00     0.025 H 
ENDBRANCH   7  30
BRANCH  13  34
ATOM     34  O   LIG d   1       7.387   1.754  -7.359  0.00  0.00    -0.509 OA
ATOM     35  H   LIG d   1       9.142   0.606  -3.001  0.00  0.00     0.292 HD
ENDBRANCH  13  34
BRANCH  12  36
ATOM     36  C   LIG d   1      10.800   1.722  -7.134  0.00  0.00     0.167 C 
ATOM     37  O   LIG d   1      11.279   2.832  -7.107  0.00  0.00    -0.292 OA
BRANCH  36  38
ATOM     38  C   LIG d   1      11.464   0.634  -7.937  0.00  0.00    -0.001 C 
ATOM     39  H   LIG d   1      11.183  -0.339  -7.533  0.00  0.00     0.031 H 
ATOM     40  H   LIG d   1      11.143   0.702  -8.976  0.00  0.00     0.031 H 
ATOM     41  H   LIG d   1      12.546   0.752  -7.883  0.00  0.00     0.031 H 
ENDBRANCH  36  38
ENDBRANCH  12  36
TORSDOF 9
ENDMDL
MODEL 5
REMARK VINA RESULT:      -5.2      2.113      6.485
REMARK  9 active torsions:
REMARK  status: ('A' for Active; 'I' for Inactive)
REMARK    1  A    between atoms: C_1  and  C_2 
REMARK    2  A    between atoms: C_3  and  O_26 
REMARK    3  A    between atoms: C_4  and  C_23 
REMARK    4  A    between atoms: C_7  and  O_8 
REMARK    5  A    between atoms: C_9  and  C_22 
REMARK    6  A    between atoms: C_14  and  C_18 
REMARK    7  A    between atoms: C_16  and  O_17 
REMARK    8  A    between atoms: C_18  and  C_20 
REMARK    9  A    between atoms: C_23  and  C_25 
ROOT
ATOM      1  C   LIG d   1       4.812  -3.456  -5.344  0.00  0.00     0.034 A 
ATOM      2  C   LIG d   1       4.362  -2.562  -4.390  0.00  0.00     0.137 A 
ATOM      3  C   LIG d   1       4.098  -1.228  -4.746  0.00  0.00     0.101 A 
ATOM      4  C   LIG d   1       4.290  -0.802  -6.077  0.00  0.00     0.150 A 
ATOM      5  C   LIG d   1       4.755  -1.718  -7.011  0.00  0.00     0.058 A 
ATOM      6  C   LIG d   1       5.010  -3.031  -6.653  0.00  0.00     0.131 A 
ATOM      7  C   LIG d   1       4.873  -0.949  -8.296  0.00  0.00     0.115 C 
ATOM      8  C   LIG d   1       4.085   0.324  -7.984  0.00  0.00     0.127 C 
ATOM      9  C   LIG d   1       2.460   0.807  -9.298  0.00  0.00     0.025 C 
ATOM     10  C   LIG d   1       3.464   0.634 -10.265  0.00  0.00     0.196 C 
ATOM     11  O   LIG d   1       3.951   1.617 -10.784  0.00  0.00    -0.287 OA
ATOM     12  C   LIG d   1       3.960  -0.725 -10.681  0.00  0.00     0.102 C 
ATOM     13  C   LIG d   1       4.153  -1.600  -9.453  0.00  0.00     0.126 C 
ATOM     14  O   LIG d   1       4.087   0.411  -6.653  0.00  0.00    -0.458 OA
ATOM     15  H   LIG d   1       2.141   1.804  -9.030  0.00  0.00     0.069 H 
ENDROOT
BRANCH   3  16
ATOM     16  C   LIG d   1       3.628  -0.281  -3.736  0.00  0.00     0.167 C 
ATOM     17  O   LIG d   1       2.482  -0.335  -3.337  0.00  0.00    -0.292 OA
BRANCH  16  18
ATOM     18  C   LIG d   1       4.567   0.765  -3.190  0.00  0.00    -0.001 C 
ATOM     19  H   LIG d   1       4.683   0.628  -2.207  0.00  0.00     0.031 H 
ATOM     20  H   LIG d   1       5.534   0.679  -3.686  0.00  0.00     0.031 H 
ATOM     21  H   LIG d   1       4.152   1.756  -3.373  0.00  0.00     0.031 H 
ENDBRANCH  16  18
ENDBRANCH   3  16
BRANCH   2  22
ATOM     22  O   LIG d   1       4.172  -2.972  -3.113  0.00  0.00    -0.506 OA
ATOM     23  H   LIG d   1       4.338  -2.287  -2.450  0.00  0.00     0.292 HD
ENDBRANCH   2  22
BRANCH   1  24
ATOM     24  C   LIG d   1       5.088  -4.887  -4.965  0.00  0.00    -0.033 C 
ATOM     25  H   LIG d   1       6.070  -5.179  -5.339  0.00  0.00     0.028 H 
ATOM     26  H   LIG d   1       5.068  -4.987  -3.880  0.00  0.00     0.028 H 
ATOM     27  H   LIG d   1       4.326  -5.532  -5.404  0.00  0.00     0.028 H 
ENDBRANCH   1  24
BRANCH   6  28
ATOM     28  O   LIG d   1       5.454  -3.909  -7.587  0.00  0.00    -0.506 OA
ATOM     29  H   LIG d   1       5.748  -4.756  -7.224  0.00  0.00     0.292 HD
ENDBRANCH   6  28
BRANCH   7  30
ATOM     30  C   LIG d   1       6.328  -0.637  -8.650  0.00  0.00    -0.041 C 
ATOM     31  H   LIG d   1       6.387   0.352  -9.106  0.00  0.00     0.025 H 
ATOM     32  H   LIG d   1       6.934  -0.656  -7.745  0.00  0.00     0.025 H 
ATOM     33  H   LIG d   1       6.699  -1.382  -9.353  0.00  0.00     0.025 H 
ENDBRANCH   7  30
BRANCH  13  34
ATOM     34  O   LIG d   1       3.758  -2.740  -9.406  0.00  0.00    -0.509 OA
ATOM     35  H   LIG d   1       3.900   1.901  -8.057  0.00  0.00     0.292 HD
ENDBRANCH  13  34
BRANCH  12  36
ATOM     36  C   LIG d   1       4.102  -0.769 -12.181  0.00  0.00     0.167 C 
ATOM     37  O   LIG d   1       5.141  -0.438 -12.699  0.00  0.00    -0.292 OA
BRANCH  36  38
ATOM     38  C   LIG d   1       2.946  -1.226 -13.034  0.00  0.00    -0.001 C 
ATOM     39  H   LIG d   1       2.771  -2.289 -12.869  0.00  0.00     0.031 H 
ATOM     40  H   LIG d   1       2.052  -0.664 -12.765  0.00  0.00     0.031 H 
ATOM     41  H   LIG d   1       3.181  -1.054 -14.084  0.00  0.00     0.031 H 
ENDBRANCH  36  38
ENDBRANCH  12  36
TORSDOF 9
ENDMDL
MODEL 6
REMARK VINA RESULT:      -5.0      9.888     13.304
REMARK  9 active torsions:
REMARK  status: ('A' for Active; 'I' for Inactive)
REMARK    1  A    between atoms: C_1  and  C_2 
REMARK    2  A    between atoms: C_3  and  O_26 
REMARK    3  A    between atoms: C_4  and  C_23 
REMARK    4  A    between atoms: C_7  and  O_8 
REMARK    5  A    between atoms: C_9  and  C_22 
REMARK    6  A    between atoms: C_14  and  C_18 
REMARK    7  A    between atoms: C_16  and  O_17 
REMARK    8  A    between atoms: C_18  and  C_20 
REMARK    9  A    between atoms: C_23  and  C_25 
ROOT
ATOM      1  C   LIG d   1      10.033   5.701  -4.845  0.00  0.00     0.034 A 
ATOM      2  C   LIG d   1       9.888   5.726  -3.470  0.00  0.00     0.137 A 
ATOM      3  C   LIG d   1      10.025   6.937  -2.770  0.00  0.00     0.101 A 
ATOM      4  C   LIG d   1      10.310   8.128  -3.472  0.00  0.00     0.150 A 
ATOM      5  C   LIG d   1      10.462   8.071  -4.850  0.00  0.00     0.058 A 
ATOM      6  C   LIG d   1      10.322   6.874  -5.532  0.00  0.00     0.131 A 
ATOM      7  C   LIG d   1      10.777   9.479  -5.272  0.00  0.00     0.115 C 
ATOM      8  C   LIG d   1      10.411  10.280  -4.023  0.00  0.00     0.127 C 
ATOM      9  C   LIG d   1       8.977  11.857  -4.268  0.00  0.00     0.025 C 
ATOM     10  C   LIG d   1       9.864  12.223  -5.293  0.00  0.00     0.196 C 
ATOM     11  O   LIG d   1      10.612  13.162  -5.112  0.00  0.00    -0.287 OA
ATOM     12  C   LIG d   1       9.925  11.493  -6.608  0.00  0.00     0.102 C 
ATOM     13  C   LIG d   1       9.874   9.993  -6.367  0.00  0.00     0.126 C 
ATOM     14  O   LIG d   1      10.464   9.400  -3.022  0.00  0.00    -0.458 OA
ATOM     15  H   LIG d   1       8.974  12.410  -3.339  0.00  0.00     0.069 H 
ENDROOT
BRANCH   3  16
ATOM     16  C   LIG d   1       9.879   6.963  -1.316  0.00  0.00     0.167 C 
ATOM     17  O   LIG d   1       8.873   7.422  -0.814  0.00  0.00    -0.292 OA
BRANCH  16  18
ATOM     18  C   LIG d   1      10.978   6.419  -0.439  0.00  0.00    -0.001 C 
ATOM     19  H   LIG d   1      11.717   7.089  -0.376  0.00  0.00     0.031 H 
ATOM     20  H   LIG d   1      10.582   6.219   0.557  0.00  0.00     0.031 H 
ATOM     21  H   LIG d   1      11.362   5.494  -0.869  0.00  0.00     0.031 H 
ENDBRANCH  16  18
ENDBRANCH   3  16
BRANCH   2  22
ATOM     22  O   LIG d   1       9.610   4.583  -2.797  0.00  0.00    -0.506 OA
ATOM     23  H   LIG d   1       9.777   3.777  -3.305  0.00  0.00     0.292 HD
ENDBRANCH   2  22
BRANCH   1  24
ATOM     24  C   LIG d   1       9.877   4.405  -5.597  0.00  0.00    -0.033 C 
ATOM     25  H   LIG d   1      10.744   3.771  -5.410  0.00  0.00     0.028 H 
ATOM     26  H   LIG d   1       8.975   3.895  -5.259  0.00  0.00     0.028 H 
ATOM     27  H   LIG d   1       9.801   4.611  -6.664  0.00  0.00     0.028 H 
ENDBRANCH   1  24
BRANCH   6  28
ATOM     28  O   LIG d   1      10.466   6.848  -6.881  0.00  0.00    -0.506 OA
ATOM     29  H   LIG d   1       9.864   7.439  -7.353  0.00  0.00     0.292 HD
ENDBRANCH   6  28
BRANCH   7  30
ATOM     30  C   LIG d   1      12.252   9.653  -5.640  0.00  0.00    -0.041 C 
ATOM     31  H   LIG d   1      12.835   9.819  -4.733  0.00  0.00     0.025 H 
ATOM     32  H   LIG d   1      12.610   8.755  -6.141  0.00  0.00     0.025 H 
ATOM     33  H   LIG d   1      12.363  10.509  -6.304  0.00  0.00     0.025 H 
ENDBRANCH   7  30
BRANCH  13  34
ATOM     34  O   LIG d   1       9.158   9.262  -7.009  0.00  0.00    -0.509 OA
ATOM     35  H   LIG d   1      11.894  10.482  -3.212  0.00  0.00     0.292 HD
ENDBRANCH  13  34
BRANCH  12  36
ATOM     36  C   LIG d   1      10.017  12.493  -7.732  0.00  0.00     0.167 C 
ATOM     37  O   LIG d   1       9.049  13.147  -8.039  0.00  0.00    -0.292 OA
BRANCH  36  38
ATOM     38  C   LIG d   1      11.316  12.676  -8.474  0.00  0.00    -0.001 C 
ATOM     39  H   LIG d   1      11.110  13.022  -9.487  0.00  0.00     0.031 H 
ATOM     40  H   LIG d   1      11.929  13.413  -7.956  0.00  0.00     0.031 H 
ATOM     41  H   LIG d   1      11.848  11.726  -8.515  0.00  0.00     0.031 H 
ENDBRANCH  36  38
ENDBRANCH  12  36
TORSDOF 9
ENDMDL
MODEL 7
REMARK VINA RESULT:      -4.9      2.587      5.652
REMARK  9 active torsions:
REMARK  status: ('A' for Active; 'I' for Inactive)
REMARK    1  A    between atoms: C_1  and  C_2 
REMARK    2  A    between atoms: C_3  and  O_26 
REMARK    3  A    between atoms: C_4  and  C_23 
REMARK    4  A    between atoms: C_7  and  O_8 
REMARK    5  A    between atoms: C_9  and  C_22 
REMARK    6  A    between atoms: C_14  and  C_18 
REMARK    7  A    between atoms: C_16  and  O_17 
REMARK    8  A    between atoms: C_18  and  C_20 
REMARK    9  A    between atoms: C_23  and  C_25 
ROOT
ATOM      1  C   LIG d   1       3.474  -0.262  -6.640  0.00  0.00     0.034 A 
ATOM      2  C   LIG d   1       3.346   0.293  -5.380  0.00  0.00     0.137 A 
ATOM      3  C   LIG d   1       3.987  -0.303  -4.280  0.00  0.00     0.101 A 
ATOM      4  C   LIG d   1       4.763  -1.468  -4.464  0.00  0.00     0.150 A 
ATOM      5  C   LIG d   1       4.863  -2.010  -5.737  0.00  0.00     0.058 A 
ATOM      6  C   LIG d   1       4.230  -1.415  -6.816  0.00  0.00     0.131 A 
ATOM      7  C   LIG d   1       5.721  -3.234  -5.580  0.00  0.00     0.115 C 
ATOM      8  C   LIG d   1       6.318  -3.032  -4.187  0.00  0.00     0.127 C 
ATOM      9  C   LIG d   1       8.458  -3.042  -4.038  0.00  0.00     0.025 C 
ATOM     10  C   LIG d   1       8.294  -4.249  -4.736  0.00  0.00     0.196 C 
ATOM     11  O   LIG d   1       8.418  -5.295  -4.131  0.00  0.00    -0.287 OA
ATOM     12  C   LIG d   1       7.967  -4.297  -6.205  0.00  0.00     0.102 C 
ATOM     13  C   LIG d   1       6.896  -3.268  -6.527  0.00  0.00     0.126 C 
ATOM     14  O   LIG d   1       5.480  -2.198  -3.571  0.00  0.00    -0.458 OA
ATOM     15  H   LIG d   1       8.687  -3.060  -2.982  0.00  0.00     0.069 H 
ENDROOT
BRANCH   3  16
ATOM     16  C   LIG d   1       3.848   0.281  -2.948  0.00  0.00     0.167 C 
ATOM     17  O   LIG d   1       2.793   0.191  -2.352  0.00  0.00    -0.292 OA
BRANCH  16  18
ATOM     18  C   LIG d   1       5.013   0.995  -2.312  0.00  0.00    -0.001 C 
ATOM     19  H   LIG d   1       5.850   0.783  -2.817  0.00  0.00     0.031 H 
ATOM     20  H   LIG d   1       4.837   2.071  -2.337  0.00  0.00     0.031 H 
ATOM     21  H   LIG d   1       5.119   0.668  -1.278  0.00  0.00     0.031 H 
ENDBRANCH  16  18
ENDBRANCH   3  16
BRANCH   2  22
ATOM     22  O   LIG d   1       2.605   1.415  -5.206  0.00  0.00    -0.506 OA
ATOM     23  H   LIG d   1       2.951   2.014  -4.529  0.00  0.00     0.292 HD
ENDBRANCH   2  22
BRANCH   1  24
ATOM     24  C   LIG d   1       2.793   0.381  -7.820  0.00  0.00    -0.033 C 
ATOM     25  H   LIG d   1       2.592  -0.375  -8.580  0.00  0.00     0.028 H 
ATOM     26  H   LIG d   1       1.854   0.831  -7.498  0.00  0.00     0.028 H 
ATOM     27  H   LIG d   1       3.441   1.151  -8.238  0.00  0.00     0.028 H 
ENDBRANCH   1  24
BRANCH   6  28
ATOM     28  O   LIG d   1       4.352  -1.960  -8.051  0.00  0.00    -0.506 OA
ATOM     29  H   LIG d   1       3.604  -2.514  -8.313  0.00  0.00     0.292 HD
ENDBRANCH   6  28
BRANCH   7  30
ATOM     30  C   LIG d   1       4.903  -4.525  -5.660  0.00  0.00    -0.041 C 
ATOM     31  H   LIG d   1       4.085  -4.481  -4.942  0.00  0.00     0.025 H 
ATOM     32  H   LIG d   1       4.498  -4.637  -6.665  0.00  0.00     0.025 H 
ATOM     33  H   LIG d   1       5.544  -5.376  -5.430  0.00  0.00     0.025 H 
ENDBRANCH   7  30
BRANCH  13  34
ATOM     34  O   LIG d   1       6.979  -2.528  -7.477  0.00  0.00    -0.509 OA
ATOM     35  H   LIG d   1       5.951  -6.697  -5.255  0.00  0.00     0.292 HD
ENDBRANCH  13  34
BRANCH  12  36
ATOM     36  C   LIG d   1       8.814  -5.351  -6.872  0.00  0.00     0.167 C 
ATOM     37  O   LIG d   1      10.001  -5.176  -7.006  0.00  0.00    -0.292 OA
BRANCH  36  38
ATOM     38  C   LIG d   1       8.178  -6.623  -7.371  0.00  0.00    -0.001 C 
ATOM     39  H   LIG d   1       8.408  -6.753  -8.428  0.00  0.00     0.031 H 
ATOM     40  H   LIG d   1       8.568  -7.470  -6.807  0.00  0.00     0.031 H 
ATOM     41  H   LIG d   1       7.098  -6.565  -7.238  0.00  0.00     0.031 H 
ENDBRANCH  36  38
ENDBRANCH  12  36
TORSDOF 9
ENDMDL
MODEL 8
REMARK VINA RESULT:      -4.9     11.067     13.315
REMARK  9 active torsions:
REMARK  status: ('A' for Active; 'I' for Inactive)
REMARK    1  A    between atoms: C_1  and  C_2 
REMARK    2  A    between atoms: C_3  and  O_26 
REMARK    3  A    between atoms: C_4  and  C_23 
REMARK    4  A    between atoms: C_7  and  O_8 
REMARK    5  A    between atoms: C_9  and  C_22 
REMARK    6  A    between atoms: C_14  and  C_18 
REMARK    7  A    between atoms: C_16  and  O_17 
REMARK    8  A    between atoms: C_18  and  C_20 
REMARK    9  A    between atoms: C_23  and  C_25 
ROOT
ATOM      1  C   LIG d   1       9.778  12.173  -5.142  0.00  0.00     0.034 A 
ATOM      2  C   LIG d   1       9.684  11.577  -6.386  0.00  0.00     0.137 A 
ATOM      3  C   LIG d   1      10.042  10.227  -6.547  0.00  0.00     0.101 A 
ATOM      4  C   LIG d   1      10.495   9.481  -5.438  0.00  0.00     0.150 A 
ATOM      5  C   LIG d   1      10.591  10.109  -4.205  0.00  0.00     0.058 A 
ATOM      6  C   LIG d   1      10.233  11.439  -4.054  0.00  0.00     0.131 A 
ATOM      7  C   LIG d   1      11.120   9.062  -3.266  0.00  0.00     0.115 C 
ATOM      8  C   LIG d   1      10.931   7.779  -4.076  0.00  0.00     0.127 C 
ATOM      9  C   LIG d   1       9.769   6.220  -3.168  0.00  0.00     0.025 C 
ATOM     10  C   LIG d   1      10.670   6.447  -2.115  0.00  0.00     0.196 C 
ATOM     11  O   LIG d   1      11.568   5.650  -1.932  0.00  0.00    -0.287 OA
ATOM     12  C   LIG d   1      10.567   7.642  -1.205  0.00  0.00     0.102 C 
ATOM     13  C   LIG d   1      10.277   8.889  -2.024  0.00  0.00     0.126 C 
ATOM     14  O   LIG d   1      10.872   8.180  -5.346  0.00  0.00    -0.458 OA
ATOM     15  H   LIG d   1       9.888   5.349  -3.797  0.00  0.00     0.069 H 
ENDROOT
BRANCH   3  16
ATOM     16  C   LIG d   1       9.950   9.597  -7.863  0.00  0.00     0.167 C 
ATOM     17  O   LIG d   1      10.670   9.970  -8.768  0.00  0.00    -0.292 OA
BRANCH  16  18
ATOM     18  C   LIG d   1       8.959   8.485  -8.098  0.00  0.00    -0.001 C 
ATOM     19  H   LIG d   1       8.172   8.608  -7.495  0.00  0.00     0.031 H 
ATOM     20  H   LIG d   1       8.629   8.508  -9.137  0.00  0.00     0.031 H 
ATOM     21  H   LIG d   1       9.434   7.527  -7.889  0.00  0.00     0.031 H 
ENDBRANCH  16  18
ENDBRANCH   3  16
BRANCH   2  22
ATOM     22  O   LIG d   1       9.244  12.292  -7.450  0.00  0.00    -0.506 OA
ATOM     23  H   LIG d   1       9.289  13.250  -7.326  0.00  0.00     0.292 HD
ENDBRANCH   2  22
BRANCH   1  24
ATOM     24  C   LIG d   1       9.386  13.618  -4.968  0.00  0.00    -0.033 C 
ATOM     25  H   LIG d   1       8.310  13.686  -4.810  0.00  0.00     0.028 H 
ATOM     26  H   LIG d   1       9.907  14.033  -4.105  0.00  0.00     0.028 H 
ATOM     27  H   LIG d   1       9.659  14.179  -5.862  0.00  0.00     0.028 H 
ENDBRANCH   1  24
BRANCH   6  28
ATOM     28  O   LIG d   1      10.327  12.027  -2.835  0.00  0.00    -0.506 OA
ATOM     29  H   LIG d   1      11.235  12.163  -2.532  0.00  0.00     0.292 HD
ENDBRANCH   6  28
BRANCH   7  30
ATOM     30  C   LIG d   1      12.590   9.294  -2.913  0.00  0.00    -0.041 C 
ATOM     31  H   LIG d   1      13.057   8.341  -2.661  0.00  0.00     0.025 H 
ATOM     32  H   LIG d   1      13.103   9.735  -3.767  0.00  0.00     0.025 H 
ATOM     33  H   LIG d   1      12.658   9.968  -2.060  0.00  0.00     0.025 H 
ENDBRANCH   7  30
BRANCH  13  34
ATOM     34  O   LIG d   1       9.431   9.688  -1.704  0.00  0.00    -0.509 OA
ATOM     35  H   LIG d   1      13.348   8.191  -4.112  0.00  0.00     0.292 HD
ENDBRANCH  13  34
BRANCH  12  36
ATOM     36  C   LIG d   1      10.786   7.206   0.221  0.00  0.00     0.167 C 
ATOM     37  O   LIG d   1      10.373   6.133   0.594  0.00  0.00    -0.292 OA
BRANCH  36  38
ATOM     38  C   LIG d   1      11.518   8.107   1.181  0.00  0.00    -0.001 C 
ATOM     39  H   LIG d   1      12.230   7.519   1.760  0.00  0.00     0.031 H 
ATOM     40  H   LIG d   1      12.050   8.876   0.623  0.00  0.00     0.031 H 
ATOM     41  H   LIG d   1      10.802   8.577   1.855  0.00  0.00     0.031 H 
ENDBRANCH  36  38
ENDBRANCH  12  36
TORSDOF 9
ENDMDL
MODEL 9
REMARK VINA RESULT:      -4.7      4.121      8.292
REMARK  9 active torsions:
REMARK  status: ('A' for Active; 'I' for Inactive)
REMARK    1  A    between atoms: C_1  and  C_2 
REMARK    2  A    between atoms: C_3  and  O_26 
REMARK    3  A    between atoms: C_4  and  C_23 
REMARK    4  A    between atoms: C_7  and  O_8 
REMARK    5  A    between atoms: C_9  and  C_22 
REMARK    6  A    between atoms: C_14  and  C_18 
REMARK    7  A    between atoms: C_16  and  O_17 
REMARK    8  A    between atoms: C_18  and  C_20 
REMARK    9  A    between atoms: C_23  and  C_25 
ROOT
ATOM      1  C   LIG d   1      11.675   0.643  -4.530  0.00  0.00     0.034 A 
ATOM      2  C   LIG d   1      11.676   1.845  -3.848  0.00  0.00     0.137 A 
ATOM      3  C   LIG d   1      10.462   2.504  -3.581  0.00  0.00     0.101 A 
ATOM      4  C   LIG d   1       9.244   1.935  -4.009  0.00  0.00     0.150 A 
ATOM      5  C   LIG d   1       9.274   0.733  -4.702  0.00  0.00     0.058 A 
ATOM      6  C   LIG d   1      10.473   0.089  -4.958  0.00  0.00     0.131 A 
ATOM      7  C   LIG d   1       7.839   0.426  -5.026  0.00  0.00     0.115 C 
ATOM      8  C   LIG d   1       7.088   1.401  -4.119  0.00  0.00     0.127 C 
ATOM      9  C   LIG d   1       5.658   0.557  -2.760  0.00  0.00     0.025 C 
ATOM     10  C   LIG d   1       5.198  -0.043  -3.944  0.00  0.00     0.196 C 
ATOM     11  O   LIG d   1       4.191   0.390  -4.466  0.00  0.00    -0.287 OA
ATOM     12  C   LIG d   1       5.908  -1.202  -4.592  0.00  0.00     0.102 C 
ATOM     13  C   LIG d   1       7.407  -0.954  -4.589  0.00  0.00     0.126 C 
ATOM     14  O   LIG d   1       7.967   2.368  -3.852  0.00  0.00    -0.458 OA
ATOM     15  H   LIG d   1       5.116   1.390  -2.337  0.00  0.00     0.069 H 
ENDROOT
BRANCH   3  16
ATOM     16  C   LIG d   1      10.463   3.779  -2.866  0.00  0.00     0.167 C 
ATOM     17  O   LIG d   1      10.922   3.846  -1.744  0.00  0.00    -0.292 OA
BRANCH  16  18
ATOM     18  C   LIG d   1       9.893   5.011  -3.523  0.00  0.00    -0.001 C 
ATOM     19  H   LIG d   1       9.182   5.401  -2.938  0.00  0.00     0.031 H 
ATOM     20  H   LIG d   1      10.687   5.744  -3.669  0.00  0.00     0.031 H 
ATOM     21  H   LIG d   1       9.465   4.742  -4.488  0.00  0.00     0.031 H 
ENDBRANCH  16  18
ENDBRANCH   3  16
BRANCH   2  22
ATOM     22  O   LIG d   1      12.846   2.389  -3.434  0.00  0.00    -0.506 OA
ATOM     23  H   LIG d   1      12.924   2.470  -2.473  0.00  0.00     0.292 HD
ENDBRANCH   2  22
BRANCH   1  24
ATOM     24  C   LIG d   1      12.974  -0.067  -4.809  0.00  0.00    -0.033 C 
ATOM     25  H   LIG d   1      13.796   0.646  -4.755  0.00  0.00     0.028 H 
ATOM     26  H   LIG d   1      13.125  -0.853  -4.069  0.00  0.00     0.028 H 
ATOM     27  H   LIG d   1      12.941  -0.508  -5.806  0.00  0.00     0.028 H 
ENDBRANCH   1  24
BRANCH   6  28
ATOM     28  O   LIG d   1      10.475  -1.089  -5.629  0.00  0.00    -0.506 OA
ATOM     29  H   LIG d   1       9.850  -1.741  -5.281  0.00  0.00     0.292 HD
ENDBRANCH   6  28
BRANCH   7  30
ATOM     30  C   LIG d   1       7.517   0.669  -6.502  0.00  0.00    -0.041 C 
ATOM     31  H   LIG d   1       7.799   1.687  -6.772  0.00  0.00     0.025 H 
ATOM     32  H   LIG d   1       8.075  -0.037  -7.116  0.00  0.00     0.025 H 
ATOM     33  H   LIG d   1       6.449   0.532  -6.668  0.00  0.00     0.025 H 
ENDBRANCH   7  30
BRANCH  13  34
ATOM     34  O   LIG d   1       8.201  -1.802  -4.260  0.00  0.00    -0.509 OA
ATOM     35  H   LIG d   1       6.451   2.700  -4.485  0.00  0.00     0.292 HD
ENDBRANCH  13  34
BRANCH  12  36
ATOM     36  C   LIG d   1       4.895  -2.228  -5.030  0.00  0.00     0.167 C 
ATOM     37  O   LIG d   1       4.249  -2.829  -4.204  0.00  0.00    -0.292 OA
BRANCH  36  38
ATOM     38  C   LIG d   1       4.687  -2.505  -6.496  0.00  0.00    -0.001 C 
ATOM     39  H   LIG d   1       3.701  -2.151  -6.797  0.00  0.00     0.031 H 
ATOM     40  H   LIG d   1       5.451  -1.986  -7.075  0.00  0.00     0.031 H 
ATOM     41  H   LIG d   1       4.760  -3.577  -6.677  0.00  0.00     0.031 H 
ENDBRANCH  36  38
ENDBRANCH  12  36
TORSDOF 9
ENDMDL
MODEL 10
REMARK VINA RESULT:      -4.7      9.663     13.586
REMARK  9 active torsions:
REMARK  status: ('A' for Active; 'I' for Inactive)
REMARK    1  A    between atoms: C_1  and  C_2 
REMARK    2  A    between atoms: C_3  and  O_26 
REMARK    3  A    between atoms: C_4  and  C_23 
REMARK    4  A    between atoms: C_7  and  O_8 
REMARK    5  A    between atoms: C_9  and  C_22 
REMARK    6  A    between atoms: C_14  and  C_18 
REMARK    7  A    between atoms: C_16  and  O_17 
REMARK    8  A    between atoms: C_18  and  C_20 
REMARK    9  A    between atoms: C_23  and  C_25 
ROOT
ATOM      1  C   LIG d   1      13.463   5.125  -1.617  0.00  0.00     0.034 A 
ATOM      2  C   LIG d   1      12.437   4.554  -2.347  0.00  0.00     0.137 A 
ATOM      3  C   LIG d   1      11.138   5.086  -2.272  0.00  0.00     0.101 A 
ATOM      4  C   LIG d   1      10.883   6.206  -1.452  0.00  0.00     0.150 A 
ATOM      5  C   LIG d   1      11.929   6.751  -0.721  0.00  0.00     0.058 A 
ATOM      6  C   LIG d   1      13.206   6.222  -0.803  0.00  0.00     0.131 A 
ATOM      7  C   LIG d   1      11.323   7.890   0.050  0.00  0.00     0.115 C 
ATOM      8  C   LIG d   1       9.973   8.068  -0.646  0.00  0.00     0.127 C 
ATOM      9  C   LIG d   1       9.539  10.015  -1.436  0.00  0.00     0.025 C 
ATOM     10  C   LIG d   1       9.888  10.395  -0.130  0.00  0.00     0.196 C 
ATOM     11  O   LIG d   1       9.006  10.701   0.646  0.00  0.00    -0.287 OA
ATOM     12  C   LIG d   1      11.316  10.436   0.346  0.00  0.00     0.102 C 
ATOM     13  C   LIG d   1      12.054   9.198  -0.136  0.00  0.00     0.126 C 
ATOM     14  O   LIG d   1       9.734   6.897  -1.237  0.00  0.00    -0.458 OA
ATOM     15  H   LIG d   1       8.499   9.997  -1.729  0.00  0.00     0.069 H 
ENDROOT
BRANCH   3  16
ATOM     16  C   LIG d   1      10.052   4.478  -3.038  0.00  0.00     0.167 C 
ATOM     17  O   LIG d   1       9.595   3.405  -2.700  0.00  0.00    -0.292 OA
BRANCH  16  18
ATOM     18  C   LIG d   1       9.499   5.184  -4.250  0.00  0.00    -0.001 C 
ATOM     19  H   LIG d   1       8.605   5.574  -4.030  0.00  0.00     0.031 H 
ATOM     20  H   LIG d   1      10.180   5.981  -4.548  0.00  0.00     0.031 H 
ATOM     21  H   LIG d   1       9.394   4.471  -5.068  0.00  0.00     0.031 H 
ENDBRANCH  16  18
ENDBRANCH   3  16
BRANCH   2  22
ATOM     22  O   LIG d   1      12.684   3.481  -3.138  0.00  0.00    -0.506 OA
ATOM     23  H   LIG d   1      13.609   3.200  -3.142  0.00  0.00     0.292 HD
ENDBRANCH   2  22
BRANCH   1  24
ATOM     24  C   LIG d   1      14.856   4.560  -1.704  0.00  0.00    -0.033 C 
ATOM     25  H   LIG d   1      15.494   5.052  -0.970  0.00  0.00     0.028 H 
ATOM     26  H   LIG d   1      14.827   3.489  -1.501  0.00  0.00     0.028 H 
ATOM     27  H   LIG d   1      15.256   4.729  -2.704  0.00  0.00     0.028 H 
ENDBRANCH   1  24
BRANCH   6  28
ATOM     28  O   LIG d   1      14.213   6.780  -0.086  0.00  0.00    -0.506 OA
ATOM     29  H   LIG d   1      13.914   7.324   0.656  0.00  0.00     0.292 HD
ENDBRANCH   6  28
BRANCH   7  30
ATOM     30  C   LIG d   1      11.150   7.555   1.533  0.00  0.00    -0.041 C 
ATOM     31  H   LIG d   1      11.264   8.463   2.126  0.00  0.00     0.025 H 
ATOM     32  H   LIG d   1      10.159   7.135   1.698  0.00  0.00     0.025 H 
ATOM     33  H   LIG d   1      11.906   6.830   1.832  0.00  0.00     0.025 H 
ENDBRANCH   7  30
BRANCH  13  34
ATOM     34  O   LIG d   1      13.153   9.256  -0.634  0.00  0.00    -0.509 OA
ATOM     35  H   LIG d   1       8.318   9.313  -0.682  0.00  0.00     0.292 HD
ENDBRANCH  13  34
BRANCH  12  36
ATOM     36  C   LIG d   1      11.542  11.694   1.144  0.00  0.00     0.167 C 
ATOM     37  O   LIG d   1      11.769  11.625   2.329  0.00  0.00    -0.292 OA
BRANCH  36  38
ATOM     38  C   LIG d   1      11.485  13.038   0.465  0.00  0.00    -0.001 C 
ATOM     39  H   LIG d   1      11.185  12.907  -0.575  0.00  0.00     0.031 H 
ATOM     40  H   LIG d   1      10.760  13.672   0.974  0.00  0.00     0.031 H 
ATOM     41  H   LIG d   1      12.468  13.506   0.503  0.00  0.00     0.031 H 
ENDBRANCH  36  38
ENDBRANCH  12  36
TORSDOF 9
ENDMDL
