MODEL 1
REMARK VINA RESULT:      -6.9      0.000      0.000
REMARK  6 active torsions:
REMARK  status: ('A' for Active; 'I' for Inactive)
REMARK    1  A    between atoms: C_1  and  C_2 
REMARK    2  A    between atoms: C_5  and  O_33 
REMARK    3  A    between atoms: C_17  and  C_32 
REMARK    4  A    between atoms: C_22  and  C_23 
REMARK    5  A    between atoms: C_22  and  O_31 
REMARK    6  A    between atoms: C_24  and  C_25 
ROOT
ATOM      1  C   LIG d   1      10.460   6.899  -7.294  0.00  0.00    -0.008 C 
ATOM      2  C   LIG d   1       9.165   7.508  -7.836  0.00  0.00    -0.041 C 
ATOM      3  C   LIG d   1       9.404   8.901  -8.409  0.00  0.00    -0.026 C 
ATOM      4  C   LIG d   1       9.963   9.832  -7.331  0.00  0.00     0.059 C 
ATOM      5  H   LIG d   1       9.280   9.863  -6.483  0.00  0.00     0.060 H 
ATOM      6  C   LIG d   1      11.327   9.305  -6.869  0.00  0.00    -0.005 C 
ATOM      7  C   LIG d   1      11.132   7.881  -6.373  0.00  0.00    -0.065 C 
ATOM      8  C   LIG d   1      11.548   7.598  -5.171  0.00  0.00    -0.084 C 
ATOM      9  C   LIG d   1      11.427   6.234  -4.541  0.00  0.00    -0.031 C 
ATOM     10  C   LIG d   1      11.327   5.213  -5.670  0.00  0.00    -0.030 C 
ATOM     11  H   LIG d   1      12.252   5.300  -6.274  0.00  0.00     0.031 H 
ATOM     12  C   LIG d   1      10.144   5.605  -6.559  0.00  0.00    -0.029 C 
ATOM     13  H   LIG d   1       9.284   5.833  -5.923  0.00  0.00     0.031 H 
ATOM     14  C   LIG d   1       9.781   4.447  -7.473  0.00  0.00    -0.049 C 
ATOM     15  C   LIG d   1       9.176   3.292  -6.655  0.00  0.00    -0.043 C 
ATOM     16  C   LIG d   1       9.752   3.265  -5.262  0.00  0.00     0.011 C 
ATOM     17  C   LIG d   1      11.200   3.788  -5.230  0.00  0.00    -0.029 C 
ATOM     18  H   LIG d   1      11.815   3.160  -5.911  0.00  0.00     0.031 H 
ATOM     19  C   LIG d   1      11.632   3.458  -3.793  0.00  0.00    -0.046 C 
ATOM     20  C   LIG d   1      10.979   2.073  -3.534  0.00  0.00    -0.012 C 
ATOM     21  C   LIG d   1       9.954   1.851  -4.674  0.00  0.00     0.132 C 
ATOM     22  H   LIG d   1       8.432   7.570  -7.028  0.00  0.00     0.027 H 
ATOM     23  H   LIG d   1       8.765   6.861  -8.620  0.00  0.00     0.027 H 
ATOM     24  H   LIG d   1       8.453   9.309  -8.766  0.00  0.00     0.029 H 
ATOM     25  H   LIG d   1      10.095   8.856  -9.248  0.00  0.00     0.029 H 
ATOM     26  H   LIG d   1      11.702   9.928  -6.058  0.00  0.00     0.034 H 
ATOM     27  H   LIG d   1      12.029   9.319  -7.700  0.00  0.00     0.034 H 
ATOM     28  H   LIG d   1      12.010   8.384  -4.592  0.00  0.00     0.057 H 
ATOM     29  H   LIG d   1      12.316   6.038  -3.940  0.00  0.00     0.031 H 
ATOM     30  H   LIG d   1      10.541   6.204  -3.912  0.00  0.00     0.031 H 
ATOM     31  H   LIG d   1       9.057   4.774  -8.221  0.00  0.00     0.027 H 
ATOM     32  H   LIG d   1      10.675   4.078  -7.985  0.00  0.00     0.027 H 
ATOM     33  H   LIG d   1       8.088   3.418  -6.605  0.00  0.00     0.027 H 
ATOM     34  H   LIG d   1       9.382   2.346  -7.169  0.00  0.00     0.027 H 
ATOM     35  H   LIG d   1      12.721   3.378  -3.736  0.00  0.00     0.027 H 
ATOM     36  H   LIG d   1      11.274   4.200  -3.085  0.00  0.00     0.027 H 
ATOM     37  H   LIG d   1      11.737   1.292  -3.556  0.00  0.00     0.030 H 
ATOM     38  H   LIG d   1      10.471   2.074  -2.569  0.00  0.00     0.030 H 
ENDROOT
BRANCH  21  39
ATOM     39  C   LIG d   1       8.685   1.344  -4.140  0.00  0.00    -0.062 C 
ATOM     40  C   LIG d   1       7.669   0.937  -3.713  0.00  0.00    -0.063 C 
BRANCH  40  41
ATOM     41  C   LIG d   1       6.431   0.441  -3.193  0.00  0.00     0.025 A 
ATOM     42  C   LIG d   1       6.177  -0.931  -3.178  0.00  0.00    -0.046 A 
ATOM     43  C   LIG d   1       4.982  -1.403  -2.675  0.00  0.00    -0.061 A 
ATOM     44  H   LIG d   1       6.914  -1.622  -3.561  0.00  0.00     0.063 H 
ATOM     45  C   LIG d   1       4.038  -0.519  -2.185  0.00  0.00    -0.062 A 
ATOM     46  H   LIG d   1       4.784  -2.464  -2.663  0.00  0.00     0.062 H 
ATOM     47  C   LIG d   1       4.283   0.842  -2.196  0.00  0.00    -0.061 A 
ATOM     48  H   LIG d   1       3.104  -0.893  -1.791  0.00  0.00     0.062 H 
ATOM     49  C   LIG d   1       5.477   1.327  -2.692  0.00  0.00    -0.046 A 
ATOM     50  H   LIG d   1       3.542   1.527  -1.812  0.00  0.00     0.062 H 
ATOM     51  H   LIG d   1       5.669   2.389  -2.696  0.00  0.00     0.063 H 
ENDBRANCH  40  41
ENDBRANCH  21  39
BRANCH  21  52
ATOM     52  O   LIG d   1      10.484   0.975  -5.663  0.00  0.00    -0.376 OA
ATOM     53  H   LIG d   1      10.505   0.046  -5.395  0.00  0.00     0.211 HD
ENDBRANCH  21  52
BRANCH  16  54
ATOM     54  C   LIG d   1       8.840   4.017  -4.288  0.00  0.00    -0.056 C 
ATOM     55  H   LIG d   1       9.180   3.845  -3.265  0.00  0.00     0.024 H 
ATOM     56  H   LIG d   1       8.876   5.084  -4.507  0.00  0.00     0.024 H 
ATOM     57  H   LIG d   1       7.818   3.657  -4.396  0.00  0.00     0.024 H 
ENDBRANCH  16  54
BRANCH   1  58
ATOM     58  C   LIG d   1      11.395   6.602  -8.464  0.00  0.00    -0.056 C 
ATOM     59  H   LIG d   1      11.149   5.628  -8.887  0.00  0.00     0.024 H 
ATOM     60  H   LIG d   1      11.278   7.371  -9.228  0.00  0.00     0.024 H 
ATOM     61  H   LIG d   1      12.427   6.594  -8.112  0.00  0.00     0.024 H 
ENDBRANCH   1  58
BRANCH   4  62
ATOM     62  O   LIG d   1      10.119  11.146  -7.868  0.00  0.00    -0.392 OA
ATOM     63  H   LIG d   1       9.300  11.533  -8.207  0.00  0.00     0.210 HD
ENDBRANCH   4  62
TORSDOF 6
ENDMDL
MODEL 2
REMARK VINA RESULT:      -6.8      1.327      1.637
REMARK  6 active torsions:
REMARK  status: ('A' for Active; 'I' for Inactive)
REMARK    1  A    between atoms: C_1  and  C_2 
REMARK    2  A    between atoms: C_5  and  O_33 
REMARK    3  A    between atoms: C_17  and  C_32 
REMARK    4  A    between atoms: C_22  and  C_23 
REMARK    5  A    between atoms: C_22  and  O_31 
REMARK    6  A    between atoms: C_24  and  C_25 
ROOT
ATOM      1  C   LIG d   1      10.589   5.367  -8.529  0.00  0.00    -0.008 C 
ATOM      2  C   LIG d   1       9.452   5.475  -9.549  0.00  0.00    -0.041 C 
ATOM      3  C   LIG d   1       9.742   6.549 -10.591  0.00  0.00    -0.026 C 
ATOM      4  C   LIG d   1       9.918   7.912  -9.917  0.00  0.00     0.059 C 
ATOM      5  H   LIG d   1       9.028   8.150  -9.336  0.00  0.00     0.060 H 
ATOM      6  C   LIG d   1      11.136   7.859  -8.988  0.00  0.00    -0.005 C 
ATOM      7  C   LIG d   1      10.912   6.735  -7.990  0.00  0.00    -0.065 C 
ATOM      8  C   LIG d   1      11.002   7.025  -6.722  0.00  0.00    -0.084 C 
ATOM      9  C   LIG d   1      10.808   6.019  -5.616  0.00  0.00    -0.031 C 
ATOM     10  C   LIG d   1      11.092   4.637  -6.195  0.00  0.00    -0.030 C 
ATOM     11  H   LIG d   1      12.139   4.642  -6.559  0.00  0.00     0.031 H 
ATOM     12  C   LIG d   1      10.174   4.432  -7.403  0.00  0.00    -0.029 C 
ATOM     13  H   LIG d   1       9.159   4.735  -7.131  0.00  0.00     0.031 H 
ATOM     14  C   LIG d   1      10.157   2.964  -7.794  0.00  0.00    -0.049 C 
ATOM     15  C   LIG d   1       9.433   2.134  -6.717  0.00  0.00    -0.043 C 
ATOM     16  C   LIG d   1       9.606   2.759  -5.356  0.00  0.00     0.011 C 
ATOM     17  C   LIG d   1      10.949   3.501  -5.231  0.00  0.00    -0.029 C 
ATOM     18  H   LIG d   1      11.769   2.776  -5.427  0.00  0.00     0.031 H 
ATOM     19  C   LIG d   1      10.992   3.843  -3.735  0.00  0.00    -0.046 C 
ATOM     20  C   LIG d   1      10.391   2.579  -3.062  0.00  0.00    -0.012 C 
ATOM     21  C   LIG d   1       9.736   1.749  -4.194  0.00  0.00     0.132 C 
ATOM     22  H   LIG d   1       8.524   5.717  -9.026  0.00  0.00     0.027 H 
ATOM     23  H   LIG d   1       9.329   4.511 -10.050  0.00  0.00     0.027 H 
ATOM     24  H   LIG d   1       8.899   6.608 -11.287  0.00  0.00     0.029 H 
ATOM     25  H   LIG d   1      10.638   6.302 -11.156  0.00  0.00     0.029 H 
ATOM     26  H   LIG d   1      11.230   8.806  -8.458  0.00  0.00     0.034 H 
ATOM     27  H   LIG d   1      12.036   7.671  -9.569  0.00  0.00     0.034 H 
ATOM     28  H   LIG d   1      11.231   8.043  -6.446  0.00  0.00     0.057 H 
ATOM     29  H   LIG d   1      11.509   6.235  -4.809  0.00  0.00     0.031 H 
ATOM     30  H   LIG d   1       9.788   6.081  -5.246  0.00  0.00     0.031 H 
ATOM     31  H   LIG d   1       9.645   2.837  -8.749  0.00  0.00     0.027 H 
ATOM     32  H   LIG d   1      11.180   2.588  -7.889  0.00  0.00     0.027 H 
ATOM     33  H   LIG d   1       8.366   2.075  -6.966  0.00  0.00     0.027 H 
ATOM     34  H   LIG d   1       9.837   1.115  -6.721  0.00  0.00     0.027 H 
ATOM     35  H   LIG d   1      12.027   3.987  -3.411  0.00  0.00     0.027 H 
ATOM     36  H   LIG d   1      10.403   4.727  -3.507  0.00  0.00     0.027 H 
ATOM     37  H   LIG d   1      11.179   2.000  -2.583  0.00  0.00     0.030 H 
ATOM     38  H   LIG d   1       9.640   2.869  -2.327  0.00  0.00     0.030 H 
ENDROOT
BRANCH  21  39
ATOM     39  C   LIG d   1       8.408   1.276  -3.789  0.00  0.00    -0.062 C 
ATOM     40  C   LIG d   1       7.345   0.896  -3.466  0.00  0.00    -0.063 C 
BRANCH  40  41
ATOM     41  C   LIG d   1       6.049   0.433  -3.071  0.00  0.00     0.025 A 
ATOM     42  C   LIG d   1       5.766  -0.933  -3.062  0.00  0.00    -0.046 A 
ATOM     43  C   LIG d   1       4.515  -1.373  -2.680  0.00  0.00    -0.061 A 
ATOM     44  H   LIG d   1       6.525  -1.645  -3.354  0.00  0.00     0.063 H 
ATOM     45  C   LIG d   1       3.543  -0.463  -2.306  0.00  0.00    -0.062 A 
ATOM     46  H   LIG d   1       4.295  -2.430  -2.673  0.00  0.00     0.062 H 
ATOM     47  C   LIG d   1       3.817   0.893  -2.312  0.00  0.00    -0.061 A 
ATOM     48  H   LIG d   1       2.566  -0.812  -2.007  0.00  0.00     0.062 H 
ATOM     49  C   LIG d   1       5.066   1.346  -2.687  0.00  0.00    -0.046 A 
ATOM     50  H   LIG d   1       3.054   1.599  -2.019  0.00  0.00     0.062 H 
ATOM     51  H   LIG d   1       5.280   2.404  -2.687  0.00  0.00     0.063 H 
ENDBRANCH  40  41
ENDBRANCH  21  39
BRANCH  21  52
ATOM     52  O   LIG d   1      10.577   0.665  -4.573  0.00  0.00    -0.376 OA
ATOM     53  H   LIG d   1      11.474   0.720  -4.217  0.00  0.00     0.211 HD
ENDBRANCH  21  52
BRANCH  16  54
ATOM     54  C   LIG d   1       8.412   3.658  -5.021  0.00  0.00    -0.056 C 
ATOM     55  H   LIG d   1       8.042   3.415  -4.023  0.00  0.00     0.024 H 
ATOM     56  H   LIG d   1       8.724   4.702  -5.047  0.00  0.00     0.024 H 
ATOM     57  H   LIG d   1       7.619   3.497  -5.751  0.00  0.00     0.024 H 
ENDBRANCH  16  54
BRANCH   1  58
ATOM     58  C   LIG d   1      11.827   4.806  -9.224  0.00  0.00    -0.056 C 
ATOM     59  H   LIG d   1      11.536   4.337 -10.163  0.00  0.00     0.024 H 
ATOM     60  H   LIG d   1      12.530   5.615  -9.424  0.00  0.00     0.024 H 
ATOM     61  H   LIG d   1      12.301   4.065  -8.579  0.00  0.00     0.024 H 
ENDBRANCH   1  58
BRANCH   4  62
ATOM     62  O   LIG d   1      10.123   8.915 -10.913  0.00  0.00    -0.392 OA
ATOM     63  H   LIG d   1       9.502   9.654 -10.861  0.00  0.00     0.210 HD
ENDBRANCH   4  62
TORSDOF 6
ENDMDL
MODEL 3
REMARK VINA RESULT:      -6.6      2.580      3.532
REMARK  6 active torsions:
REMARK  status: ('A' for Active; 'I' for Inactive)
REMARK    1  A    between atoms: C_1  and  C_2 
REMARK    2  A    between atoms: C_5  and  O_33 
REMARK    3  A    between atoms: C_17  and  C_32 
REMARK    4  A    between atoms: C_22  and  C_23 
REMARK    5  A    between atoms: C_22  and  O_31 
REMARK    6  A    between atoms: C_24  and  C_25 
ROOT
ATOM      1  C   LIG d   1      11.969   6.999  -3.370  0.00  0.00    -0.008 C 
ATOM      2  C   LIG d   1      11.183   7.837  -2.359  0.00  0.00    -0.041 C 
ATOM      3  C   LIG d   1      12.013   9.010  -1.848  0.00  0.00    -0.026 C 
ATOM      4  C   LIG d   1      13.290   8.506  -1.172  0.00  0.00     0.059 C 
ATOM      5  H   LIG d   1      13.031   7.821  -0.366  0.00  0.00     0.060 H 
ATOM      6  C   LIG d   1      14.151   7.774  -2.207  0.00  0.00    -0.005 C 
ATOM      7  C   LIG d   1      13.316   6.650  -2.798  0.00  0.00    -0.065 C 
ATOM      8  C   LIG d   1      13.812   5.445  -2.762  0.00  0.00    -0.084 C 
ATOM      9  C   LIG d   1      13.105   4.231  -3.308  0.00  0.00    -0.031 C 
ATOM     10  C   LIG d   1      12.110   4.711  -4.360  0.00  0.00    -0.030 C 
ATOM     11  H   LIG d   1      12.691   5.231  -5.148  0.00  0.00     0.031 H 
ATOM     12  C   LIG d   1      11.184   5.738  -3.702  0.00  0.00    -0.029 C 
ATOM     13  H   LIG d   1      10.846   5.343  -2.740  0.00  0.00     0.031 H 
ATOM     14  C   LIG d   1       9.971   5.978  -4.585  0.00  0.00    -0.049 C 
ATOM     15  C   LIG d   1       9.072   4.729  -4.606  0.00  0.00    -0.043 C 
ATOM     16  C   LIG d   1       9.894   3.476  -4.431  0.00  0.00     0.011 C 
ATOM     17  C   LIG d   1      11.309   3.632  -5.018  0.00  0.00    -0.029 C 
ATOM     18  H   LIG d   1      11.215   3.881  -6.097  0.00  0.00     0.031 H 
ATOM     19  C   LIG d   1      11.856   2.200  -4.927  0.00  0.00    -0.046 C 
ATOM     20  C   LIG d   1      10.627   1.324  -5.292  0.00  0.00    -0.012 C 
ATOM     21  C   LIG d   1       9.391   2.257  -5.235  0.00  0.00     0.132 C 
ATOM     22  H   LIG d   1      10.894   7.204  -1.517  0.00  0.00     0.027 H 
ATOM     23  H   LIG d   1      10.277   8.219  -2.836  0.00  0.00     0.027 H 
ATOM     24  H   LIG d   1      11.425   9.571  -1.114  0.00  0.00     0.029 H 
ATOM     25  H   LIG d   1      12.272   9.680  -2.666  0.00  0.00     0.029 H 
ATOM     26  H   LIG d   1      15.032   7.359  -1.719  0.00  0.00     0.034 H 
ATOM     27  H   LIG d   1      14.455   8.466  -2.990  0.00  0.00     0.034 H 
ATOM     28  H   LIG d   1      14.787   5.307  -2.319  0.00  0.00     0.057 H 
ATOM     29  H   LIG d   1      13.838   3.566  -3.766  0.00  0.00     0.031 H 
ATOM     30  H   LIG d   1      12.594   3.716  -2.499  0.00  0.00     0.031 H 
ATOM     31  H   LIG d   1       9.397   6.827  -4.209  0.00  0.00     0.027 H 
ATOM     32  H   LIG d   1      10.289   6.193  -5.609  0.00  0.00     0.027 H 
ATOM     33  H   LIG d   1       8.333   4.803  -3.800  0.00  0.00     0.027 H 
ATOM     34  H   LIG d   1       8.530   4.696  -5.558  0.00  0.00     0.027 H 
ATOM     35  H   LIG d   1      12.654   2.054  -5.661  0.00  0.00     0.027 H 
ATOM     36  H   LIG d   1      12.219   1.971  -3.929  0.00  0.00     0.027 H 
ATOM     37  H   LIG d   1      10.741   0.918  -6.296  0.00  0.00     0.030 H 
ATOM     38  H   LIG d   1      10.518   0.514  -4.571  0.00  0.00     0.030 H 
ENDROOT
BRANCH  21  39
ATOM     39  C   LIG d   1       8.284   1.609  -4.524  0.00  0.00    -0.062 C 
ATOM     40  C   LIG d   1       7.398   1.089  -3.955  0.00  0.00    -0.063 C 
BRANCH  40  41
ATOM     41  C   LIG d   1       6.318   0.456  -3.260  0.00  0.00     0.025 A 
ATOM     42  C   LIG d   1       6.189  -0.934  -3.283  0.00  0.00    -0.046 A 
ATOM     43  C   LIG d   1       5.147  -1.538  -2.611  0.00  0.00    -0.061 A 
ATOM     44  H   LIG d   1       6.904  -1.534  -3.827  0.00  0.00     0.063 H 
ATOM     45  C   LIG d   1       4.231  -0.770  -1.915  0.00  0.00    -0.062 A 
ATOM     46  H   LIG d   1       5.046  -2.613  -2.629  0.00  0.00     0.062 H 
ATOM     47  C   LIG d   1       4.353   0.608  -1.887  0.00  0.00    -0.061 A 
ATOM     48  H   LIG d   1       3.417  -1.247  -1.390  0.00  0.00     0.062 H 
ATOM     49  C   LIG d   1       5.394   1.224  -2.551  0.00  0.00    -0.046 A 
ATOM     50  H   LIG d   1       3.635   1.202  -1.342  0.00  0.00     0.062 H 
ATOM     51  H   LIG d   1       5.491   2.299  -2.526  0.00  0.00     0.063 H 
ENDBRANCH  40  41
ENDBRANCH  21  39
BRANCH  21  52
ATOM     52  O   LIG d   1       9.000   2.654  -6.545  0.00  0.00    -0.376 OA
ATOM     53  H   LIG d   1       8.405   3.416  -6.563  0.00  0.00     0.211 HD
ENDBRANCH  21  52
BRANCH  16  54
ATOM     54  C   LIG d   1       9.918   3.050  -2.960  0.00  0.00    -0.056 C 
ATOM     55  H   LIG d   1      10.649   3.652  -2.419  0.00  0.00     0.024 H 
ATOM     56  H   LIG d   1       8.931   3.199  -2.522  0.00  0.00     0.024 H 
ATOM     57  H   LIG d   1      10.192   1.997  -2.891  0.00  0.00     0.024 H 
ENDBRANCH  16  54
BRANCH   1  58
ATOM     58  C   LIG d   1      12.171   7.819  -4.643  0.00  0.00    -0.056 C 
ATOM     59  H   LIG d   1      11.981   8.871  -4.432  0.00  0.00     0.024 H 
ATOM     60  H   LIG d   1      13.196   7.697  -4.994  0.00  0.00     0.024 H 
ATOM     61  H   LIG d   1      11.480   7.472  -5.412  0.00  0.00     0.024 H 
ENDBRANCH   1  58
BRANCH   4  62
ATOM     62  O   LIG d   1      14.021   9.614  -0.643  0.00  0.00    -0.392 OA
ATOM     63  H   LIG d   1      14.688   9.969  -1.246  0.00  0.00     0.210 HD
ENDBRANCH   4  62
TORSDOF 6
ENDMDL
MODEL 4
REMARK VINA RESULT:      -6.5      8.010     10.984
REMARK  6 active torsions:
REMARK  status: ('A' for Active; 'I' for Inactive)
REMARK    1  A    between atoms: C_1  and  C_2 
REMARK    2  A    between atoms: C_5  and  O_33 
REMARK    3  A    between atoms: C_17  and  C_32 
REMARK    4  A    between atoms: C_22  and  C_23 
REMARK    5  A    between atoms: C_22  and  O_31 
REMARK    6  A    between atoms: C_24  and  C_25 
ROOT
ATOM      1  C   LIG d   1       3.505  -2.730 -12.640  0.00  0.00    -0.008 C 
ATOM      2  C   LIG d   1       3.825  -4.208 -12.401  0.00  0.00    -0.041 C 
ATOM      3  C   LIG d   1       3.499  -5.051 -13.629  0.00  0.00    -0.026 C 
ATOM      4  C   LIG d   1       2.015  -4.928 -13.981  0.00  0.00     0.059 C 
ATOM      5  H   LIG d   1       1.410  -5.222 -13.125  0.00  0.00     0.060 H 
ATOM      6  C   LIG d   1       1.705  -3.473 -14.351  0.00  0.00    -0.005 C 
ATOM      7  C   LIG d   1       2.104  -2.598 -13.173  0.00  0.00    -0.065 C 
ATOM      8  C   LIG d   1       1.203  -1.793 -12.686  0.00  0.00    -0.084 C 
ATOM      9  C   LIG d   1       1.448  -0.864 -11.524  0.00  0.00    -0.031 C 
ATOM     10  C   LIG d   1       2.949  -0.608 -11.449  0.00  0.00    -0.030 C 
ATOM     11  H   LIG d   1       3.252  -0.143 -12.409  0.00  0.00     0.031 H 
ATOM     12  C   LIG d   1       3.656  -1.961 -11.336  0.00  0.00    -0.029 C 
ATOM     13  H   LIG d   1       3.146  -2.565 -10.580  0.00  0.00     0.031 H 
ATOM     14  C   LIG d   1       5.098  -1.755 -10.903  0.00  0.00    -0.049 C 
ATOM     15  C   LIG d   1       5.152  -1.262  -9.446  0.00  0.00    -0.043 C 
ATOM     16  C   LIG d   1       3.928  -0.446  -9.112  0.00  0.00     0.011 C 
ATOM     17  C   LIG d   1       3.385   0.303 -10.343  0.00  0.00    -0.029 C 
ATOM     18  H   LIG d   1       4.190   0.962 -10.735  0.00  0.00     0.031 H 
ATOM     19  C   LIG d   1       2.314   1.212  -9.723  0.00  0.00    -0.046 C 
ATOM     20  C   LIG d   1       2.960   1.662  -8.384  0.00  0.00    -0.012 C 
ATOM     21  C   LIG d   1       4.183   0.739  -8.155  0.00  0.00     0.132 C 
ATOM     22  H   LIG d   1       3.244  -4.567 -11.549  0.00  0.00     0.027 H 
ATOM     23  H   LIG d   1       4.888  -4.311 -12.166  0.00  0.00     0.027 H 
ATOM     24  H   LIG d   1       3.722  -6.101 -13.411  0.00  0.00     0.029 H 
ATOM     25  H   LIG d   1       4.104  -4.740 -14.478  0.00  0.00     0.029 H 
ATOM     26  H   LIG d   1       0.638  -3.366 -14.542  0.00  0.00     0.034 H 
ATOM     27  H   LIG d   1       2.269  -3.189 -15.237  0.00  0.00     0.034 H 
ATOM     28  H   LIG d   1       0.225  -1.785 -13.143  0.00  0.00     0.057 H 
ATOM     29  H   LIG d   1       0.919   0.073 -11.697  0.00  0.00     0.031 H 
ATOM     30  H   LIG d   1       1.089  -1.328 -10.610  0.00  0.00     0.031 H 
ATOM     31  H   LIG d   1       5.651  -2.692 -10.985  0.00  0.00     0.027 H 
ATOM     32  H   LIG d   1       5.578  -1.005 -11.539  0.00  0.00     0.027 H 
ATOM     33  H   LIG d   1       5.215  -2.127  -8.775  0.00  0.00     0.027 H 
ATOM     34  H   LIG d   1       6.057  -0.661  -9.305  0.00  0.00     0.027 H 
ATOM     35  H   LIG d   1       2.137   2.079 -10.365  0.00  0.00     0.027 H 
ATOM     36  H   LIG d   1       1.384   0.678  -9.550  0.00  0.00     0.027 H 
ATOM     37  H   LIG d   1       3.284   2.699  -8.455  0.00  0.00     0.030 H 
ATOM     38  H   LIG d   1       2.246   1.547  -7.568  0.00  0.00     0.030 H 
ENDROOT
BRANCH  21  39
ATOM     39  C   LIG d   1       4.223   0.264  -6.767  0.00  0.00    -0.062 C 
ATOM     40  C   LIG d   1       4.254  -0.115  -5.657  0.00  0.00    -0.063 C 
BRANCH  40  41
ATOM     41  C   LIG d   1       4.292  -0.578  -4.302  0.00  0.00     0.025 A 
ATOM     42  C   LIG d   1       4.580   0.311  -3.266  0.00  0.00    -0.046 A 
ATOM     43  C   LIG d   1       4.614  -0.142  -1.963  0.00  0.00    -0.061 A 
ATOM     44  H   LIG d   1       4.777   1.350  -3.484  0.00  0.00     0.063 H 
ATOM     45  C   LIG d   1       4.362  -1.473  -1.683  0.00  0.00    -0.062 A 
ATOM     46  H   LIG d   1       4.837   0.545  -1.160  0.00  0.00     0.062 H 
ATOM     47  C   LIG d   1       4.075  -2.359  -2.705  0.00  0.00    -0.061 A 
ATOM     48  H   LIG d   1       4.389  -1.822  -0.661  0.00  0.00     0.062 H 
ATOM     49  C   LIG d   1       4.033  -1.918  -4.012  0.00  0.00    -0.046 A 
ATOM     50  H   LIG d   1       3.879  -3.397  -2.480  0.00  0.00     0.062 H 
ATOM     51  H   LIG d   1       3.804  -2.610  -4.809  0.00  0.00     0.063 H 
ENDBRANCH  40  41
ENDBRANCH  21  39
BRANCH  21  52
ATOM     52  O   LIG d   1       5.390   1.407  -8.506  0.00  0.00    -0.376 OA
ATOM     53  H   LIG d   1       5.312   1.976  -9.283  0.00  0.00     0.211 HD
ENDBRANCH  21  52
BRANCH  16  54
ATOM     54  C   LIG d   1       2.862  -1.322  -8.448  0.00  0.00    -0.056 C 
ATOM     55  H   LIG d   1       3.236  -1.687  -7.490  0.00  0.00     0.024 H 
ATOM     56  H   LIG d   1       1.958  -0.734  -8.283  0.00  0.00     0.024 H 
ATOM     57  H   LIG d   1       2.632  -2.169  -9.094  0.00  0.00     0.024 H 
ENDBRANCH  16  54
BRANCH   1  58
ATOM     58  C   LIG d   1       4.481  -2.172 -13.673  0.00  0.00    -0.056 C 
ATOM     59  H   LIG d   1       4.887  -1.226 -13.316  0.00  0.00     0.024 H 
ATOM     60  H   LIG d   1       5.294  -2.882 -13.826  0.00  0.00     0.024 H 
ATOM     61  H   LIG d   1       3.958  -2.009 -14.616  0.00  0.00     0.024 H 
ENDBRANCH   1  58
BRANCH   4  62
ATOM     62  O   LIG d   1       1.715  -5.775 -15.092  0.00  0.00    -0.392 OA
ATOM     63  H   LIG d   1       2.237  -6.588 -15.119  0.00  0.00     0.210 HD
ENDBRANCH   4  62
TORSDOF 6
ENDMDL
MODEL 5
REMARK VINA RESULT:      -6.5      8.171     11.818
REMARK  6 active torsions:
REMARK  status: ('A' for Active; 'I' for Inactive)
REMARK    1  A    between atoms: C_1  and  C_2 
REMARK    2  A    between atoms: C_5  and  O_33 
REMARK    3  A    between atoms: C_17  and  C_32 
REMARK    4  A    between atoms: C_22  and  C_23 
REMARK    5  A    between atoms: C_22  and  O_31 
REMARK    6  A    between atoms: C_24  and  C_25 
ROOT
ATOM      1  C   LIG d   1       0.871  -3.839 -11.456  0.00  0.00    -0.008 C 
ATOM      2  C   LIG d   1      -0.215  -4.531 -10.630  0.00  0.00    -0.041 C 
ATOM      3  C   LIG d   1      -1.315  -5.095 -11.524  0.00  0.00    -0.026 C 
ATOM      4  C   LIG d   1      -1.966  -3.976 -12.339  0.00  0.00     0.059 C 
ATOM      5  H   LIG d   1      -2.352  -3.211 -11.667  0.00  0.00     0.060 H 
ATOM      6  C   LIG d   1      -0.917  -3.357 -13.269  0.00  0.00    -0.005 C 
ATOM      7  C   LIG d   1       0.235  -2.863 -12.409  0.00  0.00    -0.065 C 
ATOM      8  C   LIG d   1       0.597  -1.618 -12.539  0.00  0.00    -0.084 C 
ATOM      9  C   LIG d   1       1.721  -0.984 -11.758  0.00  0.00    -0.031 C 
ATOM     10  C   LIG d   1       2.659  -2.102 -11.315  0.00  0.00    -0.030 C 
ATOM     11  H   LIG d   1       3.034  -2.600 -12.232  0.00  0.00     0.031 H 
ATOM     12  C   LIG d   1       1.839  -3.124 -10.524  0.00  0.00    -0.029 C 
ATOM     13  H   LIG d   1       1.211  -2.592  -9.804  0.00  0.00     0.031 H 
ATOM     14  C   LIG d   1       2.769  -4.056  -9.765  0.00  0.00    -0.049 C 
ATOM     15  C   LIG d   1       3.479  -3.293  -8.632  0.00  0.00    -0.043 C 
ATOM     16  C   LIG d   1       3.671  -1.843  -9.001  0.00  0.00     0.011 C 
ATOM     17  C   LIG d   1       3.847  -1.657 -10.520  0.00  0.00    -0.029 C 
ATOM     18  H   LIG d   1       4.725  -2.255 -10.847  0.00  0.00     0.031 H 
ATOM     19  C   LIG d   1       4.242  -0.177 -10.621  0.00  0.00    -0.046 C 
ATOM     20  C   LIG d   1       5.171   0.029  -9.393  0.00  0.00    -0.012 C 
ATOM     21  C   LIG d   1       4.985  -1.215  -8.489  0.00  0.00     0.132 C 
ATOM     22  H   LIG d   1      -0.648  -3.811  -9.932  0.00  0.00     0.027 H 
ATOM     23  H   LIG d   1       0.235  -5.345 -10.056  0.00  0.00     0.027 H 
ATOM     24  H   LIG d   1      -2.081  -5.562 -10.895  0.00  0.00     0.029 H 
ATOM     25  H   LIG d   1      -0.913  -5.851 -12.195  0.00  0.00     0.029 H 
ATOM     26  H   LIG d   1      -1.358  -2.518 -13.807  0.00  0.00     0.034 H 
ATOM     27  H   LIG d   1      -0.563  -4.104 -13.976  0.00  0.00     0.034 H 
ATOM     28  H   LIG d   1       0.065  -1.003 -13.249  0.00  0.00     0.057 H 
ATOM     29  H   LIG d   1       2.254  -0.285 -12.403  0.00  0.00     0.031 H 
ATOM     30  H   LIG d   1       1.312  -0.459 -10.900  0.00  0.00     0.031 H 
ATOM     31  H   LIG d   1       2.202  -4.885  -9.339  0.00  0.00     0.027 H 
ATOM     32  H   LIG d   1       3.530  -4.458 -10.440  0.00  0.00     0.027 H 
ATOM     33  H   LIG d   1       2.877  -3.366  -7.717  0.00  0.00     0.027 H 
ATOM     34  H   LIG d   1       4.448  -3.765  -8.436  0.00  0.00     0.027 H 
ATOM     35  H   LIG d   1       4.796   0.003 -11.546  0.00  0.00     0.027 H 
ATOM     36  H   LIG d   1       3.375   0.475 -10.571  0.00  0.00     0.027 H 
ATOM     37  H   LIG d   1       6.208   0.104  -9.717  0.00  0.00     0.030 H 
ATOM     38  H   LIG d   1       4.882   0.931  -8.853  0.00  0.00     0.030 H 
ENDROOT
BRANCH  21  39
ATOM     39  C   LIG d   1       4.838  -0.819  -7.084  0.00  0.00    -0.062 C 
ATOM     40  C   LIG d   1       4.719  -0.501  -5.960  0.00  0.00    -0.063 C 
BRANCH  40  41
ATOM     41  C   LIG d   1       4.574  -0.115  -4.589  0.00  0.00     0.025 A 
ATOM     42  C   LIG d   1       5.700   0.211  -3.830  0.00  0.00    -0.046 A 
ATOM     43  C   LIG d   1       5.553   0.583  -2.510  0.00  0.00    -0.061 A 
ATOM     44  H   LIG d   1       6.683   0.170  -4.276  0.00  0.00     0.063 H 
ATOM     45  C   LIG d   1       4.294   0.635  -1.938  0.00  0.00    -0.062 A 
ATOM     46  H   LIG d   1       6.423   0.835  -1.921  0.00  0.00     0.062 H 
ATOM     47  C   LIG d   1       3.175   0.314  -2.685  0.00  0.00    -0.061 A 
ATOM     48  H   LIG d   1       4.185   0.928  -0.905  0.00  0.00     0.062 H 
ATOM     49  C   LIG d   1       3.308  -0.055  -4.008  0.00  0.00    -0.046 A 
ATOM     50  H   LIG d   1       2.195   0.356  -2.233  0.00  0.00     0.062 H 
ATOM     51  H   LIG d   1       2.433  -0.301  -4.591  0.00  0.00     0.063 H 
ENDBRANCH  40  41
ENDBRANCH  21  39
BRANCH  21  52
ATOM     52  O   LIG d   1       6.067  -2.125  -8.657  0.00  0.00    -0.376 OA
ATOM     53  H   LIG d   1       6.840  -1.921  -8.114  0.00  0.00     0.211 HD
ENDBRANCH  21  52
BRANCH  16  54
ATOM     54  C   LIG d   1       2.530  -0.989  -8.440  0.00  0.00    -0.056 C 
ATOM     55  H   LIG d   1       2.935  -0.055  -8.047  0.00  0.00     0.024 H 
ATOM     56  H   LIG d   1       1.816  -0.769  -9.234  0.00  0.00     0.024 H 
ATOM     57  H   LIG d   1       2.029  -1.532  -7.639  0.00  0.00     0.024 H 
ENDBRANCH  16  54
BRANCH   1  58
ATOM     58  C   LIG d   1       1.629  -4.892 -12.261  0.00  0.00    -0.056 C 
ATOM     59  H   LIG d   1       2.449  -5.287 -11.662  0.00  0.00     0.024 H 
ATOM     60  H   LIG d   1       0.951  -5.702 -12.529  0.00  0.00     0.024 H 
ATOM     61  H   LIG d   1       2.029  -4.438 -13.169  0.00  0.00     0.024 H 
ENDBRANCH   1  58
BRANCH   4  62
ATOM     62  O   LIG d   1      -3.035  -4.512 -13.119  0.00  0.00    -0.392 OA
ATOM     63  H   LIG d   1      -3.084  -5.478 -13.110  0.00  0.00     0.210 HD
ENDBRANCH   4  62
TORSDOF 6
ENDMDL
MODEL 6
REMARK VINA RESULT:      -5.8      3.739      5.368
REMARK  6 active torsions:
REMARK  status: ('A' for Active; 'I' for Inactive)
REMARK    1  A    between atoms: C_1  and  C_2 
REMARK    2  A    between atoms: C_5  and  O_33 
REMARK    3  A    between atoms: C_17  and  C_32 
REMARK    4  A    between atoms: C_22  and  C_23 
REMARK    5  A    between atoms: C_22  and  O_31 
REMARK    6  A    between atoms: C_24  and  C_25 
ROOT
ATOM      1  C   LIG d   1      10.767   5.512  -3.620  0.00  0.00    -0.008 C 
ATOM      2  C   LIG d   1       9.713   6.590  -3.357  0.00  0.00    -0.041 C 
ATOM      3  C   LIG d   1      10.048   7.401  -2.110  0.00  0.00    -0.026 C 
ATOM      4  C   LIG d   1      10.122   6.489  -0.885  0.00  0.00     0.059 C 
ATOM      5  H   LIG d   1       9.181   5.953  -0.770  0.00  0.00     0.060 H 
ATOM      6  C   LIG d   1      11.263   5.482  -1.076  0.00  0.00    -0.005 C 
ATOM      7  C   LIG d   1      10.998   4.717  -2.363  0.00  0.00    -0.065 C 
ATOM      8  C   LIG d   1      10.975   3.416  -2.298  0.00  0.00    -0.084 C 
ATOM      9  C   LIG d   1      10.727   2.522  -3.487  0.00  0.00    -0.031 C 
ATOM     10  C   LIG d   1      11.105   3.306  -4.739  0.00  0.00    -0.030 C 
ATOM     11  H   LIG d   1      12.178   3.573  -4.649  0.00  0.00     0.031 H 
ATOM     12  C   LIG d   1      10.295   4.605  -4.747  0.00  0.00    -0.029 C 
ATOM     13  H   LIG d   1       9.251   4.372  -4.517  0.00  0.00     0.031 H 
ATOM     14  C   LIG d   1      10.360   5.245  -6.123  0.00  0.00    -0.049 C 
ATOM     15  C   LIG d   1       9.581   4.395  -7.143  0.00  0.00    -0.043 C 
ATOM     16  C   LIG d   1       9.622   2.935  -6.765  0.00  0.00     0.011 C 
ATOM     17  C   LIG d   1      10.925   2.570  -6.030  0.00  0.00    -0.029 C 
ATOM     18  H   LIG d   1      11.782   2.818  -6.692  0.00  0.00     0.031 H 
ATOM     19  C   LIG d   1      10.835   1.038  -5.955  0.00  0.00    -0.046 C 
ATOM     20  C   LIG d   1      10.226   0.649  -7.330  0.00  0.00    -0.012 C 
ATOM     21  C   LIG d   1       9.693   1.960  -7.960  0.00  0.00     0.132 C 
ATOM     22  H   LIG d   1       8.738   6.115  -3.229  0.00  0.00     0.027 H 
ATOM     23  H   LIG d   1       9.663   7.260  -4.220  0.00  0.00     0.027 H 
ATOM     24  H   LIG d   1       9.262   8.146  -1.947  0.00  0.00     0.029 H 
ATOM     25  H   LIG d   1      10.995   7.923  -2.237  0.00  0.00     0.029 H 
ATOM     26  H   LIG d   1      11.281   4.789  -0.235  0.00  0.00     0.034 H 
ATOM     27  H   LIG d   1      12.213   6.008  -1.141  0.00  0.00     0.034 H 
ATOM     28  H   LIG d   1      11.147   2.949  -1.340  0.00  0.00     0.057 H 
ATOM     29  H   LIG d   1      11.354   1.633  -3.402  0.00  0.00     0.031 H 
ATOM     30  H   LIG d   1       9.680   2.235  -3.511  0.00  0.00     0.031 H 
ATOM     31  H   LIG d   1       9.931   6.248  -6.090  0.00  0.00     0.027 H 
ATOM     32  H   LIG d   1      11.400   5.316  -6.456  0.00  0.00     0.027 H 
ATOM     33  H   LIG d   1       8.541   4.740  -7.180  0.00  0.00     0.027 H 
ATOM     34  H   LIG d   1      10.019   4.540  -8.138  0.00  0.00     0.027 H 
ATOM     35  H   LIG d   1      11.834   0.607  -5.851  0.00  0.00     0.027 H 
ATOM     36  H   LIG d   1      10.199   0.712  -5.137  0.00  0.00     0.027 H 
ATOM     37  H   LIG d   1      10.992   0.213  -7.969  0.00  0.00     0.030 H 
ATOM     38  H   LIG d   1       9.408  -0.058  -7.189  0.00  0.00     0.030 H 
ENDROOT
BRANCH  21  39
ATOM     39  C   LIG d   1       8.354   1.758  -8.524  0.00  0.00    -0.062 C 
ATOM     40  C   LIG d   1       7.282   1.596  -8.975  0.00  0.00    -0.063 C 
BRANCH  40  41
ATOM     41  C   LIG d   1       5.974   1.400  -9.524  0.00  0.00     0.025 A 
ATOM     42  C   LIG d   1       4.949   2.300  -9.232  0.00  0.00    -0.046 A 
ATOM     43  C   LIG d   1       3.691   2.105  -9.766  0.00  0.00    -0.061 A 
ATOM     44  H   LIG d   1       5.140   3.147  -8.590  0.00  0.00     0.063 H 
ATOM     45  C   LIG d   1       3.446   1.021 -10.589  0.00  0.00    -0.062 A 
ATOM     46  H   LIG d   1       2.897   2.801  -9.540  0.00  0.00     0.062 H 
ATOM     47  C   LIG d   1       4.458   0.124 -10.883  0.00  0.00    -0.061 A 
ATOM     48  H   LIG d   1       2.461   0.873 -11.004  0.00  0.00     0.062 H 
ATOM     49  C   LIG d   1       5.722   0.311 -10.360  0.00  0.00    -0.046 A 
ATOM     50  H   LIG d   1       4.261  -0.720 -11.526  0.00  0.00     0.062 H 
ATOM     51  H   LIG d   1       6.512  -0.386 -10.593  0.00  0.00     0.063 H 
ENDBRANCH  40  41
ENDBRANCH  21  39
BRANCH  21  52
ATOM     52  O   LIG d   1      10.599   2.449  -8.944  0.00  0.00    -0.376 OA
ATOM     53  H   LIG d   1      11.380   2.882  -8.578  0.00  0.00     0.211 HD
ENDBRANCH  21  52
BRANCH  16  54
ATOM     54  C   LIG d   1       8.374   2.552  -5.963  0.00  0.00    -0.056 C 
ATOM     55  H   LIG d   1       8.113   3.368  -5.286  0.00  0.00     0.024 H 
ATOM     56  H   LIG d   1       7.545   2.369  -6.646  0.00  0.00     0.024 H 
ATOM     57  H   LIG d   1       8.576   1.651  -5.385  0.00  0.00     0.024 H 
ENDBRANCH  16  54
BRANCH   1  58
ATOM     58  C   LIG d   1      12.076   6.185  -4.025  0.00  0.00    -0.056 C 
ATOM     59  H   LIG d   1      12.336   6.946  -3.290  0.00  0.00     0.024 H 
ATOM     60  H   LIG d   1      12.869   5.438  -4.073  0.00  0.00     0.024 H 
ATOM     61  H   LIG d   1      11.957   6.652  -5.004  0.00  0.00     0.024 H 
ENDBRANCH   1  58
BRANCH   4  62
ATOM     62  O   LIG d   1      10.372   7.274   0.282  0.00  0.00    -0.392 OA
ATOM     63  H   LIG d   1       9.578   7.488   0.790  0.00  0.00     0.210 HD
ENDBRANCH   4  62
TORSDOF 6
ENDMDL
MODEL 7
REMARK VINA RESULT:      -5.7      7.140      9.629
REMARK  6 active torsions:
REMARK  status: ('A' for Active; 'I' for Inactive)
REMARK    1  A    between atoms: C_1  and  C_2 
REMARK    2  A    between atoms: C_5  and  O_33 
REMARK    3  A    between atoms: C_17  and  C_32 
REMARK    4  A    between atoms: C_22  and  C_23 
REMARK    5  A    between atoms: C_22  and  O_31 
REMARK    6  A    between atoms: C_24  and  C_25 
ROOT
ATOM      1  C   LIG d   1       3.714  -0.796 -11.114  0.00  0.00    -0.008 C 
ATOM      2  C   LIG d   1       4.292  -1.845 -12.066  0.00  0.00    -0.041 C 
ATOM      3  C   LIG d   1       3.525  -1.881 -13.383  0.00  0.00    -0.026 C 
ATOM      4  C   LIG d   1       2.052  -2.213 -13.134  0.00  0.00     0.059 C 
ATOM      5  H   LIG d   1       1.975  -3.161 -12.603  0.00  0.00     0.060 H 
ATOM      6  C   LIG d   1       1.423  -1.100 -12.288  0.00  0.00    -0.005 C 
ATOM      7  C   LIG d   1       2.225  -0.983 -11.001  0.00  0.00    -0.065 C 
ATOM      8  C   LIG d   1       1.575  -1.065  -9.875  0.00  0.00    -0.084 C 
ATOM      9  C   LIG d   1       2.230  -0.966  -8.520  0.00  0.00    -0.031 C 
ATOM     10  C   LIG d   1       3.537  -0.200  -8.696  0.00  0.00    -0.030 C 
ATOM     11  H   LIG d   1       3.281   0.801  -9.096  0.00  0.00     0.031 H 
ATOM     12  C   LIG d   1       4.375  -0.929  -9.750  0.00  0.00    -0.029 C 
ATOM     13  H   LIG d   1       4.371  -2.000  -9.527  0.00  0.00     0.031 H 
ATOM     14  C   LIG d   1       5.809  -0.427  -9.706  0.00  0.00    -0.049 C 
ATOM     15  C   LIG d   1       6.493  -0.884  -8.405  0.00  0.00    -0.043 C 
ATOM     16  C   LIG d   1       5.488  -1.006  -7.286  0.00  0.00     0.011 C 
ATOM     17  C   LIG d   1       4.332  -0.001  -7.443  0.00  0.00    -0.029 C 
ATOM     18  H   LIG d   1       4.759   1.025  -7.464  0.00  0.00     0.031 H 
ATOM     19  C   LIG d   1       3.586  -0.157  -6.109  0.00  0.00    -0.046 C 
ATOM     20  C   LIG d   1       4.734  -0.330  -5.077  0.00  0.00    -0.012 C 
ATOM     21  C   LIG d   1       6.021  -0.604  -5.894  0.00  0.00     0.132 C 
ATOM     22  H   LIG d   1       4.242  -2.827 -11.590  0.00  0.00     0.027 H 
ATOM     23  H   LIG d   1       5.340  -1.609 -12.266  0.00  0.00     0.027 H 
ATOM     24  H   LIG d   1       3.955  -2.656 -14.026  0.00  0.00     0.029 H 
ATOM     25  H   LIG d   1       3.603  -0.925 -13.898  0.00  0.00     0.029 H 
ATOM     26  H   LIG d   1       0.391  -1.360 -12.054  0.00  0.00     0.034 H 
ATOM     27  H   LIG d   1       1.451  -0.160 -12.833  0.00  0.00     0.034 H 
ATOM     28  H   LIG d   1       0.506  -1.208  -9.911  0.00  0.00     0.057 H 
ATOM     29  H   LIG d   1       1.569  -0.423  -7.843  0.00  0.00     0.031 H 
ATOM     30  H   LIG d   1       2.415  -1.965  -8.135  0.00  0.00     0.031 H 
ATOM     31  H   LIG d   1       6.366  -0.814 -10.560  0.00  0.00     0.027 H 
ATOM     32  H   LIG d   1       5.825   0.666  -9.740  0.00  0.00     0.027 H 
ATOM     33  H   LIG d   1       6.979  -1.853  -8.574  0.00  0.00     0.027 H 
ATOM     34  H   LIG d   1       7.271  -0.159  -8.138  0.00  0.00     0.027 H 
ATOM     35  H   LIG d   1       3.015   0.749  -5.889  0.00  0.00     0.027 H 
ATOM     36  H   LIG d   1       2.929  -1.021  -6.114  0.00  0.00     0.027 H 
ATOM     37  H   LIG d   1       4.850   0.581  -4.491  0.00  0.00     0.030 H 
ATOM     38  H   LIG d   1       4.520  -1.172  -4.419  0.00  0.00     0.030 H 
ENDROOT
BRANCH  21  39
ATOM     39  C   LIG d   1       6.781  -1.713  -5.307  0.00  0.00    -0.062 C 
ATOM     40  C   LIG d   1       7.391  -2.600  -4.839  0.00  0.00    -0.063 C 
BRANCH  40  41
ATOM     41  C   LIG d   1       8.134  -3.682  -4.266  0.00  0.00     0.025 A 
ATOM     42  C   LIG d   1       8.087  -4.949  -4.847  0.00  0.00    -0.046 A 
ATOM     43  C   LIG d   1       8.807  -5.987  -4.292  0.00  0.00    -0.061 A 
ATOM     44  H   LIG d   1       7.487  -5.118  -5.730  0.00  0.00     0.063 H 
ATOM     45  C   LIG d   1       9.574  -5.773  -3.161  0.00  0.00    -0.062 A 
ATOM     46  H   LIG d   1       8.770  -6.969  -4.740  0.00  0.00     0.062 H 
ATOM     47  C   LIG d   1       9.626  -4.518  -2.580  0.00  0.00    -0.061 A 
ATOM     48  H   LIG d   1      10.136  -6.588  -2.730  0.00  0.00     0.062 H 
ATOM     49  C   LIG d   1       8.915  -3.471  -3.130  0.00  0.00    -0.046 A 
ATOM     50  H   LIG d   1      10.228  -4.357  -1.698  0.00  0.00     0.062 H 
ATOM     51  H   LIG d   1       8.960  -2.491  -2.678  0.00  0.00     0.063 H 
ENDBRANCH  40  41
ENDBRANCH  21  39
BRANCH  21  52
ATOM     52  O   LIG d   1       6.816   0.573  -5.989  0.00  0.00    -0.376 OA
ATOM     53  H   LIG d   1       6.600   1.248  -5.331  0.00  0.00     0.211 HD
ENDBRANCH  21  52
BRANCH  16  54
ATOM     54  C   LIG d   1       4.992  -2.450  -7.164  0.00  0.00    -0.056 C 
ATOM     55  H   LIG d   1       5.446  -2.917  -6.289  0.00  0.00     0.024 H 
ATOM     56  H   LIG d   1       3.907  -2.453  -7.055  0.00  0.00     0.024 H 
ATOM     57  H   LIG d   1       5.270  -3.007  -8.059  0.00  0.00     0.024 H 
ENDBRANCH  16  54
BRANCH   1  58
ATOM     58  C   LIG d   1       3.994   0.595 -11.679  0.00  0.00    -0.056 C 
ATOM     59  H   LIG d   1       4.883   1.008 -11.203  0.00  0.00     0.024 H 
ATOM     60  H   LIG d   1       4.157   0.524 -12.755  0.00  0.00     0.024 H 
ATOM     61  H   LIG d   1       3.142   1.246 -11.482  0.00  0.00     0.024 H 
ENDBRANCH   1  58
BRANCH   4  62
ATOM     62  O   LIG d   1       1.365  -2.306 -14.382  0.00  0.00    -0.392 OA
ATOM     63  H   LIG d   1       0.937  -1.484 -14.659  0.00  0.00     0.210 HD
ENDBRANCH   4  62
TORSDOF 6
ENDMDL
MODEL 8
REMARK VINA RESULT:      -5.7      3.696      6.518
REMARK  6 active torsions:
REMARK  status: ('A' for Active; 'I' for Inactive)
REMARK    1  A    between atoms: C_1  and  C_2 
REMARK    2  A    between atoms: C_5  and  O_33 
REMARK    3  A    between atoms: C_17  and  C_32 
REMARK    4  A    between atoms: C_22  and  C_23 
REMARK    5  A    between atoms: C_22  and  O_31 
REMARK    6  A    between atoms: C_24  and  C_25 
ROOT
ATOM      1  C   LIG d   1      14.722   1.081  -4.926  0.00  0.00    -0.008 C 
ATOM      2  C   LIG d   1      15.123   0.165  -3.768  0.00  0.00    -0.041 C 
ATOM      3  C   LIG d   1      16.582  -0.265  -3.880  0.00  0.00    -0.026 C 
ATOM      4  C   LIG d   1      16.818  -1.013  -5.194  0.00  0.00     0.059 C 
ATOM      5  H   LIG d   1      16.146  -1.868  -5.254  0.00  0.00     0.060 H 
ATOM      6  C   LIG d   1      16.546  -0.065  -6.368  0.00  0.00    -0.005 C 
ATOM      7  C   LIG d   1      15.121   0.448  -6.232  0.00  0.00    -0.065 C 
ATOM      8  C   LIG d   1      14.324   0.297  -7.251  0.00  0.00    -0.084 C 
ATOM      9  C   LIG d   1      12.888   0.755  -7.269  0.00  0.00    -0.031 C 
ATOM     10  C   LIG d   1      12.747   1.868  -6.236  0.00  0.00    -0.030 C 
ATOM     11  H   LIG d   1      13.436   2.684  -6.535  0.00  0.00     0.031 H 
ATOM     12  C   LIG d   1      13.220   1.323  -4.885  0.00  0.00    -0.029 C 
ATOM     13  H   LIG d   1      12.770   0.339  -4.723  0.00  0.00     0.031 H 
ATOM     14  C   LIG d   1      12.774   2.253  -3.769  0.00  0.00    -0.049 C 
ATOM     15  C   LIG d   1      11.244   2.190  -3.604  0.00  0.00    -0.043 C 
ATOM     16  C   LIG d   1      10.576   1.889  -4.921  0.00  0.00     0.011 C 
ATOM     17  C   LIG d   1      11.375   2.452  -6.112  0.00  0.00    -0.029 C 
ATOM     18  H   LIG d   1      11.477   3.550  -5.977  0.00  0.00     0.031 H 
ATOM     19  C   LIG d   1      10.409   2.225  -7.285  0.00  0.00    -0.046 C 
ATOM     20  C   LIG d   1       9.019   2.545  -6.670  0.00  0.00    -0.012 C 
ATOM     21  C   LIG d   1       9.220   2.597  -5.135  0.00  0.00     0.132 C 
ATOM     22  H   LIG d   1      14.483  -0.721  -3.774  0.00  0.00     0.027 H 
ATOM     23  H   LIG d   1      14.975   0.695  -2.823  0.00  0.00     0.027 H 
ATOM     24  H   LIG d   1      16.822  -0.934  -3.047  0.00  0.00     0.029 H 
ATOM     25  H   LIG d   1      17.240   0.600  -3.828  0.00  0.00     0.029 H 
ATOM     26  H   LIG d   1      16.651  -0.608  -7.306  0.00  0.00     0.034 H 
ATOM     27  H   LIG d   1      17.247   0.766  -6.342  0.00  0.00     0.034 H 
ATOM     28  H   LIG d   1      14.714  -0.179  -8.138  0.00  0.00     0.057 H 
ATOM     29  H   LIG d   1      12.646   1.136  -8.261  0.00  0.00     0.031 H 
ATOM     30  H   LIG d   1      12.239  -0.082  -7.026  0.00  0.00     0.031 H 
ATOM     31  H   LIG d   1      13.249   1.965  -2.830  0.00  0.00     0.027 H 
ATOM     32  H   LIG d   1      13.054   3.284  -4.005  0.00  0.00     0.027 H 
ATOM     33  H   LIG d   1      10.993   1.412  -2.873  0.00  0.00     0.027 H 
ATOM     34  H   LIG d   1      10.889   3.149  -3.209  0.00  0.00     0.027 H 
ATOM     35  H   LIG d   1      10.632   2.924  -8.096  0.00  0.00     0.027 H 
ATOM     36  H   LIG d   1      10.452   1.203  -7.649  0.00  0.00     0.027 H 
ATOM     37  H   LIG d   1       8.662   3.507  -7.032  0.00  0.00     0.030 H 
ATOM     38  H   LIG d   1       8.308   1.760  -6.928  0.00  0.00     0.030 H 
ENDROOT
BRANCH  21  39
ATOM     39  C   LIG d   1       8.155   1.861  -4.446  0.00  0.00    -0.062 C 
ATOM     40  C   LIG d   1       7.302   1.272  -3.895  0.00  0.00    -0.063 C 
BRANCH  40  41
ATOM     41  C   LIG d   1       6.262   0.552  -3.223  0.00  0.00     0.025 A 
ATOM     42  C   LIG d   1       5.265   1.243  -2.533  0.00  0.00    -0.046 A 
ATOM     43  C   LIG d   1       4.265   0.544  -1.889  0.00  0.00    -0.061 A 
ATOM     44  H   LIG d   1       5.276   2.323  -2.504  0.00  0.00     0.063 H 
ATOM     45  C   LIG d   1       4.250  -0.839  -1.926  0.00  0.00    -0.062 A 
ATOM     46  H   LIG d   1       3.493   1.078  -1.355  0.00  0.00     0.062 H 
ATOM     47  C   LIG d   1       5.235  -1.530  -2.608  0.00  0.00    -0.061 A 
ATOM     48  H   LIG d   1       3.465  -1.382  -1.421  0.00  0.00     0.062 H 
ATOM     49  C   LIG d   1       6.237  -0.842  -3.261  0.00  0.00    -0.046 A 
ATOM     50  H   LIG d   1       5.217  -2.609  -2.634  0.00  0.00     0.062 H 
ATOM     51  H   LIG d   1       7.003  -1.382  -3.798  0.00  0.00     0.063 H 
ENDBRANCH  40  41
ENDBRANCH  21  39
BRANCH  21  52
ATOM     52  O   LIG d   1       9.291   3.946  -4.683  0.00  0.00    -0.376 OA
ATOM     53  H   LIG d   1      10.175   4.331  -4.733  0.00  0.00     0.211 HD
ENDBRANCH  21  52
BRANCH  16  54
ATOM     54  C   LIG d   1      10.309   0.387  -5.058  0.00  0.00    -0.056 C 
ATOM     55  H   LIG d   1      10.290  -0.071  -4.068  0.00  0.00     0.024 H 
ATOM     56  H   LIG d   1       9.347   0.231  -5.548  0.00  0.00     0.024 H 
ATOM     57  H   LIG d   1      11.099  -0.070  -5.654  0.00  0.00     0.024 H 
ENDBRANCH  16  54
BRANCH   1  58
ATOM     58  C   LIG d   1      15.453   2.414  -4.780  0.00  0.00    -0.056 C 
ATOM     59  H   LIG d   1      16.447   2.240  -4.367  0.00  0.00     0.024 H 
ATOM     60  H   LIG d   1      15.544   2.887  -5.758  0.00  0.00     0.024 H 
ATOM     61  H   LIG d   1      14.891   3.066  -4.111  0.00  0.00     0.024 H 
ENDBRANCH   1  58
BRANCH   4  62
ATOM     62  O   LIG d   1      18.172  -1.463  -5.251  0.00  0.00    -0.392 OA
ATOM     63  H   LIG d   1      18.428  -1.832  -6.107  0.00  0.00     0.210 HD
ENDBRANCH   4  62
TORSDOF 6
ENDMDL
MODEL 9
REMARK VINA RESULT:      -5.7      7.362     11.136
REMARK  6 active torsions:
REMARK  status: ('A' for Active; 'I' for Inactive)
REMARK    1  A    between atoms: C_1  and  C_2 
REMARK    2  A    between atoms: C_5  and  O_33 
REMARK    3  A    between atoms: C_17  and  C_32 
REMARK    4  A    between atoms: C_22  and  C_23 
REMARK    5  A    between atoms: C_22  and  O_31 
REMARK    6  A    between atoms: C_24  and  C_25 
ROOT
ATOM      1  C   LIG d   1       5.780  -2.934  -5.507  0.00  0.00    -0.008 C 
ATOM      2  C   LIG d   1       6.911  -3.900  -5.867  0.00  0.00    -0.041 C 
ATOM      3  C   LIG d   1       7.733  -4.273  -4.638  0.00  0.00    -0.026 C 
ATOM      4  C   LIG d   1       8.348  -3.022  -4.008  0.00  0.00     0.059 C 
ATOM      5  H   LIG d   1       8.953  -2.499  -4.748  0.00  0.00     0.060 H 
ATOM      6  C   LIG d   1       7.223  -2.099  -3.523  0.00  0.00    -0.005 C 
ATOM      7  C   LIG d   1       6.335  -1.781  -4.715  0.00  0.00    -0.065 C 
ATOM      8  C   LIG d   1       6.116  -0.526  -4.987  0.00  0.00    -0.084 C 
ATOM      9  C   LIG d   1       5.257  -0.054  -6.133  0.00  0.00    -0.031 C 
ATOM     10  C   LIG d   1       4.290  -1.181  -6.478  0.00  0.00    -0.030 C 
ATOM     11  H   LIG d   1       3.682  -1.382  -5.573  0.00  0.00     0.031 H 
ATOM     12  C   LIG d   1       5.114  -2.436  -6.781  0.00  0.00    -0.029 C 
ATOM     13  H   LIG d   1       5.933  -2.166  -7.454  0.00  0.00     0.031 H 
ATOM     14  C   LIG d   1       4.240  -3.472  -7.468  0.00  0.00    -0.049 C 
ATOM     15  C   LIG d   1       3.870  -3.001  -8.886  0.00  0.00    -0.043 C 
ATOM     16  C   LIG d   1       3.794  -1.496  -8.948  0.00  0.00     0.011 C 
ATOM     17  C   LIG d   1       3.348  -0.890  -7.604  0.00  0.00    -0.029 C 
ATOM     18  H   LIG d   1       2.354  -1.312  -7.342  0.00  0.00     0.031 H 
ATOM     19  C   LIG d   1       3.132   0.586  -7.972  0.00  0.00    -0.046 C 
ATOM     20  C   LIG d   1       2.497   0.512  -9.387  0.00  0.00    -0.012 C 
ATOM     21  C   LIG d   1       2.697  -0.942  -9.882  0.00  0.00     0.132 C 
ATOM     22  H   LIG d   1       7.561  -3.431  -6.610  0.00  0.00     0.027 H 
ATOM     23  H   LIG d   1       6.483  -4.807  -6.302  0.00  0.00     0.027 H 
ATOM     24  H   LIG d   1       8.542  -4.947  -4.941  0.00  0.00     0.029 H 
ATOM     25  H   LIG d   1       7.114  -4.786  -3.905  0.00  0.00     0.029 H 
ATOM     26  H   LIG d   1       7.653  -1.178  -3.130  0.00  0.00     0.034 H 
ATOM     27  H   LIG d   1       6.646  -2.598  -2.747  0.00  0.00     0.034 H 
ATOM     28  H   LIG d   1       6.572   0.221  -4.355  0.00  0.00     0.057 H 
ATOM     29  H   LIG d   1       4.701   0.831  -5.822  0.00  0.00     0.031 H 
ATOM     30  H   LIG d   1       5.890   0.187  -6.983  0.00  0.00     0.031 H 
ATOM     31  H   LIG d   1       4.770  -4.424  -7.533  0.00  0.00     0.027 H 
ATOM     32  H   LIG d   1       3.316  -3.620  -6.901  0.00  0.00     0.027 H 
ATOM     33  H   LIG d   1       4.624  -3.364  -9.595  0.00  0.00     0.027 H 
ATOM     34  H   LIG d   1       2.906  -3.440  -9.168  0.00  0.00     0.027 H 
ATOM     35  H   LIG d   1       2.434   1.051  -7.270  0.00  0.00     0.027 H 
ATOM     36  H   LIG d   1       4.068   1.137  -7.990  0.00  0.00     0.027 H 
ATOM     37  H   LIG d   1       1.434   0.744  -9.333  0.00  0.00     0.030 H 
ATOM     38  H   LIG d   1       2.998   1.209 -10.058  0.00  0.00     0.030 H 
ENDROOT
BRANCH  21  39
ATOM     39  C   LIG d   1       3.167  -0.957 -11.272  0.00  0.00    -0.062 C 
ATOM     40  C   LIG d   1       3.542  -0.970 -12.385  0.00  0.00    -0.063 C 
BRANCH  40  41
ATOM     41  C   LIG d   1       3.999  -0.985 -13.741  0.00  0.00     0.025 A 
ATOM     42  C   LIG d   1       5.331  -0.689 -14.035  0.00  0.00    -0.046 A 
ATOM     43  C   LIG d   1       5.765  -0.707 -15.345  0.00  0.00    -0.061 A 
ATOM     44  H   LIG d   1       6.019  -0.446 -13.239  0.00  0.00     0.063 H 
ATOM     45  C   LIG d   1       4.884  -1.017 -16.365  0.00  0.00    -0.062 A 
ATOM     46  H   LIG d   1       6.795  -0.478 -15.574  0.00  0.00     0.062 H 
ATOM     47  C   LIG d   1       3.562  -1.312 -16.080  0.00  0.00    -0.061 A 
ATOM     48  H   LIG d   1       5.229  -1.031 -17.388  0.00  0.00     0.062 H 
ATOM     49  C   LIG d   1       3.117  -1.303 -14.774  0.00  0.00    -0.046 A 
ATOM     50  H   LIG d   1       2.879  -1.554 -16.881  0.00  0.00     0.062 H 
ATOM     51  H   LIG d   1       2.087  -1.538 -14.553  0.00  0.00     0.063 H 
ENDBRANCH  40  41
ENDBRANCH  21  39
BRANCH  21  52
ATOM     52  O   LIG d   1       1.496  -1.693  -9.735  0.00  0.00    -0.376 OA
ATOM     53  H   LIG d   1       0.946  -1.713 -10.530  0.00  0.00     0.211 HD
ENDBRANCH  21  52
BRANCH  16  54
ATOM     54  C   LIG d   1       5.122  -0.910  -9.437  0.00  0.00    -0.056 C 
ATOM     55  H   LIG d   1       5.360  -1.320 -10.421  0.00  0.00     0.024 H 
ATOM     56  H   LIG d   1       5.037   0.174  -9.508  0.00  0.00     0.024 H 
ATOM     57  H   LIG d   1       5.915  -1.168  -8.735  0.00  0.00     0.024 H 
ENDBRANCH  16  54
BRANCH   1  58
ATOM     58  C   LIG d   1       4.751  -3.670  -4.653  0.00  0.00    -0.056 C 
ATOM     59  H   LIG d   1       3.905  -3.962  -5.274  0.00  0.00     0.024 H 
ATOM     60  H   LIG d   1       5.209  -4.560  -4.220  0.00  0.00     0.024 H 
ATOM     61  H   LIG d   1       4.406  -3.014  -3.853  0.00  0.00     0.024 H 
ENDBRANCH   1  58
BRANCH   4  62
ATOM     62  O   LIG d   1       9.166  -3.397  -2.899  0.00  0.00    -0.392 OA
ATOM     63  H   LIG d   1       8.986  -4.285  -2.560  0.00  0.00     0.210 HD
ENDBRANCH   4  62
TORSDOF 6
ENDMDL
MODEL 10
REMARK VINA RESULT:      -5.6      7.843     11.581
REMARK  6 active torsions:
REMARK  status: ('A' for Active; 'I' for Inactive)
REMARK    1  A    between atoms: C_1  and  C_2 
REMARK    2  A    between atoms: C_5  and  O_33 
REMARK    3  A    between atoms: C_17  and  C_32 
REMARK    4  A    between atoms: C_22  and  C_23 
REMARK    5  A    between atoms: C_22  and  O_31 
REMARK    6  A    between atoms: C_24  and  C_25 
ROOT
ATOM      1  C   LIG d   1       4.951  -1.628  -6.837  0.00  0.00    -0.008 C 
ATOM      2  C   LIG d   1       6.455  -1.373  -6.725  0.00  0.00    -0.041 C 
ATOM      3  C   LIG d   1       6.886  -1.226  -5.269  0.00  0.00    -0.026 C 
ATOM      4  C   LIG d   1       6.146  -0.061  -4.609  0.00  0.00     0.059 C 
ATOM      5  H   LIG d   1       6.329   0.854  -5.172  0.00  0.00     0.060 H 
ATOM      6  C   LIG d   1       4.643  -0.362  -4.597  0.00  0.00    -0.005 C 
ATOM      7  C   LIG d   1       4.203  -0.599  -6.032  0.00  0.00    -0.065 C 
ATOM      8  C   LIG d   1       3.211   0.113  -6.486  0.00  0.00    -0.084 C 
ATOM      9  C   LIG d   1       2.661  -0.009  -7.885  0.00  0.00    -0.031 C 
ATOM     10  C   LIG d   1       3.015  -1.401  -8.398  0.00  0.00    -0.030 C 
ATOM     11  H   LIG d   1       2.544  -2.134  -7.713  0.00  0.00     0.031 H 
ATOM     12  C   LIG d   1       4.534  -1.570  -8.299  0.00  0.00    -0.029 C 
ATOM     13  H   LIG d   1       5.016  -0.677  -8.706  0.00  0.00     0.031 H 
ATOM     14  C   LIG d   1       4.972  -2.775  -9.116  0.00  0.00    -0.049 C 
ATOM     15  C   LIG d   1       4.795  -2.493 -10.619  0.00  0.00    -0.043 C 
ATOM     16  C   LIG d   1       3.643  -1.547 -10.853  0.00  0.00     0.011 C 
ATOM     17  C   LIG d   1       2.545  -1.706  -9.786  0.00  0.00    -0.029 C 
ATOM     18  H   LIG d   1       2.186  -2.758  -9.806  0.00  0.00     0.031 H 
ATOM     19  C   LIG d   1       1.416  -0.831 -10.351  0.00  0.00    -0.046 C 
ATOM     20  C   LIG d   1       1.485  -1.102 -11.878  0.00  0.00    -0.012 C 
ATOM     21  C   LIG d   1       2.830  -1.827 -12.136  0.00  0.00     0.132 C 
ATOM     22  H   LIG d   1       6.706  -0.460  -7.271  0.00  0.00     0.027 H 
ATOM     23  H   LIG d   1       6.996  -2.208  -7.177  0.00  0.00     0.027 H 
ATOM     24  H   LIG d   1       7.961  -1.025  -5.234  0.00  0.00     0.029 H 
ATOM     25  H   LIG d   1       6.689  -2.144  -4.718  0.00  0.00     0.029 H 
ATOM     26  H   LIG d   1       4.105   0.491  -4.185  0.00  0.00     0.034 H 
ATOM     27  H   LIG d   1       4.449  -1.246  -3.994  0.00  0.00     0.034 H 
ATOM     28  H   LIG d   1       2.752   0.830  -5.823  0.00  0.00     0.057 H 
ATOM     29  H   LIG d   1       1.578   0.112  -7.855  0.00  0.00     0.031 H 
ATOM     30  H   LIG d   1       3.102   0.759  -8.514  0.00  0.00     0.031 H 
ATOM     31  H   LIG d   1       6.020  -3.001  -8.914  0.00  0.00     0.027 H 
ATOM     32  H   LIG d   1       4.366  -3.647  -8.854  0.00  0.00     0.027 H 
ATOM     33  H   LIG d   1       5.720  -2.056 -11.015  0.00  0.00     0.027 H 
ATOM     34  H   LIG d   1       4.619  -3.440 -11.141  0.00  0.00     0.027 H 
ATOM     35  H   LIG d   1       0.451  -1.157  -9.953  0.00  0.00     0.027 H 
ATOM     36  H   LIG d   1       1.575   0.221 -10.131  0.00  0.00     0.027 H 
ATOM     37  H   LIG d   1       0.654  -1.738 -12.183  0.00  0.00     0.030 H 
ATOM     38  H   LIG d   1       1.455  -0.160 -12.427  0.00  0.00     0.030 H 
ENDROOT
BRANCH  21  39
ATOM     39  C   LIG d   1       3.514  -1.254 -13.300  0.00  0.00    -0.062 C 
ATOM     40  C   LIG d   1       4.061  -0.795 -14.232  0.00  0.00    -0.063 C 
BRANCH  40  41
ATOM     41  C   LIG d   1       4.728  -0.236 -15.369  0.00  0.00     0.025 A 
ATOM     42  C   LIG d   1       6.096  -0.443 -15.551  0.00  0.00    -0.046 A 
ATOM     43  C   LIG d   1       6.732   0.098 -16.649  0.00  0.00    -0.061 A 
ATOM     44  H   LIG d   1       6.655  -1.025 -14.833  0.00  0.00     0.063 H 
ATOM     45  C   LIG d   1       6.017   0.844 -17.569  0.00  0.00    -0.062 A 
ATOM     46  H   LIG d   1       7.791  -0.061 -16.791  0.00  0.00     0.062 H 
ATOM     47  C   LIG d   1       4.660   1.053 -17.395  0.00  0.00    -0.061 A 
ATOM     48  H   LIG d   1       6.519   1.265 -18.427  0.00  0.00     0.062 H 
ATOM     49  C   LIG d   1       4.011   0.513 -16.303  0.00  0.00    -0.046 A 
ATOM     50  H   LIG d   1       4.107   1.636 -18.116  0.00  0.00     0.062 H 
ATOM     51  H   LIG d   1       2.951   0.672 -16.171  0.00  0.00     0.063 H 
ENDBRANCH  40  41
ENDBRANCH  21  39
BRANCH  21  52
ATOM     52  O   LIG d   1       2.623  -3.226 -12.296  0.00  0.00    -0.376 OA
ATOM     53  H   LIG d   1       2.909  -3.570 -13.153  0.00  0.00     0.211 HD
ENDBRANCH  21  52
BRANCH  16  54
ATOM     54  C   LIG d   1       4.145  -0.104 -10.960  0.00  0.00    -0.056 C 
ATOM     55  H   LIG d   1       4.156   0.352  -9.969  0.00  0.00     0.024 H 
ATOM     56  H   LIG d   1       5.155  -0.100 -11.372  0.00  0.00     0.024 H 
ATOM     57  H   LIG d   1       3.483   0.464 -11.614  0.00  0.00     0.024 H 
ENDBRANCH  16  54
BRANCH   1  58
ATOM     58  C   LIG d   1       4.639  -3.014  -6.277  0.00  0.00    -0.056 C 
ATOM     59  H   LIG d   1       3.672  -3.348  -6.651  0.00  0.00     0.024 H 
ATOM     60  H   LIG d   1       5.413  -3.715  -6.591  0.00  0.00     0.024 H 
ATOM     61  H   LIG d   1       4.611  -2.968  -5.188  0.00  0.00     0.024 H 
ENDBRANCH   1  58
BRANCH   4  62
ATOM     62  O   LIG d   1       6.610   0.102  -3.268  0.00  0.00    -0.392 OA
ATOM     63  H   LIG d   1       6.130  -0.430  -2.619  0.00  0.00     0.210 HD
ENDBRANCH   4  62
TORSDOF 6
ENDMDL
