MODEL 1
REMARK VINA RESULT:      -6.9      0.000      0.000
REMARK  3 active torsions:
REMARK  status: ('A' for Active; 'I' for Inactive)
REMARK    1  A    between atoms: C_4  and  N_7 
REMARK    2  A    between atoms: C_9  and  C_19 
REMARK    3  A    between atoms: C_10  and  C_12 
ROOT
ATOM      1  N   LIG d   1       9.401   2.892  -4.294  0.00  0.00    -0.238 N 
ATOM      2  C   LIG d   1       9.096   2.592  -5.572  0.00  0.00     0.044 A 
ATOM      3  C   LIG d   1       8.091   1.663  -5.561  0.00  0.00     0.083 A 
ATOM      4  C   LIG d   1       7.783   1.398  -4.153  0.00  0.00     0.105 A 
ATOM      5  N   LIG d   1       8.591   2.145  -3.433  0.00  0.00    -0.166 NA
ATOM      6  H   LIG d   1       9.561   3.011  -6.451  0.00  0.00     0.084 H 
ENDROOT
BRANCH   3   7
ATOM      7  C   LIG d   1       7.444   1.050  -6.735  0.00  0.00     0.232 A 
ATOM      8  O   LIG d   1       7.405  -0.272  -6.993  0.00  0.00    -0.435 OA
ATOM      9  C   LIG d   1       6.727  -0.454  -8.149  0.00  0.00     0.156 A 
ATOM     10  C   LIG d   1       6.357   0.822  -8.599  0.00  0.00     0.111 A 
ATOM     11  C   LIG d   1       6.378  -1.574  -8.889  0.00  0.00    -0.016 A 
ATOM     12  N   LIG d   1       6.828   1.710  -7.684  0.00  0.00    -0.209 NA
ATOM     13  C   LIG d   1       5.639   0.954  -9.790  0.00  0.00    -0.014 A 
ATOM     14  C   LIG d   1       5.301  -0.169 -10.512  0.00  0.00     0.043 A 
ATOM     15  H   LIG d   1       5.349   1.933 -10.142  0.00  0.00     0.065 H 
ATOM     16  C   LIG d   1       5.669  -1.429 -10.062  0.00  0.00    -0.040 A 
ATOM     17 CL   LIG d   1       4.407  -0.007 -11.991  0.00  0.00    -0.084 Cl
ATOM     18  H   LIG d   1       5.399  -2.303 -10.637  0.00  0.00     0.063 H 
ATOM     19  H   LIG d   1       6.663  -2.558  -8.546  0.00  0.00     0.066 H 
ENDBRANCH   3   7
BRANCH   4  20
ATOM     20  C   LIG d   1       6.758   0.458  -3.637  0.00  0.00     0.003 A 
ATOM     21  C   LIG d   1       5.581   0.948  -3.074  0.00  0.00    -0.051 A 
ATOM     22  C   LIG d   1       4.627   0.070  -2.601  0.00  0.00    -0.043 A 
ATOM     23  H   LIG d   1       5.413   2.014  -3.011  0.00  0.00     0.062 H 
ATOM     24  C   LIG d   1       4.843  -1.295  -2.674  0.00  0.00     0.041 A 
ATOM     25  H   LIG d   1       3.713   0.449  -2.168  0.00  0.00     0.063 H 
ATOM     26  C   LIG d   1       6.013  -1.787  -3.229  0.00  0.00    -0.043 A 
ATOM     27 CL   LIG d   1       3.643  -2.395  -2.072  0.00  0.00    -0.084 Cl
ATOM     28  C   LIG d   1       6.970  -0.917  -3.710  0.00  0.00    -0.051 A 
ATOM     29  H   LIG d   1       6.177  -2.853  -3.283  0.00  0.00     0.063 H 
ATOM     30  H   LIG d   1       7.882  -1.302  -4.141  0.00  0.00     0.062 H 
ENDBRANCH   4  20
BRANCH   1  31
ATOM     31  C   LIG d   1      10.384   3.805  -3.891  0.00  0.00     0.065 A 
ATOM     32  C   LIG d   1      11.478   4.054  -4.707  0.00  0.00    -0.036 A 
ATOM     33  C   LIG d   1      12.445   4.955  -4.308  0.00  0.00    -0.060 A 
ATOM     34  H   LIG d   1      11.573   3.544  -5.656  0.00  0.00     0.064 H 
ATOM     35  C   LIG d   1      12.325   5.609  -3.095  0.00  0.00    -0.062 A 
ATOM     36  H   LIG d   1      13.297   5.150  -4.943  0.00  0.00     0.062 H 
ATOM     37  C   LIG d   1      11.235   5.363  -2.279  0.00  0.00    -0.060 A 
ATOM     38  H   LIG d   1      13.084   6.311  -2.783  0.00  0.00     0.062 H 
ATOM     39  C   LIG d   1      10.265   4.463  -2.673  0.00  0.00    -0.036 A 
ATOM     40  H   LIG d   1      11.143   5.875  -1.333  0.00  0.00     0.062 H 
ATOM     41  H   LIG d   1       9.414   4.271  -2.035  0.00  0.00     0.064 H 
ENDBRANCH   1  31
TORSDOF 3
ENDMDL
MODEL 2
REMARK VINA RESULT:      -6.8      3.547      8.241
REMARK  3 active torsions:
REMARK  status: ('A' for Active; 'I' for Inactive)
REMARK    1  A    between atoms: C_4  and  N_7 
REMARK    2  A    between atoms: C_9  and  C_19 
REMARK    3  A    between atoms: C_10  and  C_12 
ROOT
ATOM      1  N   LIG d   1       6.650   0.422  -4.204  0.00  0.00    -0.238 N 
ATOM      2  C   LIG d   1       7.230   1.448  -3.552  0.00  0.00     0.044 A 
ATOM      3  C   LIG d   1       8.061   2.091  -4.427  0.00  0.00     0.083 A 
ATOM      4  C   LIG d   1       7.957   1.378  -5.703  0.00  0.00     0.105 A 
ATOM      5  N   LIG d   1       7.111   0.387  -5.524  0.00  0.00    -0.166 NA
ATOM      6  H   LIG d   1       7.067   1.717  -2.519  0.00  0.00     0.084 H 
ENDROOT
BRANCH   3   7
ATOM      7  C   LIG d   1       8.897   3.272  -4.144  0.00  0.00     0.232 A 
ATOM      8  O   LIG d   1       9.122   4.284  -5.005  0.00  0.00    -0.435 OA
ATOM      9  C   LIG d   1       9.928   5.182  -4.395  0.00  0.00     0.156 A 
ATOM     10  C   LIG d   1      10.200   4.671  -3.117  0.00  0.00     0.111 A 
ATOM     11  C   LIG d   1      10.478   6.394  -4.784  0.00  0.00    -0.016 A 
ATOM     12  N   LIG d   1       9.535   3.489  -3.021  0.00  0.00    -0.209 NA
ATOM     13  C   LIG d   1      11.023   5.388  -2.246  0.00  0.00    -0.014 A 
ATOM     14  C   LIG d   1      11.561   6.590  -2.649  0.00  0.00     0.043 A 
ATOM     15  H   LIG d   1      11.236   5.001  -1.260  0.00  0.00     0.065 H 
ATOM     16  C   LIG d   1      11.289   7.092  -3.913  0.00  0.00    -0.040 A 
ATOM     17 CL   LIG d   1      12.583   7.483  -1.567  0.00  0.00    -0.084 Cl
ATOM     18  H   LIG d   1      11.717   8.036  -4.219  0.00  0.00     0.063 H 
ATOM     19  H   LIG d   1      10.272   6.791  -5.767  0.00  0.00     0.066 H 
ENDBRANCH   3   7
BRANCH   4  20
ATOM     20  C   LIG d   1       8.675   1.707  -6.959  0.00  0.00     0.003 A 
ATOM     21  C   LIG d   1      10.049   1.497  -7.054  0.00  0.00    -0.051 A 
ATOM     22  C   LIG d   1      10.712   1.799  -8.226  0.00  0.00    -0.043 A 
ATOM     23  H   LIG d   1      10.595   1.095  -6.213  0.00  0.00     0.062 H 
ATOM     24  C   LIG d   1      10.015   2.321  -9.302  0.00  0.00     0.041 A 
ATOM     25  H   LIG d   1      11.776   1.633  -8.302  0.00  0.00     0.063 H 
ATOM     26  C   LIG d   1       8.650   2.537  -9.211  0.00  0.00    -0.043 A 
ATOM     27 CL   LIG d   1      10.855   2.706 -10.772  0.00  0.00    -0.084 Cl
ATOM     28  C   LIG d   1       7.978   2.232  -8.045  0.00  0.00    -0.051 A 
ATOM     29  H   LIG d   1       8.112   2.945 -10.054  0.00  0.00     0.063 H 
ATOM     30  H   LIG d   1       6.914   2.401  -7.976  0.00  0.00     0.062 H 
ENDBRANCH   4  20
BRANCH   1  31
ATOM     31  C   LIG d   1       5.732  -0.476  -3.645  0.00  0.00     0.065 A 
ATOM     32  C   LIG d   1       5.455  -1.677  -4.284  0.00  0.00    -0.036 A 
ATOM     33  C   LIG d   1       4.550  -2.561  -3.730  0.00  0.00    -0.060 A 
ATOM     34  H   LIG d   1       5.949  -1.921  -5.214  0.00  0.00     0.064 H 
ATOM     35  C   LIG d   1       3.918  -2.250  -2.539  0.00  0.00    -0.062 A 
ATOM     36  H   LIG d   1       4.335  -3.495  -4.227  0.00  0.00     0.062 H 
ATOM     37  C   LIG d   1       4.192  -1.055  -1.900  0.00  0.00    -0.060 A 
ATOM     38  H   LIG d   1       3.208  -2.941  -2.110  0.00  0.00     0.062 H 
ATOM     39  C   LIG d   1       5.095  -0.167  -2.449  0.00  0.00    -0.036 A 
ATOM     40  H   LIG d   1       3.697  -0.815  -0.971  0.00  0.00     0.062 H 
ATOM     41  H   LIG d   1       5.308   0.767  -1.949  0.00  0.00     0.064 H 
ENDBRANCH   1  31
TORSDOF 3
ENDMDL
MODEL 3
REMARK VINA RESULT:      -6.8      4.236      8.174
REMARK  3 active torsions:
REMARK  status: ('A' for Active; 'I' for Inactive)
REMARK    1  A    between atoms: C_4  and  N_7 
REMARK    2  A    between atoms: C_9  and  C_19 
REMARK    3  A    between atoms: C_10  and  C_12 
ROOT
ATOM      1  N   LIG d   1       7.048   0.094  -3.808  0.00  0.00    -0.238 N 
ATOM      2  C   LIG d   1       7.204   1.391  -3.476  0.00  0.00     0.044 A 
ATOM      3  C   LIG d   1       8.357   1.842  -4.057  0.00  0.00     0.083 A 
ATOM      4  C   LIG d   1       8.924   0.710  -4.794  0.00  0.00     0.105 A 
ATOM      5  N   LIG d   1       8.116  -0.312  -4.614  0.00  0.00    -0.166 NA
ATOM      6  H   LIG d   1       6.535   1.973  -2.858  0.00  0.00     0.084 H 
ENDROOT
BRANCH   3   7
ATOM      7  C   LIG d   1       8.919   3.202  -3.961  0.00  0.00     0.232 A 
ATOM      8  O   LIG d   1       8.865   4.130  -4.937  0.00  0.00    -0.435 OA
ATOM      9  C   LIG d   1       9.478   5.248  -4.487  0.00  0.00     0.156 A 
ATOM     10  C   LIG d   1       9.923   4.963  -3.187  0.00  0.00     0.111 A 
ATOM     11  C   LIG d   1       9.721   6.496  -5.040  0.00  0.00    -0.016 A 
ATOM     12  N   LIG d   1       9.548   3.684  -2.919  0.00  0.00    -0.209 NA
ATOM     13  C   LIG d   1      10.607   5.940  -2.460  0.00  0.00    -0.014 A 
ATOM     14  C   LIG d   1      10.839   7.174  -3.025  0.00  0.00     0.043 A 
ATOM     15  H   LIG d   1      10.952   5.728  -1.459  0.00  0.00     0.065 H 
ATOM     16  C   LIG d   1      10.397   7.452  -4.311  0.00  0.00    -0.040 A 
ATOM     17 CL   LIG d   1      11.687   8.390  -2.123  0.00  0.00    -0.084 Cl
ATOM     18  H   LIG d   1      10.585   8.423  -4.744  0.00  0.00     0.063 H 
ATOM     19  H   LIG d   1       9.381   6.719  -6.041  0.00  0.00     0.066 H 
ENDBRANCH   3   7
BRANCH   4  20
ATOM     20  C   LIG d   1      10.177   0.714  -5.589  0.00  0.00     0.003 A 
ATOM     21  C   LIG d   1      10.136   0.973  -6.957  0.00  0.00    -0.051 A 
ATOM     22  C   LIG d   1      11.305   0.982  -7.691  0.00  0.00    -0.043 A 
ATOM     23  H   LIG d   1       9.191   1.171  -7.443  0.00  0.00     0.062 H 
ATOM     24  C   LIG d   1      12.515   0.722  -7.072  0.00  0.00     0.041 A 
ATOM     25  H   LIG d   1      11.274   1.187  -8.750  0.00  0.00     0.063 H 
ATOM     26  C   LIG d   1      12.560   0.459  -5.713  0.00  0.00    -0.043 A 
ATOM     27 CL   LIG d   1      13.981   0.728  -8.001  0.00  0.00    -0.084 Cl
ATOM     28  C   LIG d   1      11.398   0.454  -4.969  0.00  0.00    -0.051 A 
ATOM     29  H   LIG d   1      13.508   0.257  -5.235  0.00  0.00     0.063 H 
ATOM     30  H   LIG d   1      11.435   0.249  -3.910  0.00  0.00     0.062 H 
ENDBRANCH   4  20
BRANCH   1  31
ATOM     31  C   LIG d   1       5.984  -0.722  -3.404  0.00  0.00     0.065 A 
ATOM     32  C   LIG d   1       5.185  -0.344  -2.334  0.00  0.00    -0.036 A 
ATOM     33  C   LIG d   1       4.136  -1.150  -1.938  0.00  0.00    -0.060 A 
ATOM     34  H   LIG d   1       5.383   0.582  -1.812  0.00  0.00     0.064 H 
ATOM     35  C   LIG d   1       3.881  -2.334  -2.606  0.00  0.00    -0.062 A 
ATOM     36  H   LIG d   1       3.514  -0.856  -1.105  0.00  0.00     0.062 H 
ATOM     37  C   LIG d   1       4.675  -2.713  -3.673  0.00  0.00    -0.060 A 
ATOM     38  H   LIG d   1       3.063  -2.965  -2.292  0.00  0.00     0.062 H 
ATOM     39  C   LIG d   1       5.726  -1.912  -4.074  0.00  0.00    -0.036 A 
ATOM     40  H   LIG d   1       4.474  -3.638  -4.193  0.00  0.00     0.062 H 
ATOM     41  H   LIG d   1       6.346  -2.209  -4.907  0.00  0.00     0.064 H 
ENDBRANCH   1  31
TORSDOF 3
ENDMDL
MODEL 4
REMARK VINA RESULT:      -6.8      3.601      6.543
REMARK  3 active torsions:
REMARK  status: ('A' for Active; 'I' for Inactive)
REMARK    1  A    between atoms: C_4  and  N_7 
REMARK    2  A    between atoms: C_9  and  C_19 
REMARK    3  A    between atoms: C_10  and  C_12 
ROOT
ATOM      1  N   LIG d   1       6.837   0.481  -4.077  0.00  0.00    -0.238 N 
ATOM      2  C   LIG d   1       7.277   0.419  -5.349  0.00  0.00     0.044 A 
ATOM      3  C   LIG d   1       8.220   1.395  -5.519  0.00  0.00     0.083 A 
ATOM      4  C   LIG d   1       8.341   2.087  -4.233  0.00  0.00     0.105 A 
ATOM      5  N   LIG d   1       7.495   1.515  -3.405  0.00  0.00    -0.166 NA
ATOM      6  H   LIG d   1       6.944  -0.278  -6.103  0.00  0.00     0.084 H 
ENDROOT
BRANCH   3   7
ATOM      7  C   LIG d   1       8.969   1.693  -6.754  0.00  0.00     0.232 A 
ATOM      8  O   LIG d   1      10.258   1.366  -6.973  0.00  0.00    -0.435 OA
ATOM      9  C   LIG d   1      10.595   1.795  -8.210  0.00  0.00     0.156 A 
ATOM     10  C   LIG d   1       9.453   2.413  -8.742  0.00  0.00     0.111 A 
ATOM     11  C   LIG d   1      11.760   1.737  -8.959  0.00  0.00    -0.016 A 
ATOM     12  N   LIG d   1       8.482   2.318  -7.796  0.00  0.00    -0.209 NA
ATOM     13  C   LIG d   1       9.500   2.965 -10.024  0.00  0.00    -0.014 A 
ATOM     14  C   LIG d   1      10.665   2.898 -10.755  0.00  0.00     0.043 A 
ATOM     15  H   LIG d   1       8.624   3.441 -10.441  0.00  0.00     0.065 H 
ATOM     16  C   LIG d   1      11.792   2.286 -10.224  0.00  0.00    -0.040 A 
ATOM     17 CL   LIG d   1      10.725   3.583 -12.348  0.00  0.00    -0.084 Cl
ATOM     18  H   LIG d   1      12.701   2.240 -10.806  0.00  0.00     0.063 H 
ATOM     19  H   LIG d   1      12.641   1.263  -8.552  0.00  0.00     0.066 H 
ENDBRANCH   3   7
BRANCH   4  20
ATOM     20  C   LIG d   1       9.244   3.223  -3.925  0.00  0.00     0.003 A 
ATOM     21  C   LIG d   1       9.131   4.418  -4.633  0.00  0.00    -0.051 A 
ATOM     22  C   LIG d   1       9.969   5.474  -4.338  0.00  0.00    -0.043 A 
ATOM     23  H   LIG d   1       8.386   4.519  -5.409  0.00  0.00     0.062 H 
ATOM     24  C   LIG d   1      10.928   5.344  -3.349  0.00  0.00     0.041 A 
ATOM     25  H   LIG d   1       9.879   6.402  -4.884  0.00  0.00     0.063 H 
ATOM     26  C   LIG d   1      11.048   4.158  -2.646  0.00  0.00    -0.043 A 
ATOM     27 CL   LIG d   1      11.983   6.674  -2.987  0.00  0.00    -0.084 Cl
ATOM     28  C   LIG d   1      10.211   3.098  -2.929  0.00  0.00    -0.051 A 
ATOM     29  H   LIG d   1      11.798   4.062  -1.875  0.00  0.00     0.063 H 
ATOM     30  H   LIG d   1      10.305   2.173  -2.380  0.00  0.00     0.062 H 
ENDBRANCH   4  20
BRANCH   1  31
ATOM     31  C   LIG d   1       5.865  -0.357  -3.517  0.00  0.00     0.065 A 
ATOM     32  C   LIG d   1       5.171   0.042  -2.382  0.00  0.00    -0.036 A 
ATOM     33  C   LIG d   1       4.213  -0.786  -1.832  0.00  0.00    -0.060 A 
ATOM     34  H   LIG d   1       5.380   1.001  -1.931  0.00  0.00     0.064 H 
ATOM     35  C   LIG d   1       3.943  -2.014  -2.410  0.00  0.00    -0.062 A 
ATOM     36  H   LIG d   1       3.673  -0.475  -0.950  0.00  0.00     0.062 H 
ATOM     37  C   LIG d   1       4.632  -2.415  -3.540  0.00  0.00    -0.060 A 
ATOM     38  H   LIG d   1       3.196  -2.661  -1.976  0.00  0.00     0.062 H 
ATOM     39  C   LIG d   1       5.592  -1.591  -4.095  0.00  0.00    -0.036 A 
ATOM     40  H   LIG d   1       4.419  -3.373  -3.989  0.00  0.00     0.062 H 
ATOM     41  H   LIG d   1       6.130  -1.905  -4.977  0.00  0.00     0.064 H 
ENDBRANCH   1  31
TORSDOF 3
ENDMDL
MODEL 5
REMARK VINA RESULT:      -6.7      4.243      7.140
REMARK  3 active torsions:
REMARK  status: ('A' for Active; 'I' for Inactive)
REMARK    1  A    between atoms: C_4  and  N_7 
REMARK    2  A    between atoms: C_9  and  C_19 
REMARK    3  A    between atoms: C_10  and  C_12 
ROOT
ATOM      1  N   LIG d   1       6.737   0.472  -3.762  0.00  0.00    -0.238 N 
ATOM      2  C   LIG d   1       7.688  -0.156  -4.482  0.00  0.00     0.044 A 
ATOM      3  C   LIG d   1       8.718   0.722  -4.680  0.00  0.00     0.083 A 
ATOM      4  C   LIG d   1       8.335   1.972  -4.018  0.00  0.00     0.105 A 
ATOM      5  N   LIG d   1       7.146   1.781  -3.490  0.00  0.00    -0.166 NA
ATOM      6  H   LIG d   1       7.646  -1.174  -4.839  0.00  0.00     0.084 H 
ENDROOT
BRANCH   3   7
ATOM      7  C   LIG d   1       9.970   0.461  -5.415  0.00  0.00     0.232 A 
ATOM      8  O   LIG d   1      10.969  -0.333  -4.981  0.00  0.00    -0.435 OA
ATOM      9  C   LIG d   1      11.943  -0.330  -5.919  0.00  0.00     0.156 A 
ATOM     10  C   LIG d   1      11.502   0.513  -6.950  0.00  0.00     0.111 A 
ATOM     11  C   LIG d   1      13.179  -0.952  -6.018  0.00  0.00    -0.016 A 
ATOM     12  N   LIG d   1      10.277   0.972  -6.581  0.00  0.00    -0.209 NA
ATOM     13  C   LIG d   1      12.312   0.718  -8.069  0.00  0.00    -0.014 A 
ATOM     14  C   LIG d   1      13.536   0.092  -8.151  0.00  0.00     0.043 A 
ATOM     15  H   LIG d   1      11.979   1.365  -8.868  0.00  0.00     0.065 H 
ATOM     16  C   LIG d   1      13.968  -0.741  -7.129  0.00  0.00    -0.040 A 
ATOM     17 CL   LIG d   1      14.543   0.346  -9.542  0.00  0.00    -0.084 Cl
ATOM     18  H   LIG d   1      14.930  -1.226  -7.204  0.00  0.00     0.063 H 
ATOM     19  H   LIG d   1      13.522  -1.601  -5.226  0.00  0.00     0.066 H 
ENDBRANCH   3   7
BRANCH   4  20
ATOM     20  C   LIG d   1       9.135   3.220  -3.960  0.00  0.00     0.003 A 
ATOM     21  C   LIG d   1       9.052   4.153  -4.991  0.00  0.00    -0.051 A 
ATOM     22  C   LIG d   1       9.793   5.315  -4.929  0.00  0.00    -0.043 A 
ATOM     23  H   LIG d   1       8.404   3.969  -5.836  0.00  0.00     0.062 H 
ATOM     24  C   LIG d   1      10.628   5.549  -3.850  0.00  0.00     0.041 A 
ATOM     25  H   LIG d   1       9.725   6.041  -5.726  0.00  0.00     0.063 H 
ATOM     26  C   LIG d   1      10.719   4.622  -2.825  0.00  0.00    -0.043 A 
ATOM     27 CL   LIG d   1      11.563   7.009  -3.781  0.00  0.00    -0.084 Cl
ATOM     28  C   LIG d   1       9.977   3.460  -2.875  0.00  0.00    -0.051 A 
ATOM     29  H   LIG d   1      11.372   4.810  -1.986  0.00  0.00     0.063 H 
ATOM     30  H   LIG d   1      10.049   2.738  -2.075  0.00  0.00     0.062 H 
ENDBRANCH   4  20
BRANCH   1  31
ATOM     31  C   LIG d   1       5.524  -0.097  -3.356  0.00  0.00     0.065 A 
ATOM     32  C   LIG d   1       4.436   0.715  -3.068  0.00  0.00    -0.036 A 
ATOM     33  C   LIG d   1       3.240   0.152  -2.669  0.00  0.00    -0.060 A 
ATOM     34  H   LIG d   1       4.524   1.789  -3.158  0.00  0.00     0.064 H 
ATOM     35  C   LIG d   1       3.125  -1.222  -2.554  0.00  0.00    -0.062 A 
ATOM     36  H   LIG d   1       2.393   0.784  -2.445  0.00  0.00     0.062 H 
ATOM     37  C   LIG d   1       4.207  -2.034  -2.840  0.00  0.00    -0.060 A 
ATOM     38  H   LIG d   1       2.191  -1.660  -2.237  0.00  0.00     0.062 H 
ATOM     39  C   LIG d   1       5.406  -1.477  -3.240  0.00  0.00    -0.036 A 
ATOM     40  H   LIG d   1       4.115  -3.106  -2.750  0.00  0.00     0.062 H 
ATOM     41  H   LIG d   1       6.250  -2.112  -3.463  0.00  0.00     0.064 H 
ENDBRANCH   1  31
TORSDOF 3
ENDMDL
MODEL 6
REMARK VINA RESULT:      -6.6      4.325      6.069
REMARK  3 active torsions:
REMARK  status: ('A' for Active; 'I' for Inactive)
REMARK    1  A    between atoms: C_4  and  N_7 
REMARK    2  A    between atoms: C_9  and  C_19 
REMARK    3  A    between atoms: C_10  and  C_12 
ROOT
ATOM      1  N   LIG d   1       8.614  -4.191  -4.068  0.00  0.00    -0.238 N 
ATOM      2  C   LIG d   1       7.897  -4.310  -5.203  0.00  0.00     0.044 A 
ATOM      3  C   LIG d   1       6.890  -3.385  -5.167  0.00  0.00     0.083 A 
ATOM      4  C   LIG d   1       7.032  -2.662  -3.901  0.00  0.00     0.105 A 
ATOM      5  N   LIG d   1       8.066  -3.179  -3.275  0.00  0.00    -0.166 NA
ATOM      6  H   LIG d   1       8.084  -5.013  -6.001  0.00  0.00     0.084 H 
ENDROOT
BRANCH   3   7
ATOM      7  C   LIG d   1       5.864  -3.158  -6.202  0.00  0.00     0.232 A 
ATOM      8  O   LIG d   1       5.312  -4.121  -6.967  0.00  0.00    -0.435 OA
ATOM      9  C   LIG d   1       4.414  -3.538  -7.792  0.00  0.00     0.156 A 
ATOM     10  C   LIG d   1       4.445  -2.164  -7.507  0.00  0.00     0.111 A 
ATOM     11  C   LIG d   1       3.562  -4.019  -8.774  0.00  0.00    -0.016 A 
ATOM     12  N   LIG d   1       5.359  -1.992  -6.516  0.00  0.00    -0.209 NA
ATOM     13  C   LIG d   1       3.614  -1.292  -8.215  0.00  0.00    -0.014 A 
ATOM     14  C   LIG d   1       2.774  -1.788  -9.187  0.00  0.00     0.043 A 
ATOM     15  H   LIG d   1       3.631  -0.234  -8.001  0.00  0.00     0.065 H 
ATOM     16  C   LIG d   1       2.747  -3.147  -9.466  0.00  0.00    -0.040 A 
ATOM     17 CL   LIG d   1       1.741  -0.706 -10.068  0.00  0.00    -0.084 Cl
ATOM     18  H   LIG d   1       2.085  -3.525 -10.231  0.00  0.00     0.063 H 
ATOM     19  H   LIG d   1       3.537  -5.076  -8.997  0.00  0.00     0.066 H 
ENDBRANCH   3   7
BRANCH   4  20
ATOM     20  C   LIG d   1       6.167  -1.559  -3.414  0.00  0.00     0.003 A 
ATOM     21  C   LIG d   1       6.598  -0.238  -3.512  0.00  0.00    -0.051 A 
ATOM     22  C   LIG d   1       5.787   0.785  -3.064  0.00  0.00    -0.043 A 
ATOM     23  H   LIG d   1       7.563  -0.014  -3.943  0.00  0.00     0.062 H 
ATOM     24  C   LIG d   1       4.553   0.498  -2.506  0.00  0.00     0.041 A 
ATOM     25  H   LIG d   1       6.118   1.809  -3.144  0.00  0.00     0.063 H 
ATOM     26  C   LIG d   1       4.123  -0.814  -2.401  0.00  0.00    -0.043 A 
ATOM     27 CL   LIG d   1       3.541   1.788  -1.937  0.00  0.00    -0.084 Cl
ATOM     28  C   LIG d   1       4.924  -1.843  -2.852  0.00  0.00    -0.051 A 
ATOM     29  H   LIG d   1       3.159  -1.031  -1.964  0.00  0.00     0.063 H 
ATOM     30  H   LIG d   1       4.587  -2.865  -2.769  0.00  0.00     0.062 H 
ENDBRANCH   4  20
BRANCH   1  31
ATOM     31  C   LIG d   1       9.730  -4.967  -3.732  0.00  0.00     0.065 A 
ATOM     32  C   LIG d   1      11.002  -4.410  -3.769  0.00  0.00    -0.036 A 
ATOM     33  C   LIG d   1      12.101  -5.177  -3.437  0.00  0.00    -0.060 A 
ATOM     34  H   LIG d   1      11.130  -3.376  -4.057  0.00  0.00     0.064 H 
ATOM     35  C   LIG d   1      11.937  -6.500  -3.068  0.00  0.00    -0.062 A 
ATOM     36  H   LIG d   1      13.090  -4.744  -3.465  0.00  0.00     0.062 H 
ATOM     37  C   LIG d   1      10.672  -7.058  -3.030  0.00  0.00    -0.060 A 
ATOM     38  H   LIG d   1      12.798  -7.099  -2.813  0.00  0.00     0.062 H 
ATOM     39  C   LIG d   1       9.569  -6.297  -3.361  0.00  0.00    -0.036 A 
ATOM     40  H   LIG d   1      10.547  -8.091  -2.742  0.00  0.00     0.062 H 
ATOM     41  H   LIG d   1       8.581  -6.733  -3.332  0.00  0.00     0.064 H 
ENDBRANCH   1  31
TORSDOF 3
ENDMDL
MODEL 7
REMARK VINA RESULT:      -6.5      3.365      6.564
REMARK  3 active torsions:
REMARK  status: ('A' for Active; 'I' for Inactive)
REMARK    1  A    between atoms: C_4  and  N_7 
REMARK    2  A    between atoms: C_9  and  C_19 
REMARK    3  A    between atoms: C_10  and  C_12 
ROOT
ATOM      1  N   LIG d   1       9.730   2.223  -8.098  0.00  0.00    -0.238 N 
ATOM      2  C   LIG d   1       8.735   1.483  -7.569  0.00  0.00     0.044 A 
ATOM      3  C   LIG d   1       8.605   1.828  -6.252  0.00  0.00     0.083 A 
ATOM      4  C   LIG d   1       9.610   2.861  -5.989  0.00  0.00     0.105 A 
ATOM      5  N   LIG d   1      10.262   3.060  -7.113  0.00  0.00    -0.166 NA
ATOM      6  H   LIG d   1       8.144   0.746  -8.093  0.00  0.00     0.084 H 
ENDROOT
BRANCH   3   7
ATOM      7  C   LIG d   1       7.639   1.272  -5.286  0.00  0.00     0.232 A 
ATOM      8  O   LIG d   1       7.118   1.944  -4.241  0.00  0.00    -0.435 OA
ATOM      9  C   LIG d   1       6.273   1.114  -3.588  0.00  0.00     0.156 A 
ATOM     10  C   LIG d   1       6.305  -0.109  -4.276  0.00  0.00     0.111 A 
ATOM     11  C   LIG d   1       5.470   1.253  -2.466  0.00  0.00    -0.016 A 
ATOM     12  N   LIG d   1       7.166   0.051  -5.315  0.00  0.00    -0.209 NA
ATOM     13  C   LIG d   1       5.525  -1.176  -3.825  0.00  0.00    -0.014 A 
ATOM     14  C   LIG d   1       4.733  -1.020  -2.709  0.00  0.00     0.043 A 
ATOM     15  H   LIG d   1       5.543  -2.120  -4.349  0.00  0.00     0.065 H 
ATOM     16  C   LIG d   1       4.705   0.191  -2.032  0.00  0.00    -0.040 A 
ATOM     17 CL   LIG d   1       3.763  -2.345  -2.147  0.00  0.00    -0.084 Cl
ATOM     18  H   LIG d   1       4.081   0.302  -1.158  0.00  0.00     0.063 H 
ATOM     19  H   LIG d   1       5.444   2.193  -1.933  0.00  0.00     0.066 H 
ENDBRANCH   3   7
BRANCH   4  20
ATOM     20  C   LIG d   1       9.852   3.547  -4.696  0.00  0.00     0.003 A 
ATOM     21  C   LIG d   1      10.535   2.891  -3.674  0.00  0.00    -0.051 A 
ATOM     22  C   LIG d   1      10.763   3.536  -2.475  0.00  0.00    -0.043 A 
ATOM     23  H   LIG d   1      10.890   1.881  -3.820  0.00  0.00     0.062 H 
ATOM     24  C   LIG d   1      10.304   4.828  -2.284  0.00  0.00     0.041 A 
ATOM     25  H   LIG d   1      11.297   3.031  -1.684  0.00  0.00     0.063 H 
ATOM     26  C   LIG d   1       9.620   5.482  -3.294  0.00  0.00    -0.043 A 
ATOM     27 CL   LIG d   1      10.588   5.632  -0.772  0.00  0.00    -0.084 Cl
ATOM     28  C   LIG d   1       9.392   4.847  -4.499  0.00  0.00    -0.051 A 
ATOM     29  H   LIG d   1       9.263   6.489  -3.139  0.00  0.00     0.063 H 
ATOM     30  H   LIG d   1       8.858   5.359  -5.286  0.00  0.00     0.062 H 
ENDBRANCH   4  20
BRANCH   1  31
ATOM     31  C   LIG d   1      10.167   2.158  -9.427  0.00  0.00     0.065 A 
ATOM     32  C   LIG d   1       9.652   1.193 -10.282  0.00  0.00    -0.036 A 
ATOM     33  C   LIG d   1      10.083   1.132 -11.592  0.00  0.00    -0.060 A 
ATOM     34  H   LIG d   1       8.912   0.492  -9.923  0.00  0.00     0.064 H 
ATOM     35  C   LIG d   1      11.029   2.029 -12.053  0.00  0.00    -0.062 A 
ATOM     36  H   LIG d   1       9.683   0.381 -12.258  0.00  0.00     0.062 H 
ATOM     37  C   LIG d   1      11.545   2.991 -11.204  0.00  0.00    -0.060 A 
ATOM     38  H   LIG d   1      11.369   1.977 -13.077  0.00  0.00     0.062 H 
ATOM     39  C   LIG d   1      11.117   3.058  -9.893  0.00  0.00    -0.036 A 
ATOM     40  H   LIG d   1      12.283   3.691 -11.566  0.00  0.00     0.062 H 
ATOM     41  H   LIG d   1      11.520   3.810  -9.230  0.00  0.00     0.064 H 
ENDBRANCH   1  31
TORSDOF 3
ENDMDL
MODEL 8
REMARK VINA RESULT:      -6.4      5.910      9.867
REMARK  3 active torsions:
REMARK  status: ('A' for Active; 'I' for Inactive)
REMARK    1  A    between atoms: C_4  and  N_7 
REMARK    2  A    between atoms: C_9  and  C_19 
REMARK    3  A    between atoms: C_10  and  C_12 
ROOT
ATOM      1  N   LIG d   1       4.526  -6.369  -7.544  0.00  0.00    -0.238 N 
ATOM      2  C   LIG d   1       3.940  -5.305  -6.961  0.00  0.00     0.044 A 
ATOM      3  C   LIG d   1       4.828  -4.767  -6.071  0.00  0.00     0.083 A 
ATOM      4  C   LIG d   1       6.039  -5.588  -6.140  0.00  0.00     0.105 A 
ATOM      5  N   LIG d   1       5.814  -6.535  -7.025  0.00  0.00    -0.166 NA
ATOM      6  H   LIG d   1       2.944  -4.940  -7.161  0.00  0.00     0.084 H 
ENDROOT
BRANCH   3   7
ATOM      7  C   LIG d   1       4.610  -3.589  -5.210  0.00  0.00     0.232 A 
ATOM      8  O   LIG d   1       4.473  -3.627  -3.870  0.00  0.00    -0.435 OA
ATOM      9  C   LIG d   1       4.294  -2.360  -3.431  0.00  0.00     0.156 A 
ATOM     10  C   LIG d   1       4.316  -1.538  -4.568  0.00  0.00     0.111 A 
ATOM     11  C   LIG d   1       4.105  -1.799  -2.177  0.00  0.00    -0.016 A 
ATOM     12  N   LIG d   1       4.515  -2.354  -5.636  0.00  0.00    -0.209 NA
ATOM     13  C   LIG d   1       4.149  -0.158  -4.426  0.00  0.00    -0.014 A 
ATOM     14  C   LIG d   1       3.963   0.382  -3.173  0.00  0.00     0.043 A 
ATOM     15  H   LIG d   1       4.166   0.481  -5.296  0.00  0.00     0.065 H 
ATOM     16  C   LIG d   1       3.941  -0.435  -2.052  0.00  0.00    -0.040 A 
ATOM     17 CL   LIG d   1       3.756   2.096  -2.995  0.00  0.00    -0.084 Cl
ATOM     18  H   LIG d   1       3.794  -0.000  -1.075  0.00  0.00     0.063 H 
ATOM     19  H   LIG d   1       4.086  -2.429  -1.300  0.00  0.00     0.066 H 
ENDBRANCH   3   7
BRANCH   4  20
ATOM     20  C   LIG d   1       7.283  -5.393  -5.356  0.00  0.00     0.003 A 
ATOM     21  C   LIG d   1       7.727  -4.106  -5.057  0.00  0.00    -0.051 A 
ATOM     22  C   LIG d   1       8.881  -3.930  -4.321  0.00  0.00    -0.043 A 
ATOM     23  H   LIG d   1       7.166  -3.248  -5.397  0.00  0.00     0.062 H 
ATOM     24  C   LIG d   1       9.604  -5.029  -3.891  0.00  0.00     0.041 A 
ATOM     25  H   LIG d   1       9.223  -2.933  -4.086  0.00  0.00     0.063 H 
ATOM     26  C   LIG d   1       9.171  -6.310  -4.190  0.00  0.00    -0.043 A 
ATOM     27 CL   LIG d   1      11.059  -4.801  -2.972  0.00  0.00    -0.084 Cl
ATOM     28  C   LIG d   1       8.014  -6.496  -4.920  0.00  0.00    -0.051 A 
ATOM     29  H   LIG d   1       9.739  -7.163  -3.852  0.00  0.00     0.063 H 
ATOM     30  H   LIG d   1       7.678  -7.496  -5.152  0.00  0.00     0.062 H 
ENDBRANCH   4  20
BRANCH   1  31
ATOM     31  C   LIG d   1       3.935  -7.186  -8.515  0.00  0.00     0.065 A 
ATOM     32  C   LIG d   1       4.214  -8.546  -8.545  0.00  0.00    -0.036 A 
ATOM     33  C   LIG d   1       3.629  -9.350  -9.503  0.00  0.00    -0.060 A 
ATOM     34  H   LIG d   1       4.889  -8.975  -7.818  0.00  0.00     0.064 H 
ATOM     35  C   LIG d   1       2.765  -8.802 -10.433  0.00  0.00    -0.062 A 
ATOM     36  H   LIG d   1       3.847 -10.408  -9.526  0.00  0.00     0.062 H 
ATOM     37  C   LIG d   1       2.484  -7.448 -10.407  0.00  0.00    -0.060 A 
ATOM     38  H   LIG d   1       2.311  -9.432 -11.184  0.00  0.00     0.062 H 
ATOM     39  C   LIG d   1       3.066  -6.639  -9.451  0.00  0.00    -0.036 A 
ATOM     40  H   LIG d   1       1.809  -7.023 -11.134  0.00  0.00     0.062 H 
ATOM     41  H   LIG d   1       2.846  -5.582  -9.431  0.00  0.00     0.064 H 
ENDBRANCH   1  31
TORSDOF 3
ENDMDL
MODEL 9
REMARK VINA RESULT:      -6.4      1.884      5.249
REMARK  3 active torsions:
REMARK  status: ('A' for Active; 'I' for Inactive)
REMARK    1  A    between atoms: C_4  and  N_7 
REMARK    2  A    between atoms: C_9  and  C_19 
REMARK    3  A    between atoms: C_10  and  C_12 
ROOT
ATOM      1  N   LIG d   1      10.624   3.566  -4.611  0.00  0.00    -0.238 N 
ATOM      2  C   LIG d   1       9.689   3.106  -3.755  0.00  0.00     0.044 A 
ATOM      3  C   LIG d   1       8.841   2.290  -4.453  0.00  0.00     0.083 A 
ATOM      4  C   LIG d   1       9.322   2.271  -5.836  0.00  0.00     0.105 A 
ATOM      5  N   LIG d   1      10.382   3.049  -5.888  0.00  0.00    -0.166 NA
ATOM      6  H   LIG d   1       9.622   3.340  -2.704  0.00  0.00     0.084 H 
ENDROOT
BRANCH   3   7
ATOM      7  C   LIG d   1       7.672   1.569  -3.916  0.00  0.00     0.232 A 
ATOM      8  O   LIG d   1       6.594   2.154  -3.358  0.00  0.00    -0.435 OA
ATOM      9  C   LIG d   1       5.732   1.179  -2.990  0.00  0.00     0.156 A 
ATOM     10  C   LIG d   1       6.334  -0.039  -3.340  0.00  0.00     0.111 A 
ATOM     11  C   LIG d   1       4.485   1.182  -2.383  0.00  0.00    -0.016 A 
ATOM     12  N   LIG d   1       7.530   0.267  -3.908  0.00  0.00    -0.209 NA
ATOM     13  C   LIG d   1       5.672  -1.240  -3.074  0.00  0.00    -0.014 A 
ATOM     14  C   LIG d   1       4.435  -1.218  -2.471  0.00  0.00     0.043 A 
ATOM     15  H   LIG d   1       6.129  -2.181  -3.341  0.00  0.00     0.065 H 
ATOM     16  C   LIG d   1       3.842  -0.011  -2.126  0.00  0.00    -0.040 A 
ATOM     17 CL   LIG d   1       3.610  -2.709  -2.140  0.00  0.00    -0.084 Cl
ATOM     18  H   LIG d   1       2.872  -0.006  -1.653  0.00  0.00     0.063 H 
ATOM     19  H   LIG d   1       4.018   2.118  -2.111  0.00  0.00     0.066 H 
ENDBRANCH   3   7
BRANCH   4  20
ATOM     20  C   LIG d   1       8.724   1.521  -6.968  0.00  0.00     0.003 A 
ATOM     21  C   LIG d   1       7.831   2.153  -7.830  0.00  0.00    -0.051 A 
ATOM     22  C   LIG d   1       7.282   1.452  -8.885  0.00  0.00    -0.043 A 
ATOM     23  H   LIG d   1       7.571   3.190  -7.677  0.00  0.00     0.062 H 
ATOM     24  C   LIG d   1       7.609   0.122  -9.080  0.00  0.00     0.041 A 
ATOM     25  H   LIG d   1       6.593   1.942  -9.557  0.00  0.00     0.063 H 
ATOM     26  C   LIG d   1       8.492  -0.512  -8.222  0.00  0.00    -0.043 A 
ATOM     27 CL   LIG d   1       6.910  -0.756 -10.404  0.00  0.00    -0.084 Cl
ATOM     28  C   LIG d   1       9.051   0.181  -7.168  0.00  0.00    -0.051 A 
ATOM     29  H   LIG d   1       8.743  -1.551  -8.379  0.00  0.00     0.063 H 
ATOM     30  H   LIG d   1       9.739  -0.314  -6.500  0.00  0.00     0.062 H 
ENDBRANCH   4  20
BRANCH   1  31
ATOM     31  C   LIG d   1      11.671   4.432  -4.275  0.00  0.00     0.065 A 
ATOM     32  C   LIG d   1      11.751   5.688  -4.861  0.00  0.00    -0.036 A 
ATOM     33  C   LIG d   1      12.784   6.541  -4.527  0.00  0.00    -0.060 A 
ATOM     34  H   LIG d   1      11.004   5.999  -5.577  0.00  0.00     0.064 H 
ATOM     35  C   LIG d   1      13.741   6.145  -3.609  0.00  0.00    -0.062 A 
ATOM     36  H   LIG d   1      12.847   7.518  -4.982  0.00  0.00     0.062 H 
ATOM     37  C   LIG d   1      13.664   4.894  -3.023  0.00  0.00    -0.060 A 
ATOM     38  H   LIG d   1      14.551   6.812  -3.353  0.00  0.00     0.062 H 
ATOM     39  C   LIG d   1      12.633   4.037  -3.353  0.00  0.00    -0.036 A 
ATOM     40  H   LIG d   1      14.412   4.588  -2.307  0.00  0.00     0.062 H 
ATOM     41  H   LIG d   1      12.575   3.060  -2.895  0.00  0.00     0.064 H 
ENDBRANCH   1  31
TORSDOF 3
ENDMDL
