MODEL 1
REMARK VINA RESULT:      -6.0      0.000      0.000
REMARK  13 active torsions:
REMARK  status: ('A' for Active; 'I' for Inactive)
REMARK    1  A    between atoms: C_1  and  C_2 
REMARK    2  A    between atoms: C_2  and  C_3 
REMARK    3  A    between atoms: C_3  and  C_4 
REMARK    4  A    between atoms: C_13  and  O_16 
REMARK    5  A    between atoms: C_14  and  C_15 
REMARK    6  A    between atoms: O_16  and  C_17 
REMARK    7  A    between atoms: C_17  and  C_19 
REMARK    8  A    between atoms: C_19  and  N_20 
REMARK       I    between atoms: N_20  and  C_21 
REMARK    9  A    between atoms: C_21  and  O_23 
REMARK   10  A    between atoms: O_23  and  C_24 
REMARK   11  A    between atoms: C_24  and  C_25 
REMARK   12  A    between atoms: C_24  and  C_26 
REMARK   13  A    between atoms: C_24  and  C_27 
ROOT
ATOM      1  C   LIG d   1       5.711   0.309  -2.926  0.00  0.00    -0.030 A 
ATOM      2  C   LIG d   1       6.684   1.183  -3.291  0.00  0.00     0.027 A 
ATOM      3  C   LIG d   1       7.585   0.839  -4.319  0.00  0.00     0.338 A 
ATOM      4  O   LIG d   1       8.455   1.631  -4.636  0.00  0.00    -0.245 OA
ATOM      5  O   LIG d   1       7.511  -0.339  -4.957  0.00  0.00    -0.422 OA
ATOM      6  C   LIG d   1       6.567  -1.252  -4.644  0.00  0.00     0.146 A 
ATOM      7  C   LIG d   1       5.635  -0.975  -3.626  0.00  0.00     0.021 A 
ATOM      8  C   LIG d   1       4.655  -1.918  -3.298  0.00  0.00    -0.047 A 
ATOM      9  C   LIG d   1       4.606  -3.106  -3.968  0.00  0.00    -0.018 A 
ATOM     10  C   LIG d   1       5.526  -3.387  -4.976  0.00  0.00     0.138 A 
ATOM     11  C   LIG d   1       6.503  -2.465  -5.313  0.00  0.00     0.035 A 
ATOM     12  H   LIG d   1       6.769   2.138  -2.794  0.00  0.00     0.069 H 
ATOM     13  H   LIG d   1       3.939  -1.706  -2.517  0.00  0.00     0.063 H 
ATOM     14  H   LIG d   1       3.851  -3.836  -3.712  0.00  0.00     0.066 H 
ENDROOT
BRANCH  10  15
ATOM     15  O   LIG d   1       5.464  -4.573  -5.633  0.00  0.00    -0.424 OA
BRANCH  15  16
ATOM     16  C   LIG d   1       4.407  -4.771  -6.438  0.00  0.00     0.330 C 
ATOM     17  O   LIG d   1       3.509  -5.500  -6.088  0.00  0.00    -0.249 OA
BRANCH  16  18
ATOM     18  C   LIG d   1       4.341  -4.084  -7.777  0.00  0.00     0.113 C 
ATOM     19  H   LIG d   1       5.349  -3.835  -8.108  0.00  0.00     0.058 H 
ATOM     20  H   LIG d   1       3.874  -4.749  -8.504  0.00  0.00     0.058 H 
BRANCH  18  21
ATOM     21  N   LIG d   1       3.548  -2.857  -7.659  0.00  0.00    -0.271 N 
ATOM     22  C   LIG d   1       3.598  -1.927  -8.633  0.00  0.00     0.401 C 
ATOM     23  O   LIG d   1       4.299  -2.105  -9.609  0.00  0.00    -0.227 OA
ATOM     24  H   LIG d   1       2.988  -2.715  -6.880  0.00  0.00     0.153 HD
BRANCH  22  25
ATOM     25  O   LIG d   1       2.869  -0.800  -8.524  0.00  0.00    -0.445 OA
BRANCH  25  26
ATOM     26  C   LIG d   1       3.435   0.277  -7.732  0.00  0.00     0.107 C 
BRANCH  26  27
ATOM     27  C   LIG d   1       2.905   0.189  -6.299  0.00  0.00    -0.025 C 
ATOM     28  H   LIG d   1       3.740   0.057  -5.610  0.00  0.00     0.027 H 
ATOM     29  H   LIG d   1       2.373   1.107  -6.052  0.00  0.00     0.027 H 
ATOM     30  H   LIG d   1       2.227  -0.659  -6.214  0.00  0.00     0.027 H 
ENDBRANCH  26  27
BRANCH  26  31
ATOM     31  C   LIG d   1       4.961   0.154  -7.721  0.00  0.00    -0.025 C 
ATOM     32  H   LIG d   1       5.361   0.512  -8.669  0.00  0.00     0.027 H 
ATOM     33  H   LIG d   1       5.367   0.753  -6.905  0.00  0.00     0.027 H 
ATOM     34  H   LIG d   1       5.240  -0.890  -7.578  0.00  0.00     0.027 H 
ENDBRANCH  26  31
BRANCH  26  35
ATOM     35  C   LIG d   1       3.037   1.623  -8.341  0.00  0.00    -0.025 C 
ATOM     36  H   LIG d   1       2.960   2.371  -7.551  0.00  0.00     0.027 H 
ATOM     37  H   LIG d   1       3.792   1.933  -9.063  0.00  0.00     0.027 H 
ATOM     38  H   LIG d   1       2.073   1.525  -8.842  0.00  0.00     0.027 H 
ENDBRANCH  26  35
ENDBRANCH  25  26
ENDBRANCH  22  25
ENDBRANCH  18  21
ENDBRANCH  16  18
ENDBRANCH  15  16
ENDBRANCH  10  15
BRANCH  11  39
ATOM     39  C   LIG d   1       7.493  -2.778  -6.405  0.00  0.00    -0.033 C 
ATOM     40  H   LIG d   1       7.162  -2.320  -7.338  0.00  0.00     0.028 H 
ATOM     41  H   LIG d   1       8.471  -2.380  -6.134  0.00  0.00     0.028 H 
ATOM     42  H   LIG d   1       7.563  -3.857  -6.534  0.00  0.00     0.028 H 
ENDBRANCH  11  39
BRANCH   1  43
ATOM     43  C   LIG d   1       4.735   0.652  -1.829  0.00  0.00    -0.027 C 
ATOM     44  H   LIG d   1       4.684  -0.172  -1.117  0.00  0.00     0.031 H 
ATOM     45  H   LIG d   1       5.067   1.554  -1.317  0.00  0.00     0.031 H 
BRANCH  43  46
ATOM     46  C   LIG d   1       3.350   0.889  -2.434  0.00  0.00    -0.052 C 
ATOM     47  H   LIG d   1       3.068   0.032  -3.046  0.00  0.00     0.027 H 
ATOM     48  H   LIG d   1       2.621   1.018  -1.633  0.00  0.00     0.027 H 
BRANCH  46  49
ATOM     49  C   LIG d   1       3.381   2.148  -3.303  0.00  0.00    -0.065 C 
ATOM     50  H   LIG d   1       2.361   2.447  -3.544  0.00  0.00     0.023 H 
ATOM     51  H   LIG d   1       3.877   2.952  -2.759  0.00  0.00     0.023 H 
ATOM     52  H   LIG d   1       3.926   1.940  -4.224  0.00  0.00     0.023 H 
ENDBRANCH  46  49
ENDBRANCH  43  46
ENDBRANCH   1  43
TORSDOF 13
ENDMDL
MODEL 2
REMARK VINA RESULT:      -5.8      2.200      6.030
REMARK  13 active torsions:
REMARK  status: ('A' for Active; 'I' for Inactive)
REMARK    1  A    between atoms: C_1  and  C_2 
REMARK    2  A    between atoms: C_2  and  C_3 
REMARK    3  A    between atoms: C_3  and  C_4 
REMARK    4  A    between atoms: C_13  and  O_16 
REMARK    5  A    between atoms: C_14  and  C_15 
REMARK    6  A    between atoms: O_16  and  C_17 
REMARK    7  A    between atoms: C_17  and  C_19 
REMARK    8  A    between atoms: C_19  and  N_20 
REMARK       I    between atoms: N_20  and  C_21 
REMARK    9  A    between atoms: C_21  and  O_23 
REMARK   10  A    between atoms: O_23  and  C_24 
REMARK   11  A    between atoms: C_24  and  C_25 
REMARK   12  A    between atoms: C_24  and  C_26 
REMARK   13  A    between atoms: C_24  and  C_27 
ROOT
ATOM      1  C   LIG d   1       2.294  -0.016  -9.650  0.00  0.00    -0.030 A 
ATOM      2  C   LIG d   1       1.476  -0.275 -10.703  0.00  0.00     0.027 A 
ATOM      3  C   LIG d   1       1.299  -1.603 -11.143  0.00  0.00     0.338 A 
ATOM      4  O   LIG d   1       0.563  -1.821 -12.089  0.00  0.00    -0.245 OA
ATOM      5  O   LIG d   1       1.921  -2.632 -10.548  0.00  0.00    -0.422 OA
ATOM      6  C   LIG d   1       2.747  -2.444  -9.496  0.00  0.00     0.146 A 
ATOM      7  C   LIG d   1       2.969  -1.144  -9.005  0.00  0.00     0.021 A 
ATOM      8  C   LIG d   1       3.825  -0.945  -7.915  0.00  0.00    -0.047 A 
ATOM      9  C   LIG d   1       4.441  -2.014  -7.332  0.00  0.00    -0.018 A 
ATOM     10  C   LIG d   1       4.224  -3.303  -7.814  0.00  0.00     0.138 A 
ATOM     11  C   LIG d   1       3.382  -3.519  -8.892  0.00  0.00     0.035 A 
ATOM     12  H   LIG d   1       0.963   0.534 -11.201  0.00  0.00     0.069 H 
ATOM     13  H   LIG d   1       3.996   0.052  -7.536  0.00  0.00     0.063 H 
ATOM     14  H   LIG d   1       5.103  -1.860  -6.493  0.00  0.00     0.066 H 
ENDROOT
BRANCH  10  15
ATOM     15  O   LIG d   1       4.844  -4.356  -7.223  0.00  0.00    -0.424 OA
BRANCH  15  16
ATOM     16  C   LIG d   1       4.422  -4.703  -5.996  0.00  0.00     0.330 C 
ATOM     17  O   LIG d   1       3.443  -5.402  -5.868  0.00  0.00    -0.249 OA
BRANCH  16  18
ATOM     18  C   LIG d   1       5.166  -4.220  -4.778  0.00  0.00     0.113 C 
ATOM     19  H   LIG d   1       5.392  -5.067  -4.131  0.00  0.00     0.058 H 
ATOM     20  H   LIG d   1       6.094  -3.739  -5.086  0.00  0.00     0.058 H 
BRANCH  18  21
ATOM     21  N   LIG d   1       4.336  -3.257  -4.048  0.00  0.00    -0.271 N 
ATOM     22  C   LIG d   1       4.917  -2.298  -3.301  0.00  0.00     0.401 C 
ATOM     23  O   LIG d   1       6.128  -2.231  -3.231  0.00  0.00    -0.227 OA
ATOM     24  H   LIG d   1       3.369  -3.310  -4.104  0.00  0.00     0.153 HD
BRANCH  22  25
ATOM     25  O   LIG d   1       4.155  -1.413  -2.630  0.00  0.00    -0.445 OA
BRANCH  25  26
ATOM     26  C   LIG d   1       3.913  -0.133  -3.270  0.00  0.00     0.107 C 
BRANCH  26  27
ATOM     27  C   LIG d   1       2.558  -0.166  -3.981  0.00  0.00    -0.025 C 
ATOM     28  H   LIG d   1       1.954  -0.978  -3.575  0.00  0.00     0.027 H 
ATOM     29  H   LIG d   1       2.044   0.782  -3.825  0.00  0.00     0.027 H 
ATOM     30  H   LIG d   1       2.711  -0.326  -5.047  0.00  0.00     0.027 H 
ENDBRANCH  26  27
BRANCH  26  31
ATOM     31  C   LIG d   1       3.908   0.973  -2.212  0.00  0.00    -0.025 C 
ATOM     32  H   LIG d   1       4.820   0.912  -1.619  0.00  0.00     0.027 H 
ATOM     33  H   LIG d   1       3.857   1.944  -2.704  0.00  0.00     0.027 H 
ATOM     34  H   LIG d   1       3.042   0.849  -1.562  0.00  0.00     0.027 H 
ENDBRANCH  26  31
BRANCH  26  35
ATOM     35  C   LIG d   1       5.017   0.143  -4.291  0.00  0.00    -0.025 C 
ATOM     36  H   LIG d   1       5.975   0.228  -3.777  0.00  0.00     0.027 H 
ATOM     37  H   LIG d   1       5.062  -0.675  -5.010  0.00  0.00     0.027 H 
ATOM     38  H   LIG d   1       4.804   1.076  -4.815  0.00  0.00     0.027 H 
ENDBRANCH  26  35
ENDBRANCH  25  26
ENDBRANCH  22  25
ENDBRANCH  18  21
ENDBRANCH  16  18
ENDBRANCH  15  16
ENDBRANCH  10  15
BRANCH  11  39
ATOM     39  C   LIG d   1       3.154  -4.917  -9.407  0.00  0.00    -0.033 C 
ATOM     40  H   LIG d   1       2.234  -5.317  -8.978  0.00  0.00     0.028 H 
ATOM     41  H   LIG d   1       3.067  -4.895 -10.493  0.00  0.00     0.028 H 
ATOM     42  H   LIG d   1       3.993  -5.550  -9.121  0.00  0.00     0.028 H 
ENDBRANCH  11  39
BRANCH   1  43
ATOM     43  C   LIG d   1       2.501   1.393  -9.159  0.00  0.00    -0.027 C 
ATOM     44  H   LIG d   1       1.555   1.933  -9.193  0.00  0.00     0.031 H 
ATOM     45  H   LIG d   1       2.869   1.371  -8.133  0.00  0.00     0.031 H 
BRANCH  43  46
ATOM     46  C   LIG d   1       3.523   2.101 -10.051  0.00  0.00    -0.052 C 
ATOM     47  H   LIG d   1       3.841   1.425 -10.845  0.00  0.00     0.027 H 
ATOM     48  H   LIG d   1       3.068   2.988 -10.491  0.00  0.00     0.027 H 
BRANCH  46  49
ATOM     49  C   LIG d   1       4.735   2.510  -9.213  0.00  0.00    -0.065 C 
ATOM     50  H   LIG d   1       4.690   2.016  -8.243  0.00  0.00     0.023 H 
ATOM     51  H   LIG d   1       5.649   2.215  -9.729  0.00  0.00     0.023 H 
ATOM     52  H   LIG d   1       4.730   3.591  -9.071  0.00  0.00     0.023 H 
ENDBRANCH  46  49
ENDBRANCH  43  46
ENDBRANCH   1  43
TORSDOF 13
ENDMDL
MODEL 3
REMARK VINA RESULT:      -5.8      1.968      4.304
REMARK  13 active torsions:
REMARK  status: ('A' for Active; 'I' for Inactive)
REMARK    1  A    between atoms: C_1  and  C_2 
REMARK    2  A    between atoms: C_2  and  C_3 
REMARK    3  A    between atoms: C_3  and  C_4 
REMARK    4  A    between atoms: C_13  and  O_16 
REMARK    5  A    between atoms: C_14  and  C_15 
REMARK    6  A    between atoms: O_16  and  C_17 
REMARK    7  A    between atoms: C_17  and  C_19 
REMARK    8  A    between atoms: C_19  and  N_20 
REMARK       I    between atoms: N_20  and  C_21 
REMARK    9  A    between atoms: C_21  and  O_23 
REMARK   10  A    between atoms: O_23  and  C_24 
REMARK   11  A    between atoms: C_24  and  C_25 
REMARK   12  A    between atoms: C_24  and  C_26 
REMARK   13  A    between atoms: C_24  and  C_27 
ROOT
ATOM      1  C   LIG d   1       4.975  -1.521  -3.132  0.00  0.00    -0.030 A 
ATOM      2  C   LIG d   1       4.458  -2.729  -3.475  0.00  0.00     0.027 A 
ATOM      3  C   LIG d   1       4.966  -3.415  -4.598  0.00  0.00     0.338 A 
ATOM      4  O   LIG d   1       4.493  -4.498  -4.896  0.00  0.00    -0.245 OA
ATOM      5  O   LIG d   1       5.957  -2.907  -5.346  0.00  0.00    -0.422 OA
ATOM      6  C   LIG d   1       6.515  -1.711  -5.058  0.00  0.00     0.146 A 
ATOM      7  C   LIG d   1       6.056  -0.972  -3.952  0.00  0.00     0.021 A 
ATOM      8  C   LIG d   1       6.633   0.267  -3.651  0.00  0.00    -0.047 A 
ATOM      9  C   LIG d   1       7.639   0.755  -4.432  0.00  0.00    -0.018 A 
ATOM     10  C   LIG d   1       8.098   0.027  -5.528  0.00  0.00     0.138 A 
ATOM     11  C   LIG d   1       7.539  -1.200  -5.842  0.00  0.00     0.035 A 
ATOM     12  H   LIG d   1       3.659  -3.162  -2.892  0.00  0.00     0.069 H 
ATOM     13  H   LIG d   1       6.281   0.835  -2.802  0.00  0.00     0.063 H 
ATOM     14  H   LIG d   1       8.081   1.713  -4.201  0.00  0.00     0.066 H 
ENDROOT
BRANCH  10  15
ATOM     15  O   LIG d   1       9.101   0.526  -6.295  0.00  0.00    -0.424 OA
BRANCH  15  16
ATOM     16  C   LIG d   1       8.833   1.637  -7.003  0.00  0.00     0.330 C 
ATOM     17  O   LIG d   1       9.308   2.696  -6.666  0.00  0.00    -0.249 OA
BRANCH  16  18
ATOM     18  C   LIG d   1       7.942   1.562  -8.215  0.00  0.00     0.113 C 
ATOM     19  H   LIG d   1       8.106   2.438  -8.841  0.00  0.00     0.058 H 
ATOM     20  H   LIG d   1       8.174   0.661  -8.782  0.00  0.00     0.058 H 
BRANCH  18  21
ATOM     21  N   LIG d   1       6.540   1.521  -7.789  0.00  0.00    -0.271 N 
ATOM     22  C   LIG d   1       5.560   1.424  -8.707  0.00  0.00     0.401 C 
ATOM     23  O   LIG d   1       5.836   1.369  -9.889  0.00  0.00    -0.227 OA
ATOM     24  H   LIG d   1       6.319   1.565  -6.845  0.00  0.00     0.153 HD
BRANCH  22  25
ATOM     25  O   LIG d   1       4.271   1.387  -8.315  0.00  0.00    -0.445 OA
BRANCH  25  26
ATOM     26  C   LIG d   1       3.726   0.089  -7.962  0.00  0.00     0.107 C 
BRANCH  26  27
ATOM     27  C   LIG d   1       4.724  -1.005  -8.349  0.00  0.00    -0.025 C 
ATOM     28  H   LIG d   1       5.019  -0.876  -9.390  0.00  0.00     0.027 H 
ATOM     29  H   LIG d   1       5.604  -0.936  -7.711  0.00  0.00     0.027 H 
ATOM     30  H   LIG d   1       4.259  -1.982  -8.222  0.00  0.00     0.027 H 
ENDBRANCH  26  27
BRANCH  26  31
ATOM     31  C   LIG d   1       3.471   0.036  -6.454  0.00  0.00    -0.025 C 
ATOM     32  H   LIG d   1       4.344   0.418  -5.924  0.00  0.00     0.027 H 
ATOM     33  H   LIG d   1       2.602   0.648  -6.212  0.00  0.00     0.027 H 
ATOM     34  H   LIG d   1       3.285  -0.995  -6.153  0.00  0.00     0.027 H 
ENDBRANCH  26  31
BRANCH  26  35
ATOM     35  C   LIG d   1       2.411  -0.133  -8.710  0.00  0.00    -0.025 C 
ATOM     36  H   LIG d   1       2.370  -1.159  -9.077  0.00  0.00     0.027 H 
ATOM     37  H   LIG d   1       1.574   0.045  -8.035  0.00  0.00     0.027 H 
ATOM     38  H   LIG d   1       2.350   0.556  -9.553  0.00  0.00     0.027 H 
ENDBRANCH  26  35
ENDBRANCH  25  26
ENDBRANCH  22  25
ENDBRANCH  18  21
ENDBRANCH  16  18
ENDBRANCH  15  16
ENDBRANCH  10  15
BRANCH  11  39
ATOM     39  C   LIG d   1       8.043  -1.979  -7.030  0.00  0.00    -0.033 C 
ATOM     40  H   LIG d   1       8.498  -2.910  -6.688  0.00  0.00     0.028 H 
ATOM     41  H   LIG d   1       7.209  -2.207  -7.694  0.00  0.00     0.028 H 
ATOM     42  H   LIG d   1       8.784  -1.387  -7.565  0.00  0.00     0.028 H 
ENDBRANCH  11  39
BRANCH   1  43
ATOM     43  C   LIG d   1       4.450  -0.767  -1.937  0.00  0.00    -0.027 C 
ATOM     44  H   LIG d   1       4.174  -1.472  -1.154  0.00  0.00     0.031 H 
ATOM     45  H   LIG d   1       5.222  -0.094  -1.564  0.00  0.00     0.031 H 
BRANCH  43  46
ATOM     46  C   LIG d   1       3.220   0.047  -2.346  0.00  0.00    -0.052 C 
ATOM     47  H   LIG d   1       2.843  -0.321  -3.301  0.00  0.00     0.027 H 
ATOM     48  H   LIG d   1       2.446  -0.058  -1.586  0.00  0.00     0.027 H 
BRANCH  46  49
ATOM     49  C   LIG d   1       3.606   1.521  -2.483  0.00  0.00    -0.065 C 
ATOM     50  H   LIG d   1       3.901   1.724  -3.512  0.00  0.00     0.023 H 
ATOM     51  H   LIG d   1       2.752   2.145  -2.220  0.00  0.00     0.023 H 
ATOM     52  H   LIG d   1       4.439   1.742  -1.815  0.00  0.00     0.023 H 
ENDBRANCH  46  49
ENDBRANCH  43  46
ENDBRANCH   1  43
TORSDOF 13
ENDMDL
MODEL 4
REMARK VINA RESULT:      -5.7      2.459      6.007
REMARK  13 active torsions:
REMARK  status: ('A' for Active; 'I' for Inactive)
REMARK    1  A    between atoms: C_1  and  C_2 
REMARK    2  A    between atoms: C_2  and  C_3 
REMARK    3  A    between atoms: C_3  and  C_4 
REMARK    4  A    between atoms: C_13  and  O_16 
REMARK    5  A    between atoms: C_14  and  C_15 
REMARK    6  A    between atoms: O_16  and  C_17 
REMARK    7  A    between atoms: C_17  and  C_19 
REMARK    8  A    between atoms: C_19  and  N_20 
REMARK       I    between atoms: N_20  and  C_21 
REMARK    9  A    between atoms: C_21  and  O_23 
REMARK   10  A    between atoms: O_23  and  C_24 
REMARK   11  A    between atoms: C_24  and  C_25 
REMARK   12  A    between atoms: C_24  and  C_26 
REMARK   13  A    between atoms: C_24  and  C_27 
ROOT
ATOM      1  C   LIG d   1       3.577  -0.448  -8.745  0.00  0.00    -0.030 A 
ATOM      2  C   LIG d   1       4.352  -1.379  -9.360  0.00  0.00     0.027 A 
ATOM      3  C   LIG d   1       5.075  -2.310  -8.587  0.00  0.00     0.338 A 
ATOM      4  O   LIG d   1       5.767  -3.139  -9.151  0.00  0.00    -0.245 OA
ATOM      5  O   LIG d   1       5.021  -2.308  -7.247  0.00  0.00    -0.422 OA
ATOM      6  C   LIG d   1       4.269  -1.410  -6.573  0.00  0.00     0.146 A 
ATOM      7  C   LIG d   1       3.522  -0.451  -7.282  0.00  0.00     0.021 A 
ATOM      8  C   LIG d   1       2.742   0.481  -6.588  0.00  0.00    -0.047 A 
ATOM      9  C   LIG d   1       2.708   0.456  -5.224  0.00  0.00    -0.018 A 
ATOM     10  C   LIG d   1       3.446  -0.492  -4.517  0.00  0.00     0.138 A 
ATOM     11  C   LIG d   1       4.224  -1.421  -5.187  0.00  0.00     0.035 A 
ATOM     12  H   LIG d   1       4.415  -1.405 -10.438  0.00  0.00     0.069 H 
ATOM     13  H   LIG d   1       2.167   1.218  -7.132  0.00  0.00     0.063 H 
ATOM     14  H   LIG d   1       2.108   1.178  -4.689  0.00  0.00     0.066 H 
ENDROOT
BRANCH  10  15
ATOM     15  O   LIG d   1       3.401  -0.503  -3.160  0.00  0.00    -0.424 OA
BRANCH  15  16
ATOM     16  C   LIG d   1       3.968   0.534  -2.522  0.00  0.00     0.330 C 
ATOM     17  O   LIG d   1       3.276   1.423  -2.082  0.00  0.00    -0.249 OA
BRANCH  16  18
ATOM     18  C   LIG d   1       5.464   0.592  -2.356  0.00  0.00     0.113 C 
ATOM     19  H   LIG d   1       5.705   1.029  -1.387  0.00  0.00     0.058 H 
ATOM     20  H   LIG d   1       5.875  -0.416  -2.412  0.00  0.00     0.058 H 
BRANCH  18  21
ATOM     21  N   LIG d   1       6.043   1.414  -3.421  0.00  0.00    -0.271 N 
ATOM     22  C   LIG d   1       7.071   0.943  -4.153  0.00  0.00     0.401 C 
ATOM     23  O   LIG d   1       7.518  -0.165  -3.931  0.00  0.00    -0.227 OA
ATOM     24  H   LIG d   1       5.686   2.298  -3.599  0.00  0.00     0.153 HD
BRANCH  22  25
ATOM     25  O   LIG d   1       7.603   1.699  -5.132  0.00  0.00    -0.445 OA
BRANCH  25  26
ATOM     26  C   LIG d   1       8.978   2.131  -4.958  0.00  0.00     0.107 C 
BRANCH  26  27
ATOM     27  C   LIG d   1       9.201   2.549  -3.503  0.00  0.00    -0.025 C 
ATOM     28  H   LIG d   1      10.271   2.631  -3.308  0.00  0.00     0.027 H 
ATOM     29  H   LIG d   1       8.725   3.513  -3.325  0.00  0.00     0.027 H 
ATOM     30  H   LIG d   1       8.768   1.801  -2.839  0.00  0.00     0.027 H 
ENDBRANCH  26  27
BRANCH  26  31
ATOM     31  C   LIG d   1       9.923   0.979  -5.308  0.00  0.00    -0.025 C 
ATOM     32  H   LIG d   1      10.161   0.417  -4.405  0.00  0.00     0.027 H 
ATOM     33  H   LIG d   1       9.440   0.320  -6.030  0.00  0.00     0.027 H 
ATOM     34  H   LIG d   1      10.840   1.380  -5.740  0.00  0.00     0.027 H 
ENDBRANCH  26  31
BRANCH  26  35
ATOM     35  C   LIG d   1       9.261   3.319  -5.878  0.00  0.00    -0.025 C 
ATOM     36  H   LIG d   1       9.594   4.170  -5.282  0.00  0.00     0.027 H 
ATOM     37  H   LIG d   1      10.039   3.050  -6.593  0.00  0.00     0.027 H 
ATOM     38  H   LIG d   1       8.351   3.588  -6.416  0.00  0.00     0.027 H 
ENDBRANCH  26  35
ENDBRANCH  25  26
ENDBRANCH  22  25
ENDBRANCH  18  21
ENDBRANCH  16  18
ENDBRANCH  15  16
ENDBRANCH  10  15
BRANCH  11  39
ATOM     39  C   LIG d   1       5.018  -2.441  -4.413  0.00  0.00    -0.033 C 
ATOM     40  H   LIG d   1       5.605  -1.938  -3.644  0.00  0.00     0.028 H 
ATOM     41  H   LIG d   1       4.337  -3.151  -3.943  0.00  0.00     0.028 H 
ATOM     42  H   LIG d   1       5.685  -2.972  -5.091  0.00  0.00     0.028 H 
ENDBRANCH  11  39
BRANCH   1  43
ATOM     43  C   LIG d   1       2.794   0.559  -9.548  0.00  0.00    -0.027 C 
ATOM     44  H   LIG d   1       2.204   0.042 -10.305  0.00  0.00     0.031 H 
ATOM     45  H   LIG d   1       2.129   1.113  -8.886  0.00  0.00     0.031 H 
BRANCH  43  46
ATOM     46  C   LIG d   1       3.759   1.530 -10.231  0.00  0.00    -0.052 C 
ATOM     47  H   LIG d   1       4.696   1.018 -10.450  0.00  0.00     0.027 H 
ATOM     48  H   LIG d   1       3.316   1.888 -11.160  0.00  0.00     0.027 H 
BRANCH  46  49
ATOM     49  C   LIG d   1       4.031   2.716  -9.304  0.00  0.00    -0.065 C 
ATOM     50  H   LIG d   1       3.152   3.360  -9.272  0.00  0.00     0.023 H 
ATOM     51  H   LIG d   1       4.249   2.350  -8.300  0.00  0.00     0.023 H 
ATOM     52  H   LIG d   1       4.883   3.283  -9.679  0.00  0.00     0.023 H 
ENDBRANCH  46  49
ENDBRANCH  43  46
ENDBRANCH   1  43
TORSDOF 13
ENDMDL
MODEL 5
REMARK VINA RESULT:      -5.7      5.415      8.056
REMARK  13 active torsions:
REMARK  status: ('A' for Active; 'I' for Inactive)
REMARK    1  A    between atoms: C_1  and  C_2 
REMARK    2  A    between atoms: C_2  and  C_3 
REMARK    3  A    between atoms: C_3  and  C_4 
REMARK    4  A    between atoms: C_13  and  O_16 
REMARK    5  A    between atoms: C_14  and  C_15 
REMARK    6  A    between atoms: O_16  and  C_17 
REMARK    7  A    between atoms: C_17  and  C_19 
REMARK    8  A    between atoms: C_19  and  N_20 
REMARK       I    between atoms: N_20  and  C_21 
REMARK    9  A    between atoms: C_21  and  O_23 
REMARK   10  A    between atoms: O_23  and  C_24 
REMARK   11  A    between atoms: C_24  and  C_25 
REMARK   12  A    between atoms: C_24  and  C_26 
REMARK   13  A    between atoms: C_24  and  C_27 
ROOT
ATOM      1  C   LIG d   1       9.875   7.492  -1.368  0.00  0.00    -0.030 A 
ATOM      2  C   LIG d   1      10.528   7.324  -0.188  0.00  0.00     0.027 A 
ATOM      3  C   LIG d   1      11.144   6.089   0.102  0.00  0.00     0.338 A 
ATOM      4  O   LIG d   1      11.724   5.951   1.164  0.00  0.00    -0.245 OA
ATOM      5  O   LIG d   1      11.106   5.062  -0.760  0.00  0.00    -0.422 OA
ATOM      6  C   LIG d   1      10.475   5.163  -1.950  0.00  0.00     0.146 A 
ATOM      7  C   LIG d   1       9.839   6.367  -2.304  0.00  0.00     0.021 A 
ATOM      8  C   LIG d   1       9.184   6.476  -3.537  0.00  0.00    -0.047 A 
ATOM      9  C   LIG d   1       9.165   5.412  -4.391  0.00  0.00    -0.018 A 
ATOM     10  C   LIG d   1       9.794   4.218  -4.045  0.00  0.00     0.138 A 
ATOM     11  C   LIG d   1      10.446   4.092  -2.830  0.00  0.00     0.035 A 
ATOM     12  H   LIG d   1      10.573   8.133   0.526  0.00  0.00     0.069 H 
ATOM     13  H   LIG d   1       8.695   7.400  -3.810  0.00  0.00     0.063 H 
ATOM     14  H   LIG d   1       8.656   5.496  -5.341  0.00  0.00     0.066 H 
ENDROOT
BRANCH  10  15
ATOM     15  O   LIG d   1       9.767   3.169  -4.907  0.00  0.00    -0.424 OA
BRANCH  15  16
ATOM     16  C   LIG d   1       8.627   2.462  -4.971  0.00  0.00     0.330 C 
ATOM     17  O   LIG d   1       8.018   2.390  -6.014  0.00  0.00    -0.249 OA
BRANCH  16  18
ATOM     18  C   LIG d   1       8.105   1.759  -3.745  0.00  0.00     0.113 C 
ATOM     19  H   LIG d   1       8.692   0.857  -3.566  0.00  0.00     0.058 H 
ATOM     20  H   LIG d   1       8.186   2.422  -2.884  0.00  0.00     0.058 H 
BRANCH  18  21
ATOM     21  N   LIG d   1       6.701   1.394  -3.950  0.00  0.00    -0.271 N 
ATOM     22  C   LIG d   1       6.290   0.135  -3.705  0.00  0.00     0.401 C 
ATOM     23  O   LIG d   1       7.083  -0.699  -3.314  0.00  0.00    -0.227 OA
ATOM     24  H   LIG d   1       6.068   2.059  -4.262  0.00  0.00     0.153 HD
BRANCH  22  25
ATOM     25  O   LIG d   1       4.999  -0.201  -3.894  0.00  0.00    -0.445 OA
BRANCH  25  26
ATOM     26  C   LIG d   1       4.160  -0.285  -2.712  0.00  0.00     0.107 C 
BRANCH  26  27
ATOM     27  C   LIG d   1       4.510   0.857  -1.756  0.00  0.00    -0.025 C 
ATOM     28  H   LIG d   1       3.624   1.137  -1.185  0.00  0.00     0.027 H 
ATOM     29  H   LIG d   1       5.294   0.531  -1.073  0.00  0.00     0.027 H 
ATOM     30  H   LIG d   1       4.860   1.716  -2.328  0.00  0.00     0.027 H 
ENDBRANCH  26  27
BRANCH  26  31
ATOM     31  C   LIG d   1       2.690  -0.176  -3.122  0.00  0.00    -0.025 C 
ATOM     32  H   LIG d   1       2.235  -1.166  -3.110  0.00  0.00     0.027 H 
ATOM     33  H   LIG d   1       2.165   0.474  -2.421  0.00  0.00     0.027 H 
ATOM     34  H   LIG d   1       2.623   0.244  -4.126  0.00  0.00     0.027 H 
ENDBRANCH  26  31
BRANCH  26  35
ATOM     35  C   LIG d   1       4.396  -1.625  -2.013  0.00  0.00    -0.025 C 
ATOM     36  H   LIG d   1       3.727  -2.377  -2.433  0.00  0.00     0.027 H 
ATOM     37  H   LIG d   1       5.430  -1.936  -2.162  0.00  0.00     0.027 H 
ATOM     38  H   LIG d   1       4.198  -1.520  -0.946  0.00  0.00     0.027 H 
ENDBRANCH  26  35
ENDBRANCH  25  26
ENDBRANCH  22  25
ENDBRANCH  18  21
ENDBRANCH  16  18
ENDBRANCH  15  16
ENDBRANCH  10  15
BRANCH  11  39
ATOM     39  C   LIG d   1      11.123   2.796  -2.466  0.00  0.00    -0.033 C 
ATOM     40  H   LIG d   1      10.975   2.071  -3.267  0.00  0.00     0.028 H 
ATOM     41  H   LIG d   1      12.190   2.970  -2.328  0.00  0.00     0.028 H 
ATOM     42  H   LIG d   1      10.695   2.410  -1.542  0.00  0.00     0.028 H 
ENDBRANCH  11  39
BRANCH   1  43
ATOM     43  C   LIG d   1       9.208   8.801  -1.703  0.00  0.00    -0.027 C 
ATOM     44  H   LIG d   1       9.722   9.266  -2.545  0.00  0.00     0.031 H 
ATOM     45  H   LIG d   1       8.167   8.621  -1.968  0.00  0.00     0.031 H 
BRANCH  43  46
ATOM     46  C   LIG d   1       9.272   9.733  -0.491  0.00  0.00    -0.052 C 
ATOM     47  H   LIG d   1       8.290  10.176  -0.321  0.00  0.00     0.027 H 
ATOM     48  H   LIG d   1       9.570   9.163   0.389  0.00  0.00     0.027 H 
BRANCH  46  49
ATOM     49  C   LIG d   1      10.294  10.841  -0.752  0.00  0.00    -0.065 C 
ATOM     50  H   LIG d   1      10.169  11.630  -0.011  0.00  0.00     0.023 H 
ATOM     51  H   LIG d   1      11.301  10.430  -0.679  0.00  0.00     0.023 H 
ATOM     52  H   LIG d   1      10.138  11.251  -1.750  0.00  0.00     0.023 H 
ENDBRANCH  46  49
ENDBRANCH  43  46
ENDBRANCH   1  43
TORSDOF 13
ENDMDL
MODEL 6
REMARK VINA RESULT:      -5.6      2.255      4.772
REMARK  13 active torsions:
REMARK  status: ('A' for Active; 'I' for Inactive)
REMARK    1  A    between atoms: C_1  and  C_2 
REMARK    2  A    between atoms: C_2  and  C_3 
REMARK    3  A    between atoms: C_3  and  C_4 
REMARK    4  A    between atoms: C_13  and  O_16 
REMARK    5  A    between atoms: C_14  and  C_15 
REMARK    6  A    between atoms: O_16  and  C_17 
REMARK    7  A    between atoms: C_17  and  C_19 
REMARK    8  A    between atoms: C_19  and  N_20 
REMARK       I    between atoms: N_20  and  C_21 
REMARK    9  A    between atoms: C_21  and  O_23 
REMARK   10  A    between atoms: O_23  and  C_24 
REMARK   11  A    between atoms: C_24  and  C_25 
REMARK   12  A    between atoms: C_24  and  C_26 
REMARK   13  A    between atoms: C_24  and  C_27 
ROOT
ATOM      1  C   LIG d   1       4.234  -1.744  -3.815  0.00  0.00    -0.030 A 
ATOM      2  C   LIG d   1       5.113  -2.775  -3.720  0.00  0.00     0.027 A 
ATOM      3  C   LIG d   1       5.704  -3.302  -4.886  0.00  0.00     0.338 A 
ATOM      4  O   LIG d   1       6.490  -4.227  -4.787  0.00  0.00    -0.245 OA
ATOM      5  O   LIG d   1       5.423  -2.812  -6.103  0.00  0.00    -0.422 OA
ATOM      6  C   LIG d   1       4.558  -1.788  -6.268  0.00  0.00     0.146 A 
ATOM      7  C   LIG d   1       3.931  -1.213  -5.146  0.00  0.00     0.021 A 
ATOM      8  C   LIG d   1       3.034  -0.152  -5.313  0.00  0.00    -0.047 A 
ATOM      9  C   LIG d   1       2.771   0.324  -6.564  0.00  0.00    -0.018 A 
ATOM     10  C   LIG d   1       3.389  -0.241  -7.678  0.00  0.00     0.138 A 
ATOM     11  C   LIG d   1       4.278  -1.292  -7.533  0.00  0.00     0.035 A 
ATOM     12  H   LIG d   1       5.358  -3.190  -2.753  0.00  0.00     0.069 H 
ATOM     13  H   LIG d   1       2.553   0.290  -4.452  0.00  0.00     0.063 H 
ATOM     14  H   LIG d   1       2.076   1.141  -6.692  0.00  0.00     0.066 H 
ENDROOT
BRANCH  10  15
ATOM     15  O   LIG d   1       3.116   0.244  -8.917  0.00  0.00    -0.424 OA
BRANCH  15  16
ATOM     16  C   LIG d   1       3.558   1.481  -9.199  0.00  0.00     0.330 C 
ATOM     17  O   LIG d   1       2.805   2.424  -9.119  0.00  0.00    -0.249 OA
BRANCH  16  18
ATOM     18  C   LIG d   1       4.990   1.694  -9.615  0.00  0.00     0.113 C 
ATOM     19  H   LIG d   1       5.321   0.851 -10.221  0.00  0.00     0.058 H 
ATOM     20  H   LIG d   1       5.067   2.612 -10.196  0.00  0.00     0.058 H 
BRANCH  18  21
ATOM     21  N   LIG d   1       5.836   1.800  -8.423  0.00  0.00    -0.271 N 
ATOM     22  C   LIG d   1       7.175   1.853  -8.550  0.00  0.00     0.401 C 
ATOM     23  O   LIG d   1       7.684   1.815  -9.653  0.00  0.00    -0.227 OA
ATOM     24  H   LIG d   1       5.430   1.831  -7.542  0.00  0.00     0.153 HD
BRANCH  22  25
ATOM     25  O   LIG d   1       7.952   1.950  -7.454  0.00  0.00    -0.445 OA
BRANCH  25  26
ATOM     26  C   LIG d   1       8.271   0.715  -6.760  0.00  0.00     0.107 C 
BRANCH  26  27
ATOM     27  C   LIG d   1       7.277   0.500  -5.618  0.00  0.00    -0.025 C 
ATOM     28  H   LIG d   1       7.175  -0.567  -5.420  0.00  0.00     0.027 H 
ATOM     29  H   LIG d   1       7.640   1.003  -4.721  0.00  0.00     0.027 H 
ATOM     30  H   LIG d   1       6.307   0.911  -5.897  0.00  0.00     0.027 H 
ENDBRANCH  26  27
BRANCH  26  31
ATOM     31  C   LIG d   1       8.184  -0.457  -7.740  0.00  0.00    -0.025 C 
ATOM     32  H   LIG d   1       9.107  -1.034  -7.699  0.00  0.00     0.027 H 
ATOM     33  H   LIG d   1       7.343  -1.095  -7.469  0.00  0.00     0.027 H 
ATOM     34  H   LIG d   1       8.038  -0.075  -8.751  0.00  0.00     0.027 H 
ENDBRANCH  26  31
BRANCH  26  35
ATOM     35  C   LIG d   1       9.689   0.800  -6.193  0.00  0.00    -0.025 C 
ATOM     36  H   LIG d   1       9.641   1.029  -5.127  0.00  0.00     0.027 H 
ATOM     37  H   LIG d   1      10.197  -0.153  -6.337  0.00  0.00     0.027 H 
ATOM     38  H   LIG d   1      10.241   1.588  -6.708  0.00  0.00     0.027 H 
ENDBRANCH  26  35
ENDBRANCH  25  26
ENDBRANCH  22  25
ENDBRANCH  18  21
ENDBRANCH  16  18
ENDBRANCH  15  16
ENDBRANCH  10  15
BRANCH  11  39
ATOM     39  C   LIG d   1       4.941  -1.896  -8.744  0.00  0.00    -0.033 C 
ATOM     40  H   LIG d   1       4.239  -1.899  -9.579  0.00  0.00     0.028 H 
ATOM     41  H   LIG d   1       5.818  -1.304  -9.010  0.00  0.00     0.028 H 
ATOM     42  H   LIG d   1       5.246  -2.917  -8.520  0.00  0.00     0.028 H 
ENDBRANCH  11  39
BRANCH   1  43
ATOM     43  C   LIG d   1       3.587  -1.162  -2.585  0.00  0.00    -0.027 C 
ATOM     44  H   LIG d   1       2.717  -0.573  -2.874  0.00  0.00     0.031 H 
ATOM     45  H   LIG d   1       3.275  -1.969  -1.922  0.00  0.00     0.031 H 
BRANCH  43  46
ATOM     46  C   LIG d   1       4.590  -0.264  -1.857  0.00  0.00    -0.052 C 
ATOM     47  H   LIG d   1       4.618  -0.533  -0.800  0.00  0.00     0.027 H 
ATOM     48  H   LIG d   1       5.580  -0.399  -2.291  0.00  0.00     0.027 H 
BRANCH  46  49
ATOM     49  C   LIG d   1       4.164   1.198  -2.000  0.00  0.00    -0.065 C 
ATOM     50  H   LIG d   1       3.153   1.243  -2.404  0.00  0.00     0.023 H 
ATOM     51  H   LIG d   1       4.185   1.680  -1.022  0.00  0.00     0.023 H 
ATOM     52  H   LIG d   1       4.849   1.712  -2.675  0.00  0.00     0.023 H 
ENDBRANCH  46  49
ENDBRANCH  43  46
ENDBRANCH   1  43
TORSDOF 13
ENDMDL
MODEL 7
REMARK VINA RESULT:      -5.5      2.206      4.529
REMARK  13 active torsions:
REMARK  status: ('A' for Active; 'I' for Inactive)
REMARK    1  A    between atoms: C_1  and  C_2 
REMARK    2  A    between atoms: C_2  and  C_3 
REMARK    3  A    between atoms: C_3  and  C_4 
REMARK    4  A    between atoms: C_13  and  O_16 
REMARK    5  A    between atoms: C_14  and  C_15 
REMARK    6  A    between atoms: O_16  and  C_17 
REMARK    7  A    between atoms: C_17  and  C_19 
REMARK    8  A    between atoms: C_19  and  N_20 
REMARK       I    between atoms: N_20  and  C_21 
REMARK    9  A    between atoms: C_21  and  O_23 
REMARK   10  A    between atoms: O_23  and  C_24 
REMARK   11  A    between atoms: C_24  and  C_25 
REMARK   12  A    between atoms: C_24  and  C_26 
REMARK   13  A    between atoms: C_24  and  C_27 
ROOT
ATOM      1  C   LIG d   1       3.341  -0.322  -4.469  0.00  0.00    -0.030 A 
ATOM      2  C   LIG d   1       2.791   0.363  -5.505  0.00  0.00     0.027 A 
ATOM      3  C   LIG d   1       3.239   0.123  -6.821  0.00  0.00     0.338 A 
ATOM      4  O   LIG d   1       2.738   0.745  -7.741  0.00  0.00    -0.245 OA
ATOM      5  O   LIG d   1       4.204  -0.771  -7.085  0.00  0.00    -0.422 OA
ATOM      6  C   LIG d   1       4.792  -1.485  -6.101  0.00  0.00     0.146 A 
ATOM      7  C   LIG d   1       4.393  -1.297  -4.765  0.00  0.00     0.021 A 
ATOM      8  C   LIG d   1       5.000  -2.035  -3.743  0.00  0.00    -0.047 A 
ATOM      9  C   LIG d   1       5.978  -2.937  -4.046  0.00  0.00    -0.018 A 
ATOM     10  C   LIG d   1       6.376  -3.129  -5.368  0.00  0.00     0.138 A 
ATOM     11  C   LIG d   1       5.787  -2.406  -6.392  0.00  0.00     0.035 A 
ATOM     12  H   LIG d   1       2.013   1.090  -5.322  0.00  0.00     0.069 H 
ATOM     13  H   LIG d   1       4.695  -1.891  -2.716  0.00  0.00     0.063 H 
ATOM     14  H   LIG d   1       6.448  -3.505  -3.256  0.00  0.00     0.066 H 
ENDROOT
BRANCH  10  15
ATOM     15  O   LIG d   1       7.350  -4.031  -5.653  0.00  0.00    -0.424 OA
BRANCH  15  16
ATOM     16  C   LIG d   1       8.501  -3.923  -4.970  0.00  0.00     0.330 C 
ATOM     17  O   LIG d   1       8.677  -4.585  -3.974  0.00  0.00    -0.249 OA
BRANCH  16  18
ATOM     18  C   LIG d   1       9.573  -2.976  -5.443  0.00  0.00     0.113 C 
ATOM     19  H   LIG d   1      10.553  -3.387  -5.201  0.00  0.00     0.058 H 
ATOM     20  H   LIG d   1       9.490  -2.843  -6.522  0.00  0.00     0.058 H 
BRANCH  18  21
ATOM     21  N   LIG d   1       9.409  -1.680  -4.778  0.00  0.00    -0.271 N 
ATOM     22  C   LIG d   1       9.745  -0.546  -5.422  0.00  0.00     0.401 C 
ATOM     23  O   LIG d   1      10.184  -0.596  -6.554  0.00  0.00    -0.227 OA
ATOM     24  H   LIG d   1       9.059  -1.640  -3.875  0.00  0.00     0.153 HD
BRANCH  22  25
ATOM     25  O   LIG d   1       9.595   0.645  -4.811  0.00  0.00    -0.445 OA
BRANCH  25  26
ATOM     26  C   LIG d   1       8.301   1.292  -4.937  0.00  0.00     0.107 C 
BRANCH  26  27
ATOM     27  C   LIG d   1       7.676   0.924  -6.284  0.00  0.00    -0.025 C 
ATOM     28  H   LIG d   1       8.386   0.335  -6.865  0.00  0.00     0.027 H 
ATOM     29  H   LIG d   1       6.771   0.341  -6.117  0.00  0.00     0.027 H 
ATOM     30  H   LIG d   1       7.427   1.834  -6.829  0.00  0.00     0.027 H 
ENDBRANCH  26  27
BRANCH  26  31
ATOM     31  C   LIG d   1       7.385   0.824  -3.804  0.00  0.00    -0.025 C 
ATOM     32  H   LIG d   1       7.979   0.328  -3.037  0.00  0.00     0.027 H 
ATOM     33  H   LIG d   1       6.876   1.684  -3.370  0.00  0.00     0.027 H 
ATOM     34  H   LIG d   1       6.646   0.126  -4.199  0.00  0.00     0.027 H 
ENDBRANCH  26  31
BRANCH  26  35
ATOM     35  C   LIG d   1       8.479   2.809  -4.854  0.00  0.00    -0.025 C 
ATOM     36  H   LIG d   1       9.294   3.116  -5.511  0.00  0.00     0.027 H 
ATOM     37  H   LIG d   1       7.558   3.301  -5.164  0.00  0.00     0.027 H 
ATOM     38  H   LIG d   1       8.716   3.093  -3.828  0.00  0.00     0.027 H 
ENDBRANCH  26  35
ENDBRANCH  25  26
ENDBRANCH  22  25
ENDBRANCH  18  21
ENDBRANCH  16  18
ENDBRANCH  15  16
ENDBRANCH  10  15
BRANCH  11  39
ATOM     39  C   LIG d   1       6.225  -2.621  -7.818  0.00  0.00    -0.033 C 
ATOM     40  H   LIG d   1       5.619  -3.407  -8.270  0.00  0.00     0.028 H 
ATOM     41  H   LIG d   1       6.097  -1.696  -8.380  0.00  0.00     0.028 H 
ATOM     42  H   LIG d   1       7.274  -2.915  -7.835  0.00  0.00     0.028 H 
ENDBRANCH  11  39
BRANCH   1  43
ATOM     43  C   LIG d   1       2.881  -0.085  -3.054  0.00  0.00    -0.027 C 
ATOM     44  H   LIG d   1       1.794  -0.012  -3.032  0.00  0.00     0.031 H 
ATOM     45  H   LIG d   1       3.202  -0.914  -2.424  0.00  0.00     0.031 H 
BRANCH  43  46
ATOM     46  C   LIG d   1       3.489   1.218  -2.530  0.00  0.00    -0.052 C 
ATOM     47  H   LIG d   1       3.910   1.783  -3.362  0.00  0.00     0.027 H 
ATOM     48  H   LIG d   1       2.713   1.811  -2.045  0.00  0.00     0.027 H 
BRANCH  46  49
ATOM     49  C   LIG d   1       4.592   0.897  -1.521  0.00  0.00    -0.065 C 
ATOM     50  H   LIG d   1       5.539   0.770  -2.046  0.00  0.00     0.023 H 
ATOM     51  H   LIG d   1       4.680   1.716  -0.806  0.00  0.00     0.023 H 
ATOM     52  H   LIG d   1       4.344  -0.023  -0.991  0.00  0.00     0.023 H 
ENDBRANCH  46  49
ENDBRANCH  43  46
ENDBRANCH   1  43
TORSDOF 13
ENDMDL
MODEL 8
REMARK VINA RESULT:      -5.5      3.149      5.887
REMARK  13 active torsions:
REMARK  status: ('A' for Active; 'I' for Inactive)
REMARK    1  A    between atoms: C_1  and  C_2 
REMARK    2  A    between atoms: C_2  and  C_3 
REMARK    3  A    between atoms: C_3  and  C_4 
REMARK    4  A    between atoms: C_13  and  O_16 
REMARK    5  A    between atoms: C_14  and  C_15 
REMARK    6  A    between atoms: O_16  and  C_17 
REMARK    7  A    between atoms: C_17  and  C_19 
REMARK    8  A    between atoms: C_19  and  N_20 
REMARK       I    between atoms: N_20  and  C_21 
REMARK    9  A    between atoms: C_21  and  O_23 
REMARK   10  A    between atoms: O_23  and  C_24 
REMARK   11  A    between atoms: C_24  and  C_25 
REMARK   12  A    between atoms: C_24  and  C_26 
REMARK   13  A    between atoms: C_24  and  C_27 
ROOT
ATOM      1  C   LIG d   1       3.334  -0.434  -4.473  0.00  0.00    -0.030 A 
ATOM      2  C   LIG d   1       2.756   0.315  -5.447  0.00  0.00     0.027 A 
ATOM      3  C   LIG d   1       3.159   0.152  -6.788  0.00  0.00     0.338 A 
ATOM      4  O   LIG d   1       2.633   0.831  -7.652  0.00  0.00    -0.245 OA
ATOM      5  O   LIG d   1       4.108  -0.730  -7.138  0.00  0.00    -0.422 OA
ATOM      6  C   LIG d   1       4.722  -1.505  -6.219  0.00  0.00     0.146 A 
ATOM      7  C   LIG d   1       4.369  -1.395  -4.861  0.00  0.00     0.021 A 
ATOM      8  C   LIG d   1       5.003  -2.198  -3.906  0.00  0.00    -0.047 A 
ATOM      9  C   LIG d   1       5.963  -3.085  -4.295  0.00  0.00    -0.018 A 
ATOM     10  C   LIG d   1       6.317  -3.199  -5.638  0.00  0.00     0.138 A 
ATOM     11  C   LIG d   1       5.701  -2.412  -6.597  0.00  0.00     0.035 A 
ATOM     12  H   LIG d   1       1.990   1.033  -5.194  0.00  0.00     0.069 H 
ATOM     13  H   LIG d   1       4.732  -2.114  -2.863  0.00  0.00     0.063 H 
ATOM     14  H   LIG d   1       6.455  -3.702  -3.556  0.00  0.00     0.066 H 
ENDROOT
BRANCH  10  15
ATOM     15  O   LIG d   1       7.274  -4.087  -6.009  0.00  0.00    -0.424 OA
BRANCH  15  16
ATOM     16  C   LIG d   1       7.040  -5.383  -5.744  0.00  0.00     0.330 C 
ATOM     17  O   LIG d   1       7.749  -5.978  -4.966  0.00  0.00    -0.249 OA
BRANCH  16  18
ATOM     18  C   LIG d   1       5.894  -6.095  -6.415  0.00  0.00     0.113 C 
ATOM     19  H   LIG d   1       5.183  -5.361  -6.794  0.00  0.00     0.058 H 
ATOM     20  H   LIG d   1       6.274  -6.695  -7.242  0.00  0.00     0.058 H 
BRANCH  18  21
ATOM     21  N   LIG d   1       5.226  -6.968  -5.446  0.00  0.00    -0.271 N 
ATOM     22  C   LIG d   1       4.797  -8.188  -5.823  0.00  0.00     0.401 C 
ATOM     23  O   LIG d   1       4.964  -8.566  -6.966  0.00  0.00    -0.227 OA
ATOM     24  H   LIG d   1       5.092  -6.666  -4.534  0.00  0.00     0.153 HD
BRANCH  22  25
ATOM     25  O   LIG d   1       4.182  -8.990  -4.932  0.00  0.00    -0.445 OA
BRANCH  25  26
ATOM     26  C   LIG d   1       4.992 -10.014  -4.298  0.00  0.00     0.107 C 
BRANCH  26  27
ATOM     27  C   LIG d   1       6.432  -9.513  -4.163  0.00  0.00    -0.025 C 
ATOM     28  H   LIG d   1       7.117 -10.269  -4.547  0.00  0.00     0.027 H 
ATOM     29  H   LIG d   1       6.551  -8.592  -4.732  0.00  0.00     0.027 H 
ATOM     30  H   LIG d   1       6.653  -9.323  -3.113  0.00  0.00     0.027 H 
ENDBRANCH  26  27
BRANCH  26  31
ATOM     31  C   LIG d   1       4.427 -10.324  -2.910  0.00  0.00    -0.025 C 
ATOM     32  H   LIG d   1       5.184 -10.835  -2.315  0.00  0.00     0.027 H 
ATOM     33  H   LIG d   1       4.144  -9.394  -2.417  0.00  0.00     0.027 H 
ATOM     34  H   LIG d   1       3.550 -10.963  -3.010  0.00  0.00     0.027 H 
ENDBRANCH  26  31
BRANCH  26  35
ATOM     35  C   LIG d   1       4.972 -11.283  -5.151  0.00  0.00    -0.025 C 
ATOM     36  H   LIG d   1       4.688 -11.029  -6.174  0.00  0.00     0.027 H 
ATOM     37  H   LIG d   1       5.962 -11.738  -5.152  0.00  0.00     0.027 H 
ATOM     38  H   LIG d   1       4.249 -11.987  -4.740  0.00  0.00     0.027 H 
ENDBRANCH  26  35
ENDBRANCH  25  26
ENDBRANCH  22  25
ENDBRANCH  18  21
ENDBRANCH  16  18
ENDBRANCH  15  16
ENDBRANCH  10  15
BRANCH  11  39
ATOM     39  C   LIG d   1       6.090  -2.543  -8.047  0.00  0.00    -0.033 C 
ATOM     40  H   LIG d   1       5.396  -3.216  -8.551  0.00  0.00     0.028 H 
ATOM     41  H   LIG d   1       6.054  -1.562  -8.522  0.00  0.00     0.028 H 
ATOM     42  H   LIG d   1       7.101  -2.944  -8.116  0.00  0.00     0.028 H 
ENDBRANCH  11  39
BRANCH   1  43
ATOM     43  C   LIG d   1       2.922  -0.281  -3.031  0.00  0.00    -0.027 C 
ATOM     44  H   LIG d   1       1.835  -0.315  -2.958  0.00  0.00     0.031 H 
ATOM     45  H   LIG d   1       3.351  -1.091  -2.442  0.00  0.00     0.031 H 
BRANCH  43  46
ATOM     46  C   LIG d   1       3.427   1.061  -2.495  0.00  0.00    -0.052 C 
ATOM     47  H   LIG d   1       3.682   1.713  -3.331  0.00  0.00     0.027 H 
ATOM     48  H   LIG d   1       2.646   1.528  -1.895  0.00  0.00     0.027 H 
BRANCH  46  49
ATOM     49  C   LIG d   1       4.667   0.831  -1.630  0.00  0.00    -0.065 C 
ATOM     50  H   LIG d   1       5.249   0.006  -2.042  0.00  0.00     0.023 H 
ATOM     51  H   LIG d   1       5.276   1.735  -1.620  0.00  0.00     0.023 H 
ATOM     52  H   LIG d   1       4.361   0.586  -0.613  0.00  0.00     0.023 H 
ENDBRANCH  46  49
ENDBRANCH  43  46
ENDBRANCH   1  43
TORSDOF 13
ENDMDL
MODEL 9
REMARK VINA RESULT:      -5.4      2.353      4.399
REMARK  13 active torsions:
REMARK  status: ('A' for Active; 'I' for Inactive)
REMARK    1  A    between atoms: C_1  and  C_2 
REMARK    2  A    between atoms: C_2  and  C_3 
REMARK    3  A    between atoms: C_3  and  C_4 
REMARK    4  A    between atoms: C_13  and  O_16 
REMARK    5  A    between atoms: C_14  and  C_15 
REMARK    6  A    between atoms: O_16  and  C_17 
REMARK    7  A    between atoms: C_17  and  C_19 
REMARK    8  A    between atoms: C_19  and  N_20 
REMARK       I    between atoms: N_20  and  C_21 
REMARK    9  A    between atoms: C_21  and  O_23 
REMARK   10  A    between atoms: O_23  and  C_24 
REMARK   11  A    between atoms: C_24  and  C_25 
REMARK   12  A    between atoms: C_24  and  C_26 
REMARK   13  A    between atoms: C_24  and  C_27 
ROOT
ATOM      1  C   LIG d   1       8.681  -0.746  -6.503  0.00  0.00    -0.030 A 
ATOM      2  C   LIG d   1       9.045   0.509  -6.875  0.00  0.00     0.027 A 
ATOM      3  C   LIG d   1       8.528   1.623  -6.181  0.00  0.00     0.338 A 
ATOM      4  O   LIG d   1       8.862   2.743  -6.526  0.00  0.00    -0.245 OA
ATOM      5  O   LIG d   1       7.678   1.482  -5.153  0.00  0.00    -0.422 OA
ATOM      6  C   LIG d   1       7.277   0.263  -4.732  0.00  0.00     0.146 A 
ATOM      7  C   LIG d   1       7.753  -0.893  -5.379  0.00  0.00     0.021 A 
ATOM      8  C   LIG d   1       7.340  -2.158  -4.946  0.00  0.00    -0.047 A 
ATOM      9  C   LIG d   1       6.475  -2.266  -3.896  0.00  0.00    -0.018 A 
ATOM     10  C   LIG d   1       6.001  -1.126  -3.252  0.00  0.00     0.138 A 
ATOM     11  C   LIG d   1       6.398   0.134  -3.667  0.00  0.00     0.035 A 
ATOM     12  H   LIG d   1       9.727   0.653  -7.700  0.00  0.00     0.069 H 
ATOM     13  H   LIG d   1       7.705  -3.046  -5.442  0.00  0.00     0.063 H 
ATOM     14  H   LIG d   1       6.154  -3.243  -3.565  0.00  0.00     0.066 H 
ENDROOT
BRANCH  10  15
ATOM     15  O   LIG d   1       5.141  -1.251  -2.208  0.00  0.00    -0.424 OA
BRANCH  15  16
ATOM     16  C   LIG d   1       3.872  -1.583  -2.499  0.00  0.00     0.330 C 
ATOM     17  O   LIG d   1       3.526  -2.740  -2.455  0.00  0.00    -0.249 OA
BRANCH  16  18
ATOM     18  C   LIG d   1       2.882  -0.514  -2.881  0.00  0.00     0.113 C 
ATOM     19  H   LIG d   1       2.024  -0.558  -2.211  0.00  0.00     0.058 H 
ATOM     20  H   LIG d   1       3.355   0.465  -2.803  0.00  0.00     0.058 H 
BRANCH  18  21
ATOM     21  N   LIG d   1       2.436  -0.731  -4.260  0.00  0.00    -0.271 N 
ATOM     22  C   LIG d   1       2.456   0.286  -5.143  0.00  0.00     0.401 C 
ATOM     23  O   LIG d   1       2.845   1.384  -4.797  0.00  0.00    -0.227 OA
ATOM     24  H   LIG d   1       2.126  -1.608  -4.537  0.00  0.00     0.153 HD
BRANCH  22  25
ATOM     25  O   LIG d   1       2.046   0.086  -6.410  0.00  0.00    -0.445 OA
BRANCH  25  26
ATOM     26  C   LIG d   1       3.066   0.102  -7.443  0.00  0.00     0.107 C 
BRANCH  26  27
ATOM     27  C   LIG d   1       4.412  -0.298  -6.838  0.00  0.00    -0.025 C 
ATOM     28  H   LIG d   1       4.260  -0.664  -5.822  0.00  0.00     0.027 H 
ATOM     29  H   LIG d   1       4.863  -1.085  -7.442  0.00  0.00     0.027 H 
ATOM     30  H   LIG d   1       5.073   0.567  -6.816  0.00  0.00     0.027 H 
ENDBRANCH  26  27
BRANCH  26  31
ATOM     31  C   LIG d   1       2.688  -0.888  -8.548  0.00  0.00    -0.025 C 
ATOM     32  H   LIG d   1       3.593  -1.333  -8.961  0.00  0.00     0.027 H 
ATOM     33  H   LIG d   1       2.055  -1.671  -8.132  0.00  0.00     0.027 H 
ATOM     34  H   LIG d   1       2.147  -0.364  -9.336  0.00  0.00     0.027 H 
ENDBRANCH  26  31
BRANCH  26  35
ATOM     35  C   LIG d   1       3.171   1.509  -8.035  0.00  0.00    -0.025 C 
ATOM     36  H   LIG d   1       4.029   2.023  -7.599  0.00  0.00     0.027 H 
ATOM     37  H   LIG d   1       3.298   1.442  -9.115  0.00  0.00     0.027 H 
ATOM     38  H   LIG d   1       2.262   2.068  -7.810  0.00  0.00     0.027 H 
ENDBRANCH  26  35
ENDBRANCH  25  26
ENDBRANCH  22  25
ENDBRANCH  18  21
ENDBRANCH  16  18
ENDBRANCH  15  16
ENDBRANCH  10  15
BRANCH  11  39
ATOM     39  C   LIG d   1       5.879   1.361  -2.963  0.00  0.00    -0.033 C 
ATOM     40  H   LIG d   1       5.495   1.082  -1.981  0.00  0.00     0.028 H 
ATOM     41  H   LIG d   1       6.689   2.081  -2.844  0.00  0.00     0.028 H 
ATOM     42  H   LIG d   1       5.079   1.807  -3.553  0.00  0.00     0.028 H 
ENDBRANCH  11  39
BRANCH   1  43
ATOM     43  C   LIG d   1       9.218  -1.954  -7.227  0.00  0.00    -0.027 C 
ATOM     44  H   LIG d   1      10.307  -1.942  -7.196  0.00  0.00     0.031 H 
ATOM     45  H   LIG d   1       8.851  -2.859  -6.744  0.00  0.00     0.031 H 
BRANCH  43  46
ATOM     46  C   LIG d   1       8.750  -1.927  -8.683  0.00  0.00    -0.052 C 
ATOM     47  H   LIG d   1       8.932  -0.938  -9.105  0.00  0.00     0.027 H 
ATOM     48  H   LIG d   1       9.302  -2.672  -9.255  0.00  0.00     0.027 H 
BRANCH  46  49
ATOM     49  C   LIG d   1       7.254  -2.241  -8.744  0.00  0.00    -0.065 C 
ATOM     50  H   LIG d   1       6.726  -1.638  -8.006  0.00  0.00     0.023 H 
ATOM     51  H   LIG d   1       6.875  -2.009  -9.740  0.00  0.00     0.023 H 
ATOM     52  H   LIG d   1       7.096  -3.298  -8.531  0.00  0.00     0.023 H 
ENDBRANCH  46  49
ENDBRANCH  43  46
ENDBRANCH   1  43
TORSDOF 13
ENDMDL
MODEL 10
REMARK VINA RESULT:      -5.3      5.458      7.987
REMARK  13 active torsions:
REMARK  status: ('A' for Active; 'I' for Inactive)
REMARK    1  A    between atoms: C_1  and  C_2 
REMARK    2  A    between atoms: C_2  and  C_3 
REMARK    3  A    between atoms: C_3  and  C_4 
REMARK    4  A    between atoms: C_13  and  O_16 
REMARK    5  A    between atoms: C_14  and  C_15 
REMARK    6  A    between atoms: O_16  and  C_17 
REMARK    7  A    between atoms: C_17  and  C_19 
REMARK    8  A    between atoms: C_19  and  N_20 
REMARK       I    between atoms: N_20  and  C_21 
REMARK    9  A    between atoms: C_21  and  O_23 
REMARK   10  A    between atoms: O_23  and  C_24 
REMARK   11  A    between atoms: C_24  and  C_25 
REMARK   12  A    between atoms: C_24  and  C_26 
REMARK   13  A    between atoms: C_24  and  C_27 
ROOT
ATOM      1  C   LIG d   1      10.075   7.783  -2.605  0.00  0.00    -0.030 A 
ATOM      2  C   LIG d   1      10.113   8.859  -3.434  0.00  0.00     0.027 A 
ATOM      3  C   LIG d   1      10.060   8.670  -4.830  0.00  0.00     0.338 A 
ATOM      4  O   LIG d   1      10.097   9.644  -5.562  0.00  0.00    -0.245 OA
ATOM      5  O   LIG d   1       9.971   7.447  -5.374  0.00  0.00    -0.422 OA
ATOM      6  C   LIG d   1       9.927   6.336  -4.607  0.00  0.00     0.146 A 
ATOM      7  C   LIG d   1       9.977   6.451  -3.205  0.00  0.00     0.021 A 
ATOM      8  C   LIG d   1       9.932   5.302  -2.407  0.00  0.00    -0.047 A 
ATOM      9  C   LIG d   1       9.840   4.073  -2.992  0.00  0.00    -0.018 A 
ATOM     10  C   LIG d   1       9.790   3.953  -4.379  0.00  0.00     0.138 A 
ATOM     11  C   LIG d   1       9.835   5.079  -5.185  0.00  0.00     0.035 A 
ATOM     12  H   LIG d   1      10.186   9.856  -3.024  0.00  0.00     0.069 H 
ATOM     13  H   LIG d   1       9.970   5.389  -1.331  0.00  0.00     0.063 H 
ATOM     14  H   LIG d   1       9.809   3.186  -2.375  0.00  0.00     0.066 H 
ENDROOT
BRANCH  10  15
ATOM     15  O   LIG d   1       9.699   2.723  -4.946  0.00  0.00    -0.424 OA
BRANCH  15  16
ATOM     16  C   LIG d   1       8.479   2.162  -4.993  0.00  0.00     0.330 C 
ATOM     17  O   LIG d   1       7.880   2.106  -6.042  0.00  0.00    -0.249 OA
BRANCH  16  18
ATOM     18  C   LIG d   1       7.856   1.605  -3.740  0.00  0.00     0.113 C 
ATOM     19  H   LIG d   1       8.454   0.768  -3.378  0.00  0.00     0.058 H 
ATOM     20  H   LIG d   1       7.818   2.382  -2.977  0.00  0.00     0.058 H 
BRANCH  18  21
ATOM     21  N   LIG d   1       6.496   1.143  -4.033  0.00  0.00    -0.271 N 
ATOM     22  C   LIG d   1       6.136  -0.121  -3.737  0.00  0.00     0.401 C 
ATOM     23  O   LIG d   1       6.938  -0.878  -3.226  0.00  0.00    -0.227 OA
ATOM     24  H   LIG d   1       5.856   1.747  -4.441  0.00  0.00     0.153 HD
BRANCH  22  25
ATOM     25  O   LIG d   1       4.887  -0.545  -4.006  0.00  0.00    -0.445 OA
BRANCH  25  26
ATOM     26  C   LIG d   1       3.957  -0.609  -2.892  0.00  0.00     0.107 C 
BRANCH  26  27
ATOM     27  C   LIG d   1       2.533  -0.382  -3.403  0.00  0.00    -0.025 C 
ATOM     28  H   LIG d   1       2.535  -0.371  -4.493  0.00  0.00     0.027 H 
ATOM     29  H   LIG d   1       1.888  -1.185  -3.049  0.00  0.00     0.027 H 
ATOM     30  H   LIG d   1       2.162   0.573  -3.032  0.00  0.00     0.027 H 
ENDBRANCH  26  27
BRANCH  26  31
ATOM     31  C   LIG d   1       4.049  -1.986  -2.230  0.00  0.00    -0.025 C 
ATOM     32  H   LIG d   1       5.095  -2.238  -2.060  0.00  0.00     0.027 H 
ATOM     33  H   LIG d   1       3.520  -1.966  -1.278  0.00  0.00     0.027 H 
ATOM     34  H   LIG d   1       3.595  -2.733  -2.882  0.00  0.00     0.027 H 
ENDBRANCH  26  31
BRANCH  26  35
ATOM     35  C   LIG d   1       4.311   0.472  -1.870  0.00  0.00    -0.025 C 
ATOM     36  H   LIG d   1       5.361   0.379  -1.591  0.00  0.00     0.027 H 
ATOM     37  H   LIG d   1       4.137   1.456  -2.305  0.00  0.00     0.027 H 
ATOM     38  H   LIG d   1       3.689   0.352  -0.983  0.00  0.00     0.027 H 
ENDBRANCH  26  35
ENDBRANCH  25  26
ENDBRANCH  22  25
ENDBRANCH  18  21
ENDBRANCH  16  18
ENDBRANCH  15  16
ENDBRANCH  10  15
BRANCH  11  39
ATOM     39  C   LIG d   1       9.780   4.939  -6.684  0.00  0.00    -0.033 C 
ATOM     40  H   LIG d   1       9.670   5.925  -7.138  0.00  0.00     0.028 H 
ATOM     41  H   LIG d   1      10.702   4.478  -7.040  0.00  0.00     0.028 H 
ATOM     42  H   LIG d   1       8.931   4.315  -6.960  0.00  0.00     0.028 H 
ENDBRANCH  11  39
BRANCH   1  43
ATOM     43  C   LIG d   1      10.131   7.956  -1.109  0.00  0.00    -0.027 C 
ATOM     44  H   LIG d   1       9.118   7.982  -0.708  0.00  0.00     0.031 H 
ATOM     45  H   LIG d   1      10.675   7.122  -0.667  0.00  0.00     0.031 H 
BRANCH  43  46
ATOM     46  C   LIG d   1      10.845   9.267  -0.773  0.00  0.00    -0.052 C 
ATOM     47  H   LIG d   1      11.712   9.057  -0.146  0.00  0.00     0.027 H 
ATOM     48  H   LIG d   1      11.172   9.749  -1.694  0.00  0.00     0.027 H 
BRANCH  46  49
ATOM     49  C   LIG d   1       9.886  10.193  -0.024  0.00  0.00    -0.065 C 
ATOM     50  H   LIG d   1       8.954  10.279  -0.582  0.00  0.00     0.023 H 
ATOM     51  H   LIG d   1       9.681   9.781   0.964  0.00  0.00     0.023 H 
ATOM     52  H   LIG d   1      10.340  11.179   0.080  0.00  0.00     0.023 H 
ENDBRANCH  46  49
ENDBRANCH  43  46
ENDBRANCH   1  43
TORSDOF 13
ENDMDL
