MODEL 1
REMARK VINA RESULT:      -6.5      0.000      0.000
REMARK  14 active torsions:
REMARK  status: ('A' for Active; 'I' for Inactive)
REMARK    1  A    between atoms: C_1  and  C_2 
REMARK    2  A    between atoms: N_6  and  O_7 
REMARK    3  A    between atoms: O_7  and  C_8 
REMARK    4  A    between atoms: C_8  and  C_9 
REMARK       I    between atoms: C_9  and  N_11 
REMARK    5  A    between atoms: N_11  and  C_12 
REMARK    6  A    between atoms: C_12  and  C_14 
REMARK    7  A    between atoms: C_12  and  C_25 
REMARK    8  A    between atoms: C_14  and  C_15 
REMARK    9  A    between atoms: C_19  and  N_21 
REMARK   10  A    between atoms: C_25  and  O_27 
REMARK   11  A    between atoms: O_27  and  C_28 
REMARK   12  A    between atoms: C_39  and  C_48 
REMARK   13  A    between atoms: C_44  and  C_45 
REMARK   14  A    between atoms: C_44  and  O_47 
ROOT
ATOM      1  C   LIG d   1       3.098   0.362  -4.194  0.00  0.00    -0.070 C 
ATOM      2  C   LIG d   1       2.038   0.411  -4.696  0.00  0.00    -0.116 C 
ATOM      3  H   LIG d   1       1.090   0.456  -5.145  0.00  0.00     0.123 H 
ENDROOT
BRANCH   1   4
ATOM      4  C   LIG d   1       4.427   0.299  -3.565  0.00  0.00     0.132 C 
ATOM      5  C   LIG d   1       5.365  -0.626  -4.388  0.00  0.00     0.011 C 
ATOM      6  C   LIG d   1       6.783  -0.087  -4.191  0.00  0.00    -0.043 C 
ATOM      7  C   LIG d   1       5.181  -1.992  -3.703  0.00  0.00    -0.029 C 
ATOM      8  C   LIG d   1       7.834  -1.121  -4.592  0.00  0.00    -0.049 C 
ATOM      9  H   LIG d   1       6.923   0.174  -3.142  0.00  0.00     0.027 H 
ATOM     10  H   LIG d   1       6.913   0.807  -4.800  0.00  0.00     0.027 H 
ATOM     11  C   LIG d   1       7.642  -2.356  -3.710  0.00  0.00    -0.029 C 
ATOM     12  H   LIG d   1       8.833  -0.711  -4.439  0.00  0.00     0.027 H 
ATOM     13  H   LIG d   1       7.704  -1.392  -5.639  0.00  0.00     0.027 H 
ATOM     14  C   LIG d   1       8.779  -3.350  -3.895  0.00  0.00    -0.007 C 
ATOM     15  C   LIG d   1       6.290  -2.973  -4.040  0.00  0.00    -0.034 C 
ATOM     16  H   LIG d   1       7.631  -2.026  -2.672  0.00  0.00     0.031 H 
ATOM     17  C   LIG d   1       8.425  -4.293  -5.017  0.00  0.00    -0.062 C 
ATOM     18  C   LIG d   1       8.995  -4.142  -2.605  0.00  0.00    -0.038 C 
ATOM     19  C   LIG d   1       8.888  -5.532  -5.050  0.00  0.00    -0.037 C 
ATOM     20  C   LIG d   1       7.512  -3.785  -6.107  0.00  0.00    -0.031 C 
ATOM     21  C   LIG d   1       9.763  -6.042  -3.987  0.00  0.00     0.080 C 
ATOM     22  H   LIG d   1       8.619  -6.178  -5.872  0.00  0.00     0.064 H 
ATOM     23  C   LIG d   1      10.124  -5.154  -2.822  0.00  0.00    -0.006 C 
ATOM     24  N   LIG d   1      10.223  -7.251  -4.049  0.00  0.00    -0.089 NA
ATOM     25  H   LIG d   1      11.052  -4.625  -3.040  0.00  0.00     0.033 H 
ATOM     26  H   LIG d   1      10.249  -5.761  -1.925  0.00  0.00     0.033 H 
ATOM     27  C   LIG d   1       6.176  -3.367  -5.508  0.00  0.00    -0.046 C 
ATOM     28  H   LIG d   1       7.974  -2.926  -6.594  0.00  0.00     0.031 H 
ATOM     29  H   LIG d   1       7.350  -4.573  -6.840  0.00  0.00     0.031 H 
ATOM     30  H   LIG d   1       5.787  -2.520  -6.072  0.00  0.00     0.027 H 
ATOM     31  H   LIG d   1       5.476  -4.199  -5.596  0.00  0.00     0.027 H 
ATOM     32  H   LIG d   1       9.267  -3.459  -1.799  0.00  0.00     0.028 H 
ATOM     33  H   LIG d   1       8.078  -4.669  -2.343  0.00  0.00     0.028 H 
ATOM     34  H   LIG d   1       6.167  -3.865  -3.427  0.00  0.00     0.031 H 
ATOM     35  H   LIG d   1       4.219  -2.416  -3.989  0.00  0.00     0.031 H 
ATOM     36  C   LIG d   1       5.148  -1.639  -2.205  0.00  0.00    -0.046 C 
ATOM     37  C   LIG d   1       4.319  -0.333  -2.164  0.00  0.00    -0.012 C 
ATOM     38  H   LIG d   1       4.654  -2.425  -1.635  0.00  0.00     0.027 H 
ATOM     39  H   LIG d   1       6.157  -1.465  -1.829  0.00  0.00     0.027 H 
ATOM     40  H   LIG d   1       3.278  -0.559  -1.935  0.00  0.00     0.030 H 
ATOM     41  H   LIG d   1       4.728   0.346  -1.416  0.00  0.00     0.030 H 
BRANCH   5  42
ATOM     42  C   LIG d   1       4.976  -0.656  -5.867  0.00  0.00    -0.056 C 
ATOM     43  H   LIG d   1       5.792  -0.250  -6.466  0.00  0.00     0.024 H 
ATOM     44  H   LIG d   1       4.780  -1.685  -6.170  0.00  0.00     0.024 H 
ATOM     45  H   LIG d   1       4.079  -0.056  -6.020  0.00  0.00     0.024 H 
ENDBRANCH   5  42
BRANCH  14  46
ATOM     46  C   LIG d   1      10.062  -2.596  -4.251  0.00  0.00    -0.056 C 
ATOM     47  H   LIG d   1      10.203  -2.607  -5.332  0.00  0.00     0.024 H 
ATOM     48  H   LIG d   1       9.984  -1.565  -3.906  0.00  0.00     0.024 H 
ATOM     49  H   LIG d   1      10.912  -3.076  -3.768  0.00  0.00     0.024 H 
ENDBRANCH  14  46
BRANCH  24  50
ATOM     50  O   LIG d   1       9.883  -8.083  -5.143  0.00  0.00    -0.384 OA
BRANCH  50  51
ATOM     51  C   LIG d   1       9.048  -9.190  -4.794  0.00  0.00     0.193 C 
ATOM     52  H   LIG d   1       9.568 -10.122  -5.017  0.00  0.00     0.082 H 
ATOM     53  H   LIG d   1       8.816  -9.148  -3.730  0.00  0.00     0.082 H 
BRANCH  51  54
ATOM     54  C   LIG d   1       7.770  -9.126  -5.589  0.00  0.00     0.254 C 
ATOM     55  O   LIG d   1       7.709  -9.646  -6.684  0.00  0.00    -0.272 OA
ATOM     56  N   LIG d   1       6.694  -8.489  -5.086  0.00  0.00    -0.299 N 
ATOM     57  H   LIG d   1       6.742  -8.073  -4.211  0.00  0.00     0.150 HD
BRANCH  56  58
ATOM     58  C   LIG d   1       5.451  -8.427  -5.859  0.00  0.00     0.124 C 
ATOM     59  H   LIG d   1       5.662  -8.652  -6.905  0.00  0.00     0.062 H 
BRANCH  58  60
ATOM     60  C   LIG d   1       4.853  -7.023  -5.752  0.00  0.00     0.001 C 
ATOM     61  H   LIG d   1       3.800  -7.095  -5.481  0.00  0.00     0.034 H 
ATOM     62  H   LIG d   1       5.387  -6.459  -4.986  0.00  0.00     0.034 H 
BRANCH  60  63
ATOM     63  C   LIG d   1       4.983  -6.319  -7.078  0.00  0.00    -0.039 A 
ATOM     64  C   LIG d   1       4.022  -5.407  -7.471  0.00  0.00     0.018 A 
ATOM     65  C   LIG d   1       4.141  -4.756  -8.684  0.00  0.00     0.266 A 
ATOM     66  H   LIG d   1       3.180  -5.199  -6.829  0.00  0.00     0.069 H 
ATOM     67  C   LIG d   1       5.221  -5.027  -9.512  0.00  0.00    -0.029 A 
ATOM     68  C   LIG d   1       6.181  -5.948  -9.118  0.00  0.00    -0.063 A 
ATOM     69  O   LIG d   1       5.338  -4.392 -10.709  0.00  0.00    -0.869 OA
ATOM     70  C   LIG d   1       6.060  -6.592  -7.902  0.00  0.00    -0.059 A 
ATOM     71  H   LIG d   1       7.022  -6.160  -9.761  0.00  0.00     0.061 H 
ATOM     72  H   LIG d   1       6.807  -7.308  -7.594  0.00  0.00     0.062 H 
BRANCH  65  73
ATOM     73  N   LIG d   1       3.115  -3.775  -9.102  0.00  0.00     0.079 N 
ATOM     74  O   LIG d   1       2.204  -4.121  -9.818  0.00  0.00     0.041 OA
ATOM     75  O   LIG d   1       3.187  -2.628  -8.727  0.00  0.00    -0.576 OA
ENDBRANCH  65  73
ENDBRANCH  60  63
ENDBRANCH  58  60
BRANCH  58  76
ATOM     76  C   LIG d   1       4.470  -9.434  -5.316  0.00  0.00     0.328 C 
ATOM     77  O   LIG d   1       4.225 -10.438  -5.943  0.00  0.00    -0.249 OA
BRANCH  76  78
ATOM     78  O   LIG d   1       3.867  -9.216  -4.137  0.00  0.00    -0.467 OA
BRANCH  78  79
ATOM     79  C   LIG d   1       4.072 -10.192  -3.114  0.00  0.00     0.082 C 
ATOM     80  H   LIG d   1       4.911  -9.889  -2.487  0.00  0.00     0.066 H 
ATOM     81  H   LIG d   1       3.172 -10.273  -2.504  0.00  0.00     0.066 H 
ATOM     82  H   LIG d   1       4.289 -11.157  -3.571  0.00  0.00     0.066 H 
ENDBRANCH  78  79
ENDBRANCH  76  78
ENDBRANCH  58  76
ENDBRANCH  56  58
ENDBRANCH  51  54
ENDBRANCH  50  51
ENDBRANCH  24  50
BRANCH   4  83
ATOM     83  O   LIG d   1       4.989   1.610  -3.470  0.00  0.00    -0.376 OA
ATOM     84  H   LIG d   1       5.952   1.621  -3.385  0.00  0.00     0.211 HD
ENDBRANCH   4  83
ENDBRANCH   1   4
TORSDOF 14
ENDMDL
MODEL 2
REMARK VINA RESULT:      -6.4      5.706      8.935
REMARK  14 active torsions:
REMARK  status: ('A' for Active; 'I' for Inactive)
REMARK    1  A    between atoms: C_1  and  C_2 
REMARK    2  A    between atoms: N_6  and  O_7 
REMARK    3  A    between atoms: O_7  and  C_8 
REMARK    4  A    between atoms: C_8  and  C_9 
REMARK       I    between atoms: C_9  and  N_11 
REMARK    5  A    between atoms: N_11  and  C_12 
REMARK    6  A    between atoms: C_12  and  C_14 
REMARK    7  A    between atoms: C_12  and  C_25 
REMARK    8  A    between atoms: C_14  and  C_15 
REMARK    9  A    between atoms: C_19  and  N_21 
REMARK   10  A    between atoms: C_25  and  O_27 
REMARK   11  A    between atoms: O_27  and  C_28 
REMARK   12  A    between atoms: C_39  and  C_48 
REMARK   13  A    between atoms: C_44  and  C_45 
REMARK   14  A    between atoms: C_44  and  O_47 
ROOT
ATOM      1  C   LIG d   1      11.480   9.289  -2.168  0.00  0.00    -0.070 C 
ATOM      2  C   LIG d   1      11.604  10.407  -2.505  0.00  0.00    -0.116 C 
ATOM      3  H   LIG d   1      11.715  11.406  -2.807  0.00  0.00     0.123 H 
ENDROOT
BRANCH   1   4
ATOM      4  C   LIG d   1      11.323   7.887  -1.746  0.00  0.00     0.132 C 
ATOM      5  C   LIG d   1      11.378   6.948  -2.982  0.00  0.00     0.011 C 
ATOM      6  C   LIG d   1      11.960   5.622  -2.489  0.00  0.00    -0.043 C 
ATOM      7  C   LIG d   1       9.894   6.804  -3.364  0.00  0.00    -0.029 C 
ATOM      8  C   LIG d   1      11.689   4.491  -3.481  0.00  0.00    -0.049 C 
ATOM      9  H   LIG d   1      11.510   5.370  -1.529  0.00  0.00     0.027 H 
ATOM     10  H   LIG d   1      13.037   5.731  -2.360  0.00  0.00     0.027 H 
ATOM     11  C   LIG d   1      10.174   4.347  -3.628  0.00  0.00    -0.029 C 
ATOM     12  H   LIG d   1      12.112   3.559  -3.102  0.00  0.00     0.027 H 
ATOM     13  H   LIG d   1      12.132   4.732  -4.446  0.00  0.00     0.027 H 
ATOM     14  C   LIG d   1       9.812   3.106  -4.431  0.00  0.00    -0.007 C 
ATOM     15  C   LIG d   1       9.633   5.616  -4.273  0.00  0.00    -0.034 C 
ATOM     16  H   LIG d   1       9.747   4.254  -2.630  0.00  0.00     0.031 H 
ATOM     17  C   LIG d   1       9.760   3.468  -5.894  0.00  0.00    -0.062 C 
ATOM     18  C   LIG d   1       8.450   2.573  -3.983  0.00  0.00    -0.038 C 
ATOM     19  C   LIG d   1       8.973   2.822  -6.738  0.00  0.00    -0.037 C 
ATOM     20  C   LIG d   1      10.631   4.605  -6.372  0.00  0.00    -0.031 C 
ATOM     21  C   LIG d   1       8.109   1.726  -6.281  0.00  0.00     0.080 C 
ATOM     22  H   LIG d   1       8.965   3.105  -7.780  0.00  0.00     0.064 H 
ATOM     23  C   LIG d   1       8.094   1.341  -4.822  0.00  0.00    -0.006 C 
ATOM     24  N   LIG d   1       7.361   1.092  -7.127  0.00  0.00    -0.089 NA
ATOM     25  H   LIG d   1       8.827   0.554  -4.645  0.00  0.00     0.033 H 
ATOM     26  H   LIG d   1       7.101   0.987  -4.547  0.00  0.00     0.033 H 
ATOM     27  C   LIG d   1      10.259   5.884  -5.636  0.00  0.00    -0.046 C 
ATOM     28  H   LIG d   1      11.676   4.366  -6.177  0.00  0.00     0.031 H 
ATOM     29  H   LIG d   1      10.485   4.747  -7.442  0.00  0.00     0.031 H 
ATOM     30  H   LIG d   1      11.158   6.486  -5.499  0.00  0.00     0.027 H 
ATOM     31  H   LIG d   1       9.550   6.447  -6.244  0.00  0.00     0.027 H 
ATOM     32  H   LIG d   1       8.495   2.296  -2.929  0.00  0.00     0.028 H 
ATOM     33  H   LIG d   1       7.692   3.343  -4.126  0.00  0.00     0.028 H 
ATOM     34  H   LIG d   1       8.557   5.500  -4.398  0.00  0.00     0.031 H 
ATOM     35  H   LIG d   1       9.553   7.718  -3.852  0.00  0.00     0.031 H 
ATOM     36  C   LIG d   1       9.186   6.667  -2.004  0.00  0.00    -0.046 C 
ATOM     37  C   LIG d   1       9.937   7.680  -1.107  0.00  0.00    -0.012 C 
ATOM     38  H   LIG d   1       8.133   6.937  -2.089  0.00  0.00     0.027 H 
ATOM     39  H   LIG d   1       9.294   5.655  -1.615  0.00  0.00     0.027 H 
ATOM     40  H   LIG d   1       9.395   8.625  -1.076  0.00  0.00     0.030 H 
ATOM     41  H   LIG d   1      10.046   7.277  -0.101  0.00  0.00     0.030 H 
BRANCH   5  42
ATOM     42  C   LIG d   1      12.218   7.545  -4.112  0.00  0.00    -0.056 C 
ATOM     43  H   LIG d   1      11.925   8.583  -4.274  0.00  0.00     0.024 H 
ATOM     44  H   LIG d   1      13.273   7.504  -3.841  0.00  0.00     0.024 H 
ATOM     45  H   LIG d   1      12.055   6.975  -5.027  0.00  0.00     0.024 H 
ENDBRANCH   5  42
BRANCH  14  46
ATOM     46  C   LIG d   1      10.877   2.030  -4.212  0.00  0.00    -0.056 C 
ATOM     47  H   LIG d   1      11.472   1.916  -5.118  0.00  0.00     0.024 H 
ATOM     48  H   LIG d   1      11.526   2.324  -3.387  0.00  0.00     0.024 H 
ATOM     49  H   LIG d   1      10.394   1.082  -3.973  0.00  0.00     0.024 H 
ENDBRANCH  14  46
BRANCH  24  50
ATOM     50  O   LIG d   1       7.376   1.455  -8.496  0.00  0.00    -0.384 OA
BRANCH  50  51
ATOM     51  C   LIG d   1       6.097   1.836  -9.010  0.00  0.00     0.193 C 
ATOM     52  H   LIG d   1       5.901   2.879  -8.759  0.00  0.00     0.082 H 
ATOM     53  H   LIG d   1       6.090   1.714 -10.092  0.00  0.00     0.082 H 
BRANCH  51  54
ATOM     54  C   LIG d   1       5.031   0.965  -8.399  0.00  0.00     0.254 C 
ATOM     55  O   LIG d   1       4.032   1.468  -7.927  0.00  0.00    -0.272 OA
ATOM     56  N   LIG d   1       5.186  -0.374  -8.376  0.00  0.00    -0.299 N 
ATOM     57  H   LIG d   1       5.983  -0.777  -8.753  0.00  0.00     0.150 HD
BRANCH  56  58
ATOM     58  C   LIG d   1       4.148  -1.222  -7.782  0.00  0.00     0.124 C 
ATOM     59  H   LIG d   1       3.494  -0.612  -7.158  0.00  0.00     0.062 H 
BRANCH  58  60
ATOM     60  C   LIG d   1       4.804  -2.305  -6.924  0.00  0.00     0.001 C 
ATOM     61  H   LIG d   1       4.309  -3.260  -7.102  0.00  0.00     0.034 H 
ATOM     62  H   LIG d   1       5.859  -2.388  -7.188  0.00  0.00     0.034 H 
BRANCH  60  63
ATOM     63  C   LIG d   1       4.678  -1.939  -5.468  0.00  0.00    -0.039 A 
ATOM     64  C   LIG d   1       4.606  -0.610  -5.095  0.00  0.00     0.018 A 
ATOM     65  C   LIG d   1       4.485  -0.272  -3.760  0.00  0.00     0.266 A 
ATOM     66  H   LIG d   1       4.639   0.164  -5.846  0.00  0.00     0.069 H 
ATOM     67  C   LIG d   1       4.447  -1.267  -2.794  0.00  0.00    -0.029 A 
ATOM     68  C   LIG d   1       4.526  -2.600  -3.171  0.00  0.00    -0.063 A 
ATOM     69  O   LIG d   1       4.333  -0.937  -1.480  0.00  0.00    -0.869 OA
ATOM     70  C   LIG d   1       4.641  -2.933  -4.507  0.00  0.00    -0.059 A 
ATOM     71  H   LIG d   1       4.496  -3.376  -2.421  0.00  0.00     0.061 H 
ATOM     72  H   LIG d   1       4.702  -3.970  -4.801  0.00  0.00     0.062 H 
BRANCH  65  73
ATOM     73  N   LIG d   1       4.402   1.151  -3.361  0.00  0.00     0.079 N 
ATOM     74  O   LIG d   1       3.397   1.784  -3.586  0.00  0.00     0.041 OA
ATOM     75  O   LIG d   1       5.339   1.680  -2.810  0.00  0.00    -0.576 OA
ENDBRANCH  65  73
ENDBRANCH  60  63
ENDBRANCH  58  60
BRANCH  58  76
ATOM     76  C   LIG d   1       3.340  -1.868  -8.877  0.00  0.00     0.328 C 
ATOM     77  O   LIG d   1       3.811  -2.776  -9.521  0.00  0.00    -0.249 OA
BRANCH  76  78
ATOM     78  O   LIG d   1       2.095  -1.437  -9.137  0.00  0.00    -0.467 OA
BRANCH  78  79
ATOM     79  C   LIG d   1       1.956  -0.415 -10.125  0.00  0.00     0.082 C 
ATOM     80  H   LIG d   1       1.112   0.226  -9.867  0.00  0.00     0.066 H 
ATOM     81  H   LIG d   1       2.868   0.182 -10.160  0.00  0.00     0.066 H 
ATOM     82  H   LIG d   1       1.783  -0.871 -11.098  0.00  0.00     0.066 H 
ENDBRANCH  78  79
ENDBRANCH  76  78
ENDBRANCH  58  76
ENDBRANCH  56  58
ENDBRANCH  51  54
ENDBRANCH  50  51
ENDBRANCH  24  50
BRANCH   4  83
ATOM     83  O   LIG d   1      12.350   7.537  -0.816  0.00  0.00    -0.376 OA
ATOM     84  H   LIG d   1      12.025   7.103  -0.015  0.00  0.00     0.211 HD
ENDBRANCH   4  83
ENDBRANCH   1   4
TORSDOF 14
ENDMDL
MODEL 3
REMARK VINA RESULT:      -6.4      6.594      9.282
REMARK  14 active torsions:
REMARK  status: ('A' for Active; 'I' for Inactive)
REMARK    1  A    between atoms: C_1  and  C_2 
REMARK    2  A    between atoms: N_6  and  O_7 
REMARK    3  A    between atoms: O_7  and  C_8 
REMARK    4  A    between atoms: C_8  and  C_9 
REMARK       I    between atoms: C_9  and  N_11 
REMARK    5  A    between atoms: N_11  and  C_12 
REMARK    6  A    between atoms: C_12  and  C_14 
REMARK    7  A    between atoms: C_12  and  C_25 
REMARK    8  A    between atoms: C_14  and  C_15 
REMARK    9  A    between atoms: C_19  and  N_21 
REMARK   10  A    between atoms: C_25  and  O_27 
REMARK   11  A    between atoms: O_27  and  C_28 
REMARK   12  A    between atoms: C_39  and  C_48 
REMARK   13  A    between atoms: C_44  and  C_45 
REMARK   14  A    between atoms: C_44  and  O_47 
ROOT
ATOM      1  C   LIG d   1      10.669  10.053   0.317  0.00  0.00    -0.070 C 
ATOM      2  C   LIG d   1       9.989  10.982   0.547  0.00  0.00    -0.116 C 
ATOM      3  H   LIG d   1       9.380  11.813   0.753  0.00  0.00     0.123 H 
ENDROOT
BRANCH   1   4
ATOM      4  C   LIG d   1      11.521   8.888   0.030  0.00  0.00     0.132 C 
ATOM      5  C   LIG d   1      11.152   8.284  -1.354  0.00  0.00     0.011 C 
ATOM      6  C   LIG d   1      12.436   7.666  -1.910  0.00  0.00    -0.043 C 
ATOM      7  C   LIG d   1      10.119   7.204  -0.988  0.00  0.00    -0.029 C 
ATOM      8  C   LIG d   1      12.138   6.692  -3.049  0.00  0.00    -0.049 C 
ATOM      9  H   LIG d   1      12.950   7.133  -1.111  0.00  0.00     0.027 H 
ATOM     10  H   LIG d   1      13.083   8.460  -2.282  0.00  0.00     0.027 H 
ATOM     11  C   LIG d   1      11.246   5.579  -2.496  0.00  0.00    -0.029 C 
ATOM     12  H   LIG d   1      13.070   6.265  -3.423  0.00  0.00     0.027 H 
ATOM     13  H   LIG d   1      11.622   7.212  -3.854  0.00  0.00     0.027 H 
ATOM     14  C   LIG d   1      11.077   4.453  -3.505  0.00  0.00    -0.007 C 
ATOM     15  C   LIG d   1       9.910   6.190  -2.098  0.00  0.00    -0.034 C 
ATOM     16  H   LIG d   1      11.726   5.178  -1.603  0.00  0.00     0.031 H 
ATOM     17  C   LIG d   1       9.885   4.756  -4.378  0.00  0.00    -0.062 C 
ATOM     18  C   LIG d   1      10.858   3.126  -2.776  0.00  0.00    -0.038 C 
ATOM     19  C   LIG d   1       9.168   3.789  -4.928  0.00  0.00    -0.037 C 
ATOM     20  C   LIG d   1       9.523   6.204  -4.603  0.00  0.00    -0.031 C 
ATOM     21  C   LIG d   1       9.501   2.377  -4.702  0.00  0.00     0.080 C 
ATOM     22  H   LIG d   1       8.324   4.043  -5.552  0.00  0.00     0.064 H 
ATOM     23  C   LIG d   1      10.662   2.014  -3.811  0.00  0.00    -0.006 C 
ATOM     24  N   LIG d   1       8.799   1.446  -5.266  0.00  0.00    -0.089 NA
ATOM     25  H   LIG d   1      11.566   1.911  -4.412  0.00  0.00     0.033 H 
ATOM     26  H   LIG d   1      10.452   1.073  -3.301  0.00  0.00     0.033 H 
ATOM     27  C   LIG d   1       9.214   6.871  -3.270  0.00  0.00    -0.046 C 
ATOM     28  H   LIG d   1      10.359   6.716  -5.079  0.00  0.00     0.031 H 
ATOM     29  H   LIG d   1       8.648   6.262  -5.249  0.00  0.00     0.031 H 
ATOM     30  H   LIG d   1       9.535   7.912  -3.315  0.00  0.00     0.027 H 
ATOM     31  H   LIG d   1       8.136   6.844  -3.104  0.00  0.00     0.027 H 
ATOM     32  H   LIG d   1      11.728   2.902  -2.159  0.00  0.00     0.028 H 
ATOM     33  H   LIG d   1       9.971   3.199  -2.146  0.00  0.00     0.028 H 
ATOM     34  H   LIG d   1       9.269   5.390  -1.727  0.00  0.00     0.031 H 
ATOM     35  H   LIG d   1       9.168   7.677  -0.742  0.00  0.00     0.031 H 
ATOM     36  C   LIG d   1      10.705   6.566   0.285  0.00  0.00    -0.046 C 
ATOM     37  C   LIG d   1      11.266   7.777   1.066  0.00  0.00    -0.012 C 
ATOM     38  H   LIG d   1       9.925   6.066   0.859  0.00  0.00     0.027 H 
ATOM     39  H   LIG d   1      11.504   5.868   0.032  0.00  0.00     0.027 H 
ATOM     40  H   LIG d   1      10.538   8.115   1.804  0.00  0.00     0.030 H 
ATOM     41  H   LIG d   1      12.199   7.505   1.558  0.00  0.00     0.030 H 
BRANCH   5  42
ATOM     42  C   LIG d   1      10.582   9.342  -2.300  0.00  0.00    -0.056 C 
ATOM     43  H   LIG d   1      11.327  10.121  -2.467  0.00  0.00     0.024 H 
ATOM     44  H   LIG d   1      10.324   8.877  -3.252  0.00  0.00     0.024 H 
ATOM     45  H   LIG d   1       9.688   9.783  -1.858  0.00  0.00     0.024 H 
ENDBRANCH   5  42
BRANCH  14  46
ATOM     46  C   LIG d   1      12.332   4.356  -4.375  0.00  0.00    -0.056 C 
ATOM     47  H   LIG d   1      13.211   4.266  -3.737  0.00  0.00     0.024 H 
ATOM     48  H   LIG d   1      12.259   3.479  -5.019  0.00  0.00     0.024 H 
ATOM     49  H   LIG d   1      12.419   5.251  -4.990  0.00  0.00     0.024 H 
ENDBRANCH  14  46
BRANCH  24  50
ATOM     50  O   LIG d   1       7.709   1.790  -6.102  0.00  0.00    -0.384 OA
BRANCH  50  51
ATOM     51  C   LIG d   1       7.501   0.882  -7.188  0.00  0.00     0.193 C 
ATOM     52  H   LIG d   1       6.647   1.214  -7.779  0.00  0.00     0.082 H 
ATOM     53  H   LIG d   1       8.391   0.857  -7.815  0.00  0.00     0.082 H 
BRANCH  51  54
ATOM     54  C   LIG d   1       7.230  -0.497  -6.644  0.00  0.00     0.254 C 
ATOM     55  O   LIG d   1       6.171  -1.043  -6.875  0.00  0.00    -0.272 OA
ATOM     56  N   LIG d   1       8.163  -1.123  -5.900  0.00  0.00    -0.299 N 
ATOM     57  H   LIG d   1       9.009  -0.687  -5.715  0.00  0.00     0.150 HD
BRANCH  56  58
ATOM     58  C   LIG d   1       7.900  -2.464  -5.372  0.00  0.00     0.124 C 
ATOM     59  H   LIG d   1       7.009  -2.875  -5.849  0.00  0.00     0.062 H 
BRANCH  58  60
ATOM     60  C   LIG d   1       7.675  -2.383  -3.861  0.00  0.00     0.001 C 
ATOM     61  H   LIG d   1       7.824  -3.366  -3.417  0.00  0.00     0.034 H 
ATOM     62  H   LIG d   1       8.384  -1.677  -3.426  0.00  0.00     0.034 H 
BRANCH  60  63
ATOM     63  C   LIG d   1       6.268  -1.916  -3.586  0.00  0.00    -0.039 A 
ATOM     64  C   LIG d   1       6.047  -0.637  -3.112  0.00  0.00     0.018 A 
ATOM     65  C   LIG d   1       4.758  -0.205  -2.863  0.00  0.00     0.266 A 
ATOM     66  H   LIG d   1       6.880   0.027  -2.939  0.00  0.00     0.069 H 
ATOM     67  C   LIG d   1       3.687  -1.060  -3.081  0.00  0.00    -0.029 A 
ATOM     68  C   LIG d   1       3.913  -2.345  -3.551  0.00  0.00    -0.063 A 
ATOM     69  O   LIG d   1       2.418  -0.639  -2.833  0.00  0.00    -0.869 OA
ATOM     70  C   LIG d   1       5.203  -2.771  -3.803  0.00  0.00    -0.059 A 
ATOM     71  H   LIG d   1       3.081  -3.012  -3.722  0.00  0.00     0.061 H 
ATOM     72  H   LIG d   1       5.379  -3.771  -4.170  0.00  0.00     0.062 H 
BRANCH  65  73
ATOM     73  N   LIG d   1       4.520   1.166  -2.361  0.00  0.00     0.079 N 
ATOM     74  O   LIG d   1       4.669   1.415  -1.187  0.00  0.00     0.041 OA
ATOM     75  O   LIG d   1       4.178   2.039  -3.124  0.00  0.00    -0.576 OA
ENDBRANCH  65  73
ENDBRANCH  60  63
ENDBRANCH  58  60
BRANCH  58  76
ATOM     76  C   LIG d   1       9.079  -3.358  -5.657  0.00  0.00     0.328 C 
ATOM     77  O   LIG d   1       8.939  -4.558  -5.666  0.00  0.00    -0.249 OA
BRANCH  76  78
ATOM     78  O   LIG d   1      10.285  -2.821  -5.900  0.00  0.00    -0.467 OA
BRANCH  78  79
ATOM     79  C   LIG d   1      11.249  -2.889  -4.848  0.00  0.00     0.082 C 
ATOM     80  H   LIG d   1      11.913  -2.026  -4.909  0.00  0.00     0.066 H 
ATOM     81  H   LIG d   1      10.738  -2.888  -3.886  0.00  0.00     0.066 H 
ATOM     82  H   LIG d   1      11.832  -3.804  -4.948  0.00  0.00     0.066 H 
ENDBRANCH  78  79
ENDBRANCH  76  78
ENDBRANCH  58  76
ENDBRANCH  56  58
ENDBRANCH  51  54
ENDBRANCH  50  51
ENDBRANCH  24  50
BRANCH   4  83
ATOM     83  O   LIG d   1      12.898   9.270   0.048  0.00  0.00    -0.376 OA
ATOM     84  H   LIG d   1      13.156   9.847  -0.684  0.00  0.00     0.211 HD
ENDBRANCH   4  83
ENDBRANCH   1   4
TORSDOF 14
ENDMDL
MODEL 4
REMARK VINA RESULT:      -6.3      6.476      8.982
REMARK  14 active torsions:
REMARK  status: ('A' for Active; 'I' for Inactive)
REMARK    1  A    between atoms: C_1  and  C_2 
REMARK    2  A    between atoms: N_6  and  O_7 
REMARK    3  A    between atoms: O_7  and  C_8 
REMARK    4  A    between atoms: C_8  and  C_9 
REMARK       I    between atoms: C_9  and  N_11 
REMARK    5  A    between atoms: N_11  and  C_12 
REMARK    6  A    between atoms: C_12  and  C_14 
REMARK    7  A    between atoms: C_12  and  C_25 
REMARK    8  A    between atoms: C_14  and  C_15 
REMARK    9  A    between atoms: C_19  and  N_21 
REMARK   10  A    between atoms: C_25  and  O_27 
REMARK   11  A    between atoms: O_27  and  C_28 
REMARK   12  A    between atoms: C_39  and  C_48 
REMARK   13  A    between atoms: C_44  and  C_45 
REMARK   14  A    between atoms: C_44  and  O_47 
ROOT
ATOM      1  C   LIG d   1      10.695   9.938   0.257  0.00  0.00    -0.070 C 
ATOM      2  C   LIG d   1       9.991  10.841   0.516  0.00  0.00    -0.116 C 
ATOM      3  H   LIG d   1       9.360  11.649   0.748  0.00  0.00     0.123 H 
ENDROOT
BRANCH   1   4
ATOM      4  C   LIG d   1      11.579   8.807  -0.068  0.00  0.00     0.132 C 
ATOM      5  C   LIG d   1      11.147   8.162  -1.413  0.00  0.00     0.011 C 
ATOM      6  C   LIG d   1      12.419   7.590  -2.043  0.00  0.00    -0.043 C 
ATOM      7  C   LIG d   1      10.190   7.044  -0.962  0.00  0.00    -0.029 C 
ATOM      8  C   LIG d   1      12.091   6.582  -3.144  0.00  0.00    -0.049 C 
ATOM      9  H   LIG d   1      13.008   7.095  -1.272  0.00  0.00     0.027 H 
ATOM     10  H   LIG d   1      13.003   8.405  -2.470  0.00  0.00     0.027 H 
ATOM     11  C   LIG d   1      11.289   5.441  -2.516  0.00  0.00    -0.029 C 
ATOM     12  H   LIG d   1      13.015   6.190  -3.572  0.00  0.00     0.027 H 
ATOM     13  H   LIG d   1      11.500   7.064  -3.922  0.00  0.00     0.027 H 
ATOM     14  C   LIG d   1      11.105   4.290  -3.494  0.00  0.00    -0.007 C 
ATOM     15  C   LIG d   1       9.955   6.001  -2.041  0.00  0.00    -0.034 C 
ATOM     16  H   LIG d   1      11.843   5.079  -1.650  0.00  0.00     0.031 H 
ATOM     17  C   LIG d   1       9.846   4.524  -4.290  0.00  0.00    -0.062 C 
ATOM     18  C   LIG d   1      10.994   2.970  -2.730  0.00  0.00    -0.038 C 
ATOM     19  C   LIG d   1       9.138   3.517  -4.776  0.00  0.00    -0.037 C 
ATOM     20  C   LIG d   1       9.405   5.950  -4.514  0.00  0.00    -0.031 C 
ATOM     21  C   LIG d   1       9.549   2.125  -4.550  0.00  0.00     0.080 C 
ATOM     22  H   LIG d   1       8.245   3.721  -5.347  0.00  0.00     0.064 H 
ATOM     23  C   LIG d   1      10.781   1.830  -3.732  0.00  0.00    -0.006 C 
ATOM     24  N   LIG d   1       8.854   1.153  -5.051  0.00  0.00    -0.089 NA
ATOM     25  H   LIG d   1      11.648   1.755  -4.390  0.00  0.00     0.033 H 
ATOM     26  H   LIG d   1      10.647   0.891  -3.194  0.00  0.00     0.033 H 
ATOM     27  C   LIG d   1       9.153   6.629  -3.175  0.00  0.00    -0.046 C 
ATOM     28  H   LIG d   1      10.184   6.490  -5.052  0.00  0.00     0.031 H 
ATOM     29  H   LIG d   1       8.488   5.958  -5.101  0.00  0.00     0.031 H 
ATOM     30  H   LIG d   1       9.424   7.681  -3.257  0.00  0.00     0.027 H 
ATOM     31  H   LIG d   1       8.092   6.557  -2.937  0.00  0.00     0.027 H 
ATOM     32  H   LIG d   1      11.912   2.795  -2.168  0.00  0.00     0.028 H 
ATOM     33  H   LIG d   1      10.148   3.015  -2.044  0.00  0.00     0.028 H 
ATOM     34  H   LIG d   1       9.377   5.181  -1.615  0.00  0.00     0.031 H 
ATOM     35  H   LIG d   1       9.237   7.479  -0.662  0.00  0.00     0.031 H 
ATOM     36  C   LIG d   1      10.886   6.456   0.279  0.00  0.00    -0.046 C 
ATOM     37  C   LIG d   1      11.442   7.706   1.001  0.00  0.00    -0.012 C 
ATOM     38  H   LIG d   1      10.169   5.934   0.911  0.00  0.00     0.027 H 
ATOM     39  H   LIG d   1      11.697   5.790  -0.016  0.00  0.00     0.027 H 
ATOM     40  H   LIG d   1      10.750   8.025   1.780  0.00  0.00     0.030 H 
ATOM     41  H   LIG d   1      12.417   7.484   1.435  0.00  0.00     0.030 H 
BRANCH   5  42
ATOM     42  C   LIG d   1      10.469   9.175  -2.337  0.00  0.00    -0.056 C 
ATOM     43  H   LIG d   1       9.387   9.087  -2.242  0.00  0.00     0.024 H 
ATOM     44  H   LIG d   1      10.777  10.183  -2.059  0.00  0.00     0.024 H 
ATOM     45  H   LIG d   1      10.761   8.979  -3.369  0.00  0.00     0.024 H 
ENDBRANCH   5  42
BRANCH  14  46
ATOM     46  C   LIG d   1      12.303   4.232  -4.443  0.00  0.00    -0.056 C 
ATOM     47  H   LIG d   1      13.101   4.870  -4.062  0.00  0.00     0.024 H 
ATOM     48  H   LIG d   1      12.661   3.205  -4.512  0.00  0.00     0.024 H 
ATOM     49  H   LIG d   1      12.002   4.578  -5.431  0.00  0.00     0.024 H 
ENDBRANCH  14  46
BRANCH  24  50
ATOM     50  O   LIG d   1       7.697   1.433  -5.819  0.00  0.00    -0.384 OA
BRANCH  50  51
ATOM     51  C   LIG d   1       7.435   0.472  -6.845  0.00  0.00     0.193 C 
ATOM     52  H   LIG d   1       7.288   0.986  -7.795  0.00  0.00     0.082 H 
ATOM     53  H   LIG d   1       8.280  -0.211  -6.927  0.00  0.00     0.082 H 
BRANCH  51  54
ATOM     54  C   LIG d   1       6.192  -0.306  -6.497  0.00  0.00     0.254 C 
ATOM     55  O   LIG d   1       6.046  -1.436  -6.915  0.00  0.00    -0.272 OA
ATOM     56  N   LIG d   1       5.241   0.253  -5.722  0.00  0.00    -0.299 N 
ATOM     57  H   LIG d   1       5.357   1.156  -5.388  0.00  0.00     0.150 HD
BRANCH  56  58
ATOM     58  C   LIG d   1       4.033  -0.503  -5.384  0.00  0.00     0.124 C 
ATOM     59  H   LIG d   1       4.105  -1.508  -5.802  0.00  0.00     0.062 H 
BRANCH  58  60
ATOM     60  C   LIG d   1       2.808   0.204  -5.968  0.00  0.00     0.001 C 
ATOM     61  H   LIG d   1       1.904  -0.318  -5.656  0.00  0.00     0.034 H 
ATOM     62  H   LIG d   1       2.777   1.232  -5.606  0.00  0.00     0.034 H 
BRANCH  60  63
ATOM     63  C   LIG d   1       2.895   0.202  -7.472  0.00  0.00    -0.039 A 
ATOM     64  C   LIG d   1       2.827  -0.991  -8.166  0.00  0.00     0.018 A 
ATOM     65  C   LIG d   1       2.902  -0.995  -9.546  0.00  0.00     0.266 A 
ATOM     66  H   LIG d   1       2.711  -1.921  -7.630  0.00  0.00     0.069 H 
ATOM     67  C   LIG d   1       3.057   0.200 -10.234  0.00  0.00    -0.029 A 
ATOM     68  C   LIG d   1       3.131   1.396  -9.535  0.00  0.00    -0.063 A 
ATOM     69  O   LIG d   1       3.135   0.199 -11.591  0.00  0.00    -0.869 OA
ATOM     70  C   LIG d   1       3.050   1.395  -8.156  0.00  0.00    -0.059 A 
ATOM     71  H   LIG d   1       3.251   2.327 -10.068  0.00  0.00     0.061 H 
ATOM     72  H   LIG d   1       3.108   2.325  -7.611  0.00  0.00     0.062 H 
BRANCH  65  73
ATOM     73  N   LIG d   1       2.823  -2.272 -10.288  0.00  0.00     0.079 N 
ATOM     74  O   LIG d   1       1.747  -2.716 -10.616  0.00  0.00     0.041 OA
ATOM     75  O   LIG d   1       3.835  -2.873 -10.568  0.00  0.00    -0.576 OA
ENDBRANCH  65  73
ENDBRANCH  60  63
ENDBRANCH  58  60
BRANCH  58  76
ATOM     76  C   LIG d   1       3.897  -0.591  -3.886  0.00  0.00     0.328 C 
ATOM     77  O   LIG d   1       2.944  -1.153  -3.398  0.00  0.00    -0.249 OA
BRANCH  76  78
ATOM     78  O   LIG d   1       4.832  -0.046  -3.094  0.00  0.00    -0.467 OA
BRANCH  78  79
ATOM     79  C   LIG d   1       4.387   0.903  -2.122  0.00  0.00     0.082 C 
ATOM     80  H   LIG d   1       4.885   0.708  -1.171  0.00  0.00     0.066 H 
ATOM     81  H   LIG d   1       4.630   1.910  -2.460  0.00  0.00     0.066 H 
ATOM     82  H   LIG d   1       3.309   0.812  -1.994  0.00  0.00     0.066 H 
ENDBRANCH  78  79
ENDBRANCH  76  78
ENDBRANCH  58  76
ENDBRANCH  56  58
ENDBRANCH  51  54
ENDBRANCH  50  51
ENDBRANCH  24  50
BRANCH   4  83
ATOM     83  O   LIG d   1      12.935   9.250  -0.147  0.00  0.00    -0.376 OA
ATOM     84  H   LIG d   1      13.278   9.617   0.680  0.00  0.00     0.211 HD
ENDBRANCH   4  83
ENDBRANCH   1   4
TORSDOF 14
ENDMDL
MODEL 5
REMARK VINA RESULT:      -6.2      4.033      5.968
REMARK  14 active torsions:
REMARK  status: ('A' for Active; 'I' for Inactive)
REMARK    1  A    between atoms: C_1  and  C_2 
REMARK    2  A    between atoms: N_6  and  O_7 
REMARK    3  A    between atoms: O_7  and  C_8 
REMARK    4  A    between atoms: C_8  and  C_9 
REMARK       I    between atoms: C_9  and  N_11 
REMARK    5  A    between atoms: N_11  and  C_12 
REMARK    6  A    between atoms: C_12  and  C_14 
REMARK    7  A    between atoms: C_12  and  C_25 
REMARK    8  A    between atoms: C_14  and  C_15 
REMARK    9  A    between atoms: C_19  and  N_21 
REMARK   10  A    between atoms: C_25  and  O_27 
REMARK   11  A    between atoms: O_27  and  C_28 
REMARK   12  A    between atoms: C_39  and  C_48 
REMARK   13  A    between atoms: C_44  and  C_45 
REMARK   14  A    between atoms: C_44  and  O_47 
ROOT
ATOM      1  C   LIG d   1       3.927   0.679  -2.533  0.00  0.00    -0.070 C 
ATOM      2  C   LIG d   1       3.513   1.775  -2.452  0.00  0.00    -0.116 C 
ATOM      3  H   LIG d   1       3.144   2.756  -2.380  0.00  0.00     0.123 H 
ENDROOT
BRANCH   1   4
ATOM      4  C   LIG d   1       4.444  -0.695  -2.634  0.00  0.00     0.132 C 
ATOM      5  C   LIG d   1       5.726  -0.720  -3.512  0.00  0.00     0.011 C 
ATOM      6  C   LIG d   1       6.585  -1.872  -2.987  0.00  0.00    -0.043 C 
ATOM      7  C   LIG d   1       5.171  -1.024  -4.914  0.00  0.00    -0.029 C 
ATOM      8  C   LIG d   1       7.658  -2.273  -3.998  0.00  0.00    -0.049 C 
ATOM      9  H   LIG d   1       5.945  -2.731  -2.787  0.00  0.00     0.027 H 
ATOM     10  H   LIG d   1       7.067  -1.564  -2.059  0.00  0.00     0.027 H 
ATOM     11  C   LIG d   1       6.955  -2.718  -5.281  0.00  0.00    -0.029 C 
ATOM     12  H   LIG d   1       8.252  -3.097  -3.599  0.00  0.00     0.027 H 
ATOM     13  H   LIG d   1       8.304  -1.421  -4.208  0.00  0.00     0.027 H 
ATOM     14  C   LIG d   1       7.938  -3.336  -6.265  0.00  0.00    -0.007 C 
ATOM     15  C   LIG d   1       6.239  -1.513  -5.876  0.00  0.00    -0.034 C 
ATOM     16  H   LIG d   1       6.212  -3.468  -5.012  0.00  0.00     0.031 H 
ATOM     17  C   LIG d   1       8.501  -2.246  -7.141  0.00  0.00    -0.062 C 
ATOM     18  C   LIG d   1       7.226  -4.377  -7.130  0.00  0.00    -0.038 C 
ATOM     19  C   LIG d   1       8.905  -2.492  -8.377  0.00  0.00    -0.037 C 
ATOM     20  C   LIG d   1       8.585  -0.851  -6.569  0.00  0.00    -0.031 C 
ATOM     21  C   LIG d   1       8.813  -3.842  -8.949  0.00  0.00     0.080 C 
ATOM     22  H   LIG d   1       9.309  -1.688  -8.974  0.00  0.00     0.064 H 
ATOM     23  C   LIG d   1       8.227  -4.965  -8.130  0.00  0.00    -0.006 C 
ATOM     24  N   LIG d   1       9.233  -4.066 -10.153  0.00  0.00    -0.089 NA
ATOM     25  H   LIG d   1       9.023  -5.478  -7.591  0.00  0.00     0.033 H 
ATOM     26  H   LIG d   1       7.716  -5.668  -8.787  0.00  0.00     0.033 H 
ATOM     27  C   LIG d   1       7.194  -0.367  -6.185  0.00  0.00    -0.046 C 
ATOM     28  H   LIG d   1       9.222  -0.860  -5.685  0.00  0.00     0.031 H 
ATOM     29  H   LIG d   1       9.009  -0.179  -7.314  0.00  0.00     0.031 H 
ATOM     30  H   LIG d   1       7.274   0.272  -5.306  0.00  0.00     0.027 H 
ATOM     31  H   LIG d   1       6.785   0.220  -7.009  0.00  0.00     0.027 H 
ATOM     32  H   LIG d   1       6.834  -5.172  -6.495  0.00  0.00     0.028 H 
ATOM     33  H   LIG d   1       6.406  -3.902  -7.670  0.00  0.00     0.028 H 
ATOM     34  H   LIG d   1       5.759  -1.829  -6.802  0.00  0.00     0.031 H 
ATOM     35  H   LIG d   1       4.696  -0.131  -5.320  0.00  0.00     0.031 H 
ATOM     36  C   LIG d   1       4.091  -2.089  -4.648  0.00  0.00    -0.046 C 
ATOM     37  C   LIG d   1       3.417  -1.596  -3.345  0.00  0.00    -0.012 C 
ATOM     38  H   LIG d   1       3.370  -2.119  -5.466  0.00  0.00     0.027 H 
ATOM     39  H   LIG d   1       4.546  -3.068  -4.499  0.00  0.00     0.027 H 
ATOM     40  H   LIG d   1       2.520  -1.024  -3.583  0.00  0.00     0.030 H 
ATOM     41  H   LIG d   1       3.164  -2.445  -2.712  0.00  0.00     0.030 H 
BRANCH   5  42
ATOM     42  C   LIG d   1       6.477   0.612  -3.456  0.00  0.00    -0.056 C 
ATOM     43  H   LIG d   1       7.342   0.569  -4.119  0.00  0.00     0.024 H 
ATOM     44  H   LIG d   1       5.815   1.416  -3.775  0.00  0.00     0.024 H 
ATOM     45  H   LIG d   1       6.811   0.799  -2.435  0.00  0.00     0.024 H 
ENDBRANCH   5  42
BRANCH  14  46
ATOM     46  C   LIG d   1       9.076  -4.007  -5.493  0.00  0.00    -0.056 C 
ATOM     47  H   LIG d   1       8.695  -4.401  -4.551  0.00  0.00     0.024 H 
ATOM     48  H   LIG d   1       9.486  -4.823  -6.089  0.00  0.00     0.024 H 
ATOM     49  H   LIG d   1       9.859  -3.276  -5.292  0.00  0.00     0.024 H 
ENDBRANCH  14  46
BRANCH  24  50
ATOM     50  O   LIG d   1       9.783  -3.010 -10.920  0.00  0.00    -0.384 OA
BRANCH  50  51
ATOM     51  C   LIG d   1       9.059  -2.726 -12.120  0.00  0.00     0.193 C 
ATOM     52  H   LIG d   1       9.596  -1.974 -12.698  0.00  0.00     0.082 H 
ATOM     53  H   LIG d   1       8.960  -3.637 -12.709  0.00  0.00     0.082 H 
BRANCH  51  54
ATOM     54  C   LIG d   1       7.689  -2.204 -11.768  0.00  0.00     0.254 C 
ATOM     55  O   LIG d   1       7.489  -1.008 -11.721  0.00  0.00    -0.272 OA
ATOM     56  N   LIG d   1       6.687  -3.066 -11.505  0.00  0.00    -0.299 N 
ATOM     57  H   LIG d   1       6.847  -4.022 -11.543  0.00  0.00     0.150 HD
BRANCH  56  58
ATOM     58  C   LIG d   1       5.355  -2.559 -11.164  0.00  0.00     0.124 C 
ATOM     59  H   LIG d   1       5.292  -1.502 -11.422  0.00  0.00     0.062 H 
BRANCH  58  60
ATOM     60  C   LIG d   1       5.113  -2.732  -9.664  0.00  0.00     0.001 C 
ATOM     61  H   LIG d   1       4.422  -3.559  -9.499  0.00  0.00     0.034 H 
ATOM     62  H   LIG d   1       6.059  -2.945  -9.165  0.00  0.00     0.034 H 
BRANCH  60  63
ATOM     63  C   LIG d   1       4.522  -1.466  -9.100  0.00  0.00    -0.039 A 
ATOM     64  C   LIG d   1       5.133  -0.251  -9.346  0.00  0.00     0.018 A 
ATOM     65  C   LIG d   1       4.591   0.913  -8.834  0.00  0.00     0.266 A 
ATOM     66  H   LIG d   1       6.032  -0.209  -9.942  0.00  0.00     0.069 H 
ATOM     67  C   LIG d   1       3.438   0.859  -8.064  0.00  0.00    -0.029 A 
ATOM     68  C   LIG d   1       2.830  -0.363  -7.814  0.00  0.00    -0.063 A 
ATOM     69  O   LIG d   1       2.904   2.001  -7.555  0.00  0.00    -0.869 OA
ATOM     70  C   LIG d   1       3.373  -1.522  -8.332  0.00  0.00    -0.059 A 
ATOM     71  H   LIG d   1       1.932  -0.407  -7.215  0.00  0.00     0.061 H 
ATOM     72  H   LIG d   1       2.900  -2.473  -8.138  0.00  0.00     0.062 H 
BRANCH  65  73
ATOM     73  N   LIG d   1       5.242   2.214  -9.102  0.00  0.00     0.079 N 
ATOM     74  O   LIG d   1       6.442   2.321  -9.007  0.00  0.00     0.041 OA
ATOM     75  O   LIG d   1       4.573   3.171  -9.418  0.00  0.00    -0.576 OA
ENDBRANCH  65  73
ENDBRANCH  60  63
ENDBRANCH  58  60
BRANCH  58  76
ATOM     76  C   LIG d   1       4.312  -3.327 -11.933  0.00  0.00     0.328 C 
ATOM     77  O   LIG d   1       4.453  -4.512 -12.125  0.00  0.00    -0.249 OA
BRANCH  76  78
ATOM     78  O   LIG d   1       3.226  -2.696 -12.406  0.00  0.00    -0.467 OA
BRANCH  78  79
ATOM     79  C   LIG d   1       1.994  -2.921 -11.718  0.00  0.00     0.082 C 
ATOM     80  H   LIG d   1       1.210  -3.143 -12.442  0.00  0.00     0.066 H 
ATOM     81  H   LIG d   1       2.108  -3.763 -11.036  0.00  0.00     0.066 H 
ATOM     82  H   LIG d   1       1.725  -2.029 -11.153  0.00  0.00     0.066 H 
ENDBRANCH  78  79
ENDBRANCH  76  78
ENDBRANCH  58  76
ENDBRANCH  56  58
ENDBRANCH  51  54
ENDBRANCH  50  51
ENDBRANCH  24  50
BRANCH   4  83
ATOM     83  O   LIG d   1       4.730  -1.209  -1.331  0.00  0.00    -0.376 OA
ATOM     84  H   LIG d   1       4.335  -0.699  -0.611  0.00  0.00     0.211 HD
ENDBRANCH   4  83
ENDBRANCH   1   4
TORSDOF 14
ENDMDL
MODEL 6
REMARK VINA RESULT:      -6.1      2.478      4.308
REMARK  14 active torsions:
REMARK  status: ('A' for Active; 'I' for Inactive)
REMARK    1  A    between atoms: C_1  and  C_2 
REMARK    2  A    between atoms: N_6  and  O_7 
REMARK    3  A    between atoms: O_7  and  C_8 
REMARK    4  A    between atoms: C_8  and  C_9 
REMARK       I    between atoms: C_9  and  N_11 
REMARK    5  A    between atoms: N_11  and  C_12 
REMARK    6  A    between atoms: C_12  and  C_14 
REMARK    7  A    between atoms: C_12  and  C_25 
REMARK    8  A    between atoms: C_14  and  C_15 
REMARK    9  A    between atoms: C_19  and  N_21 
REMARK   10  A    between atoms: C_25  and  O_27 
REMARK   11  A    between atoms: O_27  and  C_28 
REMARK   12  A    between atoms: C_39  and  C_48 
REMARK   13  A    between atoms: C_44  and  C_45 
REMARK   14  A    between atoms: C_44  and  O_47 
ROOT
ATOM      1  C   LIG d   1       2.790   0.046  -4.147  0.00  0.00    -0.070 C 
ATOM      2  C   LIG d   1       1.695   0.002  -4.568  0.00  0.00    -0.116 C 
ATOM      3  H   LIG d   1       0.715  -0.037  -4.943  0.00  0.00     0.123 H 
ENDROOT
BRANCH   1   4
ATOM      4  C   LIG d   1       4.164   0.102  -3.621  0.00  0.00     0.132 C 
ATOM      5  C   LIG d   1       5.111  -0.752  -4.508  0.00  0.00     0.011 C 
ATOM      6  C   LIG d   1       6.490  -0.094  -4.423  0.00  0.00    -0.043 C 
ATOM      7  C   LIG d   1       5.095  -2.120  -3.804  0.00  0.00    -0.029 C 
ATOM      8  C   LIG d   1       7.590  -1.041  -4.898  0.00  0.00    -0.049 C 
ATOM      9  H   LIG d   1       6.686   0.189  -3.389  0.00  0.00     0.027 H 
ATOM     10  H   LIG d   1       6.498   0.801  -5.045  0.00  0.00     0.027 H 
ATOM     11  C   LIG d   1       7.570  -2.278  -3.998  0.00  0.00    -0.029 C 
ATOM     12  H   LIG d   1       8.560  -0.548  -4.823  0.00  0.00     0.027 H 
ATOM     13  H   LIG d   1       7.405  -1.334  -5.931  0.00  0.00     0.027 H 
ATOM     14  C   LIG d   1       8.769  -3.176  -4.264  0.00  0.00    -0.007 C 
ATOM     15  C   LIG d   1       6.253  -3.009  -4.221  0.00  0.00    -0.034 C 
ATOM     16  H   LIG d   1       7.610  -1.939  -2.963  0.00  0.00     0.031 H 
ATOM     17  C   LIG d   1       8.411  -4.158  -5.351  0.00  0.00    -0.062 C 
ATOM     18  C   LIG d   1       9.148  -3.932  -2.990  0.00  0.00    -0.038 C 
ATOM     19  C   LIG d   1       8.973  -5.354  -5.413  0.00  0.00    -0.037 C 
ATOM     20  C   LIG d   1       7.379  -3.740  -6.370  0.00  0.00    -0.031 C 
ATOM     21  C   LIG d   1       9.966  -5.778  -4.417  0.00  0.00     0.080 C 
ATOM     22  H   LIG d   1       8.697  -6.030  -6.209  0.00  0.00     0.064 H 
ATOM     23  C   LIG d   1      10.338  -4.849  -3.288  0.00  0.00    -0.006 C 
ATOM     24  N   LIG d   1      10.520  -6.945  -4.508  0.00  0.00    -0.089 NA
ATOM     25  H   LIG d   1      11.199  -4.247  -3.579  0.00  0.00     0.033 H 
ATOM     26  H   LIG d   1      10.581  -5.433  -2.400  0.00  0.00     0.033 H 
ATOM     27  C   LIG d   1       6.063  -3.429  -5.673  0.00  0.00    -0.046 C 
ATOM     28  H   LIG d   1       7.729  -2.852  -6.896  0.00  0.00     0.031 H 
ATOM     29  H   LIG d   1       7.229  -4.548  -7.085  0.00  0.00     0.031 H 
ATOM     30  H   LIG d   1       5.562  -2.623  -6.210  0.00  0.00     0.027 H 
ATOM     31  H   LIG d   1       5.430  -4.316  -5.703  0.00  0.00     0.027 H 
ATOM     32  H   LIG d   1       9.422  -3.220  -2.211  0.00  0.00     0.028 H 
ATOM     33  H   LIG d   1       8.300  -4.531  -2.656  0.00  0.00     0.028 H 
ATOM     34  H   LIG d   1       6.252  -3.902  -3.595  0.00  0.00     0.031 H 
ATOM     35  H   LIG d   1       4.152  -2.627  -4.014  0.00  0.00     0.031 H 
ATOM     36  C   LIG d   1       5.146  -1.754  -2.310  0.00  0.00    -0.046 C 
ATOM     37  C   LIG d   1       4.216  -0.521  -2.213  0.00  0.00    -0.012 C 
ATOM     38  H   LIG d   1       4.764  -2.573  -1.700  0.00  0.00     0.027 H 
ATOM     39  H   LIG d   1       6.162  -1.493  -2.013  0.00  0.00     0.027 H 
ATOM     40  H   LIG d   1       3.217  -0.831  -1.904  0.00  0.00     0.030 H 
ATOM     41  H   LIG d   1       4.622   0.197  -1.502  0.00  0.00     0.030 H 
BRANCH   5  42
ATOM     42  C   LIG d   1       4.615  -0.831  -5.954  0.00  0.00    -0.056 C 
ATOM     43  H   LIG d   1       5.441  -0.617  -6.633  0.00  0.00     0.024 H 
ATOM     44  H   LIG d   1       4.233  -1.832  -6.152  0.00  0.00     0.024 H 
ATOM     45  H   LIG d   1       3.820  -0.102  -6.106  0.00  0.00     0.024 H 
ENDBRANCH   5  42
BRANCH  14  46
ATOM     46  C   LIG d   1       9.953  -2.322  -4.721  0.00  0.00    -0.056 C 
ATOM     47  H   LIG d   1       9.652  -1.275  -4.763  0.00  0.00     0.024 H 
ATOM     48  H   LIG d   1      10.776  -2.435  -4.014  0.00  0.00     0.024 H 
ATOM     49  H   LIG d   1      10.277  -2.647  -5.709  0.00  0.00     0.024 H 
ENDBRANCH  14  46
BRANCH  24  50
ATOM     50  O   LIG d   1      10.169  -7.815  -5.569  0.00  0.00    -0.384 OA
BRANCH  50  51
ATOM     51  C   LIG d   1      10.711  -9.132  -5.444  0.00  0.00     0.193 C 
ATOM     52  H   LIG d   1      10.695  -9.625  -6.416  0.00  0.00     0.082 H 
ATOM     53  H   LIG d   1      11.737  -9.069  -5.083  0.00  0.00     0.082 H 
BRANCH  51  54
ATOM     54  C   LIG d   1       9.882  -9.924  -4.466  0.00  0.00     0.254 C 
ATOM     55  O   LIG d   1       9.381 -10.976  -4.807  0.00  0.00    -0.272 OA
ATOM     56  N   LIG d   1       9.698  -9.466  -3.212  0.00  0.00    -0.299 N 
ATOM     57  H   LIG d   1      10.098  -8.626  -2.939  0.00  0.00     0.150 HD
BRANCH  56  58
ATOM     58  C   LIG d   1       8.893 -10.237  -2.261  0.00  0.00     0.124 C 
ATOM     59  H   LIG d   1       8.534 -11.147  -2.743  0.00  0.00     0.062 H 
BRANCH  58  60
ATOM     60  C   LIG d   1       7.698  -9.398  -1.806  0.00  0.00     0.001 C 
ATOM     61  H   LIG d   1       7.534  -9.547  -0.739  0.00  0.00     0.034 H 
ATOM     62  H   LIG d   1       7.901  -8.343  -1.998  0.00  0.00     0.034 H 
BRANCH  60  63
ATOM     63  C   LIG d   1       6.467  -9.819  -2.567  0.00  0.00    -0.039 A 
ATOM     64  C   LIG d   1       6.116  -9.160  -3.729  0.00  0.00     0.018 A 
ATOM     65  C   LIG d   1       4.990  -9.548  -4.431  0.00  0.00     0.266 A 
ATOM     66  H   LIG d   1       6.723  -8.345  -4.092  0.00  0.00     0.069 H 
ATOM     67  C   LIG d   1       4.208 -10.593  -3.962  0.00  0.00    -0.029 A 
ATOM     68  C   LIG d   1       4.560 -11.249  -2.791  0.00  0.00    -0.063 A 
ATOM     69  O   LIG d   1       3.097 -10.974  -4.648  0.00  0.00    -0.869 OA
ATOM     70  C   LIG d   1       5.688 -10.861  -2.096  0.00  0.00    -0.059 A 
ATOM     71  H   LIG d   1       3.952 -12.063  -2.424  0.00  0.00     0.061 H 
ATOM     72  H   LIG d   1       5.963 -11.371  -1.185  0.00  0.00     0.062 H 
BRANCH  65  73
ATOM     73  N   LIG d   1       4.618  -8.847  -5.679  0.00  0.00     0.079 N 
ATOM     74  O   LIG d   1       4.370  -9.480  -6.679  0.00  0.00     0.041 OA
ATOM     75  O   LIG d   1       4.560  -7.639  -5.700  0.00  0.00    -0.576 OA
ENDBRANCH  65  73
ENDBRANCH  60  63
ENDBRANCH  58  60
BRANCH  58  76
ATOM     76  C   LIG d   1       9.736 -10.600  -1.066  0.00  0.00     0.328 C 
ATOM     77  O   LIG d   1      10.364 -11.633  -1.062  0.00  0.00    -0.249 OA
BRANCH  76  78
ATOM     78  O   LIG d   1       9.791  -9.777  -0.007  0.00  0.00    -0.467 OA
BRANCH  78  79
ATOM     79  C   LIG d   1      11.089  -9.377   0.436  0.00  0.00     0.082 C 
ATOM     80  H   LIG d   1      11.460 -10.096   1.168  0.00  0.00     0.066 H 
ATOM     81  H   LIG d   1      11.769  -9.342  -0.415  0.00  0.00     0.066 H 
ATOM     82  H   LIG d   1      11.028  -8.390   0.893  0.00  0.00     0.066 H 
ENDBRANCH  78  79
ENDBRANCH  76  78
ENDBRANCH  58  76
ENDBRANCH  56  58
ENDBRANCH  51  54
ENDBRANCH  50  51
ENDBRANCH  24  50
BRANCH   4  83
ATOM     83  O   LIG d   1       4.619   1.456  -3.576  0.00  0.00    -0.376 OA
ATOM     84  H   LIG d   1       4.166   2.001  -2.919  0.00  0.00     0.211 HD
ENDBRANCH   4  83
ENDBRANCH   1   4
TORSDOF 14
ENDMDL
MODEL 7
REMARK VINA RESULT:      -5.9      6.555      9.657
REMARK  14 active torsions:
REMARK  status: ('A' for Active; 'I' for Inactive)
REMARK    1  A    between atoms: C_1  and  C_2 
REMARK    2  A    between atoms: N_6  and  O_7 
REMARK    3  A    between atoms: O_7  and  C_8 
REMARK    4  A    between atoms: C_8  and  C_9 
REMARK       I    between atoms: C_9  and  N_11 
REMARK    5  A    between atoms: N_11  and  C_12 
REMARK    6  A    between atoms: C_12  and  C_14 
REMARK    7  A    between atoms: C_12  and  C_25 
REMARK    8  A    between atoms: C_14  and  C_15 
REMARK    9  A    between atoms: C_19  and  N_21 
REMARK   10  A    between atoms: C_25  and  O_27 
REMARK   11  A    between atoms: O_27  and  C_28 
REMARK   12  A    between atoms: C_39  and  C_48 
REMARK   13  A    between atoms: C_44  and  C_45 
REMARK   14  A    between atoms: C_44  and  O_47 
ROOT
ATOM      1  C   LIG d   1      10.917   9.791   0.438  0.00  0.00    -0.070 C 
ATOM      2  C   LIG d   1      10.279  10.744   0.686  0.00  0.00    -0.116 C 
ATOM      3  H   LIG d   1       9.707  11.596   0.907  0.00  0.00     0.123 H 
ENDROOT
BRANCH   1   4
ATOM      4  C   LIG d   1      11.719   8.596   0.128  0.00  0.00     0.132 C 
ATOM      5  C   LIG d   1      11.326   8.036  -1.267  0.00  0.00     0.011 C 
ATOM      6  C   LIG d   1      12.582   7.374  -1.835  0.00  0.00    -0.043 C 
ATOM      7  C   LIG d   1      10.247   6.995  -0.923  0.00  0.00    -0.029 C 
ATOM      8  C   LIG d   1      12.244   6.437  -2.994  0.00  0.00    -0.049 C 
ATOM      9  H   LIG d   1      13.073   6.804  -1.047  0.00  0.00     0.027 H 
ATOM     10  H   LIG d   1      13.264   8.147  -2.191  0.00  0.00     0.027 H 
ATOM     11  C   LIG d   1      11.304   5.353  -2.463  0.00  0.00    -0.029 C 
ATOM     12  H   LIG d   1      13.157   5.978  -3.376  0.00  0.00     0.027 H 
ATOM     13  H   LIG d   1      11.751   6.995  -3.789  0.00  0.00     0.027 H 
ATOM     14  C   LIG d   1      11.088   4.256  -3.495  0.00  0.00    -0.007 C 
ATOM     15  C   LIG d   1       9.995   6.013  -2.054  0.00  0.00    -0.034 C 
ATOM     16  H   LIG d   1      11.765   4.914  -1.579  0.00  0.00     0.031 H 
ATOM     17  C   LIG d   1       9.911   4.627  -4.362  0.00  0.00    -0.062 C 
ATOM     18  C   LIG d   1      10.811   2.925  -2.792  0.00  0.00    -0.038 C 
ATOM     19  C   LIG d   1       9.153   3.703  -4.931  0.00  0.00    -0.037 C 
ATOM     20  C   LIG d   1       9.612   6.093  -4.558  0.00  0.00    -0.031 C 
ATOM     21  C   LIG d   1       9.424   2.274  -4.733  0.00  0.00     0.080 C 
ATOM     22  H   LIG d   1       8.322   4.006  -5.550  0.00  0.00     0.064 H 
ATOM     23  C   LIG d   1      10.568   1.843  -3.849  0.00  0.00    -0.006 C 
ATOM     24  N   LIG d   1       8.683   1.386  -5.316  0.00  0.00    -0.089 NA
ATOM     25  H   LIG d   1      11.467   1.713  -4.452  0.00  0.00     0.033 H 
ATOM     26  H   LIG d   1      10.317   0.903  -3.358  0.00  0.00     0.033 H 
ATOM     27  C   LIG d   1       9.330   6.747  -3.212  0.00  0.00    -0.046 C 
ATOM     28  H   LIG d   1      10.470   6.578  -5.023  0.00  0.00     0.031 H 
ATOM     29  H   LIG d   1       8.741   6.203  -5.203  0.00  0.00     0.031 H 
ATOM     30  H   LIG d   1       9.697   7.773  -3.236  0.00  0.00     0.027 H 
ATOM     31  H   LIG d   1       8.253   6.763  -3.047  0.00  0.00     0.027 H 
ATOM     32  H   LIG d   1      11.670   2.651  -2.179  0.00  0.00     0.028 H 
ATOM     33  H   LIG d   1       9.927   3.023  -2.161  0.00  0.00     0.028 H 
ATOM     34  H   LIG d   1       9.320   5.234  -1.698  0.00  0.00     0.031 H 
ATOM     35  H   LIG d   1       9.317   7.504  -0.668  0.00  0.00     0.031 H 
ATOM     36  C   LIG d   1      10.803   6.306   0.337  0.00  0.00    -0.046 C 
ATOM     37  C   LIG d   1      11.415   7.477   1.142  0.00  0.00    -0.012 C 
ATOM     38  H   LIG d   1      10.001   5.830   0.901  0.00  0.00     0.027 H 
ATOM     39  H   LIG d   1      11.571   5.580   0.070  0.00  0.00     0.027 H 
ATOM     40  H   LIG d   1      10.702   7.831   1.886  0.00  0.00     0.030 H 
ATOM     41  H   LIG d   1      12.335   7.154   1.628  0.00  0.00     0.030 H 
BRANCH   5  42
ATOM     42  C   LIG d   1      10.803   9.137  -2.193  0.00  0.00    -0.056 C 
ATOM     43  H   LIG d   1      11.644   9.689  -2.613  0.00  0.00     0.024 H 
ATOM     44  H   LIG d   1      10.224   8.688  -3.000  0.00  0.00     0.024 H 
ATOM     45  H   LIG d   1      10.168   9.818  -1.626  0.00  0.00     0.024 H 
ENDBRANCH   5  42
BRANCH  14  46
ATOM     46  C   LIG d   1      12.338   4.121  -4.366  0.00  0.00    -0.056 C 
ATOM     47  H   LIG d   1      12.062   3.717  -5.340  0.00  0.00     0.024 H 
ATOM     48  H   LIG d   1      12.796   5.102  -4.497  0.00  0.00     0.024 H 
ATOM     49  H   LIG d   1      13.049   3.452  -3.882  0.00  0.00     0.024 H 
ENDBRANCH  14  46
BRANCH  24  50
ATOM     50  O   LIG d   1       7.610   1.793  -6.145  0.00  0.00    -0.384 OA
BRANCH  50  51
ATOM     51  C   LIG d   1       7.787   1.465  -7.526  0.00  0.00     0.193 C 
ATOM     52  H   LIG d   1       8.324   2.272  -8.025  0.00  0.00     0.082 H 
ATOM     53  H   LIG d   1       8.357   0.541  -7.609  0.00  0.00     0.082 H 
BRANCH  51  54
ATOM     54  C   LIG d   1       6.439   1.283  -8.174  0.00  0.00     0.254 C 
ATOM     55  O   LIG d   1       5.933   2.199  -8.791  0.00  0.00    -0.272 OA
ATOM     56  N   LIG d   1       5.794   0.104  -8.070  0.00  0.00    -0.299 N 
ATOM     57  H   LIG d   1       6.197  -0.627  -7.578  0.00  0.00     0.150 HD
BRANCH  56  58
ATOM     58  C   LIG d   1       4.483  -0.072  -8.702  0.00  0.00     0.124 C 
ATOM     59  H   LIG d   1       3.985   0.895  -8.782  0.00  0.00     0.062 H 
BRANCH  58  60
ATOM     60  C   LIG d   1       3.630  -1.014  -7.851  0.00  0.00     0.001 C 
ATOM     61  H   LIG d   1       2.623  -1.068  -8.265  0.00  0.00     0.034 H 
ATOM     62  H   LIG d   1       4.077  -2.009  -7.852  0.00  0.00     0.034 H 
BRANCH  60  63
ATOM     63  C   LIG d   1       3.563  -0.494  -6.438  0.00  0.00    -0.039 A 
ATOM     64  C   LIG d   1       4.461  -0.950  -5.492  0.00  0.00     0.018 A 
ATOM     65  C   LIG d   1       4.406  -0.472  -4.197  0.00  0.00     0.266 A 
ATOM     66  H   LIG d   1       5.211  -1.677  -5.765  0.00  0.00     0.069 H 
ATOM     67  C   LIG d   1       3.439   0.460  -3.844  0.00  0.00    -0.029 A 
ATOM     68  C   LIG d   1       2.534   0.911  -4.794  0.00  0.00    -0.063 A 
ATOM     69  O   LIG d   1       3.379   0.929  -2.569  0.00  0.00    -0.869 OA
ATOM     70  C   LIG d   1       2.598   0.433  -6.089  0.00  0.00    -0.059 A 
ATOM     71  H   LIG d   1       1.782   1.636  -4.522  0.00  0.00     0.061 H 
ATOM     72  H   LIG d   1       1.894   0.784  -6.828  0.00  0.00     0.062 H 
BRANCH  65  73
ATOM     73  N   LIG d   1       5.372  -0.955  -3.186  0.00  0.00     0.079 N 
ATOM     74  O   LIG d   1       5.091  -1.898  -2.483  0.00  0.00     0.041 OA
ATOM     75  O   LIG d   1       6.443  -0.408  -3.062  0.00  0.00    -0.576 OA
ENDBRANCH  65  73
ENDBRANCH  60  63
ENDBRANCH  58  60
BRANCH  58  76
ATOM     76  C   LIG d   1       4.663  -0.661 -10.077  0.00  0.00     0.328 C 
ATOM     77  O   LIG d   1       5.369  -1.629 -10.232  0.00  0.00    -0.249 OA
BRANCH  76  78
ATOM     78  O   LIG d   1       4.038  -0.111 -11.130  0.00  0.00    -0.467 OA
BRANCH  78  79
ATOM     79  C   LIG d   1       2.738  -0.611 -11.447  0.00  0.00     0.082 C 
ATOM     80  H   LIG d   1       2.005   0.190 -11.341  0.00  0.00     0.066 H 
ATOM     81  H   LIG d   1       2.730  -0.978 -12.473  0.00  0.00     0.066 H 
ATOM     82  H   LIG d   1       2.486  -1.425 -10.768  0.00  0.00     0.066 H 
ENDBRANCH  78  79
ENDBRANCH  76  78
ENDBRANCH  58  76
ENDBRANCH  56  58
ENDBRANCH  51  54
ENDBRANCH  50  51
ENDBRANCH  24  50
BRANCH   4  83
ATOM     83  O   LIG d   1      13.112   8.918   0.154  0.00  0.00    -0.376 OA
ATOM     84  H   LIG d   1      13.687   8.199  -0.143  0.00  0.00     0.211 HD
ENDBRANCH   4  83
ENDBRANCH   1   4
TORSDOF 14
ENDMDL
MODEL 8
REMARK VINA RESULT:      -5.8      9.822     14.182
REMARK  14 active torsions:
REMARK  status: ('A' for Active; 'I' for Inactive)
REMARK    1  A    between atoms: C_1  and  C_2 
REMARK    2  A    between atoms: N_6  and  O_7 
REMARK    3  A    between atoms: O_7  and  C_8 
REMARK    4  A    between atoms: C_8  and  C_9 
REMARK       I    between atoms: C_9  and  N_11 
REMARK    5  A    between atoms: N_11  and  C_12 
REMARK    6  A    between atoms: C_12  and  C_14 
REMARK    7  A    between atoms: C_12  and  C_25 
REMARK    8  A    between atoms: C_14  and  C_15 
REMARK    9  A    between atoms: C_19  and  N_21 
REMARK   10  A    between atoms: C_25  and  O_27 
REMARK   11  A    between atoms: O_27  and  C_28 
REMARK   12  A    between atoms: C_39  and  C_48 
REMARK   13  A    between atoms: C_44  and  C_45 
REMARK   14  A    between atoms: C_44  and  O_47 
ROOT
ATOM      1  C   LIG d   1      12.616   9.327   0.723  0.00  0.00    -0.070 C 
ATOM      2  C   LIG d   1      13.395  10.200   0.822  0.00  0.00    -0.116 C 
ATOM      3  H   LIG d   1      14.092  10.980   0.911  0.00  0.00     0.123 H 
ENDROOT
BRANCH   1   4
ATOM      4  C   LIG d   1      11.639   8.233   0.598  0.00  0.00     0.132 C 
ATOM      5  C   LIG d   1      12.150   7.175  -0.419  0.00  0.00     0.011 C 
ATOM      6  C   LIG d   1      11.575   5.831   0.033  0.00  0.00    -0.043 C 
ATOM      7  C   LIG d   1      11.516   7.642  -1.741  0.00  0.00    -0.029 C 
ATOM      8  C   LIG d   1      11.647   4.790  -1.083  0.00  0.00    -0.049 C 
ATOM      9  H   LIG d   1      10.534   5.969   0.325  0.00  0.00     0.027 H 
ATOM     10  H   LIG d   1      12.141   5.471   0.892  0.00  0.00     0.027 H 
ATOM     11  C   LIG d   1      10.829   5.311  -2.267  0.00  0.00    -0.029 C 
ATOM     12  H   LIG d   1      11.228   3.845  -0.734  0.00  0.00     0.027 H 
ATOM     13  H   LIG d   1      12.682   4.645  -1.386  0.00  0.00     0.027 H 
ATOM     14  C   LIG d   1      10.669   4.244  -3.340  0.00  0.00    -0.007 C 
ATOM     15  C   LIG d   1      11.511   6.560  -2.806  0.00  0.00    -0.034 C 
ATOM     16  H   LIG d   1       9.841   5.584  -1.896  0.00  0.00     0.031 H 
ATOM     17  C   LIG d   1      11.827   4.342  -4.302  0.00  0.00    -0.062 C 
ATOM     18  C   LIG d   1       9.354   4.454  -4.093  0.00  0.00    -0.038 C 
ATOM     19  C   LIG d   1      11.705   3.981  -5.569  0.00  0.00    -0.037 C 
ATOM     20  C   LIG d   1      13.138   4.877  -3.778  0.00  0.00    -0.031 C 
ATOM     21  C   LIG d   1      10.429   3.476  -6.093  0.00  0.00     0.080 C 
ATOM     22  H   LIG d   1      12.556   4.060  -6.228  0.00  0.00     0.064 H 
ATOM     23  C   LIG d   1       9.228   3.387  -5.185  0.00  0.00    -0.006 C 
ATOM     24  N   LIG d   1      10.337   3.108  -7.332  0.00  0.00    -0.089 NA
ATOM     25  H   LIG d   1       9.188   2.398  -4.727  0.00  0.00     0.033 H 
ATOM     26  H   LIG d   1       8.320   3.561  -5.763  0.00  0.00     0.033 H 
ATOM     27  C   LIG d   1      12.944   6.291  -3.250  0.00  0.00    -0.046 C 
ATOM     28  H   LIG d   1      13.493   4.236  -2.972  0.00  0.00     0.031 H 
ATOM     29  H   LIG d   1      13.872   4.888  -4.583  0.00  0.00     0.031 H 
ATOM     30  H   LIG d   1      13.611   6.445  -2.402  0.00  0.00     0.027 H 
ATOM     31  H   LIG d   1      13.208   7.000  -4.036  0.00  0.00     0.027 H 
ATOM     32  H   LIG d   1       8.519   4.366  -3.398  0.00  0.00     0.028 H 
ATOM     33  H   LIG d   1       9.349   5.444  -4.548  0.00  0.00     0.028 H 
ATOM     34  H   LIG d   1      10.939   6.915  -3.663  0.00  0.00     0.031 H 
ATOM     35  H   LIG d   1      12.051   8.517  -2.113  0.00  0.00     0.031 H 
ATOM     36  C   LIG d   1      10.094   8.063  -1.328  0.00  0.00    -0.046 C 
ATOM     37  C   LIG d   1      10.313   8.771   0.031  0.00  0.00    -0.012 C 
ATOM     38  H   LIG d   1       9.670   8.753  -2.057  0.00  0.00     0.027 H 
ATOM     39  H   LIG d   1       9.455   7.188  -1.206  0.00  0.00     0.027 H 
ATOM     40  H   LIG d   1      10.379   9.849  -0.117  0.00  0.00     0.030 H 
ATOM     41  H   LIG d   1       9.494   8.536   0.710  0.00  0.00     0.030 H 
BRANCH   5  42
ATOM     42  C   LIG d   1      13.678   7.140  -0.482  0.00  0.00    -0.056 C 
ATOM     43  H   LIG d   1      14.073   8.139  -0.296  0.00  0.00     0.024 H 
ATOM     44  H   LIG d   1      14.057   6.453   0.274  0.00  0.00     0.024 H 
ATOM     45  H   LIG d   1      13.993   6.802  -1.470  0.00  0.00     0.024 H 
ENDBRANCH   5  42
BRANCH  14  46
ATOM     46  C   LIG d   1      10.668   2.861  -2.687  0.00  0.00    -0.056 C 
ATOM     47  H   LIG d   1       9.778   2.752  -2.067  0.00  0.00     0.024 H 
ATOM     48  H   LIG d   1      10.666   2.094  -3.462  0.00  0.00     0.024 H 
ATOM     49  H   LIG d   1      11.558   2.749  -2.069  0.00  0.00     0.024 H 
ENDBRANCH  14  46
BRANCH  24  50
ATOM     50  O   LIG d   1      11.466   3.193  -8.182  0.00  0.00    -0.384 OA
BRANCH  50  51
ATOM     51  C   LIG d   1      11.334   4.158  -9.228  0.00  0.00     0.193 C 
ATOM     52  H   LIG d   1      12.128   4.011  -9.961  0.00  0.00     0.082 H 
ATOM     53  H   LIG d   1      10.365   4.040  -9.711  0.00  0.00     0.082 H 
BRANCH  51  54
ATOM     54  C   LIG d   1      11.439   5.545  -8.647  0.00  0.00     0.254 C 
ATOM     55  O   LIG d   1      12.519   6.094  -8.577  0.00  0.00    -0.272 OA
ATOM     56  N   LIG d   1      10.333   6.176  -8.204  0.00  0.00    -0.299 N 
ATOM     57  H   LIG d   1       9.470   5.738  -8.260  0.00  0.00     0.150 HD
BRANCH  56  58
ATOM     58  C   LIG d   1      10.435   7.524  -7.640  0.00  0.00     0.124 C 
ATOM     59  H   LIG d   1      11.478   7.842  -7.645  0.00  0.00     0.062 H 
BRANCH  58  60
ATOM     60  C   LIG d   1       9.913   7.517  -6.203  0.00  0.00     0.001 C 
ATOM     61  H   LIG d   1       8.823   7.553  -6.211  0.00  0.00     0.034 H 
ATOM     62  H   LIG d   1      10.242   6.605  -5.702  0.00  0.00     0.034 H 
BRANCH  60  63
ATOM     63  C   LIG d   1      10.449   8.717  -5.466  0.00  0.00    -0.039 A 
ATOM     64  C   LIG d   1       9.593   9.513  -4.729  0.00  0.00     0.018 A 
ATOM     65  C   LIG d   1      10.083  10.611  -4.048  0.00  0.00     0.266 A 
ATOM     66  H   LIG d   1       8.541   9.275  -4.680  0.00  0.00     0.069 H 
ATOM     67  C   LIG d   1      11.434  10.921  -4.115  0.00  0.00    -0.029 A 
ATOM     68  C   LIG d   1      12.290  10.123  -4.861  0.00  0.00    -0.063 A 
ATOM     69  O   LIG d   1      11.919  12.003  -3.450  0.00  0.00    -0.869 OA
ATOM     70  C   LIG d   1      11.796   9.023  -5.535  0.00  0.00    -0.059 A 
ATOM     71  H   LIG d   1      13.342  10.362  -4.913  0.00  0.00     0.061 H 
ATOM     72  H   LIG d   1      12.462   8.402  -6.115  0.00  0.00     0.062 H 
BRANCH  65  73
ATOM     73  N   LIG d   1       9.168  11.460  -3.254  0.00  0.00     0.079 N 
ATOM     74  O   LIG d   1       8.418  12.227  -3.812  0.00  0.00     0.041 OA
ATOM     75  O   LIG d   1       9.168  11.385  -2.047  0.00  0.00    -0.576 OA
ENDBRANCH  65  73
ENDBRANCH  60  63
ENDBRANCH  58  60
BRANCH  58  76
ATOM     76  C   LIG d   1       9.615   8.479  -8.468  0.00  0.00     0.328 C 
ATOM     77  O   LIG d   1       8.418   8.540  -8.312  0.00  0.00    -0.249 OA
BRANCH  76  78
ATOM     78  O   LIG d   1      10.213   9.264  -9.378  0.00  0.00    -0.467 OA
BRANCH  78  79
ATOM     79  C   LIG d   1      11.620   9.468  -9.234  0.00  0.00     0.082 C 
ATOM     80  H   LIG d   1      11.863  10.502  -9.484  0.00  0.00     0.066 H 
ATOM     81  H   LIG d   1      11.912   9.265  -8.204  0.00  0.00     0.066 H 
ATOM     82  H   LIG d   1      12.155   8.797  -9.904  0.00  0.00     0.066 H 
ENDBRANCH  78  79
ENDBRANCH  76  78
ENDBRANCH  58  76
ENDBRANCH  56  58
ENDBRANCH  51  54
ENDBRANCH  50  51
ENDBRANCH  24  50
BRANCH   4  83
ATOM     83  O   LIG d   1      11.418   7.623   1.872  0.00  0.00    -0.376 OA
ATOM     84  H   LIG d   1      10.487   7.575   2.128  0.00  0.00     0.211 HD
ENDBRANCH   4  83
ENDBRANCH   1   4
TORSDOF 14
ENDMDL
MODEL 9
REMARK VINA RESULT:      -5.8     11.039     14.938
REMARK  14 active torsions:
REMARK  status: ('A' for Active; 'I' for Inactive)
REMARK    1  A    between atoms: C_1  and  C_2 
REMARK    2  A    between atoms: N_6  and  O_7 
REMARK    3  A    between atoms: O_7  and  C_8 
REMARK    4  A    between atoms: C_8  and  C_9 
REMARK       I    between atoms: C_9  and  N_11 
REMARK    5  A    between atoms: N_11  and  C_12 
REMARK    6  A    between atoms: C_12  and  C_14 
REMARK    7  A    between atoms: C_12  and  C_25 
REMARK    8  A    between atoms: C_14  and  C_15 
REMARK    9  A    between atoms: C_19  and  N_21 
REMARK   10  A    between atoms: C_25  and  O_27 
REMARK   11  A    between atoms: O_27  and  C_28 
REMARK   12  A    between atoms: C_39  and  C_48 
REMARK   13  A    between atoms: C_44  and  C_45 
REMARK   14  A    between atoms: C_44  and  O_47 
ROOT
ATOM      1  C   LIG d   1      11.133  13.259  -1.990  0.00  0.00    -0.070 C 
ATOM      2  C   LIG d   1      11.871  14.161  -2.134  0.00  0.00    -0.116 C 
ATOM      3  H   LIG d   1      12.532  14.967  -2.262  0.00  0.00     0.123 H 
ENDROOT
BRANCH   1   4
ATOM      4  C   LIG d   1      10.208  12.128  -1.810  0.00  0.00     0.132 C 
ATOM      5  C   LIG d   1      10.955  10.786  -2.040  0.00  0.00     0.011 C 
ATOM      6  C   LIG d   1      10.258   9.749  -1.156  0.00  0.00    -0.043 C 
ATOM      7  C   LIG d   1      10.706  10.510  -3.533  0.00  0.00    -0.029 C 
ATOM      8  C   LIG d   1      10.609   8.325  -1.583  0.00  0.00    -0.049 C 
ATOM      9  H   LIG d   1       9.179   9.887  -1.228  0.00  0.00     0.027 H 
ATOM     10  H   LIG d   1      10.568   9.896  -0.121  0.00  0.00     0.027 H 
ATOM     11  C   LIG d   1      10.147   8.140  -3.030  0.00  0.00    -0.029 C 
ATOM     12  H   LIG d   1      10.097   7.609  -0.939  0.00  0.00     0.027 H 
ATOM     13  H   LIG d   1      11.686   8.175  -1.518  0.00  0.00     0.027 H 
ATOM     14  C   LIG d   1      10.264   6.686  -3.466  0.00  0.00    -0.007 C 
ATOM     15  C   LIG d   1      10.969   9.065  -3.917  0.00  0.00    -0.034 C 
ATOM     16  H   LIG d   1       9.101   8.439  -3.088  0.00  0.00     0.031 H 
ATOM     17  C   LIG d   1      11.638   6.459  -4.043  0.00  0.00    -0.062 C 
ATOM     18  C   LIG d   1       9.202   6.371  -4.521  0.00  0.00    -0.038 C 
ATOM     19  C   LIG d   1      11.854   5.540  -4.970  0.00  0.00    -0.037 C 
ATOM     20  C   LIG d   1      12.769   7.321  -3.538  0.00  0.00    -0.031 C 
ATOM     21  C   LIG d   1      10.758   4.706  -5.482  0.00  0.00     0.080 C 
ATOM     22  H   LIG d   1      12.852   5.400  -5.358  0.00  0.00     0.064 H 
ATOM     23  C   LIG d   1       9.356   4.913  -4.964  0.00  0.00    -0.006 C 
ATOM     24  N   LIG d   1      10.994   3.798  -6.374  0.00  0.00    -0.089 NA
ATOM     25  H   LIG d   1       9.179   4.252  -4.115  0.00  0.00     0.033 H 
ATOM     26  H   LIG d   1       8.639   4.694  -5.755  0.00  0.00     0.033 H 
ATOM     27  C   LIG d   1      12.464   8.786  -3.815  0.00  0.00    -0.046 C 
ATOM     28  H   LIG d   1      12.885   7.172  -2.465  0.00  0.00     0.031 H 
ATOM     29  H   LIG d   1      13.692   7.041  -4.044  0.00  0.00     0.031 H 
ATOM     30  H   LIG d   1      12.881   9.391  -3.010  0.00  0.00     0.027 H 
ATOM     31  H   LIG d   1      12.940   9.074  -4.753  0.00  0.00     0.027 H 
ATOM     32  H   LIG d   1       8.209   6.521  -4.095  0.00  0.00     0.028 H 
ATOM     33  H   LIG d   1       9.335   7.029  -5.379  0.00  0.00     0.028 H 
ATOM     34  H   LIG d   1      10.654   8.913  -4.949  0.00  0.00     0.031 H 
ATOM     35  H   LIG d   1      11.335  11.167  -4.135  0.00  0.00     0.031 H 
ATOM     36  C   LIG d   1       9.233  10.909  -3.730  0.00  0.00    -0.046 C 
ATOM     37  C   LIG d   1       9.091  12.186  -2.869  0.00  0.00    -0.012 C 
ATOM     38  H   LIG d   1       9.030  11.129  -4.779  0.00  0.00     0.027 H 
ATOM     39  H   LIG d   1       8.570  10.124  -3.366  0.00  0.00     0.027 H 
ATOM     40  H   LIG d   1       9.212  13.073  -3.492  0.00  0.00     0.030 H 
ATOM     41  H   LIG d   1       8.116  12.202  -2.382  0.00  0.00     0.030 H 
BRANCH   5  42
ATOM     42  C   LIG d   1      12.443  10.900  -1.705  0.00  0.00    -0.056 C 
ATOM     43  H   LIG d   1      12.876   9.902  -1.626  0.00  0.00     0.024 H 
ATOM     44  H   LIG d   1      12.951  11.455  -2.493  0.00  0.00     0.024 H 
ATOM     45  H   LIG d   1      12.564  11.424  -0.757  0.00  0.00     0.024 H 
ENDBRANCH   5  42
BRANCH  14  46
ATOM     46  C   LIG d   1      10.064   5.774  -2.254  0.00  0.00    -0.056 C 
ATOM     47  H   LIG d   1      11.031   5.550  -1.804  0.00  0.00     0.024 H 
ATOM     48  H   LIG d   1       9.431   6.276  -1.522  0.00  0.00     0.024 H 
ATOM     49  H   LIG d   1       9.587   4.847  -2.571  0.00  0.00     0.024 H 
ENDBRANCH  14  46
BRANCH  24  50
ATOM     50  O   LIG d   1      12.311   3.607  -6.858  0.00  0.00    -0.384 OA
BRANCH  50  51
ATOM     51  C   LIG d   1      12.467   3.901  -8.248  0.00  0.00     0.193 C 
ATOM     52  H   LIG d   1      13.462   3.596  -8.575  0.00  0.00     0.082 H 
ATOM     53  H   LIG d   1      11.714   3.359  -8.820  0.00  0.00     0.082 H 
BRANCH  51  54
ATOM     54  C   LIG d   1      12.298   5.381  -8.471  0.00  0.00     0.254 C 
ATOM     55  O   LIG d   1      13.266   6.113  -8.450  0.00  0.00    -0.272 OA
ATOM     56  N   LIG d   1      11.071   5.894  -8.693  0.00  0.00    -0.299 N 
ATOM     57  H   LIG d   1      10.298   5.310  -8.710  0.00  0.00     0.150 HD
BRANCH  56  58
ATOM     58  C   LIG d   1      10.907   7.334  -8.910  0.00  0.00     0.124 C 
ATOM     59  H   LIG d   1      11.882   7.787  -9.094  0.00  0.00     0.062 H 
BRANCH  58  60
ATOM     60  C   LIG d   1      10.278   7.968  -7.669  0.00  0.00     0.001 C 
ATOM     61  H   LIG d   1       9.196   8.011  -7.790  0.00  0.00     0.034 H 
ATOM     62  H   LIG d   1      10.521   7.367  -6.791  0.00  0.00     0.034 H 
BRANCH  60  63
ATOM     63  C   LIG d   1      10.818   9.363  -7.488  0.00  0.00    -0.039 A 
ATOM     64  C   LIG d   1       9.954  10.441  -7.478  0.00  0.00     0.018 A 
ATOM     65  C   LIG d   1      10.446  11.722  -7.308  0.00  0.00     0.266 A 
ATOM     66  H   LIG d   1       8.893  10.284  -7.599  0.00  0.00     0.069 H 
ATOM     67  C   LIG d   1      11.811  11.924  -7.157  0.00  0.00    -0.029 A 
ATOM     68  C   LIG d   1      12.676  10.841  -7.174  0.00  0.00    -0.063 A 
ATOM     69  O   LIG d   1      12.298  13.183  -6.994  0.00  0.00    -0.869 OA
ATOM     70  C   LIG d   1      12.179   9.562  -7.339  0.00  0.00    -0.059 A 
ATOM     71  H   LIG d   1      13.739  10.996  -7.056  0.00  0.00     0.061 H 
ATOM     72  H   LIG d   1      12.853   8.719  -7.352  0.00  0.00     0.062 H 
BRANCH  65  73
ATOM     73  N   LIG d   1       9.520  12.875  -7.291  0.00  0.00     0.079 N 
ATOM     74  O   LIG d   1       9.196  13.376  -6.240  0.00  0.00     0.041 OA
ATOM     75  O   LIG d   1       9.087  13.318  -8.330  0.00  0.00    -0.576 OA
ENDBRANCH  65  73
ENDBRANCH  60  63
ENDBRANCH  58  60
BRANCH  58  76
ATOM     76  C   LIG d   1      10.012   7.564 -10.100  0.00  0.00     0.328 C 
ATOM     77  O   LIG d   1      10.043   8.623 -10.683  0.00  0.00    -0.249 OA
BRANCH  76  78
ATOM     78  O   LIG d   1       9.182   6.595 -10.514  0.00  0.00    -0.467 OA
BRANCH  78  79
ATOM     79  C   LIG d   1       9.078   6.388 -11.925  0.00  0.00     0.082 C 
ATOM     80  H   LIG d   1      10.006   6.700 -12.406  0.00  0.00     0.066 H 
ATOM     81  H   LIG d   1       8.901   5.332 -12.125  0.00  0.00     0.066 H 
ATOM     82  H   LIG d   1       8.249   6.976 -12.318  0.00  0.00     0.066 H 
ENDBRANCH  78  79
ENDBRANCH  76  78
ENDBRANCH  58  76
ENDBRANCH  56  58
ENDBRANCH  51  54
ENDBRANCH  50  51
ENDBRANCH  24  50
BRANCH   4  83
ATOM     83  O   LIG d   1       9.643  12.159  -0.497  0.00  0.00    -0.376 OA
ATOM     84  H   LIG d   1       8.877  11.580  -0.385  0.00  0.00     0.211 HD
ENDBRANCH   4  83
ENDBRANCH   1   4
TORSDOF 14
ENDMDL
