MODEL 1
REMARK VINA RESULT:      -5.2      0.000      0.000
REMARK  8 active torsions:
REMARK  status: ('A' for Active; 'I' for Inactive)
REMARK    1  A    between atoms: C_1  and  C_2 
REMARK    2  A    between atoms: C_2  and  C_3 
REMARK    3  A    between atoms: C_3  and  C_5 
REMARK    4  A    between atoms: C_5  and  C_6 
REMARK    5  A    between atoms: C_11  and  O_19 
REMARK    6  A    between atoms: C_12  and  O_17 
REMARK    7  A    between atoms: O_17  and  C_18 
REMARK    8  A    between atoms: O_19  and  C_20 
ROOT
ATOM      1  C   LIG d   1       3.812  -0.050  -5.642  0.00  0.00     0.136 A 
ATOM      2  H   LIG d   1       4.527   0.740  -5.415  0.00  0.00     0.079 H 
ATOM      3  C   LIG d   1       3.430  -0.002  -7.099  0.00  0.00     0.011 A 
ATOM      4  C   LIG d   1       2.831   0.952  -7.886  0.00  0.00    -0.051 A 
ATOM      5  C   LIG d   1       2.602   0.703  -9.231  0.00  0.00    -0.016 A 
ATOM      6  C   LIG d   1       2.982  -0.505  -9.792  0.00  0.00     0.162 A 
ATOM      7  C   LIG d   1       3.585  -1.482  -9.005  0.00  0.00     0.176 A 
ATOM      8  C   LIG d   1       3.816  -1.232  -7.647  0.00  0.00     0.111 A 
ATOM      9  C   LIG d   1       4.423  -2.037  -6.576  0.00  0.00     0.344 A 
ATOM     10  O   LIG d   1       4.865  -3.160  -6.717  0.00  0.00    -0.245 OA
ATOM     11  O   LIG d   1       4.420  -1.352  -5.419  0.00  0.00    -0.453 OA
ATOM     12  H   LIG d   1       2.537   1.897  -7.456  0.00  0.00     0.062 H 
ATOM     13  H   LIG d   1       2.131   1.456  -9.845  0.00  0.00     0.066 H 
ENDROOT
BRANCH   1  14
ATOM     14  C   LIG d   1       2.566   0.104  -4.767  0.00  0.00     0.047 C 
ATOM     15  H   LIG d   1       2.140   0.991  -4.946  0.00  0.00     0.038 H 
ATOM     16  H   LIG d   1       1.859  -0.692  -4.999  0.00  0.00     0.038 H 
BRANCH  14  17
ATOM     17  C   LIG d   1       2.959   0.020  -3.314  0.00  0.00     0.137 C 
ATOM     18  O   LIG d   1       2.804  -1.010  -2.705  0.00  0.00    -0.297 OA
BRANCH  17  19
ATOM     19  C   LIG d   1       3.546   1.224  -2.623  0.00  0.00     0.003 C 
ATOM     20  H   LIG d   1       3.929   1.847  -3.306  0.00  0.00     0.034 H 
ATOM     21  H   LIG d   1       2.765   1.737  -2.060  0.00  0.00     0.034 H 
BRANCH  19  22
ATOM     22  C   LIG d   1       4.652   0.774  -1.665  0.00  0.00    -0.059 C 
ATOM     23  H   LIG d   1       4.880  -0.277  -1.843  0.00  0.00     0.023 H 
ATOM     24  H   LIG d   1       5.546   1.375  -1.834  0.00  0.00     0.023 H 
ATOM     25  H   LIG d   1       4.316   0.904  -0.637  0.00  0.00     0.023 H 
ENDBRANCH  19  22
ENDBRANCH  17  19
ENDBRANCH  14  17
ENDBRANCH   1  14
BRANCH   7  26
ATOM     26  O   LIG d   1       3.953  -2.668  -9.552  0.00  0.00    -0.491 OA
BRANCH  26  27
ATOM     27  C   LIG d   1       2.991  -3.724  -9.517  0.00  0.00     0.079 C 
ATOM     28  H   LIG d   1       3.011  -4.266 -10.463  0.00  0.00     0.066 H 
ATOM     29  H   LIG d   1       1.997  -3.306  -9.360  0.00  0.00     0.066 H 
ATOM     30  H   LIG d   1       3.231  -4.407  -8.702  0.00  0.00     0.066 H 
ENDBRANCH  26  27
ENDBRANCH   7  26
BRANCH   6  31
ATOM     31  O   LIG d   1       2.761  -0.739 -11.113  0.00  0.00    -0.491 OA
BRANCH  31  32
ATOM     32  C   LIG d   1       1.415  -1.019 -11.505  0.00  0.00     0.079 C 
ATOM     33  H   LIG d   1       1.329  -0.939 -12.590  0.00  0.00     0.066 H 
ATOM     34  H   LIG d   1       1.148  -2.029 -11.193  0.00  0.00     0.066 H 
ATOM     35  H   LIG d   1       0.743  -0.302 -11.034  0.00  0.00     0.066 H 
ENDBRANCH  31  32
ENDBRANCH   6  31
TORSDOF 8
ENDMDL
MODEL 2
REMARK VINA RESULT:      -5.0      1.916      6.045
REMARK  8 active torsions:
REMARK  status: ('A' for Active; 'I' for Inactive)
REMARK    1  A    between atoms: C_1  and  C_2 
REMARK    2  A    between atoms: C_2  and  C_3 
REMARK    3  A    between atoms: C_3  and  C_5 
REMARK    4  A    between atoms: C_5  and  C_6 
REMARK    5  A    between atoms: C_11  and  O_19 
REMARK    6  A    between atoms: C_12  and  O_17 
REMARK    7  A    between atoms: O_17  and  C_18 
REMARK    8  A    between atoms: O_19  and  C_20 
ROOT
ATOM      1  C   LIG d   1       3.266  -0.001  -7.827  0.00  0.00     0.136 A 
ATOM      2  H   LIG d   1       2.388  -0.547  -8.173  0.00  0.00     0.079 H 
ATOM      3  C   LIG d   1       3.302   0.024  -6.320  0.00  0.00     0.011 A 
ATOM      4  C   LIG d   1       2.449   0.523  -5.365  0.00  0.00    -0.051 A 
ATOM      5  C   LIG d   1       2.758   0.394  -4.020  0.00  0.00    -0.016 A 
ATOM      6  C   LIG d   1       3.923  -0.244  -3.629  0.00  0.00     0.162 A 
ATOM      7  C   LIG d   1       4.798  -0.750  -4.586  0.00  0.00     0.176 A 
ATOM      8  C   LIG d   1       4.487  -0.619  -5.945  0.00  0.00     0.111 A 
ATOM      9  C   LIG d   1       5.185  -1.041  -7.169  0.00  0.00     0.344 A 
ATOM     10  O   LIG d   1       6.247  -1.628  -7.196  0.00  0.00    -0.245 OA
ATOM     11  O   LIG d   1       4.477  -0.683  -8.255  0.00  0.00    -0.453 OA
ATOM     12  H   LIG d   1       1.537   1.017  -5.664  0.00  0.00     0.062 H 
ATOM     13  H   LIG d   1       2.084   0.788  -3.273  0.00  0.00     0.066 H 
ENDROOT
BRANCH   1  14
ATOM     14  C   LIG d   1       3.246   1.427  -8.376  0.00  0.00     0.047 C 
ATOM     15  H   LIG d   1       2.299   1.717  -8.516  0.00  0.00     0.038 H 
ATOM     16  H   LIG d   1       3.730   2.096  -7.666  0.00  0.00     0.038 H 
BRANCH  14  17
ATOM     17  C   LIG d   1       3.982   1.469  -9.691  0.00  0.00     0.137 C 
ATOM     18  O   LIG d   1       5.021   2.077  -9.782  0.00  0.00    -0.297 OA
BRANCH  17  19
ATOM     19  C   LIG d   1       3.419   0.754 -10.892  0.00  0.00     0.003 C 
ATOM     20  H   LIG d   1       2.775   0.052 -10.590  0.00  0.00     0.034 H 
ATOM     21  H   LIG d   1       2.904   1.470 -11.534  0.00  0.00     0.034 H 
BRANCH  19  22
ATOM     22  C   LIG d   1       4.559   0.097 -11.675  0.00  0.00    -0.059 C 
ATOM     23  H   LIG d   1       5.505   0.292 -11.170  0.00  0.00     0.023 H 
ATOM     24  H   LIG d   1       4.391  -0.979 -11.729  0.00  0.00     0.023 H 
ATOM     25  H   LIG d   1       4.593   0.510 -12.683  0.00  0.00     0.023 H 
ENDBRANCH  19  22
ENDBRANCH  17  19
ENDBRANCH  14  17
ENDBRANCH   1  14
BRANCH   7  26
ATOM     26  O   LIG d   1       5.942  -1.371  -4.204  0.00  0.00    -0.491 OA
BRANCH  26  27
ATOM     27  C   LIG d   1       7.097  -0.548  -4.022  0.00  0.00     0.079 C 
ATOM     28  H   LIG d   1       7.995  -1.161  -4.091  0.00  0.00     0.066 H 
ATOM     29  H   LIG d   1       7.055  -0.075  -3.040  0.00  0.00     0.066 H 
ATOM     30  H   LIG d   1       7.121   0.221  -4.794  0.00  0.00     0.066 H 
ENDBRANCH  26  27
ENDBRANCH   7  26
BRANCH   6  31
ATOM     31  O   LIG d   1       4.215  -0.373  -2.307  0.00  0.00    -0.491 OA
BRANCH  31  32
ATOM     32  C   LIG d   1       4.603   0.813  -1.610  0.00  0.00     0.079 C 
ATOM     33  H   LIG d   1       5.140   1.475  -2.290  0.00  0.00     0.066 H 
ATOM     34  H   LIG d   1       3.715   1.320  -1.234  0.00  0.00     0.066 H 
ATOM     35  H   LIG d   1       5.251   0.547  -0.775  0.00  0.00     0.066 H 
ENDBRANCH  31  32
ENDBRANCH   6  31
TORSDOF 8
ENDMDL
MODEL 3
REMARK VINA RESULT:      -4.9      2.209      3.106
REMARK  8 active torsions:
REMARK  status: ('A' for Active; 'I' for Inactive)
REMARK    1  A    between atoms: C_1  and  C_2 
REMARK    2  A    between atoms: C_2  and  C_3 
REMARK    3  A    between atoms: C_3  and  C_5 
REMARK    4  A    between atoms: C_5  and  C_6 
REMARK    5  A    between atoms: C_11  and  O_19 
REMARK    6  A    between atoms: C_12  and  O_17 
REMARK    7  A    between atoms: O_17  and  C_18 
REMARK    8  A    between atoms: O_19  and  C_20 
ROOT
ATOM      1  C   LIG d   1       3.104   0.710  -7.682  0.00  0.00     0.136 A 
ATOM      2  H   LIG d   1       2.345   1.409  -7.330  0.00  0.00     0.079 H 
ATOM      3  C   LIG d   1       2.653   0.056  -8.963  0.00  0.00     0.011 A 
ATOM      4  C   LIG d   1       1.580  -0.737  -9.289  0.00  0.00    -0.051 A 
ATOM      5  C   LIG d   1       1.427  -1.203 -10.586  0.00  0.00    -0.016 A 
ATOM      6  C   LIG d   1       2.350  -0.867 -11.562  0.00  0.00     0.162 A 
ATOM      7  C   LIG d   1       3.444  -0.069 -11.244  0.00  0.00     0.176 A 
ATOM      8  C   LIG d   1       3.600   0.401  -9.934  0.00  0.00     0.111 A 
ATOM      9  C   LIG d   1       4.621   1.247  -9.296  0.00  0.00     0.344 A 
ATOM     10  O   LIG d   1       5.586   1.719  -9.863  0.00  0.00    -0.245 OA
ATOM     11  O   LIG d   1       4.331   1.424  -7.995  0.00  0.00    -0.453 OA
ATOM     12  H   LIG d   1       0.854  -0.998  -8.534  0.00  0.00     0.062 H 
ATOM     13  H   LIG d   1       0.581  -1.826 -10.837  0.00  0.00     0.066 H 
ENDROOT
BRANCH   1  14
ATOM     14  C   LIG d   1       3.374  -0.353  -6.615  0.00  0.00     0.047 C 
ATOM     15  H   LIG d   1       2.768  -1.135  -6.763  0.00  0.00     0.038 H 
ATOM     16  H   LIG d   1       4.411  -0.678  -6.680  0.00  0.00     0.038 H 
BRANCH  14  17
ATOM     17  C   LIG d   1       3.114   0.230  -5.249  0.00  0.00     0.137 C 
ATOM     18  O   LIG d   1       2.598   1.316  -5.143  0.00  0.00    -0.297 OA
BRANCH  17  19
ATOM     19  C   LIG d   1       3.501  -0.544  -4.014  0.00  0.00     0.003 C 
ATOM     20  H   LIG d   1       2.997  -1.407  -3.991  0.00  0.00     0.034 H 
ATOM     21  H   LIG d   1       4.572  -0.748  -4.034  0.00  0.00     0.034 H 
BRANCH  19  22
ATOM     22  C   LIG d   1       3.163   0.280  -2.770  0.00  0.00    -0.059 C 
ATOM     23  H   LIG d   1       3.939   1.027  -2.606  0.00  0.00     0.023 H 
ATOM     24  H   LIG d   1       2.203   0.777  -2.912  0.00  0.00     0.023 H 
ATOM     25  H   LIG d   1       3.105  -0.380  -1.903  0.00  0.00     0.023 H 
ENDBRANCH  19  22
ENDBRANCH  17  19
ENDBRANCH  14  17
ENDBRANCH   1  14
BRANCH   7  26
ATOM     26  O   LIG d   1       4.352   0.256 -12.198  0.00  0.00    -0.491 OA
BRANCH  26  27
ATOM     27  C   LIG d   1       5.426  -0.663 -12.413  0.00  0.00     0.079 C 
ATOM     28  H   LIG d   1       5.023  -1.667 -12.547  0.00  0.00     0.066 H 
ATOM     29  H   LIG d   1       6.092  -0.653 -11.550  0.00  0.00     0.066 H 
ATOM     30  H   LIG d   1       5.981  -0.372 -13.304  0.00  0.00     0.066 H 
ENDBRANCH  26  27
ENDBRANCH   7  26
BRANCH   6  31
ATOM     31  O   LIG d   1       2.189  -1.322 -12.833  0.00  0.00    -0.491 OA
BRANCH  31  32
ATOM     32  C   LIG d   1       1.142  -2.270 -13.056  0.00  0.00     0.079 C 
ATOM     33  H   LIG d   1       0.608  -2.448 -12.122  0.00  0.00     0.066 H 
ATOM     34  H   LIG d   1       0.449  -1.878 -13.801  0.00  0.00     0.066 H 
ATOM     35  H   LIG d   1       1.569  -3.206 -13.414  0.00  0.00     0.066 H 
ENDBRANCH  31  32
ENDBRANCH   6  31
TORSDOF 8
ENDMDL
MODEL 4
REMARK VINA RESULT:      -4.8      4.939      6.042
REMARK  8 active torsions:
REMARK  status: ('A' for Active; 'I' for Inactive)
REMARK    1  A    between atoms: C_1  and  C_2 
REMARK    2  A    between atoms: C_2  and  C_3 
REMARK    3  A    between atoms: C_3  and  C_5 
REMARK    4  A    between atoms: C_5  and  C_6 
REMARK    5  A    between atoms: C_11  and  O_19 
REMARK    6  A    between atoms: C_12  and  O_17 
REMARK    7  A    between atoms: O_17  and  C_18 
REMARK    8  A    between atoms: O_19  and  C_20 
ROOT
ATOM      1  C   LIG d   1       5.852   0.774  -3.649  0.00  0.00     0.136 A 
ATOM      2  H   LIG d   1       5.048   1.093  -4.311  0.00  0.00     0.079 H 
ATOM      3  C   LIG d   1       6.656  -0.323  -4.299  0.00  0.00     0.011 A 
ATOM      4  C   LIG d   1       6.343  -1.583  -4.747  0.00  0.00    -0.051 A 
ATOM      5  C   LIG d   1       7.321  -2.384  -5.316  0.00  0.00    -0.016 A 
ATOM      6  C   LIG d   1       8.618  -1.917  -5.444  0.00  0.00     0.162 A 
ATOM      7  C   LIG d   1       8.951  -0.644  -4.991  0.00  0.00     0.176 A 
ATOM      8  C   LIG d   1       7.964   0.165  -4.415  0.00  0.00     0.111 A 
ATOM      9  C   LIG d   1       7.994   1.526  -3.858  0.00  0.00     0.344 A 
ATOM     10  O   LIG d   1       8.980   2.233  -3.804  0.00  0.00    -0.245 OA
ATOM     11  O   LIG d   1       6.773   1.875  -3.416  0.00  0.00    -0.453 OA
ATOM     12  H   LIG d   1       5.332  -1.951  -4.653  0.00  0.00     0.062 H 
ATOM     13  H   LIG d   1       7.069  -3.374  -5.666  0.00  0.00     0.066 H 
ENDROOT
BRANCH   1  14
ATOM     14  C   LIG d   1       5.274   0.284  -2.319  0.00  0.00     0.047 C 
ATOM     15  H   LIG d   1       5.567  -0.659  -2.156  0.00  0.00     0.038 H 
ATOM     16  H   LIG d   1       5.631   0.921  -1.511  0.00  0.00     0.038 H 
BRANCH  14  17
ATOM     17  C   LIG d   1       3.769   0.339  -2.376  0.00  0.00     0.137 C 
ATOM     18  O   LIG d   1       3.190   1.356  -2.080  0.00  0.00    -0.297 OA
BRANCH  17  19
ATOM     19  C   LIG d   1       2.987  -0.877  -2.802  0.00  0.00     0.003 C 
ATOM     20  H   LIG d   1       2.073  -0.845  -2.397  0.00  0.00     0.034 H 
ATOM     21  H   LIG d   1       2.902  -0.892  -3.889  0.00  0.00     0.034 H 
BRANCH  19  22
ATOM     22  C   LIG d   1       3.711  -2.140  -2.330  0.00  0.00    -0.059 C 
ATOM     23  H   LIG d   1       3.066  -3.006  -2.481  0.00  0.00     0.023 H 
ATOM     24  H   LIG d   1       4.631  -2.267  -2.901  0.00  0.00     0.023 H 
ATOM     25  H   LIG d   1       3.951  -2.046  -1.271  0.00  0.00     0.023 H 
ENDBRANCH  19  22
ENDBRANCH  17  19
ENDBRANCH  14  17
ENDBRANCH   1  14
BRANCH   7  26
ATOM     26  O   LIG d   1      10.223  -0.188  -5.111  0.00  0.00    -0.491 OA
BRANCH  26  27
ATOM     27  C   LIG d   1      10.562   0.472  -6.333  0.00  0.00     0.079 C 
ATOM     28  H   LIG d   1      10.927   1.476  -6.116  0.00  0.00     0.066 H 
ATOM     29  H   LIG d   1       9.679   0.536  -6.969  0.00  0.00     0.066 H 
ATOM     30  H   LIG d   1      11.340  -0.094  -6.847  0.00  0.00     0.066 H 
ENDBRANCH  26  27
ENDBRANCH   7  26
BRANCH   6  31
ATOM     31  O   LIG d   1       9.571  -2.706  -6.010  0.00  0.00    -0.491 OA
BRANCH  31  32
ATOM     32  C   LIG d   1       9.145  -3.970  -6.524  0.00  0.00     0.079 C 
ATOM     33  H   LIG d   1       9.903  -4.724  -6.307  0.00  0.00     0.066 H 
ATOM     34  H   LIG d   1       8.204  -4.255  -6.054  0.00  0.00     0.066 H 
ATOM     35  H   LIG d   1       9.005  -3.895  -7.602  0.00  0.00     0.066 H 
ENDBRANCH  31  32
ENDBRANCH   6  31
TORSDOF 8
ENDMDL
MODEL 5
REMARK VINA RESULT:      -4.7      4.354      5.854
REMARK  8 active torsions:
REMARK  status: ('A' for Active; 'I' for Inactive)
REMARK    1  A    between atoms: C_1  and  C_2 
REMARK    2  A    between atoms: C_2  and  C_3 
REMARK    3  A    between atoms: C_3  and  C_5 
REMARK    4  A    between atoms: C_5  and  C_6 
REMARK    5  A    between atoms: C_11  and  O_19 
REMARK    6  A    between atoms: C_12  and  O_17 
REMARK    7  A    between atoms: O_17  and  C_18 
REMARK    8  A    between atoms: O_19  and  C_20 
ROOT
ATOM      1  C   LIG d   1       6.653   0.353  -3.552  0.00  0.00     0.136 A 
ATOM      2  H   LIG d   1       7.172  -0.262  -2.817  0.00  0.00     0.079 H 
ATOM      3  C   LIG d   1       7.626   1.285  -4.229  0.00  0.00     0.011 A 
ATOM      4  C   LIG d   1       8.447   2.286  -3.771  0.00  0.00    -0.051 A 
ATOM      5  C   LIG d   1       9.250   2.989  -4.656  0.00  0.00    -0.016 A 
ATOM      6  C   LIG d   1       9.236   2.681  -6.006  0.00  0.00     0.162 A 
ATOM      7  C   LIG d   1       8.406   1.673  -6.484  0.00  0.00     0.176 A 
ATOM      8  C   LIG d   1       7.593   0.963  -5.591  0.00  0.00     0.111 A 
ATOM      9  C   LIG d   1       6.633  -0.136  -5.778  0.00  0.00     0.344 A 
ATOM     10  O   LIG d   1       6.368  -0.653  -6.844  0.00  0.00    -0.245 OA
ATOM     11  O   LIG d   1       6.092  -0.486  -4.598  0.00  0.00    -0.453 OA
ATOM     12  H   LIG d   1       8.465   2.528  -2.718  0.00  0.00     0.062 H 
ATOM     13  H   LIG d   1       9.894   3.775  -4.290  0.00  0.00     0.066 H 
ENDROOT
BRANCH   1  14
ATOM     14  C   LIG d   1       5.542   1.157  -2.872  0.00  0.00     0.047 C 
ATOM     15  H   LIG d   1       5.869   1.497  -1.990  0.00  0.00     0.038 H 
ATOM     16  H   LIG d   1       5.262   1.998  -3.505  0.00  0.00     0.038 H 
BRANCH  14  17
ATOM     17  C   LIG d   1       4.343   0.270  -2.654  0.00  0.00     0.137 C 
ATOM     18  O   LIG d   1       3.300   0.518  -3.209  0.00  0.00    -0.297 OA
BRANCH  17  19
ATOM     19  C   LIG d   1       4.446  -0.925  -1.741  0.00  0.00     0.003 C 
ATOM     20  H   LIG d   1       5.409  -1.116  -1.550  0.00  0.00     0.034 H 
ATOM     21  H   LIG d   1       3.924  -0.715  -0.807  0.00  0.00     0.034 H 
BRANCH  19  22
ATOM     22  C   LIG d   1       3.808  -2.140  -2.419  0.00  0.00    -0.059 C 
ATOM     23  H   LIG d   1       3.038  -1.806  -3.113  0.00  0.00     0.023 H 
ATOM     24  H   LIG d   1       4.573  -2.696  -2.962  0.00  0.00     0.023 H 
ATOM     25  H   LIG d   1       3.361  -2.784  -1.661  0.00  0.00     0.023 H 
ENDBRANCH  19  22
ENDBRANCH  17  19
ENDBRANCH  14  17
ENDBRANCH   1  14
BRANCH   7  26
ATOM     26  O   LIG d   1       8.387   1.374  -7.808  0.00  0.00    -0.491 OA
BRANCH  26  27
ATOM     27  C   LIG d   1       7.467   2.102  -8.624  0.00  0.00     0.079 C 
ATOM     28  H   LIG d   1       6.595   2.378  -8.031  0.00  0.00     0.066 H 
ATOM     29  H   LIG d   1       7.154   1.480  -9.463  0.00  0.00     0.066 H 
ATOM     30  H   LIG d   1       7.950   3.003  -9.001  0.00  0.00     0.066 H 
ENDBRANCH  26  27
ENDBRANCH   7  26
BRANCH   6  31
ATOM     31  O   LIG d   1      10.032   3.370  -6.867  0.00  0.00    -0.491 OA
BRANCH  31  32
ATOM     32  C   LIG d   1       9.845   4.785  -6.933  0.00  0.00     0.079 C 
ATOM     33  H   LIG d   1      10.306   5.254  -6.063  0.00  0.00     0.066 H 
ATOM     34  H   LIG d   1      10.307   5.171  -7.842  0.00  0.00     0.066 H 
ATOM     35  H   LIG d   1       8.778   5.010  -6.943  0.00  0.00     0.066 H 
ENDBRANCH  31  32
ENDBRANCH   6  31
TORSDOF 8
ENDMDL
MODEL 6
REMARK VINA RESULT:      -4.7      2.437      4.039
REMARK  8 active torsions:
REMARK  status: ('A' for Active; 'I' for Inactive)
REMARK    1  A    between atoms: C_1  and  C_2 
REMARK    2  A    between atoms: C_2  and  C_3 
REMARK    3  A    between atoms: C_3  and  C_5 
REMARK    4  A    between atoms: C_5  and  C_6 
REMARK    5  A    between atoms: C_11  and  O_19 
REMARK    6  A    between atoms: C_12  and  O_17 
REMARK    7  A    between atoms: O_17  and  C_18 
REMARK    8  A    between atoms: O_19  and  C_20 
ROOT
ATOM      1  C   LIG d   1       4.657  -0.866  -4.549  0.00  0.00     0.136 A 
ATOM      2  H   LIG d   1       3.832  -0.790  -3.841  0.00  0.00     0.079 H 
ATOM      3  C   LIG d   1       4.724  -2.259  -5.120  0.00  0.00     0.011 A 
ATOM      4  C   LIG d   1       4.913  -3.499  -4.561  0.00  0.00    -0.051 A 
ATOM      5  C   LIG d   1       4.928  -4.631  -5.363  0.00  0.00    -0.016 A 
ATOM      6  C   LIG d   1       4.745  -4.519  -6.730  0.00  0.00     0.162 A 
ATOM      7  C   LIG d   1       4.558  -3.269  -7.311  0.00  0.00     0.176 A 
ATOM      8  C   LIG d   1       4.543  -2.125  -6.502  0.00  0.00     0.111 A 
ATOM      9  C   LIG d   1       4.366  -0.696  -6.803  0.00  0.00     0.344 A 
ATOM     10  O   LIG d   1       4.186  -0.237  -7.913  0.00  0.00    -0.245 OA
ATOM     11  O   LIG d   1       4.432   0.029  -5.673  0.00  0.00    -0.453 OA
ATOM     12  H   LIG d   1       5.052  -3.593  -3.494  0.00  0.00     0.062 H 
ATOM     13  H   LIG d   1       5.077  -5.603  -4.917  0.00  0.00     0.066 H 
ENDROOT
BRANCH   1  14
ATOM     14  C   LIG d   1       5.976  -0.517  -3.857  0.00  0.00     0.047 C 
ATOM     15  H   LIG d   1       6.260  -1.282  -3.277  0.00  0.00     0.038 H 
ATOM     16  H   LIG d   1       6.742  -0.326  -4.608  0.00  0.00     0.038 H 
BRANCH  14  17
ATOM     17  C   LIG d   1       5.787   0.713  -3.007  0.00  0.00     0.137 C 
ATOM     18  O   LIG d   1       6.440   1.705  -3.225  0.00  0.00    -0.297 OA
BRANCH  17  19
ATOM     19  C   LIG d   1       4.782   0.705  -1.883  0.00  0.00     0.003 C 
ATOM     20  H   LIG d   1       4.531  -0.239  -1.668  0.00  0.00     0.034 H 
ATOM     21  H   LIG d   1       5.219   1.176  -1.001  0.00  0.00     0.034 H 
BRANCH  19  22
ATOM     22  C   LIG d   1       3.534   1.481  -2.309  0.00  0.00    -0.059 C 
ATOM     23  H   LIG d   1       3.807   2.221  -3.062  0.00  0.00     0.023 H 
ATOM     24  H   LIG d   1       2.801   0.791  -2.726  0.00  0.00     0.023 H 
ATOM     25  H   LIG d   1       3.107   1.986  -1.442  0.00  0.00     0.023 H 
ENDBRANCH  19  22
ENDBRANCH  17  19
ENDBRANCH  14  17
ENDBRANCH   1  14
BRANCH   7  26
ATOM     26  O   LIG d   1       4.383  -3.158  -8.652  0.00  0.00    -0.491 OA
BRANCH  26  27
ATOM     27  C   LIG d   1       5.561  -3.020  -9.450  0.00  0.00     0.079 C 
ATOM     28  H   LIG d   1       5.587  -3.811 -10.199  0.00  0.00     0.066 H 
ATOM     29  H   LIG d   1       6.443  -3.095  -8.813  0.00  0.00     0.066 H 
ATOM     30  H   LIG d   1       5.553  -2.050  -9.946  0.00  0.00     0.066 H 
ENDBRANCH  26  27
ENDBRANCH   7  26
BRANCH   6  31
ATOM     31  O   LIG d   1       4.754  -5.634  -7.509  0.00  0.00    -0.491 OA
BRANCH  31  32
ATOM     32  C   LIG d   1       5.997  -6.328  -7.635  0.00  0.00     0.079 C 
ATOM     33  H   LIG d   1       6.734  -5.673  -8.100  0.00  0.00     0.066 H 
ATOM     34  H   LIG d   1       6.348  -6.626  -6.647  0.00  0.00     0.066 H 
ATOM     35  H   LIG d   1       5.857  -7.214  -8.254  0.00  0.00     0.066 H 
ENDBRANCH  31  32
ENDBRANCH   6  31
TORSDOF 8
ENDMDL
MODEL 7
REMARK VINA RESULT:      -4.6      2.223      6.087
REMARK  8 active torsions:
REMARK  status: ('A' for Active; 'I' for Inactive)
REMARK    1  A    between atoms: C_1  and  C_2 
REMARK    2  A    between atoms: C_2  and  C_3 
REMARK    3  A    between atoms: C_3  and  C_5 
REMARK    4  A    between atoms: C_5  and  C_6 
REMARK    5  A    between atoms: C_11  and  O_19 
REMARK    6  A    between atoms: C_12  and  O_17 
REMARK    7  A    between atoms: O_17  and  C_18 
REMARK    8  A    between atoms: O_19  and  C_20 
ROOT
ATOM      1  C   LIG d   1       3.836   0.085  -7.248  0.00  0.00     0.136 A 
ATOM      2  H   LIG d   1       4.310   0.917  -7.769  0.00  0.00     0.079 H 
ATOM      3  C   LIG d   1       4.861  -0.682  -6.453  0.00  0.00     0.011 A 
ATOM      4  C   LIG d   1       5.998  -1.372  -6.797  0.00  0.00    -0.051 A 
ATOM      5  C   LIG d   1       6.759  -1.994  -5.819  0.00  0.00    -0.016 A 
ATOM      6  C   LIG d   1       6.383  -1.918  -4.489  0.00  0.00     0.162 A 
ATOM      7  C   LIG d   1       5.231  -1.228  -4.126  0.00  0.00     0.176 A 
ATOM      8  C   LIG d   1       4.461  -0.600  -5.114  0.00  0.00     0.111 A 
ATOM      9  C   LIG d   1       3.223   0.193  -5.055  0.00  0.00     0.344 A 
ATOM     10  O   LIG d   1       2.613   0.454  -4.038  0.00  0.00    -0.245 OA
ATOM     11  O   LIG d   1       2.865   0.588  -6.290  0.00  0.00    -0.453 OA
ATOM     12  H   LIG d   1       6.299  -1.430  -7.833  0.00  0.00     0.062 H 
ATOM     13  H   LIG d   1       7.652  -2.534  -6.096  0.00  0.00     0.066 H 
ENDROOT
BRANCH   1  14
ATOM     14  C   LIG d   1       3.149  -0.841  -8.254  0.00  0.00     0.047 C 
ATOM     15  H   LIG d   1       3.835  -1.423  -8.693  0.00  0.00     0.038 H 
ATOM     16  H   LIG d   1       2.421  -1.465  -7.736  0.00  0.00     0.038 H 
BRANCH  14  17
ATOM     17  C   LIG d   1       2.448  -0.014  -9.301  0.00  0.00     0.137 C 
ATOM     18  O   LIG d   1       1.459  -0.440  -9.845  0.00  0.00    -0.297 OA
BRANCH  17  19
ATOM     19  C   LIG d   1       2.984   1.346  -9.669  0.00  0.00     0.003 C 
ATOM     20  H   LIG d   1       2.224   1.951  -9.906  0.00  0.00     0.034 H 
ATOM     21  H   LIG d   1       3.530   1.763  -8.822  0.00  0.00     0.034 H 
BRANCH  19  22
ATOM     22  C   LIG d   1       3.926   1.216 -10.868  0.00  0.00    -0.059 C 
ATOM     23  H   LIG d   1       4.782   0.600 -10.592  0.00  0.00     0.023 H 
ATOM     24  H   LIG d   1       3.395   0.750 -11.698  0.00  0.00     0.023 H 
ATOM     25  H   LIG d   1       4.271   2.205 -11.167  0.00  0.00     0.023 H 
ENDBRANCH  19  22
ENDBRANCH  17  19
ENDBRANCH  14  17
ENDBRANCH   1  14
BRANCH   7  26
ATOM     26  O   LIG d   1       4.858  -1.157  -2.824  0.00  0.00    -0.491 OA
BRANCH  26  27
ATOM     27  C   LIG d   1       3.936  -2.146  -2.359  0.00  0.00     0.079 C 
ATOM     28  H   LIG d   1       4.048  -3.054  -2.950  0.00  0.00     0.066 H 
ATOM     29  H   LIG d   1       2.917  -1.770  -2.461  0.00  0.00     0.066 H 
ATOM     30  H   LIG d   1       4.138  -2.367  -1.311  0.00  0.00     0.066 H 
ENDBRANCH  26  27
ENDBRANCH   7  26
BRANCH   6  31
ATOM     31  O   LIG d   1       7.138  -2.525  -3.535  0.00  0.00    -0.491 OA
BRANCH  31  32
ATOM     32  C   LIG d   1       8.226  -3.335  -3.986  0.00  0.00     0.079 C 
ATOM     33  H   LIG d   1       8.540  -3.003  -4.976  0.00  0.00     0.066 H 
ATOM     34  H   LIG d   1       9.060  -3.245  -3.291  0.00  0.00     0.066 H 
ATOM     35  H   LIG d   1       7.906  -4.376  -4.037  0.00  0.00     0.066 H 
ENDBRANCH  31  32
ENDBRANCH   6  31
TORSDOF 8
ENDMDL
MODEL 8
REMARK VINA RESULT:      -4.6      1.821      2.199
REMARK  8 active torsions:
REMARK  status: ('A' for Active; 'I' for Inactive)
REMARK    1  A    between atoms: C_1  and  C_2 
REMARK    2  A    between atoms: C_2  and  C_3 
REMARK    3  A    between atoms: C_3  and  C_5 
REMARK    4  A    between atoms: C_5  and  C_6 
REMARK    5  A    between atoms: C_11  and  O_19 
REMARK    6  A    between atoms: C_12  and  O_17 
REMARK    7  A    between atoms: O_17  and  C_18 
REMARK    8  A    between atoms: O_19  and  C_20 
ROOT
ATOM      1  C   LIG d   1       5.967  -0.381  -5.049  0.00  0.00     0.136 A 
ATOM      2  H   LIG d   1       6.354   0.638  -5.061  0.00  0.00     0.079 H 
ATOM      3  C   LIG d   1       4.874  -0.532  -6.076  0.00  0.00     0.011 A 
ATOM      4  C   LIG d   1       3.653   0.074  -6.250  0.00  0.00    -0.051 A 
ATOM      5  C   LIG d   1       2.843  -0.283  -7.317  0.00  0.00    -0.016 A 
ATOM      6  C   LIG d   1       3.261  -1.248  -8.218  0.00  0.00     0.162 A 
ATOM      7  C   LIG d   1       4.493  -1.874  -8.051  0.00  0.00     0.176 A 
ATOM      8  C   LIG d   1       5.311  -1.514  -6.973  0.00  0.00     0.111 A 
ATOM      9  C   LIG d   1       6.638  -1.974  -6.534  0.00  0.00     0.344 A 
ATOM     10  O   LIG d   1       7.299  -2.824  -7.096  0.00  0.00    -0.245 OA
ATOM     11  O   LIG d   1       7.014  -1.317  -5.423  0.00  0.00    -0.453 OA
ATOM     12  H   LIG d   1       3.323   0.831  -5.553  0.00  0.00     0.062 H 
ATOM     13  H   LIG d   1       1.885   0.197  -7.449  0.00  0.00     0.066 H 
ENDROOT
BRANCH   1  14
ATOM     14  C   LIG d   1       5.431  -0.722  -3.657  0.00  0.00     0.047 C 
ATOM     15  H   LIG d   1       4.602  -1.274  -3.745  0.00  0.00     0.038 H 
ATOM     16  H   LIG d   1       6.184  -1.282  -3.104  0.00  0.00     0.038 H 
BRANCH  14  17
ATOM     17  C   LIG d   1       5.108   0.552  -2.917  0.00  0.00     0.137 C 
ATOM     18  O   LIG d   1       5.962   1.390  -2.756  0.00  0.00    -0.297 OA
BRANCH  17  19
ATOM     19  C   LIG d   1       3.718   0.778  -2.379  0.00  0.00     0.003 C 
ATOM     20  H   LIG d   1       3.755   0.846  -1.382  0.00  0.00     0.034 H 
ATOM     21  H   LIG d   1       3.315   1.703  -2.792  0.00  0.00     0.034 H 
BRANCH  19  22
ATOM     22  C   LIG d   1       2.820  -0.394  -2.779  0.00  0.00    -0.059 C 
ATOM     23  H   LIG d   1       2.509  -0.934  -1.885  0.00  0.00     0.023 H 
ATOM     24  H   LIG d   1       1.940  -0.016  -3.301  0.00  0.00     0.023 H 
ATOM     25  H   LIG d   1       3.371  -1.066  -3.436  0.00  0.00     0.023 H 
ENDBRANCH  19  22
ENDBRANCH  17  19
ENDBRANCH  14  17
ENDBRANCH   1  14
BRANCH   7  26
ATOM     26  O   LIG d   1       4.902  -2.823  -8.930  0.00  0.00    -0.491 OA
BRANCH  26  27
ATOM     27  C   LIG d   1       4.505  -4.170  -8.661  0.00  0.00     0.079 C 
ATOM     28  H   LIG d   1       4.893  -4.476  -7.690  0.00  0.00     0.066 H 
ATOM     29  H   LIG d   1       4.903  -4.827  -9.435  0.00  0.00     0.066 H 
ATOM     30  H   LIG d   1       3.417  -4.234  -8.655  0.00  0.00     0.066 H 
ENDBRANCH  26  27
ENDBRANCH   7  26
BRANCH   6  31
ATOM     31  O   LIG d   1       2.465  -1.588  -9.266  0.00  0.00    -0.491 OA
BRANCH  31  32
ATOM     32  C   LIG d   1       1.686  -0.544  -9.856  0.00  0.00     0.079 C 
ATOM     33  H   LIG d   1       1.377  -0.843 -10.858  0.00  0.00     0.066 H 
ATOM     34  H   LIG d   1       0.804  -0.359  -9.243  0.00  0.00     0.066 H 
ATOM     35  H   LIG d   1       2.285   0.364  -9.916  0.00  0.00     0.066 H 
ENDBRANCH  31  32
ENDBRANCH   6  31
TORSDOF 8
ENDMDL
MODEL 9
REMARK VINA RESULT:      -4.4     11.833     14.324
REMARK  8 active torsions:
REMARK  status: ('A' for Active; 'I' for Inactive)
REMARK    1  A    between atoms: C_1  and  C_2 
REMARK    2  A    between atoms: C_2  and  C_3 
REMARK    3  A    between atoms: C_3  and  C_5 
REMARK    4  A    between atoms: C_5  and  C_6 
REMARK    5  A    between atoms: C_11  and  O_19 
REMARK    6  A    between atoms: C_12  and  O_17 
REMARK    7  A    between atoms: O_17  and  C_18 
REMARK    8  A    between atoms: O_19  and  C_20 
ROOT
ATOM      1  C   LIG d   1       9.964   8.285  -2.539  0.00  0.00     0.136 A 
ATOM      2  H   LIG d   1       8.910   8.545  -2.642  0.00  0.00     0.079 H 
ATOM      3  C   LIG d   1      10.453   8.634  -1.157  0.00  0.00     0.011 A 
ATOM      4  C   LIG d   1      10.537   9.813  -0.456  0.00  0.00    -0.051 A 
ATOM      5  C   LIG d   1      11.045   9.823   0.834  0.00  0.00    -0.016 A 
ATOM      6  C   LIG d   1      11.465   8.645   1.427  0.00  0.00     0.162 A 
ATOM      7  C   LIG d   1      11.391   7.444   0.728  0.00  0.00     0.176 A 
ATOM      8  C   LIG d   1      10.878   7.433  -0.576  0.00  0.00     0.111 A 
ATOM      9  C   LIG d   1      10.668   6.354  -1.553  0.00  0.00     0.344 A 
ATOM     10  O   LIG d   1      10.933   5.184  -1.363  0.00  0.00    -0.245 OA
ATOM     11  O   LIG d   1      10.139   6.849  -2.686  0.00  0.00    -0.453 OA
ATOM     12  H   LIG d   1      10.206  10.735  -0.912  0.00  0.00     0.062 H 
ATOM     13  H   LIG d   1      11.109  10.753   1.379  0.00  0.00     0.066 H 
ENDROOT
BRANCH   1  14
ATOM     14  C   LIG d   1      10.792   9.025  -3.592  0.00  0.00     0.047 C 
ATOM     15  H   LIG d   1      11.528   9.530  -3.142  0.00  0.00     0.038 H 
ATOM     16  H   LIG d   1      11.218   8.306  -4.291  0.00  0.00     0.038 H 
BRANCH  14  17
ATOM     17  C   LIG d   1       9.906   9.989  -4.340  0.00  0.00     0.137 C 
ATOM     18  O   LIG d   1       9.258   9.606  -5.283  0.00  0.00    -0.297 OA
BRANCH  17  19
ATOM     19  C   LIG d   1       9.832  11.432  -3.910  0.00  0.00     0.003 C 
ATOM     20  H   LIG d   1      10.573  11.626  -3.267  0.00  0.00     0.034 H 
ATOM     21  H   LIG d   1       9.929  12.077  -4.783  0.00  0.00     0.034 H 
BRANCH  19  22
ATOM     22  C   LIG d   1       8.485  11.693  -3.231  0.00  0.00    -0.059 C 
ATOM     23  H   LIG d   1       8.175  12.719  -3.424  0.00  0.00     0.023 H 
ATOM     24  H   LIG d   1       7.738  11.005  -3.629  0.00  0.00     0.023 H 
ATOM     25  H   LIG d   1       8.585  11.538  -2.156  0.00  0.00     0.023 H 
ENDBRANCH  19  22
ENDBRANCH  17  19
ENDBRANCH  14  17
ENDBRANCH   1  14
BRANCH   7  26
ATOM     26  O   LIG d   1      11.807   6.290   1.306  0.00  0.00    -0.491 OA
BRANCH  26  27
ATOM     27  C   LIG d   1      10.854   5.584   2.105  0.00  0.00     0.079 C 
ATOM     28  H   LIG d   1      11.017   5.818   3.157  0.00  0.00     0.066 H 
ATOM     29  H   LIG d   1      10.972   4.512   1.949  0.00  0.00     0.066 H 
ATOM     30  H   LIG d   1       9.846   5.884   1.817  0.00  0.00     0.066 H 
ENDBRANCH  26  27
ENDBRANCH   7  26
BRANCH   6  31
ATOM     31  O   LIG d   1      11.956   8.661   2.695  0.00  0.00    -0.491 OA
BRANCH  31  32
ATOM     32  C   LIG d   1      12.511   9.894   3.160  0.00  0.00     0.079 C 
ATOM     33  H   LIG d   1      13.599   9.830   3.150  0.00  0.00     0.066 H 
ATOM     34  H   LIG d   1      12.189  10.706   2.509  0.00  0.00     0.066 H 
ATOM     35  H   LIG d   1      12.168  10.085   4.177  0.00  0.00     0.066 H 
ENDBRANCH  31  32
ENDBRANCH   6  31
TORSDOF 8
ENDMDL
MODEL 10
REMARK VINA RESULT:      -4.4      3.823      5.658
REMARK  8 active torsions:
REMARK  status: ('A' for Active; 'I' for Inactive)
REMARK    1  A    between atoms: C_1  and  C_2 
REMARK    2  A    between atoms: C_2  and  C_3 
REMARK    3  A    between atoms: C_3  and  C_5 
REMARK    4  A    between atoms: C_5  and  C_6 
REMARK    5  A    between atoms: C_11  and  O_19 
REMARK    6  A    between atoms: C_12  and  O_17 
REMARK    7  A    between atoms: O_17  and  C_18 
REMARK    8  A    between atoms: O_19  and  C_20 
ROOT
ATOM      1  C   LIG d   1       4.639  -2.377  -3.968  0.00  0.00     0.136 A 
ATOM      2  H   LIG d   1       4.315  -2.522  -2.938  0.00  0.00     0.079 H 
ATOM      3  C   LIG d   1       6.103  -2.710  -4.105  0.00  0.00     0.011 A 
ATOM      4  C   LIG d   1       7.243  -2.201  -3.533  0.00  0.00    -0.051 A 
ATOM      5  C   LIG d   1       8.483  -2.725  -3.863  0.00  0.00    -0.016 A 
ATOM      6  C   LIG d   1       8.581  -3.771  -4.766  0.00  0.00     0.162 A 
ATOM      7  C   LIG d   1       7.434  -4.293  -5.357  0.00  0.00     0.176 A 
ATOM      8  C   LIG d   1       6.181  -3.763  -5.024  0.00  0.00     0.111 A 
ATOM      9  C   LIG d   1       4.815  -4.092  -5.459  0.00  0.00     0.344 A 
ATOM     10  O   LIG d   1       4.531  -4.962  -6.257  0.00  0.00    -0.245 OA
ATOM     11  O   LIG d   1       3.926  -3.289  -4.848  0.00  0.00    -0.453 OA
ATOM     12  H   LIG d   1       7.173  -1.388  -2.825  0.00  0.00     0.062 H 
ATOM     13  H   LIG d   1       9.377  -2.320  -3.411  0.00  0.00     0.066 H 
ENDROOT
BRANCH   1  14
ATOM     14  C   LIG d   1       4.387  -0.930  -4.398  0.00  0.00     0.047 C 
ATOM     15  H   LIG d   1       5.248  -0.420  -4.373  0.00  0.00     0.038 H 
ATOM     16  H   LIG d   1       3.986  -0.916  -5.411  0.00  0.00     0.038 H 
BRANCH  14  17
ATOM     17  C   LIG d   1       3.398  -0.292  -3.456  0.00  0.00     0.137 C 
ATOM     18  O   LIG d   1       2.368  -0.860  -3.186  0.00  0.00    -0.297 OA
BRANCH  17  19
ATOM     19  C   LIG d   1       3.696   1.057  -2.853  0.00  0.00     0.003 C 
ATOM     20  H   LIG d   1       4.149   1.634  -3.533  0.00  0.00     0.034 H 
ATOM     21  H   LIG d   1       2.764   1.528  -2.538  0.00  0.00     0.034 H 
BRANCH  19  22
ATOM     22  C   LIG d   1       4.613   0.882  -1.640  0.00  0.00    -0.059 C 
ATOM     23  H   LIG d   1       4.746  -0.180  -1.436  0.00  0.00     0.023 H 
ATOM     24  H   LIG d   1       5.582   1.337  -1.848  0.00  0.00     0.023 H 
ATOM     25  H   LIG d   1       4.163   1.365  -0.773  0.00  0.00     0.023 H 
ENDBRANCH  19  22
ENDBRANCH  17  19
ENDBRANCH  14  17
ENDBRANCH   1  14
BRANCH   7  26
ATOM     26  O   LIG d   1       7.529  -5.314  -6.245  0.00  0.00    -0.491 OA
BRANCH  26  27
ATOM     27  C   LIG d   1       7.718  -4.964  -7.618  0.00  0.00     0.079 C 
ATOM     28  H   LIG d   1       6.978  -5.479  -8.230  0.00  0.00     0.066 H 
ATOM     29  H   LIG d   1       8.719  -5.260  -7.934  0.00  0.00     0.066 H 
ATOM     30  H   LIG d   1       7.603  -3.887  -7.737  0.00  0.00     0.066 H 
ENDBRANCH  26  27
ENDBRANCH   7  26
BRANCH   6  31
ATOM     31  O   LIG d   1       9.800  -4.285  -5.080  0.00  0.00    -0.491 OA
BRANCH  31  32
ATOM     32  C   LIG d   1      10.579  -4.810  -4.003  0.00  0.00     0.079 C 
ATOM     33  H   LIG d   1      10.746  -4.029  -3.260  0.00  0.00     0.066 H 
ATOM     34  H   LIG d   1      10.048  -5.643  -3.542  0.00  0.00     0.066 H 
ATOM     35  H   LIG d   1      11.539  -5.157  -4.385  0.00  0.00     0.066 H 
ENDBRANCH  31  32
ENDBRANCH   6  31
TORSDOF 8
ENDMDL
