MODEL 1
REMARK VINA RESULT:      -5.0      0.000      0.000
REMARK  5 active torsions:
REMARK  status: ('A' for Active; 'I' for Inactive)
REMARK    1  A    between atoms: C_1  and  C_2 
REMARK    2  A    between atoms: C_3  and  N_15 
REMARK    3  A    between atoms: C_5  and  C_11 
REMARK    4  A    between atoms: C_7  and  N_8 
REMARK       I    between atoms: C_11  and  N_13 
REMARK    5  A    between atoms: N_13  and  C_14 
ROOT
ATOM      1  C   LIG d   1       4.660  -1.247  -3.792  0.00  0.00     0.103 A 
ATOM      2  C   LIG d   1       4.607  -2.067  -4.905  0.00  0.00     0.283 A 
ATOM      3  C   LIG d   1       4.095  -1.589  -6.093  0.00  0.00     0.028 A 
ATOM      4  C   LIG d   1       3.635  -0.273  -6.173  0.00  0.00     0.050 A 
ATOM      5  C   LIG d   1       3.686   0.547  -5.045  0.00  0.00     0.028 A 
ATOM      6  C   LIG d   1       4.202   0.056  -3.863  0.00  0.00     0.283 A 
ATOM      7  H   LIG d   1       4.053  -2.229  -6.962  0.00  0.00     0.069 H 
ATOM      8  H   LIG d   1       3.329   1.565  -5.099  0.00  0.00     0.069 H 
ENDROOT
BRANCH   4   9
ATOM      9  C   LIG d   1       3.090   0.248  -7.445  0.00  0.00     0.244 C 
ATOM     10  O   LIG d   1       2.330  -0.434  -8.104  0.00  0.00    -0.270 OA
ATOM     11  N   LIG d   1       3.438   1.477  -7.873  0.00  0.00    -0.314 N 
ATOM     12  H   LIG d   1       4.045   2.021  -7.348  0.00  0.00     0.149 HD
BRANCH  11  13
ATOM     13  C   LIG d   1       2.898   1.993  -9.134  0.00  0.00     0.000 C 
ATOM     14  H   LIG d   1       3.280   2.998  -9.309  0.00  0.00     0.043 H 
ATOM     15  H   LIG d   1       3.201   1.341  -9.952  0.00  0.00     0.043 H 
ATOM     16  H   LIG d   1       1.809   2.023  -9.078  0.00  0.00     0.043 H 
ENDBRANCH  11  13
ENDBRANCH   4   9
BRANCH   2  17
ATOM     17  N   LIG d   1       5.099  -3.460  -4.821  0.00  0.00     0.080 N 
ATOM     18  O   LIG d   1       4.320  -4.369  -4.599  0.00  0.00     0.042 OA
ATOM     19  O   LIG d   1       6.285  -3.697  -4.974  0.00  0.00    -0.576 OA
ENDBRANCH   2  17
BRANCH   6  20
ATOM     20  N   LIG d   1       4.264   0.927  -2.667  0.00  0.00     0.080 N 
ATOM     21  O   LIG d   1       5.309   1.474  -2.366  0.00  0.00     0.042 OA
ATOM     22  O   LIG d   1       3.269   1.098  -1.986  0.00  0.00    -0.576 OA
ENDBRANCH   6  20
BRANCH   1  23
ATOM     23  C   LIG d   1       5.220  -1.777  -2.497  0.00  0.00    -0.027 C 
ATOM     24  H   LIG d   1       5.072  -2.856  -2.452  0.00  0.00     0.028 H 
ATOM     25  H   LIG d   1       6.287  -1.554  -2.446  0.00  0.00     0.028 H 
ATOM     26  H   LIG d   1       4.710  -1.304  -1.659  0.00  0.00     0.028 H 
ENDBRANCH   1  23
TORSDOF 5
ENDMDL
MODEL 2
REMARK VINA RESULT:      -5.0      0.089      3.716
REMARK  5 active torsions:
REMARK  status: ('A' for Active; 'I' for Inactive)
REMARK    1  A    between atoms: C_1  and  C_2 
REMARK    2  A    between atoms: C_3  and  N_15 
REMARK    3  A    between atoms: C_5  and  C_11 
REMARK    4  A    between atoms: C_7  and  N_8 
REMARK       I    between atoms: C_11  and  N_13 
REMARK    5  A    between atoms: N_13  and  C_14 
ROOT
ATOM      1  C   LIG d   1       4.606  -1.283  -3.749  0.00  0.00     0.103 A 
ATOM      2  C   LIG d   1       4.146   0.021  -3.812  0.00  0.00     0.283 A 
ATOM      3  C   LIG d   1       3.656   0.525  -4.998  0.00  0.00     0.028 A 
ATOM      4  C   LIG d   1       3.620  -0.283  -6.136  0.00  0.00     0.050 A 
ATOM      5  C   LIG d   1       4.091  -1.595  -6.067  0.00  0.00     0.028 A 
ATOM      6  C   LIG d   1       4.578  -2.087  -4.873  0.00  0.00     0.283 A 
ATOM      7  H   LIG d   1       3.297   1.543  -5.047  0.00  0.00     0.069 H 
ATOM      8  H   LIG d   1       4.069  -2.226  -6.943  0.00  0.00     0.069 H 
ENDROOT
BRANCH   4   9
ATOM      9  C   LIG d   1       3.090   0.249  -7.409  0.00  0.00     0.244 C 
ATOM     10  O   LIG d   1       2.417  -0.460  -8.131  0.00  0.00    -0.270 OA
ATOM     11  N   LIG d   1       3.355   1.520  -7.769  0.00  0.00    -0.314 N 
ATOM     12  H   LIG d   1       3.893   2.086  -7.194  0.00  0.00     0.149 HD
BRANCH  11  13
ATOM     13  C   LIG d   1       2.831   2.047  -9.032  0.00  0.00     0.000 C 
ATOM     14  H   LIG d   1       2.201   1.295  -9.506  0.00  0.00     0.043 H 
ATOM     15  H   LIG d   1       2.243   2.943  -8.836  0.00  0.00     0.043 H 
ATOM     16  H   LIG d   1       3.661   2.296  -9.695  0.00  0.00     0.043 H 
ENDBRANCH  11  13
ENDBRANCH   4   9
BRANCH   2  17
ATOM     17  N   LIG d   1       4.180   0.876  -2.604  0.00  0.00     0.080 N 
ATOM     18  O   LIG d   1       5.219   1.415  -2.268  0.00  0.00     0.042 OA
ATOM     19  O   LIG d   1       3.168   1.040  -1.946  0.00  0.00    -0.576 OA
ENDBRANCH   2  17
BRANCH   6  20
ATOM     20  N   LIG d   1       5.071  -3.482  -4.796  0.00  0.00     0.080 N 
ATOM     21  O   LIG d   1       4.293  -4.391  -4.570  0.00  0.00     0.042 OA
ATOM     22  O   LIG d   1       6.254  -3.719  -4.961  0.00  0.00    -0.576 OA
ENDBRANCH   6  20
BRANCH   1  23
ATOM     23  C   LIG d   1       5.140  -1.826  -2.449  0.00  0.00    -0.027 C 
ATOM     24  H   LIG d   1       4.464  -1.556  -1.637  0.00  0.00     0.028 H 
ATOM     25  H   LIG d   1       5.214  -2.912  -2.513  0.00  0.00     0.028 H 
ATOM     26  H   LIG d   1       6.126  -1.406  -2.256  0.00  0.00     0.028 H 
ENDBRANCH   1  23
TORSDOF 5
ENDMDL
MODEL 3
REMARK VINA RESULT:      -4.8      3.148      5.189
REMARK  5 active torsions:
REMARK  status: ('A' for Active; 'I' for Inactive)
REMARK    1  A    between atoms: C_1  and  C_2 
REMARK    2  A    between atoms: C_3  and  N_15 
REMARK    3  A    between atoms: C_5  and  C_11 
REMARK    4  A    between atoms: C_7  and  N_8 
REMARK       I    between atoms: C_11  and  N_13 
REMARK    5  A    between atoms: N_13  and  C_14 
ROOT
ATOM      1  C   LIG d   1       6.590  -3.851  -4.923  0.00  0.00     0.103 A 
ATOM      2  C   LIG d   1       7.350  -2.982  -4.162  0.00  0.00     0.283 A 
ATOM      3  C   LIG d   1       6.736  -1.991  -3.424  0.00  0.00     0.028 A 
ATOM      4  C   LIG d   1       5.346  -1.869  -3.442  0.00  0.00     0.050 A 
ATOM      5  C   LIG d   1       4.585  -2.746  -4.217  0.00  0.00     0.028 A 
ATOM      6  C   LIG d   1       5.212  -3.734  -4.950  0.00  0.00     0.283 A 
ATOM      7  H   LIG d   1       7.330  -1.312  -2.829  0.00  0.00     0.069 H 
ATOM      8  H   LIG d   1       3.509  -2.656  -4.238  0.00  0.00     0.069 H 
ENDROOT
BRANCH   4   9
ATOM      9  C   LIG d   1       4.682  -0.813  -2.649  0.00  0.00     0.244 C 
ATOM     10  O   LIG d   1       4.436  -1.000  -1.473  0.00  0.00    -0.270 OA
ATOM     11  N   LIG d   1       4.349   0.356  -3.230  0.00  0.00    -0.314 N 
ATOM     12  H   LIG d   1       4.545   0.506  -4.167  0.00  0.00     0.149 HD
BRANCH  11  13
ATOM     13  C   LIG d   1       3.690   1.403  -2.443  0.00  0.00     0.000 C 
ATOM     14  H   LIG d   1       4.221   1.537  -1.500  0.00  0.00     0.043 H 
ATOM     15  H   LIG d   1       3.699   2.337  -3.002  0.00  0.00     0.043 H 
ATOM     16  H   LIG d   1       2.659   1.110  -2.241  0.00  0.00     0.043 H 
ENDBRANCH  11  13
ENDBRANCH   4   9
BRANCH   2  17
ATOM     17  N   LIG d   1       8.824  -3.114  -4.138  0.00  0.00     0.080 N 
ATOM     18  O   LIG d   1       9.359  -3.829  -3.311  0.00  0.00     0.042 OA
ATOM     19  O   LIG d   1       9.502  -2.506  -4.948  0.00  0.00    -0.576 OA
ENDBRANCH   2  17
BRANCH   6  20
ATOM     20  N   LIG d   1       4.406  -4.670  -5.767  0.00  0.00     0.080 N 
ATOM     21  O   LIG d   1       4.029  -5.724  -5.290  0.00  0.00     0.042 OA
ATOM     22  O   LIG d   1       4.119  -4.383  -6.915  0.00  0.00    -0.576 OA
ENDBRANCH   6  20
BRANCH   1  23
ATOM     23  C   LIG d   1       7.267  -4.931  -5.727  0.00  0.00    -0.027 C 
ATOM     24  H   LIG d   1       6.932  -4.876  -6.764  0.00  0.00     0.028 H 
ATOM     25  H   LIG d   1       8.348  -4.789  -5.687  0.00  0.00     0.028 H 
ATOM     26  H   LIG d   1       7.014  -5.906  -5.314  0.00  0.00     0.028 H 
ENDBRANCH   1  23
TORSDOF 5
ENDMDL
MODEL 4
REMARK VINA RESULT:      -4.8      3.170      4.854
REMARK  5 active torsions:
REMARK  status: ('A' for Active; 'I' for Inactive)
REMARK    1  A    between atoms: C_1  and  C_2 
REMARK    2  A    between atoms: C_3  and  N_15 
REMARK    3  A    between atoms: C_5  and  C_11 
REMARK    4  A    between atoms: C_7  and  N_8 
REMARK       I    between atoms: C_11  and  N_13 
REMARK    5  A    between atoms: N_13  and  C_14 
ROOT
ATOM      1  C   LIG d   1       6.618  -3.860  -4.911  0.00  0.00     0.103 A 
ATOM      2  C   LIG d   1       5.237  -3.771  -4.913  0.00  0.00     0.283 A 
ATOM      3  C   LIG d   1       4.606  -2.788  -4.178  0.00  0.00     0.028 A 
ATOM      4  C   LIG d   1       5.363  -1.880  -3.437  0.00  0.00     0.050 A 
ATOM      5  C   LIG d   1       6.755  -1.979  -3.434  0.00  0.00     0.028 A 
ATOM      6  C   LIG d   1       7.373  -2.967  -4.174  0.00  0.00     0.283 A 
ATOM      7  H   LIG d   1       3.528  -2.718  -4.180  0.00  0.00     0.069 H 
ATOM      8  H   LIG d   1       7.347  -1.282  -2.860  0.00  0.00     0.069 H 
ENDROOT
BRANCH   4   9
ATOM      9  C   LIG d   1       4.694  -0.821  -2.652  0.00  0.00     0.244 C 
ATOM     10  O   LIG d   1       4.409  -1.017  -1.486  0.00  0.00    -0.270 OA
ATOM     11  N   LIG d   1       4.399   0.361  -3.229  0.00  0.00    -0.314 N 
ATOM     12  H   LIG d   1       4.625   0.517  -4.158  0.00  0.00     0.149 HD
BRANCH  11  13
ATOM     13  C   LIG d   1       3.735   1.410  -2.450  0.00  0.00     0.000 C 
ATOM     14  H   LIG d   1       2.871   0.989  -1.936  0.00  0.00     0.043 H 
ATOM     15  H   LIG d   1       4.432   1.815  -1.718  0.00  0.00     0.043 H 
ATOM     16  H   LIG d   1       3.407   2.206  -3.119  0.00  0.00     0.043 H 
ENDBRANCH  11  13
ENDBRANCH   4   9
BRANCH   2  17
ATOM     17  N   LIG d   1       4.435  -4.730  -5.704  0.00  0.00     0.080 N 
ATOM     18  O   LIG d   1       4.138  -4.473  -6.856  0.00  0.00     0.042 OA
ATOM     19  O   LIG d   1       4.070  -5.779  -5.201  0.00  0.00    -0.576 OA
ENDBRANCH   2  17
BRANCH   6  20
ATOM     20  N   LIG d   1       8.851  -3.069  -4.179  0.00  0.00     0.080 N 
ATOM     21  O   LIG d   1       9.501  -2.450  -5.000  0.00  0.00     0.042 OA
ATOM     22  O   LIG d   1       9.415  -3.772  -3.360  0.00  0.00    -0.576 OA
ENDBRANCH   6  20
BRANCH   1  23
ATOM     23  C   LIG d   1       7.299  -4.937  -5.716  0.00  0.00    -0.027 C 
ATOM     24  H   LIG d   1       8.029  -5.451  -5.089  0.00  0.00     0.028 H 
ATOM     25  H   LIG d   1       6.555  -5.652  -6.068  0.00  0.00     0.028 H 
ATOM     26  H   LIG d   1       7.804  -4.488  -6.569  0.00  0.00     0.028 H 
ENDBRANCH   1  23
TORSDOF 5
ENDMDL
MODEL 5
REMARK VINA RESULT:      -4.5      2.275      3.405
REMARK  5 active torsions:
REMARK  status: ('A' for Active; 'I' for Inactive)
REMARK    1  A    between atoms: C_1  and  C_2 
REMARK    2  A    between atoms: C_3  and  N_15 
REMARK    3  A    between atoms: C_5  and  C_11 
REMARK    4  A    between atoms: C_7  and  N_8 
REMARK       I    between atoms: C_11  and  N_13 
REMARK    5  A    between atoms: N_13  and  C_14 
ROOT
ATOM      1  C   LIG d   1       6.026  -1.430  -4.163  0.00  0.00     0.103 A 
ATOM      2  C   LIG d   1       4.685  -1.258  -3.870  0.00  0.00     0.283 A 
ATOM      3  C   LIG d   1       3.817  -0.800  -4.841  0.00  0.00     0.028 A 
ATOM      4  C   LIG d   1       4.294  -0.517  -6.121  0.00  0.00     0.050 A 
ATOM      5  C   LIG d   1       5.649  -0.687  -6.409  0.00  0.00     0.028 A 
ATOM      6  C   LIG d   1       6.506  -1.146  -5.428  0.00  0.00     0.283 A 
ATOM      7  H   LIG d   1       2.770  -0.667  -4.611  0.00  0.00     0.069 H 
ATOM      8  H   LIG d   1       6.025  -0.466  -7.396  0.00  0.00     0.069 H 
ENDROOT
BRANCH   4   9
ATOM      9  C   LIG d   1       3.369  -0.032  -7.168  0.00  0.00     0.244 C 
ATOM     10  O   LIG d   1       3.061   1.144  -7.209  0.00  0.00    -0.270 OA
ATOM     11  N   LIG d   1       2.867  -0.893  -8.074  0.00  0.00    -0.314 N 
ATOM     12  H   LIG d   1       3.111  -1.830  -8.041  0.00  0.00     0.149 HD
BRANCH  11  13
ATOM     13  C   LIG d   1       1.949  -0.412  -9.111  0.00  0.00     0.000 C 
ATOM     14  H   LIG d   1       1.711   0.636  -8.928  0.00  0.00     0.043 H 
ATOM     15  H   LIG d   1       2.420  -0.513 -10.088  0.00  0.00     0.043 H 
ATOM     16  H   LIG d   1       1.033  -1.002  -9.087  0.00  0.00     0.043 H 
ENDBRANCH  11  13
ENDBRANCH   4   9
BRANCH   2  17
ATOM     17  N   LIG d   1       4.179  -1.564  -2.513  0.00  0.00     0.080 N 
ATOM     18  O   LIG d   1       3.620  -2.624  -2.296  0.00  0.00     0.042 OA
ATOM     19  O   LIG d   1       4.321  -0.754  -1.614  0.00  0.00    -0.576 OA
ENDBRANCH   2  17
BRANCH   6  20
ATOM     20  N   LIG d   1       7.942  -1.334  -5.733  0.00  0.00     0.080 N 
ATOM     21  O   LIG d   1       8.340  -2.404  -6.156  0.00  0.00     0.042 OA
ATOM     22  O   LIG d   1       8.726  -0.417  -5.563  0.00  0.00    -0.576 OA
ENDBRANCH   6  20
BRANCH   1  23
ATOM     23  C   LIG d   1       6.967  -1.929  -3.097  0.00  0.00    -0.027 C 
ATOM     24  H   LIG d   1       7.911  -1.386  -3.162  0.00  0.00     0.028 H 
ATOM     25  H   LIG d   1       6.522  -1.766  -2.115  0.00  0.00     0.028 H 
ATOM     26  H   LIG d   1       7.149  -2.993  -3.242  0.00  0.00     0.028 H 
ENDBRANCH   1  23
TORSDOF 5
ENDMDL
MODEL 6
REMARK VINA RESULT:      -4.5      2.963      5.063
REMARK  5 active torsions:
REMARK  status: ('A' for Active; 'I' for Inactive)
REMARK    1  A    between atoms: C_1  and  C_2 
REMARK    2  A    between atoms: C_3  and  N_15 
REMARK    3  A    between atoms: C_5  and  C_11 
REMARK    4  A    between atoms: C_7  and  N_8 
REMARK       I    between atoms: C_11  and  N_13 
REMARK    5  A    between atoms: N_13  and  C_14 
ROOT
ATOM      1  C   LIG d   1       4.389  -0.232  -4.516  0.00  0.00     0.103 A 
ATOM      2  C   LIG d   1       5.245  -0.280  -3.430  0.00  0.00     0.283 A 
ATOM      3  C   LIG d   1       6.608  -0.362  -3.626  0.00  0.00     0.028 A 
ATOM      4  C   LIG d   1       7.124  -0.390  -4.922  0.00  0.00     0.050 A 
ATOM      5  C   LIG d   1       6.255  -0.347  -6.014  0.00  0.00     0.028 A 
ATOM      6  C   LIG d   1       4.894  -0.264  -5.803  0.00  0.00     0.283 A 
ATOM      7  H   LIG d   1       7.276  -0.399  -2.777  0.00  0.00     0.069 H 
ATOM      8  H   LIG d   1       6.647  -0.372  -7.020  0.00  0.00     0.069 H 
ENDROOT
BRANCH   4   9
ATOM      9  C   LIG d   1       8.585  -0.472  -5.139  0.00  0.00     0.244 C 
ATOM     10  O   LIG d   1       9.055  -1.407  -5.757  0.00  0.00    -0.270 OA
ATOM     11  N   LIG d   1       9.392   0.490  -4.653  0.00  0.00    -0.314 N 
ATOM     12  H   LIG d   1       9.017   1.236  -4.160  0.00  0.00     0.149 HD
BRANCH  11  13
ATOM     13  C   LIG d   1      10.840   0.408  -4.868  0.00  0.00     0.000 C 
ATOM     14  H   LIG d   1      11.058  -0.398  -5.567  0.00  0.00     0.043 H 
ATOM     15  H   LIG d   1      11.201   1.352  -5.276  0.00  0.00     0.043 H 
ATOM     16  H   LIG d   1      11.337   0.210  -3.918  0.00  0.00     0.043 H 
ENDBRANCH  11  13
ENDBRANCH   4   9
BRANCH   2  17
ATOM     17  N   LIG d   1       4.698  -0.245  -2.055  0.00  0.00     0.080 N 
ATOM     18  O   LIG d   1       4.384  -1.281  -1.497  0.00  0.00     0.042 OA
ATOM     19  O   LIG d   1       4.561   0.822  -1.482  0.00  0.00    -0.576 OA
ENDBRANCH   2  17
BRANCH   6  20
ATOM     20  N   LIG d   1       3.971  -0.210  -6.960  0.00  0.00     0.080 N 
ATOM     21  O   LIG d   1       3.627  -1.239  -7.513  0.00  0.00     0.042 OA
ATOM     22  O   LIG d   1       3.555   0.863  -7.357  0.00  0.00    -0.576 OA
ENDBRANCH   6  20
BRANCH   1  23
ATOM     23  C   LIG d   1       2.902  -0.143  -4.294  0.00  0.00    -0.027 C 
ATOM     24  H   LIG d   1       2.637  -0.688  -3.387  0.00  0.00     0.028 H 
ATOM     25  H   LIG d   1       2.613   0.903  -4.186  0.00  0.00     0.028 H 
ATOM     26  H   LIG d   1       2.380  -0.578  -5.145  0.00  0.00     0.028 H 
ENDBRANCH   1  23
TORSDOF 5
ENDMDL
MODEL 7
REMARK VINA RESULT:      -4.5      3.587      5.833
REMARK  5 active torsions:
REMARK  status: ('A' for Active; 'I' for Inactive)
REMARK    1  A    between atoms: C_1  and  C_2 
REMARK    2  A    between atoms: C_3  and  N_15 
REMARK    3  A    between atoms: C_5  and  C_11 
REMARK    4  A    between atoms: C_7  and  N_8 
REMARK       I    between atoms: C_11  and  N_13 
REMARK    5  A    between atoms: N_13  and  C_14 
ROOT
ATOM      1  C   LIG d   1       5.869  -0.646  -3.730  0.00  0.00     0.103 A 
ATOM      2  C   LIG d   1       5.967   0.666  -3.302  0.00  0.00     0.283 A 
ATOM      3  C   LIG d   1       7.100   1.403  -3.579  0.00  0.00     0.028 A 
ATOM      4  C   LIG d   1       8.146   0.824  -4.299  0.00  0.00     0.050 A 
ATOM      5  C   LIG d   1       8.044  -0.502  -4.723  0.00  0.00     0.028 A 
ATOM      6  C   LIG d   1       6.904  -1.227  -4.439  0.00  0.00     0.283 A 
ATOM      7  H   LIG d   1       7.175   2.427  -3.245  0.00  0.00     0.069 H 
ATOM      8  H   LIG d   1       8.852  -0.957  -5.277  0.00  0.00     0.069 H 
ENDROOT
BRANCH   4   9
ATOM      9  C   LIG d   1       9.361   1.610  -4.605  0.00  0.00     0.244 C 
ATOM     10  O   LIG d   1       9.483   2.141  -5.692  0.00  0.00    -0.270 OA
ATOM     11  N   LIG d   1      10.332   1.735  -3.680  0.00  0.00    -0.314 N 
ATOM     12  H   LIG d   1      10.236   1.311  -2.813  0.00  0.00     0.149 HD
BRANCH  11  13
ATOM     13  C   LIG d   1      11.536   2.514  -3.984  0.00  0.00     0.000 C 
ATOM     14  H   LIG d   1      11.690   2.539  -5.063  0.00  0.00     0.043 H 
ATOM     15  H   LIG d   1      11.416   3.530  -3.610  0.00  0.00     0.043 H 
ATOM     16  H   LIG d   1      12.399   2.050  -3.505  0.00  0.00     0.043 H 
ENDBRANCH  11  13
ENDBRANCH   4   9
BRANCH   2  17
ATOM     17  N   LIG d   1       4.854   1.281  -2.543  0.00  0.00     0.080 N 
ATOM     18  O   LIG d   1       3.999   1.922  -3.128  0.00  0.00     0.042 OA
ATOM     19  O   LIG d   1       4.795   1.147  -1.334  0.00  0.00    -0.576 OA
ENDBRANCH   2  17
BRANCH   6  20
ATOM     20  N   LIG d   1       6.791  -2.631  -4.895  0.00  0.00     0.080 N 
ATOM     21  O   LIG d   1       7.279  -3.528  -4.232  0.00  0.00     0.042 OA
ATOM     22  O   LIG d   1       6.208  -2.888  -5.933  0.00  0.00    -0.576 OA
ENDBRANCH   6  20
BRANCH   1  23
ATOM     23  C   LIG d   1       4.628  -1.444  -3.422  0.00  0.00    -0.027 C 
ATOM     24  H   LIG d   1       4.878  -2.505  -3.389  0.00  0.00     0.028 H 
ATOM     25  H   LIG d   1       4.229  -1.135  -2.456  0.00  0.00     0.028 H 
ATOM     26  H   LIG d   1       3.883  -1.269  -4.196  0.00  0.00     0.028 H 
ENDBRANCH   1  23
TORSDOF 5
ENDMDL
MODEL 8
REMARK VINA RESULT:      -4.5      3.598      4.662
REMARK  5 active torsions:
REMARK  status: ('A' for Active; 'I' for Inactive)
REMARK    1  A    between atoms: C_1  and  C_2 
REMARK    2  A    between atoms: C_3  and  N_15 
REMARK    3  A    between atoms: C_5  and  C_11 
REMARK    4  A    between atoms: C_7  and  N_8 
REMARK       I    between atoms: C_11  and  N_13 
REMARK    5  A    between atoms: N_13  and  C_14 
ROOT
ATOM      1  C   LIG d   1       5.876  -0.643  -3.731  0.00  0.00     0.103 A 
ATOM      2  C   LIG d   1       6.908  -1.225  -4.445  0.00  0.00     0.283 A 
ATOM      3  C   LIG d   1       8.041  -0.496  -4.743  0.00  0.00     0.028 A 
ATOM      4  C   LIG d   1       8.147   0.829  -4.319  0.00  0.00     0.050 A 
ATOM      5  C   LIG d   1       7.099   1.413  -3.604  0.00  0.00     0.028 A 
ATOM      6  C   LIG d   1       5.972   0.671  -3.312  0.00  0.00     0.283 A 
ATOM      7  H   LIG d   1       8.847  -0.952  -5.300  0.00  0.00     0.069 H 
ATOM      8  H   LIG d   1       7.173   2.439  -3.276  0.00  0.00     0.069 H 
ENDROOT
BRANCH   4   9
ATOM      9  C   LIG d   1       9.361   1.615  -4.630  0.00  0.00     0.244 C 
ATOM     10  O   LIG d   1       9.302   2.533  -5.423  0.00  0.00    -0.270 OA
ATOM     11  N   LIG d   1      10.530   1.310  -4.034  0.00  0.00    -0.314 N 
ATOM     12  H   LIG d   1      10.577   0.577  -3.402  0.00  0.00     0.149 HD
BRANCH  11  13
ATOM     13  C   LIG d   1      11.733   2.089  -4.344  0.00  0.00     0.000 C 
ATOM     14  H   LIG d   1      11.752   2.989  -3.729  0.00  0.00     0.043 H 
ATOM     15  H   LIG d   1      12.617   1.488  -4.136  0.00  0.00     0.043 H 
ATOM     16  H   LIG d   1      11.723   2.369  -5.397  0.00  0.00     0.043 H 
ENDBRANCH  11  13
ENDBRANCH   4   9
BRANCH   2  17
ATOM     17  N   LIG d   1       6.798  -2.632  -4.890  0.00  0.00     0.080 N 
ATOM     18  O   LIG d   1       6.211  -2.901  -5.922  0.00  0.00     0.042 OA
ATOM     19  O   LIG d   1       7.294  -3.523  -4.222  0.00  0.00    -0.576 OA
ENDBRANCH   2  17
BRANCH   6  20
ATOM     20  N   LIG d   1       4.863   1.287  -2.548  0.00  0.00     0.080 N 
ATOM     21  O   LIG d   1       4.006   1.927  -3.128  0.00  0.00     0.042 OA
ATOM     22  O   LIG d   1       4.808   1.149  -1.339  0.00  0.00    -0.576 OA
ENDBRANCH   6  20
BRANCH   1  23
ATOM     23  C   LIG d   1       4.642  -1.445  -3.410  0.00  0.00    -0.027 C 
ATOM     24  H   LIG d   1       4.422  -2.121  -4.238  0.00  0.00     0.028 H 
ATOM     25  H   LIG d   1       4.813  -2.026  -2.503  0.00  0.00     0.028 H 
ATOM     26  H   LIG d   1       3.800  -0.772  -3.256  0.00  0.00     0.028 H 
ENDBRANCH   1  23
TORSDOF 5
ENDMDL
MODEL 9
REMARK VINA RESULT:      -4.5     13.773     16.234
REMARK  5 active torsions:
REMARK  status: ('A' for Active; 'I' for Inactive)
REMARK    1  A    between atoms: C_1  and  C_2 
REMARK    2  A    between atoms: C_3  and  N_15 
REMARK    3  A    between atoms: C_5  and  C_11 
REMARK    4  A    between atoms: C_7  and  N_8 
REMARK       I    between atoms: C_11  and  N_13 
REMARK    5  A    between atoms: N_13  and  C_14 
ROOT
ATOM      1  C   LIG d   1      11.370   7.717   7.872  0.00  0.00     0.103 A 
ATOM      2  C   LIG d   1      11.839   8.730   7.053  0.00  0.00     0.283 A 
ATOM      3  C   LIG d   1      11.835   8.569   5.683  0.00  0.00     0.028 A 
ATOM      4  C   LIG d   1      11.352   7.386   5.122  0.00  0.00     0.050 A 
ATOM      5  C   LIG d   1      10.886   6.366   5.954  0.00  0.00     0.028 A 
ATOM      6  C   LIG d   1      10.895   6.540   7.323  0.00  0.00     0.283 A 
ATOM      7  H   LIG d   1      12.201   9.360   5.044  0.00  0.00     0.069 H 
ATOM      8  H   LIG d   1      10.514   5.447   5.528  0.00  0.00     0.069 H 
ENDROOT
BRANCH   4   9
ATOM      9  C   LIG d   1      11.339   7.210   3.654  0.00  0.00     0.244 C 
ATOM     10  O   LIG d   1      11.672   8.127   2.930  0.00  0.00    -0.270 OA
ATOM     11  N   LIG d   1      10.958   6.033   3.121  0.00  0.00    -0.314 N 
ATOM     12  H   LIG d   1      10.691   5.301   3.698  0.00  0.00     0.149 HD
BRANCH  11  13
ATOM     13  C   LIG d   1      10.945   5.859   1.666  0.00  0.00     0.000 C 
ATOM     14  H   LIG d   1      10.119   6.428   1.239  0.00  0.00     0.043 H 
ATOM     15  H   LIG d   1      11.886   6.216   1.249  0.00  0.00     0.043 H 
ATOM     16  H   LIG d   1      10.821   4.803   1.427  0.00  0.00     0.043 H 
ENDBRANCH  11  13
ENDBRANCH   4   9
BRANCH   2  17
ATOM     17  N   LIG d   1      12.346   9.986   7.648  0.00  0.00     0.080 N 
ATOM     18  O   LIG d   1      11.574  10.888   7.918  0.00  0.00     0.042 OA
ATOM     19  O   LIG d   1      13.538  10.119   7.867  0.00  0.00    -0.576 OA
ENDBRANCH   2  17
BRANCH   6  20
ATOM     20  N   LIG d   1      10.394   5.463   8.207  0.00  0.00     0.080 N 
ATOM     21  O   LIG d   1       9.335   5.599   8.792  0.00  0.00     0.042 OA
ATOM     22  O   LIG d   1      11.041   4.440   8.346  0.00  0.00    -0.576 OA
ENDBRANCH   6  20
BRANCH   1  23
ATOM     23  C   LIG d   1      11.378   7.900   9.368  0.00  0.00    -0.027 C 
ATOM     24  H   LIG d   1      10.362   7.799   9.751  0.00  0.00     0.028 H 
ATOM     25  H   LIG d   1      12.014   7.139   9.822  0.00  0.00     0.028 H 
ATOM     26  H   LIG d   1      11.763   8.888   9.611  0.00  0.00     0.028 H 
ENDBRANCH   1  23
TORSDOF 5
ENDMDL
MODEL 10
REMARK VINA RESULT:      -4.3     11.886     14.022
REMARK  5 active torsions:
REMARK  status: ('A' for Active; 'I' for Inactive)
REMARK    1  A    between atoms: C_1  and  C_2 
REMARK    2  A    between atoms: C_3  and  N_15 
REMARK    3  A    between atoms: C_5  and  C_11 
REMARK    4  A    between atoms: C_7  and  N_8 
REMARK       I    between atoms: C_11  and  N_13 
REMARK    5  A    between atoms: N_13  and  C_14 
ROOT
ATOM      1  C   LIG d   1      10.388   8.212  -0.261  0.00  0.00     0.103 A 
ATOM      2  C   LIG d   1      11.187   7.758   0.773  0.00  0.00     0.283 A 
ATOM      3  C   LIG d   1      11.760   8.655   1.650  0.00  0.00     0.028 A 
ATOM      4  C   LIG d   1      11.528  10.023   1.497  0.00  0.00     0.050 A 
ATOM      5  C   LIG d   1      10.726  10.475   0.447  0.00  0.00     0.028 A 
ATOM      6  C   LIG d   1      10.158   9.565  -0.423  0.00  0.00     0.283 A 
ATOM      7  H   LIG d   1      12.383   8.300   2.458  0.00  0.00     0.069 H 
ATOM      8  H   LIG d   1      10.545  11.532   0.320  0.00  0.00     0.069 H 
ENDROOT
BRANCH   4   9
ATOM      9  C   LIG d   1      12.134  10.990   2.437  0.00  0.00     0.244 C 
ATOM     10  O   LIG d   1      12.149  12.174   2.164  0.00  0.00    -0.270 OA
ATOM     11  N   LIG d   1      12.670  10.557   3.594  0.00  0.00    -0.314 N 
ATOM     12  H   LIG d   1      12.659   9.613   3.812  0.00  0.00     0.149 HD
BRANCH  11  13
ATOM     13  C   LIG d   1      13.271  11.516   4.525  0.00  0.00     0.000 C 
ATOM     14  H   LIG d   1      14.357  11.487   4.427  0.00  0.00     0.043 H 
ATOM     15  H   LIG d   1      12.913  12.519   4.296  0.00  0.00     0.043 H 
ATOM     16  H   LIG d   1      12.992  11.255   5.547  0.00  0.00     0.043 H 
ENDBRANCH  11  13
ENDBRANCH   4   9
BRANCH   2  17
ATOM     17  N   LIG d   1      11.428   6.307   0.939  0.00  0.00     0.080 N 
ATOM     18  O   LIG d   1      10.683   5.641   1.634  0.00  0.00     0.042 OA
ATOM     19  O   LIG d   1      12.374   5.779   0.381  0.00  0.00    -0.576 OA
ENDBRANCH   2  17
BRANCH   6  20
ATOM     20  N   LIG d   1       9.301  10.043  -1.532  0.00  0.00     0.080 N 
ATOM     21  O   LIG d   1       8.098  10.138  -1.374  0.00  0.00     0.042 OA
ATOM     22  O   LIG d   1       9.800  10.341  -2.602  0.00  0.00    -0.576 OA
ENDBRANCH   6  20
BRANCH   1  23
ATOM     23  C   LIG d   1       9.766   7.225  -1.216  0.00  0.00    -0.027 C 
ATOM     24  H   LIG d   1       9.599   6.278  -0.701  0.00  0.00     0.028 H 
ATOM     25  H   LIG d   1       8.814   7.617  -1.573  0.00  0.00     0.028 H 
ATOM     26  H   LIG d   1      10.434   7.066  -2.061  0.00  0.00     0.028 H 
ENDBRANCH   1  23
TORSDOF 5
ENDMDL
