MODEL 1
REMARK VINA RESULT:      -7.1      0.000      0.000
REMARK  16 active torsions:
REMARK  status: ('A' for Active; 'I' for Inactive)
REMARK    1  A    between atoms: C_1  and  C_2 
REMARK    2  A    between atoms: C_2  and  C_4 
REMARK    3  A    between atoms: C_2  and  C_21 
REMARK    4  A    between atoms: C_4  and  C_5 
REMARK    5  A    between atoms: C_5  and  C_6 
REMARK       I    between atoms: C_6  and  N_8 
REMARK    6  A    between atoms: N_8  and  C_9 
REMARK    7  A    between atoms: C_9  and  C_10 
REMARK    8  A    between atoms: C_10  and  C_11 
REMARK    9  A    between atoms: C_14  and  O_19 
REMARK   10  A    between atoms: C_15  and  O_17 
REMARK   11  A    between atoms: O_17  and  C_18 
REMARK   12  A    between atoms: O_19  and  C_20 
REMARK   13  A    between atoms: C_27  and  C_48 
REMARK   14  A    between atoms: C_34  and  O_47 
REMARK   15  A    between atoms: C_39  and  C_46 
REMARK   16  A    between atoms: C_42  and  O_45 
ROOT
ATOM      1  C   LIG d   1       3.300  -1.162  -4.840  0.00  0.00    -0.033 C 
ATOM      2  H   LIG d   1       2.631  -2.022  -4.892  0.00  0.00     0.031 H 
ATOM      3  C   LIG d   1       2.482   0.146  -4.701  0.00  0.00    -0.049 C 
ATOM      4  C   LIG d   1       2.754   0.972  -5.987  0.00  0.00    -0.049 C 
ATOM      5  C   LIG d   1       3.162  -0.101  -7.003  0.00  0.00    -0.030 C 
ATOM      6  H   LIG d   1       2.286  -0.651  -7.345  0.00  0.00     0.031 H 
ATOM      7  C   LIG d   1       4.077  -1.017  -6.145  0.00  0.00    -0.026 C 
ATOM      8  C   LIG d   1       4.320  -2.288  -6.934  0.00  0.00    -0.047 C 
ATOM      9  C   LIG d   1       5.102  -1.899  -8.200  0.00  0.00    -0.049 C 
ATOM     10  C   LIG d   1       4.348  -0.859  -9.021  0.00  0.00    -0.030 C 
ATOM     11  H   LIG d   1       3.421  -1.301  -9.384  0.00  0.00     0.031 H 
ATOM     12  C   LIG d   1       3.976   0.385  -8.188  0.00  0.00    -0.008 C 
ATOM     13  H   LIG d   1       4.887   0.869  -7.835  0.00  0.00     0.033 H 
ATOM     14  C   LIG d   1       3.151   1.351  -9.040  0.00  0.00     0.059 C 
ATOM     15  H   LIG d   1       2.241   0.853  -9.375  0.00  0.00     0.060 H 
ATOM     16  C   LIG d   1       3.972   1.785 -10.256  0.00  0.00    -0.023 C 
ATOM     17  C   LIG d   1       4.338   0.557 -11.091  0.00  0.00    -0.031 C 
ATOM     18  H   LIG d   1       4.921   0.867 -11.959  0.00  0.00     0.031 H 
ATOM     19  C   LIG d   1       5.192  -0.426 -10.220  0.00  0.00    -0.026 C 
ATOM     20  C   LIG d   1       5.556  -1.655 -11.057  0.00  0.00    -0.045 C 
ATOM     21  C   LIG d   1       4.275  -2.340 -11.537  0.00  0.00    -0.026 C 
ATOM     22  C   LIG d   1       3.464  -1.363 -12.392  0.00  0.00     0.056 C 
ATOM     23  H   LIG d   1       4.057  -1.058 -13.255  0.00  0.00     0.059 H 
ATOM     24  C   LIG d   1       3.060  -0.142 -11.558  0.00  0.00    -0.023 C 
ATOM     25  H   LIG d   1       1.420  -0.083  -4.620  0.00  0.00     0.027 H 
ATOM     26  H   LIG d   1       2.813   0.702  -3.823  0.00  0.00     0.027 H 
ATOM     27  H   LIG d   1       1.851   1.488  -6.312  0.00  0.00     0.027 H 
ATOM     28  H   LIG d   1       3.567   1.680  -5.827  0.00  0.00     0.027 H 
ATOM     29  H   LIG d   1       4.902  -2.990  -6.338  0.00  0.00     0.027 H 
ATOM     30  H   LIG d   1       3.366  -2.740  -7.212  0.00  0.00     0.027 H 
ATOM     31  H   LIG d   1       6.070  -1.490  -7.908  0.00  0.00     0.027 H 
ATOM     32  H   LIG d   1       5.260  -2.789  -8.809  0.00  0.00     0.027 H 
ATOM     33  H   LIG d   1       3.384   2.474 -10.863  0.00  0.00     0.029 H 
ATOM     34  H   LIG d   1       4.883   2.282  -9.921  0.00  0.00     0.029 H 
ATOM     35  H   LIG d   1       6.148  -1.347 -11.918  0.00  0.00     0.027 H 
ATOM     36  H   LIG d   1       6.134  -2.351 -10.448  0.00  0.00     0.027 H 
ATOM     37  H   LIG d   1       4.532  -3.216 -12.132  0.00  0.00     0.029 H 
ATOM     38  H   LIG d   1       3.681  -2.646 -10.676  0.00  0.00     0.029 H 
ATOM     39  H   LIG d   1       2.477  -0.452 -10.690  0.00  0.00     0.029 H 
ATOM     40  H   LIG d   1       2.470   0.546 -12.163  0.00  0.00     0.029 H 
ENDROOT
BRANCH   1  41
ATOM     41  C   LIG d   1       4.265  -1.313  -3.663  0.00  0.00    -0.040 C 
ATOM     42  H   LIG d   1       5.247  -0.938  -3.948  0.00  0.00     0.030 H 
BRANCH  41  43
ATOM     43  C   LIG d   1       4.375  -2.790  -3.279  0.00  0.00    -0.062 C 
ATOM     44  H   LIG d   1       4.063  -2.921  -2.243  0.00  0.00     0.023 H 
ATOM     45  H   LIG d   1       3.732  -3.384  -3.930  0.00  0.00     0.023 H 
ATOM     46  H   LIG d   1       5.408  -3.119  -3.392  0.00  0.00     0.023 H 
ENDBRANCH  41  43
BRANCH  41  47
ATOM     47  C   LIG d   1       3.741  -0.513  -2.468  0.00  0.00    -0.042 C 
ATOM     48  H   LIG d   1       3.021   0.227  -2.814  0.00  0.00     0.027 H 
ATOM     49  H   LIG d   1       3.257  -1.189  -1.763  0.00  0.00     0.027 H 
BRANCH  47  50
ATOM     50  C   LIG d   1       4.909   0.194  -1.776  0.00  0.00     0.024 C 
ATOM     51  H   LIG d   1       4.536   0.763  -0.925  0.00  0.00     0.036 H 
ATOM     52  H   LIG d   1       5.628  -0.549  -1.430  0.00  0.00     0.036 H 
BRANCH  50  53
ATOM     53  C   LIG d   1       5.579   1.127  -2.751  0.00  0.00     0.213 C 
ATOM     54  O   LIG d   1       4.953   2.041  -3.242  0.00  0.00    -0.276 OA
ATOM     55  N   LIG d   1       6.874   0.945  -3.076  0.00  0.00    -0.315 N 
ATOM     56  H   LIG d   1       7.374   0.213  -2.682  0.00  0.00     0.149 HD
BRANCH  55  57
ATOM     57  C   LIG d   1       7.526   1.852  -4.024  0.00  0.00     0.016 C 
ATOM     58  H   LIG d   1       7.453   1.439  -5.030  0.00  0.00     0.046 H 
ATOM     59  H   LIG d   1       7.033   2.824  -3.994  0.00  0.00     0.046 H 
BRANCH  57  60
ATOM     60  C   LIG d   1       8.999   2.015  -3.644  0.00  0.00    -0.012 C 
ATOM     61  H   LIG d   1       9.145   1.699  -2.611  0.00  0.00     0.033 H 
ATOM     62  H   LIG d   1       9.614   1.400  -4.302  0.00  0.00     0.033 H 
BRANCH  60  63
ATOM     63  C   LIG d   1       9.398   3.460  -3.790  0.00  0.00    -0.042 A 
ATOM     64  C   LIG d   1       9.971   4.128  -2.723  0.00  0.00    -0.013 A 
ATOM     65  C   LIG d   1      10.344   5.456  -2.856  0.00  0.00     0.162 A 
ATOM     66  H   LIG d   1      10.132   3.613  -1.788  0.00  0.00     0.066 H 
ATOM     67  C   LIG d   1      10.131   6.117  -4.062  0.00  0.00     0.162 A 
ATOM     68  C   LIG d   1       9.551   5.444  -5.125  0.00  0.00    -0.016 A 
ATOM     69  C   LIG d   1       9.186   4.118  -4.987  0.00  0.00    -0.055 A 
ATOM     70  H   LIG d   1       9.385   5.955  -6.063  0.00  0.00     0.066 H 
ATOM     71  H   LIG d   1       8.735   3.594  -5.817  0.00  0.00     0.062 H 
BRANCH  65  72
ATOM     72  O   LIG d   1      10.912   6.112  -1.810  0.00  0.00    -0.491 OA
BRANCH  72  73
ATOM     73  C   LIG d   1      11.467   5.311  -0.765  0.00  0.00     0.079 C 
ATOM     74  H   LIG d   1      10.727   5.177   0.023  0.00  0.00     0.066 H 
ATOM     75  H   LIG d   1      11.753   4.338  -1.166  0.00  0.00     0.066 H 
ATOM     76  H   LIG d   1      12.348   5.807  -0.357  0.00  0.00     0.066 H 
ENDBRANCH  72  73
ENDBRANCH  65  72
BRANCH  67  77
ATOM     77  O   LIG d   1      10.490   7.422  -4.197  0.00  0.00    -0.491 OA
BRANCH  77  78
ATOM     78  C   LIG d   1       9.767   8.199  -5.153  0.00  0.00     0.079 C 
ATOM     79  H   LIG d   1       8.807   8.493  -4.731  0.00  0.00     0.066 H 
ATOM     80  H   LIG d   1      10.341   9.090  -5.407  0.00  0.00     0.066 H 
ATOM     81  H   LIG d   1       9.602   7.605  -6.053  0.00  0.00     0.066 H 
ENDBRANCH  77  78
ENDBRANCH  67  77
ENDBRANCH  60  63
ENDBRANCH  57  60
ENDBRANCH  55  57
ENDBRANCH  50  53
ENDBRANCH  47  50
ENDBRANCH  41  47
ENDBRANCH   1  41
BRANCH   7  82
ATOM     82  C   LIG d   1       5.409  -0.313  -5.878  0.00  0.00    -0.059 C 
ATOM     83  H   LIG d   1       5.989  -0.272  -6.799  0.00  0.00     0.024 H 
ATOM     84  H   LIG d   1       5.219   0.700  -5.523  0.00  0.00     0.024 H 
ATOM     85  H   LIG d   1       5.967  -0.865  -5.121  0.00  0.00     0.024 H 
ENDBRANCH   7  82
BRANCH  14  86
ATOM     86  O   LIG d   1       2.807   2.498  -8.263  0.00  0.00    -0.392 OA
ATOM     87  H   LIG d   1       3.567   3.028  -7.985  0.00  0.00     0.210 HD
ENDBRANCH  14  86
BRANCH  19  88
ATOM     88  C   LIG d   1       6.469   0.258  -9.726  0.00  0.00    -0.059 C 
ATOM     89  H   LIG d   1       6.305   0.651  -8.723  0.00  0.00     0.024 H 
ATOM     90  H   LIG d   1       7.284  -0.466  -9.705  0.00  0.00     0.024 H 
ATOM     91  H   LIG d   1       6.727   1.076 -10.399  0.00  0.00     0.024 H 
ENDBRANCH  19  88
BRANCH  22  92
ATOM     92  O   LIG d   1       2.267  -2.002 -12.839  0.00  0.00    -0.392 OA
ATOM     93  H   LIG d   1       1.472  -1.460 -12.742  0.00  0.00     0.210 HD
ENDBRANCH  22  92
TORSDOF 16
ENDMDL
MODEL 2
REMARK VINA RESULT:      -6.8      2.934     10.401
REMARK  16 active torsions:
REMARK  status: ('A' for Active; 'I' for Inactive)
REMARK    1  A    between atoms: C_1  and  C_2 
REMARK    2  A    between atoms: C_2  and  C_4 
REMARK    3  A    between atoms: C_2  and  C_21 
REMARK    4  A    between atoms: C_4  and  C_5 
REMARK    5  A    between atoms: C_5  and  C_6 
REMARK       I    between atoms: C_6  and  N_8 
REMARK    6  A    between atoms: N_8  and  C_9 
REMARK    7  A    between atoms: C_9  and  C_10 
REMARK    8  A    between atoms: C_10  and  C_11 
REMARK    9  A    between atoms: C_14  and  O_19 
REMARK   10  A    between atoms: C_15  and  O_17 
REMARK   11  A    between atoms: O_17  and  C_18 
REMARK   12  A    between atoms: O_19  and  C_20 
REMARK   13  A    between atoms: C_27  and  C_48 
REMARK   14  A    between atoms: C_34  and  O_47 
REMARK   15  A    between atoms: C_39  and  C_46 
REMARK   16  A    between atoms: C_42  and  O_45 
ROOT
ATOM      1  C   LIG d   1       9.354   3.071  -5.009  0.00  0.00    -0.033 C 
ATOM      2  H   LIG d   1       8.306   3.278  -5.230  0.00  0.00     0.031 H 
ATOM      3  C   LIG d   1       9.472   2.198  -3.735  0.00  0.00    -0.049 C 
ATOM      4  C   LIG d   1      10.207   3.065  -2.677  0.00  0.00    -0.049 C 
ATOM      5  C   LIG d   1       9.918   4.496  -3.144  0.00  0.00    -0.030 C 
ATOM      6  H   LIG d   1       8.893   4.774  -2.899  0.00  0.00     0.031 H 
ATOM      7  C   LIG d   1      10.091   4.367  -4.683  0.00  0.00    -0.026 C 
ATOM      8  C   LIG d   1       9.546   5.634  -5.312  0.00  0.00    -0.047 C 
ATOM      9  C   LIG d   1      10.432   6.797  -4.837  0.00  0.00    -0.049 C 
ATOM     10  C   LIG d   1      10.461   6.889  -3.315  0.00  0.00    -0.030 C 
ATOM     11  H   LIG d   1       9.460   7.128  -2.958  0.00  0.00     0.031 H 
ATOM     12  C   LIG d   1      10.885   5.559  -2.659  0.00  0.00    -0.008 C 
ATOM     13  H   LIG d   1      11.897   5.307  -2.973  0.00  0.00     0.033 H 
ATOM     14  C   LIG d   1      10.813   5.688  -1.136  0.00  0.00     0.059 C 
ATOM     15  H   LIG d   1       9.792   5.929  -0.840  0.00  0.00     0.060 H 
ATOM     16  C   LIG d   1      11.756   6.801  -0.675  0.00  0.00    -0.023 C 
ATOM     17  C   LIG d   1      11.337   8.125  -1.317  0.00  0.00    -0.031 C 
ATOM     18  H   LIG d   1      12.007   8.919  -0.986  0.00  0.00     0.031 H 
ATOM     19  C   LIG d   1      11.421   7.995  -2.876  0.00  0.00    -0.026 C 
ATOM     20  C   LIG d   1      11.000   9.319  -3.516  0.00  0.00    -0.045 C 
ATOM     21  C   LIG d   1       9.572   9.661  -3.083  0.00  0.00    -0.026 C 
ATOM     22  C   LIG d   1       9.519   9.792  -1.559  0.00  0.00     0.056 C 
ATOM     23  H   LIG d   1      10.194  10.586  -1.239  0.00  0.00     0.059 H 
ATOM     24  C   LIG d   1       9.903   8.462  -0.902  0.00  0.00    -0.023 C 
ATOM     25  H   LIG d   1       8.480   1.927  -3.374  0.00  0.00     0.027 H 
ATOM     26  H   LIG d   1      10.050   1.300  -3.950  0.00  0.00     0.027 H 
ATOM     27  H   LIG d   1       9.795   2.892  -1.683  0.00  0.00     0.027 H 
ATOM     28  H   LIG d   1      11.278   2.864  -2.691  0.00  0.00     0.027 H 
ATOM     29  H   LIG d   1       9.585   5.555  -6.398  0.00  0.00     0.027 H 
ATOM     30  H   LIG d   1       8.517   5.795  -4.988  0.00  0.00     0.027 H 
ATOM     31  H   LIG d   1      11.447   6.645  -5.206  0.00  0.00     0.027 H 
ATOM     32  H   LIG d   1      10.043   7.731  -5.244  0.00  0.00     0.027 H 
ATOM     33  H   LIG d   1      11.705   6.892   0.411  0.00  0.00     0.029 H 
ATOM     34  H   LIG d   1      12.776   6.560  -0.972  0.00  0.00     0.029 H 
ATOM     35  H   LIG d   1      11.677  10.110  -3.194  0.00  0.00     0.027 H 
ATOM     36  H   LIG d   1      11.038   9.227  -4.602  0.00  0.00     0.027 H 
ATOM     37  H   LIG d   1       9.271  10.604  -3.539  0.00  0.00     0.029 H 
ATOM     38  H   LIG d   1       8.896   8.869  -3.403  0.00  0.00     0.029 H 
ATOM     39  H   LIG d   1       9.233   7.667  -1.233  0.00  0.00     0.029 H 
ATOM     40  H   LIG d   1       9.851   8.551   0.183  0.00  0.00     0.029 H 
ENDROOT
BRANCH   1  41
ATOM     41  C   LIG d   1      10.016   2.370  -6.197  0.00  0.00    -0.040 C 
ATOM     42  H   LIG d   1      11.018   2.772  -6.344  0.00  0.00     0.030 H 
BRANCH  41  43
ATOM     43  C   LIG d   1       9.182   2.604  -7.457  0.00  0.00    -0.062 C 
ATOM     44  H   LIG d   1       8.761   3.610  -7.434  0.00  0.00     0.023 H 
ATOM     45  H   LIG d   1       9.815   2.495  -8.338  0.00  0.00     0.023 H 
ATOM     46  H   LIG d   1       8.373   1.873  -7.499  0.00  0.00     0.023 H 
ENDBRANCH  41  43
BRANCH  41  47
ATOM     47  C   LIG d   1      10.106   0.868  -5.916  0.00  0.00    -0.042 C 
ATOM     48  H   LIG d   1      11.095   0.506  -6.194  0.00  0.00     0.027 H 
ATOM     49  H   LIG d   1       9.939   0.687  -4.855  0.00  0.00     0.027 H 
BRANCH  47  50
ATOM     50  C   LIG d   1       9.043   0.131  -6.733  0.00  0.00     0.024 C 
ATOM     51  H   LIG d   1       8.246   0.825  -7.003  0.00  0.00     0.036 H 
ATOM     52  H   LIG d   1       9.496  -0.272  -7.639  0.00  0.00     0.036 H 
BRANCH  50  53
ATOM     53  C   LIG d   1       8.471  -0.996  -5.912  0.00  0.00     0.213 C 
ATOM     54  O   LIG d   1       8.258  -0.837  -4.730  0.00  0.00    -0.276 OA
ATOM     55  N   LIG d   1       8.196  -2.181  -6.493  0.00  0.00    -0.315 N 
ATOM     56  H   LIG d   1       8.367  -2.307  -7.440  0.00  0.00     0.149 HD
BRANCH  55  57
ATOM     57  C   LIG d   1       7.641  -3.277  -5.696  0.00  0.00     0.016 C 
ATOM     58  H   LIG d   1       8.207  -4.188  -5.887  0.00  0.00     0.046 H 
ATOM     59  H   LIG d   1       7.705  -3.024  -4.637  0.00  0.00     0.046 H 
BRANCH  57  60
ATOM     60  C   LIG d   1       6.176  -3.496  -6.080  0.00  0.00    -0.012 C 
ATOM     61  H   LIG d   1       6.046  -3.302  -7.144  0.00  0.00     0.033 H 
ATOM     62  H   LIG d   1       5.894  -4.527  -5.862  0.00  0.00     0.033 H 
BRANCH  60  63
ATOM     63  C   LIG d   1       5.304  -2.559  -5.286  0.00  0.00    -0.042 A 
ATOM     64  C   LIG d   1       4.743  -1.454  -5.899  0.00  0.00    -0.013 A 
ATOM     65  C   LIG d   1       3.936  -0.593  -5.173  0.00  0.00     0.162 A 
ATOM     66  H   LIG d   1       4.930  -1.264  -6.945  0.00  0.00     0.066 H 
ATOM     67  C   LIG d   1       3.700  -0.839  -3.823  0.00  0.00     0.162 A 
ATOM     68  C   LIG d   1       4.270  -1.944  -3.213  0.00  0.00    -0.016 A 
ATOM     69  C   LIG d   1       5.070  -2.802  -3.945  0.00  0.00    -0.055 A 
ATOM     70  H   LIG d   1       4.089  -2.138  -2.166  0.00  0.00     0.066 H 
ATOM     71  H   LIG d   1       5.513  -3.664  -3.469  0.00  0.00     0.062 H 
BRANCH  65  72
ATOM     72  O   LIG d   1       3.379   0.491  -5.775  0.00  0.00    -0.491 OA
BRANCH  72  73
ATOM     73  C   LIG d   1       2.944   0.330  -7.126  0.00  0.00     0.079 C 
ATOM     74  H   LIG d   1       2.035   0.909  -7.288  0.00  0.00     0.066 H 
ATOM     75  H   LIG d   1       3.724   0.681  -7.804  0.00  0.00     0.066 H 
ATOM     76  H   LIG d   1       2.743  -0.724  -7.320  0.00  0.00     0.066 H 
ENDBRANCH  72  73
ENDBRANCH  65  72
BRANCH  67  77
ATOM     77  O   LIG d   1       2.913   0.006  -3.103  0.00  0.00    -0.491 OA
BRANCH  77  78
ATOM     78  C   LIG d   1       3.572   1.029  -2.355  0.00  0.00     0.079 C 
ATOM     79  H   LIG d   1       4.600   1.127  -2.702  0.00  0.00     0.066 H 
ATOM     80  H   LIG d   1       3.049   1.975  -2.495  0.00  0.00     0.066 H 
ATOM     81  H   LIG d   1       3.568   0.765  -1.297  0.00  0.00     0.066 H 
ENDBRANCH  77  78
ENDBRANCH  67  77
ENDBRANCH  60  63
ENDBRANCH  57  60
ENDBRANCH  55  57
ENDBRANCH  50  53
ENDBRANCH  47  50
ENDBRANCH  41  47
ENDBRANCH   1  41
BRANCH   7  82
ATOM     82  C   LIG d   1      11.575   4.217  -5.025  0.00  0.00    -0.059 C 
ATOM     83  H   LIG d   1      11.684   3.562  -5.889  0.00  0.00     0.024 H 
ATOM     84  H   LIG d   1      11.994   5.196  -5.256  0.00  0.00     0.024 H 
ATOM     85  H   LIG d   1      12.103   3.787  -4.173  0.00  0.00     0.024 H 
ENDBRANCH   7  82
BRANCH  14  86
ATOM     86  O   LIG d   1      11.203   4.453  -0.534  0.00  0.00    -0.392 OA
ATOM     87  H   LIG d   1      12.103   4.175  -0.754  0.00  0.00     0.210 HD
ENDBRANCH  14  86
BRANCH  19  88
ATOM     88  C   LIG d   1      12.845   7.640  -3.313  0.00  0.00    -0.059 C 
ATOM     89  H   LIG d   1      12.947   6.556  -3.369  0.00  0.00     0.024 H 
ATOM     90  H   LIG d   1      13.042   8.075  -4.292  0.00  0.00     0.024 H 
ATOM     91  H   LIG d   1      13.556   8.035  -2.589  0.00  0.00     0.024 H 
ENDBRANCH  19  88
BRANCH  22  92
ATOM     92  O   LIG d   1       8.186  10.110  -1.155  0.00  0.00    -0.392 OA
ATOM     93  H   LIG d   1       7.705  10.662  -1.786  0.00  0.00     0.210 HD
ENDBRANCH  22  92
TORSDOF 16
ENDMDL
MODEL 3
REMARK VINA RESULT:      -6.8      2.233     10.593
REMARK  16 active torsions:
REMARK  status: ('A' for Active; 'I' for Inactive)
REMARK    1  A    between atoms: C_1  and  C_2 
REMARK    2  A    between atoms: C_2  and  C_4 
REMARK    3  A    between atoms: C_2  and  C_21 
REMARK    4  A    between atoms: C_4  and  C_5 
REMARK    5  A    between atoms: C_5  and  C_6 
REMARK       I    between atoms: C_6  and  N_8 
REMARK    6  A    between atoms: N_8  and  C_9 
REMARK    7  A    between atoms: C_9  and  C_10 
REMARK    8  A    between atoms: C_10  and  C_11 
REMARK    9  A    between atoms: C_14  and  O_19 
REMARK   10  A    between atoms: C_15  and  O_17 
REMARK   11  A    between atoms: O_17  and  C_18 
REMARK   12  A    between atoms: O_19  and  C_20 
REMARK   13  A    between atoms: C_27  and  C_48 
REMARK   14  A    between atoms: C_34  and  O_47 
REMARK   15  A    between atoms: C_39  and  C_46 
REMARK   16  A    between atoms: C_42  and  O_45 
ROOT
ATOM      1  C   LIG d   1       9.452   4.029  -4.574  0.00  0.00    -0.033 C 
ATOM      2  H   LIG d   1       8.403   4.070  -4.870  0.00  0.00     0.031 H 
ATOM      3  C   LIG d   1       9.576   3.587  -3.095  0.00  0.00    -0.049 C 
ATOM      4  C   LIG d   1      10.193   4.788  -2.329  0.00  0.00    -0.049 C 
ATOM      5  C   LIG d   1       9.819   5.985  -3.209  0.00  0.00    -0.030 C 
ATOM      6  H   LIG d   1       8.766   6.235  -3.081  0.00  0.00     0.031 H 
ATOM      7  C   LIG d   1      10.073   5.421  -4.634  0.00  0.00    -0.026 C 
ATOM      8  C   LIG d   1       9.464   6.393  -5.626  0.00  0.00    -0.047 C 
ATOM      9  C   LIG d   1      10.236   7.717  -5.502  0.00  0.00    -0.049 C 
ATOM     10  C   LIG d   1      10.187   8.258  -4.077  0.00  0.00    -0.030 C 
ATOM     11  H   LIG d   1       9.155   8.505  -3.830  0.00  0.00     0.031 H 
ATOM     12  C   LIG d   1      10.679   7.224  -3.043  0.00  0.00    -0.008 C 
ATOM     13  H   LIG d   1      11.721   6.979  -3.246  0.00  0.00     0.033 H 
ATOM     14  C   LIG d   1      10.526   7.792  -1.631  0.00  0.00     0.059 C 
ATOM     15  H   LIG d   1       9.477   8.021  -1.444  0.00  0.00     0.060 H 
ATOM     16  C   LIG d   1      11.359   9.069  -1.503  0.00  0.00    -0.023 C 
ATOM     17  C   LIG d   1      10.872  10.102  -2.522  0.00  0.00    -0.031 C 
ATOM     18  H   LIG d   1      11.464  11.012  -2.428  0.00  0.00     0.031 H 
ATOM     19  C   LIG d   1      11.039   9.522  -3.967  0.00  0.00    -0.026 C 
ATOM     20  C   LIG d   1      10.549  10.556  -4.984  0.00  0.00    -0.045 C 
ATOM     21  C   LIG d   1       9.081  10.886  -4.705  0.00  0.00    -0.026 C 
ATOM     22  C   LIG d   1       8.946  11.459  -3.292  0.00  0.00     0.056 C 
ATOM     23  H   LIG d   1       9.544  12.367  -3.210  0.00  0.00     0.059 H 
ATOM     24  C   LIG d   1       9.399  10.421  -2.259  0.00  0.00    -0.023 C 
ATOM     25  H   LIG d   1       8.592   3.350  -2.691  0.00  0.00     0.027 H 
ATOM     26  H   LIG d   1      10.230   2.718  -3.018  0.00  0.00     0.027 H 
ATOM     27  H   LIG d   1       9.749   4.883  -1.338  0.00  0.00     0.027 H 
ATOM     28  H   LIG d   1      11.276   4.686  -2.258  0.00  0.00     0.027 H 
ATOM     29  H   LIG d   1       9.560   5.999  -6.637  0.00  0.00     0.027 H 
ATOM     30  H   LIG d   1       8.411   6.553  -5.388  0.00  0.00     0.027 H 
ATOM     31  H   LIG d   1      11.276   7.550  -5.785  0.00  0.00     0.027 H 
ATOM     32  H   LIG d   1       9.797   8.450  -6.178  0.00  0.00     0.027 H 
ATOM     33  H   LIG d   1      11.251   9.473  -0.497  0.00  0.00     0.029 H 
ATOM     34  H   LIG d   1      12.408   8.839  -1.692  0.00  0.00     0.029 H 
ATOM     35  H   LIG d   1      11.148  11.462  -4.899  0.00  0.00     0.027 H 
ATOM     36  H   LIG d   1      10.645  10.149  -5.992  0.00  0.00     0.027 H 
ATOM     37  H   LIG d   1       8.730  11.622  -5.429  0.00  0.00     0.029 H 
ATOM     38  H   LIG d   1       8.482   9.980  -4.788  0.00  0.00     0.029 H 
ATOM     39  H   LIG d   1       8.808   9.510  -2.351  0.00  0.00     0.029 H 
ATOM     40  H   LIG d   1       9.289  10.824  -1.252  0.00  0.00     0.029 H 
ENDROOT
BRANCH   1  41
ATOM     41  C   LIG d   1      10.220   3.067  -5.482  0.00  0.00    -0.040 C 
ATOM     42  H   LIG d   1      11.256   3.393  -5.564  0.00  0.00     0.030 H 
BRANCH  41  43
ATOM     43  C   LIG d   1       9.578   3.053  -6.870  0.00  0.00    -0.062 C 
ATOM     44  H   LIG d   1       9.385   2.022  -7.171  0.00  0.00     0.023 H 
ATOM     45  H   LIG d   1       8.639   3.606  -6.843  0.00  0.00     0.023 H 
ATOM     46  H   LIG d   1      10.254   3.520  -7.588  0.00  0.00     0.023 H 
ENDBRANCH  41  43
BRANCH  41  47
ATOM     47  C   LIG d   1      10.176   1.658  -4.885  0.00  0.00    -0.042 C 
ATOM     48  H   LIG d   1      11.152   1.187  -4.994  0.00  0.00     0.027 H 
ATOM     49  H   LIG d   1       9.918   1.719  -3.828  0.00  0.00     0.027 H 
BRANCH  47  50
ATOM     50  C   LIG d   1       9.122   0.825  -5.619  0.00  0.00     0.024 C 
ATOM     51  H   LIG d   1       8.831   1.336  -6.537  0.00  0.00     0.036 H 
ATOM     52  H   LIG d   1       9.537  -0.153  -5.862  0.00  0.00     0.036 H 
BRANCH  50  53
ATOM     53  C   LIG d   1       7.914   0.653  -4.735  0.00  0.00     0.213 C 
ATOM     54  O   LIG d   1       7.095   1.543  -4.648  0.00  0.00    -0.276 OA
ATOM     55  N   LIG d   1       7.744  -0.489  -4.041  0.00  0.00    -0.315 N 
ATOM     56  H   LIG d   1       8.400  -1.201  -4.111  0.00  0.00     0.149 HD
BRANCH  55  57
ATOM     57  C   LIG d   1       6.570  -0.657  -3.180  0.00  0.00     0.016 C 
ATOM     58  H   LIG d   1       6.892  -0.932  -2.177  0.00  0.00     0.046 H 
ATOM     59  H   LIG d   1       6.013   0.280  -3.140  0.00  0.00     0.046 H 
BRANCH  57  60
ATOM     60  C   LIG d   1       5.674  -1.759  -3.749  0.00  0.00    -0.012 C 
ATOM     61  H   LIG d   1       6.294  -2.569  -4.135  0.00  0.00     0.033 H 
ATOM     62  H   LIG d   1       5.025  -2.142  -2.960  0.00  0.00     0.033 H 
BRANCH  60  63
ATOM     63  C   LIG d   1       4.831  -1.195  -4.863  0.00  0.00    -0.042 A 
ATOM     64  C   LIG d   1       5.057  -1.594  -6.167  0.00  0.00    -0.013 A 
ATOM     65  C   LIG d   1       4.280  -1.080  -7.193  0.00  0.00     0.162 A 
ATOM     66  H   LIG d   1       5.836  -2.308  -6.386  0.00  0.00     0.066 H 
ATOM     67  C   LIG d   1       3.278  -0.157  -6.907  0.00  0.00     0.162 A 
ATOM     68  C   LIG d   1       3.061   0.242  -5.599  0.00  0.00    -0.016 A 
ATOM     69  C   LIG d   1       3.837  -0.277  -4.580  0.00  0.00    -0.055 A 
ATOM     70  H   LIG d   1       2.284   0.959  -5.374  0.00  0.00     0.066 H 
ATOM     71  H   LIG d   1       3.666   0.034  -3.560  0.00  0.00     0.062 H 
BRANCH  65  72
ATOM     72  O   LIG d   1       4.496  -1.475  -8.476  0.00  0.00    -0.491 OA
BRANCH  72  73
ATOM     73  C   LIG d   1       3.937  -2.728  -8.873  0.00  0.00     0.079 C 
ATOM     74  H   LIG d   1       4.708  -3.339  -9.341  0.00  0.00     0.066 H 
ATOM     75  H   LIG d   1       3.545  -3.246  -7.996  0.00  0.00     0.066 H 
ATOM     76  H   LIG d   1       3.128  -2.556  -9.583  0.00  0.00     0.066 H 
ENDBRANCH  72  73
ENDBRANCH  65  72
BRANCH  67  77
ATOM     77  O   LIG d   1       2.515   0.354  -7.911  0.00  0.00    -0.491 OA
BRANCH  77  78
ATOM     78  C   LIG d   1       2.884   1.638  -8.418  0.00  0.00     0.079 C 
ATOM     79  H   LIG d   1       2.385   1.810  -9.370  0.00  0.00     0.066 H 
ATOM     80  H   LIG d   1       2.586   2.408  -7.706  0.00  0.00     0.066 H 
ATOM     81  H   LIG d   1       3.964   1.675  -8.560  0.00  0.00     0.066 H 
ENDBRANCH  77  78
ENDBRANCH  67  77
ENDBRANCH  60  63
ENDBRANCH  57  60
ENDBRANCH  55  57
ENDBRANCH  50  53
ENDBRANCH  47  50
ENDBRANCH  41  47
ENDBRANCH   1  41
BRANCH   7  82
ATOM     82  C   LIG d   1      11.578   5.305  -4.883  0.00  0.00    -0.059 C 
ATOM     83  H   LIG d   1      12.108   6.001  -4.233  0.00  0.00     0.024 H 
ATOM     84  H   LIG d   1      11.904   4.287  -4.669  0.00  0.00     0.024 H 
ATOM     85  H   LIG d   1      11.794   5.545  -5.925  0.00  0.00     0.024 H 
ENDBRANCH   7  82
BRANCH  14  86
ATOM     86  O   LIG d   1      10.980   6.830  -0.679  0.00  0.00    -0.392 OA
ATOM     87  H   LIG d   1      11.584   6.169  -1.044  0.00  0.00     0.210 HD
ENDBRANCH  14  86
BRANCH  19  88
ATOM     88  C   LIG d   1      12.504   9.178  -4.247  0.00  0.00    -0.059 C 
ATOM     89  H   LIG d   1      12.576   8.637  -5.190  0.00  0.00     0.024 H 
ATOM     90  H   LIG d   1      13.087  10.097  -4.309  0.00  0.00     0.024 H 
ATOM     91  H   LIG d   1      12.891   8.556  -3.441  0.00  0.00     0.024 H 
ENDBRANCH  19  88
BRANCH  22  92
ATOM     92  O   LIG d   1       7.575  11.765  -3.031  0.00  0.00    -0.392 OA
ATOM     93  H   LIG d   1       7.047  11.003  -2.761  0.00  0.00     0.210 HD
ENDBRANCH  22  92
TORSDOF 16
ENDMDL
MODEL 4
REMARK VINA RESULT:      -6.6      4.299     10.837
REMARK  16 active torsions:
REMARK  status: ('A' for Active; 'I' for Inactive)
REMARK    1  A    between atoms: C_1  and  C_2 
REMARK    2  A    between atoms: C_2  and  C_4 
REMARK    3  A    between atoms: C_2  and  C_21 
REMARK    4  A    between atoms: C_4  and  C_5 
REMARK    5  A    between atoms: C_5  and  C_6 
REMARK       I    between atoms: C_6  and  N_8 
REMARK    6  A    between atoms: N_8  and  C_9 
REMARK    7  A    between atoms: C_9  and  C_10 
REMARK    8  A    between atoms: C_10  and  C_11 
REMARK    9  A    between atoms: C_14  and  O_19 
REMARK   10  A    between atoms: C_15  and  O_17 
REMARK   11  A    between atoms: O_17  and  C_18 
REMARK   12  A    between atoms: O_19  and  C_20 
REMARK   13  A    between atoms: C_27  and  C_48 
REMARK   14  A    between atoms: C_34  and  O_47 
REMARK   15  A    between atoms: C_39  and  C_46 
REMARK   16  A    between atoms: C_42  and  O_45 
ROOT
ATOM      1  C   LIG d   1       9.257   3.417  -4.985  0.00  0.00    -0.033 C 
ATOM      2  H   LIG d   1       8.210   3.672  -5.154  0.00  0.00     0.031 H 
ATOM      3  C   LIG d   1       9.386   2.443  -3.787  0.00  0.00    -0.049 C 
ATOM      4  C   LIG d   1      10.180   3.201  -2.689  0.00  0.00    -0.049 C 
ATOM      5  C   LIG d   1       9.923   4.672  -3.034  0.00  0.00    -0.030 C 
ATOM      6  H   LIG d   1       8.916   4.961  -2.734  0.00  0.00     0.031 H 
ATOM      7  C   LIG d   1      10.045   4.660  -4.583  0.00  0.00    -0.026 C 
ATOM      8  C   LIG d   1       9.523   5.989  -5.093  0.00  0.00    -0.047 C 
ATOM      9  C   LIG d   1      10.460   7.084  -4.558  0.00  0.00    -0.049 C 
ATOM     10  C   LIG d   1      10.538   7.054  -3.035  0.00  0.00    -0.030 C 
ATOM     11  H   LIG d   1       9.556   7.295  -2.628  0.00  0.00     0.031 H 
ATOM     12  C   LIG d   1      10.939   5.665  -2.499  0.00  0.00    -0.008 C 
ATOM     13  H   LIG d   1      11.932   5.409  -2.865  0.00  0.00     0.033 H 
ATOM     14  C   LIG d   1      10.918   5.675  -0.969  0.00  0.00     0.059 C 
ATOM     15  H   LIG d   1       9.914   5.923  -0.622  0.00  0.00     0.060 H 
ATOM     16  C   LIG d   1      11.909   6.720  -0.454  0.00  0.00    -0.023 C 
ATOM     17  C   LIG d   1      11.514   8.102  -0.976  0.00  0.00    -0.031 C 
ATOM     18  H   LIG d   1      12.219   8.847  -0.606  0.00  0.00     0.031 H 
ATOM     19  C   LIG d   1      11.546   8.093  -2.542  0.00  0.00    -0.026 C 
ATOM     20  C   LIG d   1      11.148   9.476  -3.063  0.00  0.00    -0.045 C 
ATOM     21  C   LIG d   1       9.747   9.825  -2.558  0.00  0.00    -0.026 C 
ATOM     22  C   LIG d   1       9.744   9.837  -1.028  0.00  0.00     0.056 C 
ATOM     23  H   LIG d   1      10.454  10.582  -0.669  0.00  0.00     0.059 H 
ATOM     24  C   LIG d   1      10.105   8.447  -0.490  0.00  0.00    -0.023 C 
ATOM     25  H   LIG d   1       8.397   2.174  -3.416  0.00  0.00     0.027 H 
ATOM     26  H   LIG d   1       9.928   1.548  -4.090  0.00  0.00     0.027 H 
ATOM     27  H   LIG d   1       9.793   2.963  -1.699  0.00  0.00     0.027 H 
ATOM     28  H   LIG d   1      11.244   2.971  -2.754  0.00  0.00     0.027 H 
ATOM     29  H   LIG d   1       9.526   5.995  -6.182  0.00  0.00     0.027 H 
ATOM     30  H   LIG d   1       8.509   6.155  -4.724  0.00  0.00     0.027 H 
ATOM     31  H   LIG d   1      11.458   6.931  -4.970  0.00  0.00     0.027 H 
ATOM     32  H   LIG d   1      10.088   8.058  -4.877  0.00  0.00     0.027 H 
ATOM     33  H   LIG d   1      11.894   6.726   0.637  0.00  0.00     0.029 H 
ATOM     34  H   LIG d   1      12.912   6.472  -0.802  0.00  0.00     0.029 H 
ATOM     35  H   LIG d   1      11.860  10.219  -2.703  0.00  0.00     0.027 H 
ATOM     36  H   LIG d   1      11.151   9.468  -4.154  0.00  0.00     0.027 H 
ATOM     37  H   LIG d   1       9.462  10.809  -2.929  0.00  0.00     0.029 H 
ATOM     38  H   LIG d   1       9.036   9.081  -2.916  0.00  0.00     0.029 H 
ATOM     39  H   LIG d   1       9.400   7.702  -0.859  0.00  0.00     0.029 H 
ATOM     40  H   LIG d   1      10.088   8.453   0.600  0.00  0.00     0.029 H 
ENDROOT
BRANCH   1  41
ATOM     41  C   LIG d   1       9.859   2.793  -6.244  0.00  0.00    -0.040 C 
ATOM     42  H   LIG d   1      10.933   2.975  -6.262  0.00  0.00     0.030 H 
BRANCH  41  43
ATOM     43  C   LIG d   1       9.215   3.418  -7.483  0.00  0.00    -0.062 C 
ATOM     44  H   LIG d   1       9.406   4.492  -7.489  0.00  0.00     0.023 H 
ATOM     45  H   LIG d   1       9.640   2.968  -8.380  0.00  0.00     0.023 H 
ATOM     46  H   LIG d   1       8.139   3.240  -7.461  0.00  0.00     0.023 H 
ENDBRANCH  41  43
BRANCH  41  47
ATOM     47  C   LIG d   1       9.599   1.284  -6.240  0.00  0.00    -0.042 C 
ATOM     48  H   LIG d   1       9.187   0.989  -5.276  0.00  0.00     0.027 H 
ATOM     49  H   LIG d   1       8.890   1.037  -7.029  0.00  0.00     0.027 H 
BRANCH  47  50
ATOM     50  C   LIG d   1      10.914   0.539  -6.483  0.00  0.00     0.024 C 
ATOM     51  H   LIG d   1      11.234   0.694  -7.514  0.00  0.00     0.036 H 
ATOM     52  H   LIG d   1      11.677   0.919  -5.804  0.00  0.00     0.036 H 
BRANCH  50  53
ATOM     53  C   LIG d   1      10.708  -0.934  -6.237  0.00  0.00     0.213 C 
ATOM     54  O   LIG d   1      11.657  -1.688  -6.253  0.00  0.00    -0.276 OA
ATOM     55  N   LIG d   1       9.471  -1.411  -5.999  0.00  0.00    -0.315 N 
ATOM     56  H   LIG d   1       8.712  -0.806  -5.987  0.00  0.00     0.149 HD
BRANCH  55  57
ATOM     57  C   LIG d   1       9.270  -2.842  -5.760  0.00  0.00     0.016 C 
ATOM     58  H   LIG d   1       8.465  -3.207  -6.396  0.00  0.00     0.046 H 
ATOM     59  H   LIG d   1      10.190  -3.381  -5.993  0.00  0.00     0.046 H 
BRANCH  57  60
ATOM     60  C   LIG d   1       8.904  -3.068  -4.292  0.00  0.00    -0.012 C 
ATOM     61  H   LIG d   1       9.137  -4.095  -4.013  0.00  0.00     0.033 H 
ATOM     62  H   LIG d   1       9.477  -2.383  -3.666  0.00  0.00     0.033 H 
BRANCH  60  63
ATOM     63  C   LIG d   1       7.432  -2.814  -4.097  0.00  0.00    -0.042 A 
ATOM     64  C   LIG d   1       6.505  -3.578  -4.781  0.00  0.00    -0.013 A 
ATOM     65  C   LIG d   1       5.150  -3.350  -4.599  0.00  0.00     0.162 A 
ATOM     66  H   LIG d   1       6.836  -4.356  -5.452  0.00  0.00     0.066 H 
ATOM     67  C   LIG d   1       4.727  -2.344  -3.735  0.00  0.00     0.162 A 
ATOM     68  C   LIG d   1       5.662  -1.578  -3.058  0.00  0.00    -0.016 A 
ATOM     69  C   LIG d   1       7.012  -1.814  -3.239  0.00  0.00    -0.055 A 
ATOM     70  H   LIG d   1       5.337  -0.796  -2.386  0.00  0.00     0.066 H 
ATOM     71  H   LIG d   1       7.740  -1.217  -2.711  0.00  0.00     0.062 H 
BRANCH  65  72
ATOM     72  O   LIG d   1       4.236  -4.104  -5.266  0.00  0.00    -0.491 OA
BRANCH  72  73
ATOM     73  C   LIG d   1       4.610  -5.445  -5.585  0.00  0.00     0.079 C 
ATOM     74  H   LIG d   1       5.577  -5.443  -6.089  0.00  0.00     0.066 H 
ATOM     75  H   LIG d   1       4.680  -6.032  -4.668  0.00  0.00     0.066 H 
ATOM     76  H   LIG d   1       3.859  -5.886  -6.241  0.00  0.00     0.066 H 
ENDBRANCH  72  73
ENDBRANCH  65  72
BRANCH  67  77
ATOM     77  O   LIG d   1       3.398  -2.112  -3.557  0.00  0.00    -0.491 OA
BRANCH  77  78
ATOM     78  C   LIG d   1       3.034  -0.891  -2.911  0.00  0.00     0.079 C 
ATOM     79  H   LIG d   1       3.924  -0.417  -2.499  0.00  0.00     0.066 H 
ATOM     80  H   LIG d   1       2.567  -0.222  -3.634  0.00  0.00     0.066 H 
ATOM     81  H   LIG d   1       2.329  -1.103  -2.106  0.00  0.00     0.066 H 
ENDBRANCH  77  78
ENDBRANCH  67  77
ENDBRANCH  60  63
ENDBRANCH  57  60
ENDBRANCH  55  57
ENDBRANCH  50  53
ENDBRANCH  47  50
ENDBRANCH  41  47
ENDBRANCH   1  41
BRANCH   7  82
ATOM     82  C   LIG d   1      11.512   4.494  -4.984  0.00  0.00    -0.059 C 
ATOM     83  H   LIG d   1      11.571   4.190  -6.029  0.00  0.00     0.024 H 
ATOM     84  H   LIG d   1      12.034   5.442  -4.851  0.00  0.00     0.024 H 
ATOM     85  H   LIG d   1      11.977   3.732  -4.357  0.00  0.00     0.024 H 
ENDBRANCH   7  82
BRANCH  14  86
ATOM     86  O   LIG d   1      11.286   4.385  -0.479  0.00  0.00    -0.392 OA
ATOM     87  H   LIG d   1      10.559   3.900  -0.065  0.00  0.00     0.210 HD
ENDBRANCH  14  86
BRANCH  19  88
ATOM     88  C   LIG d   1      12.944   7.732  -3.052  0.00  0.00    -0.059 C 
ATOM     89  H   LIG d   1      13.674   7.908  -2.263  0.00  0.00     0.024 H 
ATOM     90  H   LIG d   1      12.965   6.681  -3.339  0.00  0.00     0.024 H 
ATOM     91  H   LIG d   1      13.186   8.349  -3.917  0.00  0.00     0.024 H 
ENDBRANCH  19  88
BRANCH  22  92
ATOM     92  O   LIG d   1       8.435  10.161  -0.556  0.00  0.00    -0.392 OA
ATOM     93  H   LIG d   1       8.318  11.093  -0.330  0.00  0.00     0.210 HD
ENDBRANCH  22  92
TORSDOF 16
ENDMDL
MODEL 5
REMARK VINA RESULT:      -6.6      3.353      6.343
REMARK  16 active torsions:
REMARK  status: ('A' for Active; 'I' for Inactive)
REMARK    1  A    between atoms: C_1  and  C_2 
REMARK    2  A    between atoms: C_2  and  C_4 
REMARK    3  A    between atoms: C_2  and  C_21 
REMARK    4  A    between atoms: C_4  and  C_5 
REMARK    5  A    between atoms: C_5  and  C_6 
REMARK       I    between atoms: C_6  and  N_8 
REMARK    6  A    between atoms: N_8  and  C_9 
REMARK    7  A    between atoms: C_9  and  C_10 
REMARK    8  A    between atoms: C_10  and  C_11 
REMARK    9  A    between atoms: C_14  and  O_19 
REMARK   10  A    between atoms: C_15  and  O_17 
REMARK   11  A    between atoms: O_17  and  C_18 
REMARK   12  A    between atoms: O_19  and  C_20 
REMARK   13  A    between atoms: C_27  and  C_48 
REMARK   14  A    between atoms: C_34  and  O_47 
REMARK   15  A    between atoms: C_39  and  C_46 
REMARK   16  A    between atoms: C_42  and  O_45 
ROOT
ATOM      1  C   LIG d   1       3.992  -0.586  -9.187  0.00  0.00    -0.033 C 
ATOM      2  H   LIG d   1       4.892  -0.345  -9.755  0.00  0.00     0.031 H 
ATOM      3  C   LIG d   1       4.310  -1.648  -8.105  0.00  0.00    -0.049 C 
ATOM      4  C   LIG d   1       3.494  -2.914  -8.482  0.00  0.00    -0.049 C 
ATOM      5  C   LIG d   1       3.278  -2.747  -9.990  0.00  0.00    -0.030 C 
ATOM      6  H   LIG d   1       4.195  -2.977 -10.532  0.00  0.00     0.031 H 
ATOM      7  C   LIG d   1       2.951  -1.231 -10.096  0.00  0.00    -0.026 C 
ATOM      8  C   LIG d   1       3.004  -0.854 -11.563  0.00  0.00    -0.047 C 
ATOM      9  C   LIG d   1       1.881  -1.626 -12.274  0.00  0.00    -0.049 C 
ATOM     10  C   LIG d   1       2.025  -3.130 -12.072  0.00  0.00    -0.030 C 
ATOM     11  H   LIG d   1       2.947  -3.463 -12.550  0.00  0.00     0.031 H 
ATOM     12  C   LIG d   1       2.109  -3.513 -10.580  0.00  0.00    -0.008 C 
ATOM     13  H   LIG d   1       1.187  -3.221 -10.080  0.00  0.00     0.033 H 
ATOM     14  C   LIG d   1       2.338  -5.020 -10.445  0.00  0.00     0.059 C 
ATOM     15  H   LIG d   1       3.270  -5.291 -10.942  0.00  0.00     0.060 H 
ATOM     16  C   LIG d   1       1.175  -5.772 -11.094  0.00  0.00    -0.023 C 
ATOM     17  C   LIG d   1       1.090  -5.402 -12.576  0.00  0.00    -0.031 C 
ATOM     18  H   LIG d   1       0.262  -5.940 -13.039  0.00  0.00     0.031 H 
ATOM     19  C   LIG d   1       0.845  -3.861 -12.713  0.00  0.00    -0.026 C 
ATOM     20  C   LIG d   1       0.763  -3.493 -14.196  0.00  0.00    -0.045 C 
ATOM     21  C   LIG d   1       2.066  -3.892 -14.891  0.00  0.00    -0.026 C 
ATOM     22  C   LIG d   1       2.277  -5.402 -14.752  0.00  0.00     0.056 C 
ATOM     23  H   LIG d   1       1.443  -5.929 -15.215  0.00  0.00     0.059 H 
ATOM     24  C   LIG d   1       2.399  -5.782 -13.272  0.00  0.00    -0.023 C 
ATOM     25  H   LIG d   1       5.375  -1.875  -8.104  0.00  0.00     0.027 H 
ATOM     26  H   LIG d   1       4.004  -1.284  -7.124  0.00  0.00     0.027 H 
ATOM     27  H   LIG d   1       4.066  -3.818  -8.271  0.00  0.00     0.027 H 
ATOM     28  H   LIG d   1       2.540  -2.930  -7.955  0.00  0.00     0.027 H 
ATOM     29  H   LIG d   1       2.848   0.218 -11.676  0.00  0.00     0.027 H 
ATOM     30  H   LIG d   1       3.971  -1.135 -11.983  0.00  0.00     0.027 H 
ATOM     31  H   LIG d   1       0.918  -1.303 -11.875  0.00  0.00     0.027 H 
ATOM     32  H   LIG d   1       1.916  -1.404 -13.341  0.00  0.00     0.027 H 
ATOM     33  H   LIG d   1       1.338  -6.845 -10.997  0.00  0.00     0.029 H 
ATOM     34  H   LIG d   1       0.244  -5.499 -10.597  0.00  0.00     0.029 H 
ATOM     35  H   LIG d   1      -0.072  -4.022 -14.656  0.00  0.00     0.027 H 
ATOM     36  H   LIG d   1       0.611  -2.418 -14.296  0.00  0.00     0.027 H 
ATOM     37  H   LIG d   1       2.009  -3.630 -15.947  0.00  0.00     0.029 H 
ATOM     38  H   LIG d   1       2.900  -3.365 -14.430  0.00  0.00     0.029 H 
ATOM     39  H   LIG d   1       3.226  -5.244 -12.808  0.00  0.00     0.029 H 
ATOM     40  H   LIG d   1       2.564  -6.855 -13.174  0.00  0.00     0.029 H 
ENDROOT
BRANCH   1  41
ATOM     41  C   LIG d   1       3.421   0.677  -8.540  0.00  0.00    -0.040 C 
ATOM     42  H   LIG d   1       2.342   0.705  -8.688  0.00  0.00     0.030 H 
BRANCH  41  43
ATOM     43  C   LIG d   1       4.057   1.912  -9.182  0.00  0.00    -0.062 C 
ATOM     44  H   LIG d   1       3.273   2.590  -9.520  0.00  0.00     0.023 H 
ATOM     45  H   LIG d   1       4.686   2.419  -8.450  0.00  0.00     0.023 H 
ATOM     46  H   LIG d   1       4.665   1.606 -10.034  0.00  0.00     0.023 H 
ENDBRANCH  41  43
BRANCH  41  47
ATOM     47  C   LIG d   1       3.729   0.666  -7.040  0.00  0.00    -0.042 C 
ATOM     48  H   LIG d   1       4.323  -0.214  -6.798  0.00  0.00     0.027 H 
ATOM     49  H   LIG d   1       4.286   1.565  -6.778  0.00  0.00     0.027 H 
BRANCH  47  50
ATOM     50  C   LIG d   1       2.418   0.631  -6.251  0.00  0.00     0.024 C 
ATOM     51  H   LIG d   1       1.852   1.542  -6.446  0.00  0.00     0.036 H 
ATOM     52  H   LIG d   1       1.832  -0.235  -6.560  0.00  0.00     0.036 H 
BRANCH  50  53
ATOM     53  C   LIG d   1       2.722   0.534  -4.778  0.00  0.00     0.213 C 
ATOM     54  O   LIG d   1       3.168   1.493  -4.187  0.00  0.00    -0.276 OA
ATOM     55  N   LIG d   1       2.498  -0.620  -4.119  0.00  0.00    -0.315 N 
ATOM     56  H   LIG d   1       2.140  -1.388  -4.593  0.00  0.00     0.149 HD
BRANCH  55  57
ATOM     57  C   LIG d   1       2.793  -0.716  -2.687  0.00  0.00     0.016 C 
ATOM     58  H   LIG d   1       3.361   0.159  -2.375  0.00  0.00     0.046 H 
ATOM     59  H   LIG d   1       1.858  -0.761  -2.127  0.00  0.00     0.046 H 
BRANCH  57  60
ATOM     60  C   LIG d   1       3.610  -1.981  -2.418  0.00  0.00    -0.012 C 
ATOM     61  H   LIG d   1       3.894  -2.013  -1.367  0.00  0.00     0.033 H 
ATOM     62  H   LIG d   1       3.010  -2.859  -2.660  0.00  0.00     0.033 H 
BRANCH  60  63
ATOM     63  C   LIG d   1       4.849  -1.969  -3.275  0.00  0.00    -0.042 A 
ATOM     64  C   LIG d   1       5.763  -0.938  -3.152  0.00  0.00    -0.013 A 
ATOM     65  C   LIG d   1       6.905  -0.928  -3.936  0.00  0.00     0.162 A 
ATOM     66  H   LIG d   1       5.587  -0.144  -2.442  0.00  0.00     0.066 H 
ATOM     67  C   LIG d   1       7.126  -1.952  -4.852  0.00  0.00     0.162 A 
ATOM     68  C   LIG d   1       6.204  -2.978  -4.975  0.00  0.00    -0.016 A 
ATOM     69  C   LIG d   1       5.068  -2.986  -4.186  0.00  0.00    -0.055 A 
ATOM     70  H   LIG d   1       6.373  -3.775  -5.685  0.00  0.00     0.066 H 
ATOM     71  H   LIG d   1       4.351  -3.787  -4.282  0.00  0.00     0.062 H 
BRANCH  65  72
ATOM     72  O   LIG d   1       7.807   0.082  -3.812  0.00  0.00    -0.491 OA
BRANCH  72  73
ATOM     73  C   LIG d   1       7.294   1.415  -3.812  0.00  0.00     0.079 C 
ATOM     74  H   LIG d   1       6.757   1.598  -2.881  0.00  0.00     0.066 H 
ATOM     75  H   LIG d   1       8.118   2.123  -3.902  0.00  0.00     0.066 H 
ATOM     76  H   LIG d   1       6.613   1.542  -4.655  0.00  0.00     0.066 H 
ENDBRANCH  72  73
ENDBRANCH  65  72
BRANCH  67  77
ATOM     77  O   LIG d   1       8.244  -1.944  -5.627  0.00  0.00    -0.491 OA
BRANCH  77  78
ATOM     78  C   LIG d   1       9.301  -2.828  -5.250  0.00  0.00     0.079 C 
ATOM     79  H   LIG d   1       9.518  -2.704  -4.190  0.00  0.00     0.066 H 
ATOM     80  H   LIG d   1       8.999  -3.858  -5.442  0.00  0.00     0.066 H 
ATOM     81  H   LIG d   1      10.192  -2.597  -5.834  0.00  0.00     0.066 H 
ENDBRANCH  77  78
ENDBRANCH  67  77
ENDBRANCH  60  63
ENDBRANCH  57  60
ENDBRANCH  55  57
ENDBRANCH  50  53
ENDBRANCH  47  50
ENDBRANCH  41  47
ENDBRANCH   1  41
BRANCH   7  82
ATOM     82  C   LIG d   1       1.549  -0.966  -9.544  0.00  0.00    -0.059 C 
ATOM     83  H   LIG d   1       1.625  -0.572  -8.531  0.00  0.00     0.024 H 
ATOM     84  H   LIG d   1       1.041  -0.240 -10.179  0.00  0.00     0.024 H 
ATOM     85  H   LIG d   1       0.981  -1.897  -9.531  0.00  0.00     0.024 H 
ENDBRANCH   7  82
BRANCH  14  86
ATOM     86  O   LIG d   1       2.419  -5.367  -9.062  0.00  0.00    -0.392 OA
ATOM     87  H   LIG d   1       3.164  -5.942  -8.843  0.00  0.00     0.210 HD
ENDBRANCH  14  86
BRANCH  19  88
ATOM     88  C   LIG d   1      -0.452  -3.455 -12.007  0.00  0.00    -0.059 C 
ATOM     89  H   LIG d   1      -1.046  -2.829 -12.674  0.00  0.00     0.024 H 
ATOM     90  H   LIG d   1      -1.018  -4.349 -11.747  0.00  0.00     0.024 H 
ATOM     91  H   LIG d   1      -0.214  -2.898 -11.102  0.00  0.00     0.024 H 
ENDBRANCH  19  88
BRANCH  22  92
ATOM     92  O   LIG d   1       3.495  -5.774 -15.400  0.00  0.00    -0.392 OA
ATOM     93  H   LIG d   1       3.594  -6.726 -15.535  0.00  0.00     0.210 HD
ENDBRANCH  22  92
TORSDOF 16
ENDMDL
MODEL 6
REMARK VINA RESULT:      -6.4      2.583     10.681
REMARK  16 active torsions:
REMARK  status: ('A' for Active; 'I' for Inactive)
REMARK    1  A    between atoms: C_1  and  C_2 
REMARK    2  A    between atoms: C_2  and  C_4 
REMARK    3  A    between atoms: C_2  and  C_21 
REMARK    4  A    between atoms: C_4  and  C_5 
REMARK    5  A    between atoms: C_5  and  C_6 
REMARK       I    between atoms: C_6  and  N_8 
REMARK    6  A    between atoms: N_8  and  C_9 
REMARK    7  A    between atoms: C_9  and  C_10 
REMARK    8  A    between atoms: C_10  and  C_11 
REMARK    9  A    between atoms: C_14  and  O_19 
REMARK   10  A    between atoms: C_15  and  O_17 
REMARK   11  A    between atoms: O_17  and  C_18 
REMARK   12  A    between atoms: O_19  and  C_20 
REMARK   13  A    between atoms: C_27  and  C_48 
REMARK   14  A    between atoms: C_34  and  O_47 
REMARK   15  A    between atoms: C_39  and  C_46 
REMARK   16  A    between atoms: C_42  and  O_45 
ROOT
ATOM      1  C   LIG d   1       9.191   3.904  -5.377  0.00  0.00    -0.033 C 
ATOM      2  H   LIG d   1       8.159   4.217  -5.541  0.00  0.00     0.031 H 
ATOM      3  C   LIG d   1       9.250   2.808  -4.284  0.00  0.00    -0.049 C 
ATOM      4  C   LIG d   1      10.045   3.416  -3.096  0.00  0.00    -0.049 C 
ATOM      5  C   LIG d   1       9.853   4.924  -3.292  0.00  0.00    -0.030 C 
ATOM      6  H   LIG d   1       8.851   5.221  -2.986  0.00  0.00     0.031 H 
ATOM      7  C   LIG d   1      10.015   5.066  -4.831  0.00  0.00    -0.026 C 
ATOM      8  C   LIG d   1       9.557   6.460  -5.212  0.00  0.00    -0.047 C 
ATOM      9  C   LIG d   1      10.522   7.455  -4.546  0.00  0.00    -0.049 C 
ATOM     10  C   LIG d   1      10.559   7.266  -3.033  0.00  0.00    -0.030 C 
ATOM     11  H   LIG d   1       9.577   7.503  -2.624  0.00  0.00     0.031 H 
ATOM     12  C   LIG d   1      10.892   5.813  -2.635  0.00  0.00    -0.008 C 
ATOM     13  H   LIG d   1      11.884   5.556  -3.004  0.00  0.00     0.033 H 
ATOM     14  C   LIG d   1      10.832   5.668  -1.113  0.00  0.00     0.059 C 
ATOM     15  H   LIG d   1       9.830   5.919  -0.764  0.00  0.00     0.060 H 
ATOM     16  C   LIG d   1      11.849   6.612  -0.471  0.00  0.00    -0.023 C 
ATOM     17  C   LIG d   1      11.521   8.056  -0.856  0.00  0.00    -0.031 C 
ATOM     18  H   LIG d   1      12.244   8.729  -0.395  0.00  0.00     0.031 H 
ATOM     19  C   LIG d   1      11.593   8.206  -2.413  0.00  0.00    -0.026 C 
ATOM     20  C   LIG d   1      11.263   9.651  -2.797  0.00  0.00    -0.045 C 
ATOM     21  C   LIG d   1       9.863  10.003  -2.289  0.00  0.00    -0.026 C 
ATOM     22  C   LIG d   1       9.821   9.858  -0.766  0.00  0.00     0.056 C 
ATOM     23  H   LIG d   1      10.549  10.533  -0.317  0.00  0.00     0.059 H 
ATOM     24  C   LIG d   1      10.114   8.407  -0.367  0.00  0.00    -0.023 C 
ATOM     25  H   LIG d   1       8.243   2.542  -3.964  0.00  0.00     0.027 H 
ATOM     26  H   LIG d   1       9.765   1.926  -4.666  0.00  0.00     0.027 H 
ATOM     27  H   LIG d   1       9.623   3.093  -2.145  0.00  0.00     0.027 H 
ATOM     28  H   LIG d   1      11.100   3.150  -3.161  0.00  0.00     0.027 H 
ATOM     29  H   LIG d   1       9.590   6.578  -6.294  0.00  0.00     0.027 H 
ATOM     30  H   LIG d   1       8.542   6.628  -4.850  0.00  0.00     0.027 H 
ATOM     31  H   LIG d   1      11.524   7.305  -4.950  0.00  0.00     0.027 H 
ATOM     32  H   LIG d   1      10.196   8.471  -4.771  0.00  0.00     0.027 H 
ATOM     33  H   LIG d   1      11.806   6.508   0.614  0.00  0.00     0.029 H 
ATOM     34  H   LIG d   1      12.850   6.361  -0.821  0.00  0.00     0.029 H 
ATOM     35  H   LIG d   1      11.993  10.323  -2.346  0.00  0.00     0.027 H 
ATOM     36  H   LIG d   1      11.293   9.755  -3.882  0.00  0.00     0.027 H 
ATOM     37  H   LIG d   1       9.626  11.031  -2.562  0.00  0.00     0.029 H 
ATOM     38  H   LIG d   1       9.133   9.330  -2.738  0.00  0.00     0.029 H 
ATOM     39  H   LIG d   1       9.391   7.733  -0.827  0.00  0.00     0.029 H 
ATOM     40  H   LIG d   1      10.069   8.301   0.717  0.00  0.00     0.029 H 
ENDROOT
BRANCH   1  41
ATOM     41  C   LIG d   1       9.801   3.387  -6.680  0.00  0.00    -0.040 C 
ATOM     42  H   LIG d   1      10.887   3.368  -6.591  0.00  0.00     0.030 H 
BRANCH  41  43
ATOM     43  C   LIG d   1       9.401   4.311  -7.832  0.00  0.00    -0.062 C 
ATOM     44  H   LIG d   1       8.819   5.147  -7.443  0.00  0.00     0.023 H 
ATOM     45  H   LIG d   1      10.298   4.689  -8.324  0.00  0.00     0.023 H 
ATOM     46  H   LIG d   1       8.800   3.755  -8.552  0.00  0.00     0.023 H 
ENDBRANCH  41  43
BRANCH  41  47
ATOM     47  C   LIG d   1       9.288   1.972  -6.959  0.00  0.00    -0.042 C 
ATOM     48  H   LIG d   1      10.096   1.367  -7.366  0.00  0.00     0.027 H 
ATOM     49  H   LIG d   1       8.932   1.527  -6.030  0.00  0.00     0.027 H 
BRANCH  47  50
ATOM     50  C   LIG d   1       8.138   2.036  -7.967  0.00  0.00     0.024 C 
ATOM     51  H   LIG d   1       7.465   2.850  -7.700  0.00  0.00     0.036 H 
ATOM     52  H   LIG d   1       8.541   2.210  -8.966  0.00  0.00     0.036 H 
BRANCH  50  53
ATOM     53  C   LIG d   1       7.383   0.732  -7.950  0.00  0.00     0.213 C 
ATOM     54  O   LIG d   1       7.733  -0.161  -7.209  0.00  0.00    -0.276 OA
ATOM     55  N   LIG d   1       6.318   0.559  -8.758  0.00  0.00    -0.315 N 
ATOM     56  H   LIG d   1       6.038   1.275  -9.350  0.00  0.00     0.149 HD
BRANCH  55  57
ATOM     57  C   LIG d   1       5.583  -0.708  -8.741  0.00  0.00     0.016 C 
ATOM     58  H   LIG d   1       5.729  -1.224  -9.689  0.00  0.00     0.046 H 
ATOM     59  H   LIG d   1       5.955  -1.332  -7.927  0.00  0.00     0.046 H 
BRANCH  57  60
ATOM     60  C   LIG d   1       4.094  -0.431  -8.533  0.00  0.00    -0.012 C 
ATOM     61  H   LIG d   1       3.822   0.498  -9.034  0.00  0.00     0.033 H 
ATOM     62  H   LIG d   1       3.510  -1.253  -8.952  0.00  0.00     0.033 H 
BRANCH  60  63
ATOM     63  C   LIG d   1       3.806  -0.313  -7.060  0.00  0.00    -0.042 A 
ATOM     64  C   LIG d   1       4.555  -1.038  -6.151  0.00  0.00    -0.013 A 
ATOM     65  C   LIG d   1       4.296  -0.927  -4.794  0.00  0.00     0.162 A 
ATOM     66  H   LIG d   1       5.345  -1.686  -6.498  0.00  0.00     0.066 H 
ATOM     67  C   LIG d   1       3.274  -0.093  -4.350  0.00  0.00     0.162 A 
ATOM     68  C   LIG d   1       2.523   0.626  -5.266  0.00  0.00    -0.016 A 
ATOM     69  C   LIG d   1       2.791   0.515  -6.618  0.00  0.00    -0.055 A 
ATOM     70  H   LIG d   1       1.730   1.275  -4.925  0.00  0.00     0.066 H 
ATOM     71  H   LIG d   1       2.205   1.076  -7.331  0.00  0.00     0.062 H 
BRANCH  65  72
ATOM     72  O   LIG d   1       5.036  -1.634  -3.899  0.00  0.00    -0.491 OA
BRANCH  72  73
ATOM     73  C   LIG d   1       4.840  -3.049  -3.870  0.00  0.00     0.079 C 
ATOM     74  H   LIG d   1       4.208  -3.312  -3.022  0.00  0.00     0.066 H 
ATOM     75  H   LIG d   1       4.360  -3.369  -4.795  0.00  0.00     0.066 H 
ATOM     76  H   LIG d   1       5.806  -3.547  -3.772  0.00  0.00     0.066 H 
ENDBRANCH  72  73
ENDBRANCH  65  72
BRANCH  67  77
ATOM     77  O   LIG d   1       3.012   0.016  -3.020  0.00  0.00    -0.491 OA
BRANCH  77  78
ATOM     78  C   LIG d   1       3.612   1.113  -2.328  0.00  0.00     0.079 C 
ATOM     79  H   LIG d   1       3.561   2.006  -2.949  0.00  0.00     0.066 H 
ATOM     80  H   LIG d   1       3.079   1.288  -1.393  0.00  0.00     0.066 H 
ATOM     81  H   LIG d   1       4.655   0.878  -2.112  0.00  0.00     0.066 H 
ENDBRANCH  77  78
ENDBRANCH  67  77
ENDBRANCH  60  63
ENDBRANCH  57  60
ENDBRANCH  55  57
ENDBRANCH  50  53
ENDBRANCH  47  50
ENDBRANCH  41  47
ENDBRANCH   1  41
BRANCH   7  82
ATOM     82  C   LIG d   1      11.485   4.882  -5.215  0.00  0.00    -0.059 C 
ATOM     83  H   LIG d   1      12.022   4.420  -4.387  0.00  0.00     0.024 H 
ATOM     84  H   LIG d   1      11.552   4.241  -6.094  0.00  0.00     0.024 H 
ATOM     85  H   LIG d   1      11.927   5.853  -5.438  0.00  0.00     0.024 H 
ENDBRANCH   7  82
BRANCH  14  86
ATOM     86  O   LIG d   1      11.137   4.320  -0.751  0.00  0.00    -0.392 OA
ATOM     87  H   LIG d   1      10.388   3.833  -0.382  0.00  0.00     0.210 HD
ENDBRANCH  14  86
BRANCH  19  88
ATOM     88  C   LIG d   1      12.989   7.843  -2.927  0.00  0.00    -0.059 C 
ATOM     89  H   LIG d   1      13.536   8.755  -3.167  0.00  0.00     0.024 H 
ATOM     90  H   LIG d   1      13.525   7.288  -2.158  0.00  0.00     0.024 H 
ATOM     91  H   LIG d   1      12.898   7.228  -3.822  0.00  0.00     0.024 H 
ENDBRANCH  19  88
BRANCH  22  92
ATOM     92  O   LIG d   1       8.513  10.185  -0.293  0.00  0.00    -0.392 OA
ATOM     93  H   LIG d   1       8.492  10.936   0.316  0.00  0.00     0.210 HD
ENDBRANCH  22  92
TORSDOF 16
ENDMDL
MODEL 7
REMARK VINA RESULT:      -6.3      2.454      4.190
REMARK  16 active torsions:
REMARK  status: ('A' for Active; 'I' for Inactive)
REMARK    1  A    between atoms: C_1  and  C_2 
REMARK    2  A    between atoms: C_2  and  C_4 
REMARK    3  A    between atoms: C_2  and  C_21 
REMARK    4  A    between atoms: C_4  and  C_5 
REMARK    5  A    between atoms: C_5  and  C_6 
REMARK       I    between atoms: C_6  and  N_8 
REMARK    6  A    between atoms: N_8  and  C_9 
REMARK    7  A    between atoms: C_9  and  C_10 
REMARK    8  A    between atoms: C_10  and  C_11 
REMARK    9  A    between atoms: C_14  and  O_19 
REMARK   10  A    between atoms: C_15  and  O_17 
REMARK   11  A    between atoms: O_17  and  C_18 
REMARK   12  A    between atoms: O_19  and  C_20 
REMARK   13  A    between atoms: C_27  and  C_48 
REMARK   14  A    between atoms: C_34  and  O_47 
REMARK   15  A    between atoms: C_39  and  C_46 
REMARK   16  A    between atoms: C_42  and  O_45 
ROOT
ATOM      1  C   LIG d   1       8.539  -0.977  -6.907  0.00  0.00    -0.033 C 
ATOM      2  H   LIG d   1       8.749  -1.923  -7.407  0.00  0.00     0.031 H 
ATOM      3  C   LIG d   1       7.874  -1.233  -5.531  0.00  0.00    -0.049 C 
ATOM      4  C   LIG d   1       6.444  -0.634  -5.618  0.00  0.00    -0.049 C 
ATOM      5  C   LIG d   1       6.158  -0.645  -7.123  0.00  0.00    -0.030 C 
ATOM      6  H   LIG d   1       5.931  -1.656  -7.459  0.00  0.00     0.031 H 
ATOM      7  C   LIG d   1       7.519  -0.172  -7.707  0.00  0.00    -0.026 C 
ATOM      8  C   LIG d   1       7.484  -0.417  -9.202  0.00  0.00    -0.047 C 
ATOM      9  C   LIG d   1       6.386   0.486  -9.788  0.00  0.00    -0.049 C 
ATOM     10  C   LIG d   1       5.034   0.209  -9.139  0.00  0.00    -0.030 C 
ATOM     11  H   LIG d   1       4.728  -0.808  -9.383  0.00  0.00     0.031 H 
ATOM     12  C   LIG d   1       5.091   0.323  -7.601  0.00  0.00    -0.008 C 
ATOM     13  H   LIG d   1       5.365   1.340  -7.324  0.00  0.00     0.033 H 
ATOM     14  C   LIG d   1       3.732  -0.048  -7.005  0.00  0.00     0.059 C 
ATOM     15  H   LIG d   1       3.480  -1.071  -7.284  0.00  0.00     0.060 H 
ATOM     16  C   LIG d   1       2.663   0.906  -7.542  0.00  0.00    -0.023 C 
ATOM     17  C   LIG d   1       2.596   0.794  -9.066  0.00  0.00    -0.031 C 
ATOM     18  H   LIG d   1       1.833   1.472  -9.448  0.00  0.00     0.031 H 
ATOM     19  C   LIG d   1       3.986   1.183  -9.676  0.00  0.00    -0.026 C 
ATOM     20  C   LIG d   1       3.917   1.068 -11.201  0.00  0.00    -0.045 C 
ATOM     21  C   LIG d   1       3.547  -0.366 -11.585  0.00  0.00    -0.026 C 
ATOM     22  C   LIG d   1       2.183  -0.718 -10.986  0.00  0.00     0.056 C 
ATOM     23  H   LIG d   1       1.428  -0.033 -11.373  0.00  0.00     0.059 H 
ATOM     24  C   LIG d   1       2.245  -0.643  -9.456  0.00  0.00    -0.023 C 
ATOM     25  H   LIG d   1       7.820  -2.304  -5.335  0.00  0.00     0.027 H 
ATOM     26  H   LIG d   1       8.441  -0.736  -4.744  0.00  0.00     0.027 H 
ATOM     27  H   LIG d   1       5.730  -1.262  -5.085  0.00  0.00     0.027 H 
ATOM     28  H   LIG d   1       6.427   0.384  -5.230  0.00  0.00     0.027 H 
ATOM     29  H   LIG d   1       8.448  -0.163  -9.642  0.00  0.00     0.027 H 
ATOM     30  H   LIG d   1       7.250  -1.464  -9.401  0.00  0.00     0.027 H 
ATOM     31  H   LIG d   1       6.656   1.529  -9.621  0.00  0.00     0.027 H 
ATOM     32  H   LIG d   1       6.310   0.305 -10.860  0.00  0.00     0.027 H 
ATOM     33  H   LIG d   1       1.695   0.642  -7.116  0.00  0.00     0.029 H 
ATOM     34  H   LIG d   1       2.916   1.929  -7.264  0.00  0.00     0.029 H 
ATOM     35  H   LIG d   1       3.162   1.754 -11.584  0.00  0.00     0.027 H 
ATOM     36  H   LIG d   1       4.888   1.320 -11.628  0.00  0.00     0.027 H 
ATOM     37  H   LIG d   1       3.499  -0.450 -12.671  0.00  0.00     0.029 H 
ATOM     38  H   LIG d   1       4.300  -1.052 -11.200  0.00  0.00     0.029 H 
ATOM     39  H   LIG d   1       3.008  -1.321  -9.073  0.00  0.00     0.029 H 
ATOM     40  H   LIG d   1       1.277  -0.909  -9.030  0.00  0.00     0.029 H 
ENDROOT
BRANCH   1  41
ATOM     41  C   LIG d   1       9.828  -0.173  -6.732  0.00  0.00    -0.040 C 
ATOM     42  H   LIG d   1       9.640   0.872  -6.974  0.00  0.00     0.030 H 
BRANCH  41  43
ATOM     43  C   LIG d   1      10.906  -0.728  -7.664  0.00  0.00    -0.062 C 
ATOM     44  H   LIG d   1      11.864  -0.262  -7.431  0.00  0.00     0.023 H 
ATOM     45  H   LIG d   1      10.985  -1.807  -7.529  0.00  0.00     0.023 H 
ATOM     46  H   LIG d   1      10.639  -0.511  -8.699  0.00  0.00     0.023 H 
ENDBRANCH  41  43
BRANCH  41  47
ATOM     47  C   LIG d   1      10.304  -0.281  -5.281  0.00  0.00    -0.042 C 
ATOM     48  H   LIG d   1       9.640   0.295  -4.637  0.00  0.00     0.027 H 
ATOM     49  H   LIG d   1      10.291  -1.326  -4.972  0.00  0.00     0.027 H 
BRANCH  47  50
ATOM     50  C   LIG d   1      11.728   0.266  -5.169  0.00  0.00     0.024 C 
ATOM     51  H   LIG d   1      12.397  -0.527  -4.834  0.00  0.00     0.036 H 
ATOM     52  H   LIG d   1      12.054   0.631  -6.143  0.00  0.00     0.036 H 
BRANCH  50  53
ATOM     53  C   LIG d   1      11.754   1.398  -4.174  0.00  0.00     0.213 C 
ATOM     54  O   LIG d   1      12.810   1.897  -3.851  0.00  0.00    -0.276 OA
ATOM     55  N   LIG d   1      10.602   1.856  -3.644  0.00  0.00    -0.315 N 
ATOM     56  H   LIG d   1       9.757   1.456  -3.903  0.00  0.00     0.149 HD
BRANCH  55  57
ATOM     57  C   LIG d   1      10.626   2.956  -2.677  0.00  0.00     0.016 C 
ATOM     58  H   LIG d   1      10.055   2.674  -1.793  0.00  0.00     0.046 H 
ATOM     59  H   LIG d   1      11.658   3.165  -2.392  0.00  0.00     0.046 H 
BRANCH  57  60
ATOM     60  C   LIG d   1      10.008   4.204  -3.309  0.00  0.00    -0.012 C 
ATOM     61  H   LIG d   1      10.529   4.438  -4.238  0.00  0.00     0.033 H 
ATOM     62  H   LIG d   1       8.954   4.020  -3.520  0.00  0.00     0.033 H 
BRANCH  60  63
ATOM     63  C   LIG d   1      10.134   5.364  -2.356  0.00  0.00    -0.042 A 
ATOM     64  C   LIG d   1      10.842   5.213  -1.177  0.00  0.00    -0.013 A 
ATOM     65  C   LIG d   1      10.962   6.280  -0.300  0.00  0.00     0.162 A 
ATOM     66  H   LIG d   1      11.303   4.267  -0.942  0.00  0.00     0.066 H 
ATOM     67  C   LIG d   1      10.362   7.498  -0.605  0.00  0.00     0.162 A 
ATOM     68  C   LIG d   1       9.650   7.640  -1.784  0.00  0.00    -0.016 A 
ATOM     69  C   LIG d   1       9.537   6.574  -2.657  0.00  0.00    -0.055 A 
ATOM     70  H   LIG d   1       9.183   8.585  -2.024  0.00  0.00     0.066 H 
ATOM     71  H   LIG d   1       8.982   6.686  -3.577  0.00  0.00     0.062 H 
BRANCH  65  72
ATOM     72  O   LIG d   1      11.663   6.136   0.856  0.00  0.00    -0.491 OA
BRANCH  72  73
ATOM     73  C   LIG d   1      10.959   5.601   1.979  0.00  0.00     0.079 C 
ATOM     74  H   LIG d   1      10.154   4.954   1.629  0.00  0.00     0.066 H 
ATOM     75  H   LIG d   1      11.646   5.024   2.598  0.00  0.00     0.066 H 
ATOM     76  H   LIG d   1      10.539   6.418   2.567  0.00  0.00     0.066 H 
ENDBRANCH  72  73
ENDBRANCH  65  72
BRANCH  67  77
ATOM     77  O   LIG d   1      10.473   8.547   0.254  0.00  0.00    -0.491 OA
BRANCH  77  78
ATOM     78  C   LIG d   1      11.159   9.706  -0.223  0.00  0.00     0.079 C 
ATOM     79  H   LIG d   1      10.504  10.268  -0.887  0.00  0.00     0.066 H 
ATOM     80  H   LIG d   1      11.444  10.333   0.622  0.00  0.00     0.066 H 
ATOM     81  H   LIG d   1      12.054   9.401  -0.766  0.00  0.00     0.066 H 
ENDBRANCH  77  78
ENDBRANCH  67  77
ENDBRANCH  60  63
ENDBRANCH  57  60
ENDBRANCH  55  57
ENDBRANCH  50  53
ENDBRANCH  47  50
ENDBRANCH  41  47
ENDBRANCH   1  41
BRANCH   7  82
ATOM     82  C   LIG d   1       7.708   1.321  -7.432  0.00  0.00    -0.059 C 
ATOM     83  H   LIG d   1       8.321   1.451  -6.540  0.00  0.00     0.024 H 
ATOM     84  H   LIG d   1       8.203   1.787  -8.284  0.00  0.00     0.024 H 
ATOM     85  H   LIG d   1       6.735   1.788  -7.276  0.00  0.00     0.024 H 
ENDBRANCH   7  82
BRANCH  14  86
ATOM     86  O   LIG d   1       3.792   0.056  -5.582  0.00  0.00    -0.392 OA
ATOM     87  H   LIG d   1       3.046   0.529  -5.190  0.00  0.00     0.210 HD
ENDBRANCH  14  86
BRANCH  19  88
ATOM     88  C   LIG d   1       4.367   2.613  -9.283  0.00  0.00    -0.059 C 
ATOM     89  H   LIG d   1       5.171   2.964  -9.930  0.00  0.00     0.024 H 
ATOM     90  H   LIG d   1       3.500   3.263  -9.396  0.00  0.00     0.024 H 
ATOM     91  H   LIG d   1       4.701   2.628  -8.247  0.00  0.00     0.024 H 
ENDBRANCH  19  88
BRANCH  22  92
ATOM     92  O   LIG d   1       1.838  -2.058 -11.344  0.00  0.00    -0.392 OA
ATOM     93  H   LIG d   1       2.296  -2.385 -12.130  0.00  0.00     0.210 HD
ENDBRANCH  22  92
TORSDOF 16
ENDMDL
MODEL 8
REMARK VINA RESULT:      -6.1      3.596     10.723
REMARK  16 active torsions:
REMARK  status: ('A' for Active; 'I' for Inactive)
REMARK    1  A    between atoms: C_1  and  C_2 
REMARK    2  A    between atoms: C_2  and  C_4 
REMARK    3  A    between atoms: C_2  and  C_21 
REMARK    4  A    between atoms: C_4  and  C_5 
REMARK    5  A    between atoms: C_5  and  C_6 
REMARK       I    between atoms: C_6  and  N_8 
REMARK    6  A    between atoms: N_8  and  C_9 
REMARK    7  A    between atoms: C_9  and  C_10 
REMARK    8  A    between atoms: C_10  and  C_11 
REMARK    9  A    between atoms: C_14  and  O_19 
REMARK   10  A    between atoms: C_15  and  O_17 
REMARK   11  A    between atoms: O_17  and  C_18 
REMARK   12  A    between atoms: O_19  and  C_20 
REMARK   13  A    between atoms: C_27  and  C_48 
REMARK   14  A    between atoms: C_34  and  O_47 
REMARK   15  A    between atoms: C_39  and  C_46 
REMARK   16  A    between atoms: C_42  and  O_45 
ROOT
ATOM      1  C   LIG d   1       9.179   3.450  -4.955  0.00  0.00    -0.033 C 
ATOM      2  H   LIG d   1       8.130   3.711  -5.098  0.00  0.00     0.031 H 
ATOM      3  C   LIG d   1       9.331   2.473  -3.763  0.00  0.00    -0.049 C 
ATOM      4  C   LIG d   1      10.156   3.224  -2.683  0.00  0.00    -0.049 C 
ATOM      5  C   LIG d   1       9.899   4.697  -3.018  0.00  0.00    -0.030 C 
ATOM      6  H   LIG d   1       8.901   4.991  -2.694  0.00  0.00     0.031 H 
ATOM      7  C   LIG d   1       9.983   4.688  -4.570  0.00  0.00    -0.026 C 
ATOM      8  C   LIG d   1       9.456   6.020  -5.064  0.00  0.00    -0.047 C 
ATOM      9  C   LIG d   1      10.411   7.109  -4.550  0.00  0.00    -0.049 C 
ATOM     10  C   LIG d   1      10.527   7.076  -3.030  0.00  0.00    -0.030 C 
ATOM     11  H   LIG d   1       9.557   7.320  -2.598  0.00  0.00     0.031 H 
ATOM     12  C   LIG d   1      10.933   5.683  -2.506  0.00  0.00    -0.008 C 
ATOM     13  H   LIG d   1      11.915   5.422  -2.897  0.00  0.00     0.033 H 
ATOM     14  C   LIG d   1      10.949   5.690  -0.976  0.00  0.00     0.059 C 
ATOM     15  H   LIG d   1       9.956   5.942  -0.604  0.00  0.00     0.060 H 
ATOM     16  C   LIG d   1      11.958   6.728  -0.483  0.00  0.00    -0.023 C 
ATOM     17  C   LIG d   1      11.558   8.114  -0.993  0.00  0.00    -0.031 C 
ATOM     18  H   LIG d   1      12.276   8.854  -0.639  0.00  0.00     0.031 H 
ATOM     19  C   LIG d   1      11.552   8.108  -2.559  0.00  0.00    -0.026 C 
ATOM     20  C   LIG d   1      11.149   9.494  -3.068  0.00  0.00    -0.045 C 
ATOM     21  C   LIG d   1       9.762   9.849  -2.528  0.00  0.00    -0.026 C 
ATOM     22  C   LIG d   1       9.797   9.858  -0.998  0.00  0.00     0.056 C 
ATOM     23  H   LIG d   1      10.519  10.599  -0.655  0.00  0.00     0.059 H 
ATOM     24  C   LIG d   1      10.163   8.466  -0.472  0.00  0.00    -0.023 C 
ATOM     25  H   LIG d   1       8.351   2.208  -3.368  0.00  0.00     0.027 H 
ATOM     26  H   LIG d   1       9.861   1.575  -4.081  0.00  0.00     0.027 H 
ATOM     27  H   LIG d   1       9.792   2.985  -1.684  0.00  0.00     0.027 H 
ATOM     28  H   LIG d   1      11.217   2.988  -2.774  0.00  0.00     0.027 H 
ATOM     29  H   LIG d   1       9.433   6.029  -6.153  0.00  0.00     0.027 H 
ATOM     30  H   LIG d   1       8.453   6.191  -4.670  0.00  0.00     0.027 H 
ATOM     31  H   LIG d   1      11.399   6.952  -4.987  0.00  0.00     0.027 H 
ATOM     32  H   LIG d   1      10.038   8.086  -4.858  0.00  0.00     0.027 H 
ATOM     33  H   LIG d   1      11.970   6.732   0.607  0.00  0.00     0.029 H 
ATOM     34  H   LIG d   1      12.951   6.476  -0.856  0.00  0.00     0.029 H 
ATOM     35  H   LIG d   1      11.873  10.232  -2.723  0.00  0.00     0.027 H 
ATOM     36  H   LIG d   1      11.125   9.489  -4.158  0.00  0.00     0.027 H 
ATOM     37  H   LIG d   1       9.474  10.836  -2.890  0.00  0.00     0.029 H 
ATOM     38  H   LIG d   1       9.039   9.110  -2.870  0.00  0.00     0.029 H 
ATOM     39  H   LIG d   1       9.445   7.725  -0.826  0.00  0.00     0.029 H 
ATOM     40  H   LIG d   1      10.173   8.468   0.618  0.00  0.00     0.029 H 
ENDROOT
BRANCH   1  41
ATOM     41  C   LIG d   1       9.747   2.825  -6.230  0.00  0.00    -0.040 C 
ATOM     42  H   LIG d   1      10.832   2.926  -6.232  0.00  0.00     0.030 H 
BRANCH  41  43
ATOM     43  C   LIG d   1       9.165   3.538  -7.452  0.00  0.00    -0.062 C 
ATOM     44  H   LIG d   1       9.522   3.053  -8.361  0.00  0.00     0.023 H 
ATOM     45  H   LIG d   1       8.077   3.490  -7.418  0.00  0.00     0.023 H 
ATOM     46  H   LIG d   1       9.482   4.582  -7.449  0.00  0.00     0.023 H 
ENDBRANCH  41  43
BRANCH  41  47
ATOM     47  C   LIG d   1       9.375   1.341  -6.281  0.00  0.00    -0.042 C 
ATOM     48  H   LIG d   1      10.247   0.757  -6.573  0.00  0.00     0.027 H 
ATOM     49  H   LIG d   1       9.035   1.019  -5.296  0.00  0.00     0.027 H 
BRANCH  47  50
ATOM     50  C   LIG d   1       8.253   1.131  -7.301  0.00  0.00     0.024 C 
ATOM     51  H   LIG d   1       8.046   2.071  -7.811  0.00  0.00     0.036 H 
ATOM     52  H   LIG d   1       8.562   0.381  -8.029  0.00  0.00     0.036 H 
BRANCH  50  53
ATOM     53  C   LIG d   1       7.011   0.659  -6.590  0.00  0.00     0.213 C 
ATOM     54  O   LIG d   1       5.977   0.515  -7.207  0.00  0.00    -0.276 OA
ATOM     55  N   LIG d   1       7.048   0.399  -5.268  0.00  0.00    -0.315 N 
ATOM     56  H   LIG d   1       7.876   0.514  -4.775  0.00  0.00     0.149 HD
BRANCH  55  57
ATOM     57  C   LIG d   1       5.841  -0.059  -4.576  0.00  0.00     0.016 C 
ATOM     58  H   LIG d   1       5.293   0.801  -4.195  0.00  0.00     0.046 H 
ATOM     59  H   LIG d   1       5.211  -0.611  -5.274  0.00  0.00     0.046 H 
BRANCH  57  60
ATOM     60  C   LIG d   1       6.234  -0.971  -3.413  0.00  0.00    -0.012 C 
ATOM     61  H   LIG d   1       7.025  -0.499  -2.831  0.00  0.00     0.033 H 
ATOM     62  H   LIG d   1       5.365  -1.140  -2.774  0.00  0.00     0.033 H 
BRANCH  60  63
ATOM     63  C   LIG d   1       6.723  -2.290  -3.952  0.00  0.00    -0.042 A 
ATOM     64  C   LIG d   1       7.993  -2.736  -3.635  0.00  0.00    -0.013 A 
ATOM     65  C   LIG d   1       8.444  -3.951  -4.125  0.00  0.00     0.162 A 
ATOM     66  H   LIG d   1       8.631  -2.139  -3.001  0.00  0.00     0.066 H 
ATOM     67  C   LIG d   1       7.619  -4.715  -4.946  0.00  0.00     0.162 A 
ATOM     68  C   LIG d   1       6.350  -4.260  -5.265  0.00  0.00    -0.016 A 
ATOM     69  C   LIG d   1       5.904  -3.050  -4.768  0.00  0.00    -0.055 A 
ATOM     70  H   LIG d   1       5.707  -4.851  -5.901  0.00  0.00     0.066 H 
ATOM     71  H   LIG d   1       4.915  -2.696  -5.016  0.00  0.00     0.062 H 
BRANCH  65  72
ATOM     72  O   LIG d   1       9.690  -4.394  -3.809  0.00  0.00    -0.491 OA
BRANCH  72  73
ATOM     73  C   LIG d   1       9.978  -4.587  -2.424  0.00  0.00     0.079 C 
ATOM     74  H   LIG d   1      10.878  -5.193  -2.320  0.00  0.00     0.066 H 
ATOM     75  H   LIG d   1      10.133  -3.620  -1.946  0.00  0.00     0.066 H 
ATOM     76  H   LIG d   1       9.140  -5.097  -1.947  0.00  0.00     0.066 H 
ENDBRANCH  72  73
ENDBRANCH  65  72
BRANCH  67  77
ATOM     77  O   LIG d   1       8.058  -5.907  -5.434  0.00  0.00    -0.491 OA
BRANCH  77  78
ATOM     78  C   LIG d   1       7.784  -6.185  -6.808  0.00  0.00     0.079 C 
ATOM     79  H   LIG d   1       7.826  -5.261  -7.382  0.00  0.00     0.066 H 
ATOM     80  H   LIG d   1       8.525  -6.886  -7.192  0.00  0.00     0.066 H 
ATOM     81  H   LIG d   1       6.789  -6.625  -6.898  0.00  0.00     0.066 H 
ENDBRANCH  77  78
ENDBRANCH  67  77
ENDBRANCH  60  63
ENDBRANCH  57  60
ENDBRANCH  55  57
ENDBRANCH  50  53
ENDBRANCH  47  50
ENDBRANCH  41  47
ENDBRANCH   1  41
BRANCH   7  82
ATOM     82  C   LIG d   1      11.439   4.515  -5.007  0.00  0.00    -0.059 C 
ATOM     83  H   LIG d   1      11.492   4.495  -6.095  0.00  0.00     0.024 H 
ATOM     84  H   LIG d   1      12.033   5.347  -4.630  0.00  0.00     0.024 H 
ATOM     85  H   LIG d   1      11.830   3.578  -4.607  0.00  0.00     0.024 H 
ENDBRANCH   7  82
BRANCH  14  86
ATOM     86  O   LIG d   1      11.322   4.397  -0.498  0.00  0.00    -0.392 OA
ATOM     87  H   LIG d   1      10.622   3.734  -0.571  0.00  0.00     0.210 HD
ENDBRANCH  14  86
BRANCH  19  88
ATOM     88  C   LIG d   1      12.935   7.740  -3.104  0.00  0.00    -0.059 C 
ATOM     89  H   LIG d   1      12.822   7.201  -4.045  0.00  0.00     0.024 H 
ATOM     90  H   LIG d   1      13.511   8.649  -3.273  0.00  0.00     0.024 H 
ATOM     91  H   LIG d   1      13.453   7.109  -2.383  0.00  0.00     0.024 H 
ENDBRANCH  19  88
BRANCH  22  92
ATOM     92  O   LIG d   1       8.501  10.188  -0.494  0.00  0.00    -0.392 OA
ATOM     93  H   LIG d   1       7.814   9.550  -0.730  0.00  0.00     0.210 HD
ENDBRANCH  22  92
TORSDOF 16
ENDMDL
MODEL 9
REMARK VINA RESULT:      -6.0      2.751     11.533
REMARK  16 active torsions:
REMARK  status: ('A' for Active; 'I' for Inactive)
REMARK    1  A    between atoms: C_1  and  C_2 
REMARK    2  A    between atoms: C_2  and  C_4 
REMARK    3  A    between atoms: C_2  and  C_21 
REMARK    4  A    between atoms: C_4  and  C_5 
REMARK    5  A    between atoms: C_5  and  C_6 
REMARK       I    between atoms: C_6  and  N_8 
REMARK    6  A    between atoms: N_8  and  C_9 
REMARK    7  A    between atoms: C_9  and  C_10 
REMARK    8  A    between atoms: C_10  and  C_11 
REMARK    9  A    between atoms: C_14  and  O_19 
REMARK   10  A    between atoms: C_15  and  O_17 
REMARK   11  A    between atoms: O_17  and  C_18 
REMARK   12  A    between atoms: O_19  and  C_20 
REMARK   13  A    between atoms: C_27  and  C_48 
REMARK   14  A    between atoms: C_34  and  O_47 
REMARK   15  A    between atoms: C_39  and  C_46 
REMARK   16  A    between atoms: C_42  and  O_45 
ROOT
ATOM      1  C   LIG d   1       9.206   3.483  -4.962  0.00  0.00    -0.033 C 
ATOM      2  H   LIG d   1       8.157   3.743  -5.109  0.00  0.00     0.031 H 
ATOM      3  C   LIG d   1       9.351   2.493  -3.780  0.00  0.00    -0.049 C 
ATOM      4  C   LIG d   1      10.168   3.234  -2.686  0.00  0.00    -0.049 C 
ATOM      5  C   LIG d   1       9.910   4.710  -3.007  0.00  0.00    -0.030 C 
ATOM      6  H   LIG d   1       8.909   4.998  -2.686  0.00  0.00     0.031 H 
ATOM      7  C   LIG d   1      10.005   4.718  -4.558  0.00  0.00    -0.026 C 
ATOM      8  C   LIG d   1       9.478   6.054  -5.041  0.00  0.00    -0.047 C 
ATOM      9  C   LIG d   1      10.428   7.140  -4.508  0.00  0.00    -0.049 C 
ATOM     10  C   LIG d   1      10.533   7.090  -2.988  0.00  0.00    -0.030 C 
ATOM     11  H   LIG d   1       9.559   7.328  -2.560  0.00  0.00     0.031 H 
ATOM     12  C   LIG d   1      10.938   5.692  -2.477  0.00  0.00    -0.008 C 
ATOM     13  H   LIG d   1      11.924   5.438  -2.864  0.00  0.00     0.033 H 
ATOM     14  C   LIG d   1      10.943   5.683  -0.947  0.00  0.00     0.059 C 
ATOM     15  H   LIG d   1       9.947   5.929  -0.579  0.00  0.00     0.060 H 
ATOM     16  C   LIG d   1      11.947   6.717  -0.435  0.00  0.00    -0.023 C 
ATOM     17  C   LIG d   1      11.548   8.108  -0.933  0.00  0.00    -0.031 C 
ATOM     18  H   LIG d   1      12.262   8.845  -0.566  0.00  0.00     0.031 H 
ATOM     19  C   LIG d   1      11.553   8.118  -2.499  0.00  0.00    -0.026 C 
ATOM     20  C   LIG d   1      11.151   9.510  -2.995  0.00  0.00    -0.045 C 
ATOM     21  C   LIG d   1       9.759   9.856  -2.461  0.00  0.00    -0.026 C 
ATOM     22  C   LIG d   1       9.783   9.848  -0.931  0.00  0.00     0.056 C 
ATOM     23  H   LIG d   1      10.502  10.587  -0.575  0.00  0.00     0.059 H 
ATOM     24  C   LIG d   1      10.148   8.451  -0.418  0.00  0.00    -0.023 C 
ATOM     25  H   LIG d   1       8.369   2.222  -3.395  0.00  0.00     0.027 H 
ATOM     26  H   LIG d   1       9.885   1.599  -4.104  0.00  0.00     0.027 H 
ATOM     27  H   LIG d   1       9.797   2.984  -1.692  0.00  0.00     0.027 H 
ATOM     28  H   LIG d   1      11.229   3.001  -2.772  0.00  0.00     0.027 H 
ATOM     29  H   LIG d   1       9.463   6.075  -6.130  0.00  0.00     0.027 H 
ATOM     30  H   LIG d   1       8.472   6.219  -4.652  0.00  0.00     0.027 H 
ATOM     31  H   LIG d   1      11.418   6.989  -4.940  0.00  0.00     0.027 H 
ATOM     32  H   LIG d   1      10.054   8.119  -4.809  0.00  0.00     0.027 H 
ATOM     33  H   LIG d   1      11.951   6.709   0.655  0.00  0.00     0.029 H 
ATOM     34  H   LIG d   1      12.943   6.471  -0.804  0.00  0.00     0.029 H 
ATOM     35  H   LIG d   1      11.871  10.245  -2.638  0.00  0.00     0.027 H 
ATOM     36  H   LIG d   1      11.134   9.516  -4.086  0.00  0.00     0.027 H 
ATOM     37  H   LIG d   1       9.471  10.846  -2.815  0.00  0.00     0.029 H 
ATOM     38  H   LIG d   1       9.040   9.120  -2.817  0.00  0.00     0.029 H 
ATOM     39  H   LIG d   1       9.435   7.713  -0.784  0.00  0.00     0.029 H 
ATOM     40  H   LIG d   1      10.151   8.442   0.673  0.00  0.00     0.029 H 
ENDROOT
BRANCH   1  41
ATOM     41  C   LIG d   1       9.784   2.872  -6.240  0.00  0.00    -0.040 C 
ATOM     42  H   LIG d   1      10.869   2.969  -6.230  0.00  0.00     0.030 H 
BRANCH  41  43
ATOM     43  C   LIG d   1       9.218   3.605  -7.457  0.00  0.00    -0.062 C 
ATOM     44  H   LIG d   1       8.410   3.017  -7.893  0.00  0.00     0.023 H 
ATOM     45  H   LIG d   1       8.833   4.578  -7.150  0.00  0.00     0.023 H 
ATOM     46  H   LIG d   1      10.006   3.744  -8.197  0.00  0.00     0.023 H 
ENDBRANCH  41  43
BRANCH  41  47
ATOM     47  C   LIG d   1       9.405   1.391  -6.314  0.00  0.00    -0.042 C 
ATOM     48  H   LIG d   1      10.282   0.806  -6.588  0.00  0.00     0.027 H 
ATOM     49  H   LIG d   1       9.037   1.062  -5.343  0.00  0.00     0.027 H 
BRANCH  47  50
ATOM     50  C   LIG d   1       8.311   1.197  -7.367  0.00  0.00     0.024 C 
ATOM     51  H   LIG d   1       8.078   2.155  -7.830  0.00  0.00     0.036 H 
ATOM     52  H   LIG d   1       8.661   0.500  -8.129  0.00  0.00     0.036 H 
BRANCH  50  53
ATOM     53  C   LIG d   1       7.074   0.642  -6.708  0.00  0.00     0.213 C 
ATOM     54  O   LIG d   1       6.942   0.719  -5.505  0.00  0.00    -0.276 OA
ATOM     55  N   LIG d   1       6.116   0.060  -7.456  0.00  0.00    -0.315 N 
ATOM     56  H   LIG d   1       6.223  -0.001  -8.418  0.00  0.00     0.149 HD
BRANCH  55  57
ATOM     57  C   LIG d   1       4.913  -0.479  -6.816  0.00  0.00     0.016 C 
ATOM     58  H   LIG d   1       4.887  -1.560  -6.946  0.00  0.00     0.046 H 
ATOM     59  H   LIG d   1       4.931  -0.241  -5.752  0.00  0.00     0.046 H 
BRANCH  57  60
ATOM     60  C   LIG d   1       3.672   0.142  -7.457  0.00  0.00    -0.012 C 
ATOM     61  H   LIG d   1       2.951   0.399  -6.681  0.00  0.00     0.033 H 
ATOM     62  H   LIG d   1       3.957   1.045  -8.000  0.00  0.00     0.033 H 
BRANCH  60  63
ATOM     63  C   LIG d   1       3.053  -0.843  -8.414  0.00  0.00    -0.042 A 
ATOM     64  C   LIG d   1       3.521  -2.144  -8.461  0.00  0.00    -0.013 A 
ATOM     65  C   LIG d   1       2.951  -3.054  -9.336  0.00  0.00     0.162 A 
ATOM     66  H   LIG d   1       4.327  -2.451  -7.812  0.00  0.00     0.066 H 
ATOM     67  C   LIG d   1       1.914  -2.653 -10.174  0.00  0.00     0.162 A 
ATOM     68  C   LIG d   1       1.454  -1.347 -10.126  0.00  0.00    -0.016 A 
ATOM     69  C   LIG d   1       2.024  -0.446  -9.247  0.00  0.00    -0.055 A 
ATOM     70  H   LIG d   1       0.649  -1.033 -10.775  0.00  0.00     0.066 H 
ATOM     71  H   LIG d   1       1.664   0.572  -9.209  0.00  0.00     0.062 H 
BRANCH  65  72
ATOM     72  O   LIG d   1       3.406  -4.335  -9.380  0.00  0.00    -0.491 OA
BRANCH  72  73
ATOM     73  C   LIG d   1       4.762  -4.529  -9.785  0.00  0.00     0.079 C 
ATOM     74  H   LIG d   1       5.419  -4.421  -8.922  0.00  0.00     0.066 H 
ATOM     75  H   LIG d   1       4.876  -5.527 -10.208  0.00  0.00     0.066 H 
ATOM     76  H   LIG d   1       5.026  -3.785 -10.538  0.00  0.00     0.066 H 
ENDBRANCH  72  73
ENDBRANCH  65  72
BRANCH  67  77
ATOM     77  O   LIG d   1       1.354  -3.541 -11.039  0.00  0.00    -0.491 OA
BRANCH  77  78
ATOM     78  C   LIG d   1       0.133  -4.161 -10.633  0.00  0.00     0.079 C 
ATOM     79  H   LIG d   1      -0.447  -4.435 -11.513  0.00  0.00     0.066 H 
ATOM     80  H   LIG d   1       0.355  -5.055 -10.050  0.00  0.00     0.066 H 
ATOM     81  H   LIG d   1      -0.442  -3.463 -10.021  0.00  0.00     0.066 H 
ENDBRANCH  77  78
ENDBRANCH  67  77
ENDBRANCH  60  63
ENDBRANCH  57  60
ENDBRANCH  55  57
ENDBRANCH  50  53
ENDBRANCH  47  50
ENDBRANCH  41  47
ENDBRANCH   1  41
BRANCH   7  82
ATOM     82  C   LIG d   1      11.464   4.552  -4.987  0.00  0.00    -0.059 C 
ATOM     83  H   LIG d   1      11.506   4.333  -6.053  0.00  0.00     0.024 H 
ATOM     84  H   LIG d   1      12.009   5.474  -4.783  0.00  0.00     0.024 H 
ATOM     85  H   LIG d   1      11.916   3.731  -4.429  0.00  0.00     0.024 H 
ENDBRANCH   7  82
BRANCH  14  86
ATOM     86  O   LIG d   1      11.315   4.385  -0.480  0.00  0.00    -0.392 OA
ATOM     87  H   LIG d   1      10.784   3.667  -0.849  0.00  0.00     0.210 HD
ENDBRANCH  14  86
BRANCH  19  88
ATOM     88  C   LIG d   1      12.940   7.760  -3.038  0.00  0.00    -0.059 C 
ATOM     89  H   LIG d   1      12.944   6.720  -3.365  0.00  0.00     0.024 H 
ATOM     90  H   LIG d   1      13.179   8.406  -3.882  0.00  0.00     0.024 H 
ATOM     91  H   LIG d   1      13.682   7.897  -2.253  0.00  0.00     0.024 H 
ENDBRANCH  19  88
BRANCH  22  92
ATOM     92  O   LIG d   1       8.483  10.170  -0.433  0.00  0.00    -0.392 OA
ATOM     93  H   LIG d   1       8.252   9.712   0.386  0.00  0.00     0.210 HD
ENDBRANCH  22  92
TORSDOF 16
ENDMDL
MODEL 10
REMARK VINA RESULT:      -5.9      2.934     11.272
REMARK  16 active torsions:
REMARK  status: ('A' for Active; 'I' for Inactive)
REMARK    1  A    between atoms: C_1  and  C_2 
REMARK    2  A    between atoms: C_2  and  C_4 
REMARK    3  A    between atoms: C_2  and  C_21 
REMARK    4  A    between atoms: C_4  and  C_5 
REMARK    5  A    between atoms: C_5  and  C_6 
REMARK       I    between atoms: C_6  and  N_8 
REMARK    6  A    between atoms: N_8  and  C_9 
REMARK    7  A    between atoms: C_9  and  C_10 
REMARK    8  A    between atoms: C_10  and  C_11 
REMARK    9  A    between atoms: C_14  and  O_19 
REMARK   10  A    between atoms: C_15  and  O_17 
REMARK   11  A    between atoms: O_17  and  C_18 
REMARK   12  A    between atoms: O_19  and  C_20 
REMARK   13  A    between atoms: C_27  and  C_48 
REMARK   14  A    between atoms: C_34  and  O_47 
REMARK   15  A    between atoms: C_39  and  C_46 
REMARK   16  A    between atoms: C_42  and  O_45 
ROOT
ATOM      1  C   LIG d   1       9.327   3.425  -4.989  0.00  0.00    -0.033 C 
ATOM      2  H   LIG d   1       8.280   3.674  -5.167  0.00  0.00     0.031 H 
ATOM      3  C   LIG d   1       9.450   2.458  -3.785  0.00  0.00    -0.049 C 
ATOM      4  C   LIG d   1      10.233   3.225  -2.685  0.00  0.00    -0.049 C 
ATOM      5  C   LIG d   1       9.972   4.693  -3.039  0.00  0.00    -0.030 C 
ATOM      6  H   LIG d   1       8.962   4.979  -2.749  0.00  0.00     0.031 H 
ATOM      7  C   LIG d   1      10.106   4.673  -4.587  0.00  0.00    -0.026 C 
ATOM      8  C   LIG d   1       9.582   5.997  -5.108  0.00  0.00    -0.047 C 
ATOM      9  C   LIG d   1      10.510   7.099  -4.572  0.00  0.00    -0.049 C 
ATOM     10  C   LIG d   1      10.577   7.078  -3.049  0.00  0.00    -0.030 C 
ATOM     11  H   LIG d   1       9.591   7.316  -2.650  0.00  0.00     0.031 H 
ATOM     12  C   LIG d   1      10.980   5.693  -2.502  0.00  0.00    -0.008 C 
ATOM     13  H   LIG d   1      11.977   5.439  -2.860  0.00  0.00     0.033 H 
ATOM     14  C   LIG d   1      10.947   5.711  -0.973  0.00  0.00     0.059 C 
ATOM     15  H   LIG d   1       9.940   5.956  -0.634  0.00  0.00     0.060 H 
ATOM     16  C   LIG d   1      11.929   6.763  -0.455  0.00  0.00    -0.023 C 
ATOM     17  C   LIG d   1      11.532   8.141  -0.988  0.00  0.00    -0.031 C 
ATOM     18  H   LIG d   1      12.232   8.890  -0.617  0.00  0.00     0.031 H 
ATOM     19  C   LIG d   1      11.577   8.123  -2.554  0.00  0.00    -0.026 C 
ATOM     20  C   LIG d   1      11.177   9.502  -3.085  0.00  0.00    -0.045 C 
ATOM     21  C   LIG d   1       9.770   9.847  -2.593  0.00  0.00    -0.026 C 
ATOM     22  C   LIG d   1       9.756   9.868  -1.063  0.00  0.00     0.056 C 
ATOM     23  H   LIG d   1      10.460  10.618  -0.703  0.00  0.00     0.059 H 
ATOM     24  C   LIG d   1      10.118   8.483  -0.515  0.00  0.00    -0.023 C 
ATOM     25  H   LIG d   1       8.460   2.186  -3.419  0.00  0.00     0.027 H 
ATOM     26  H   LIG d   1       9.998   1.563  -4.079  0.00  0.00     0.027 H 
ATOM     27  H   LIG d   1       9.839   2.990  -1.696  0.00  0.00     0.027 H 
ATOM     28  H   LIG d   1      11.298   2.999  -2.740  0.00  0.00     0.027 H 
ATOM     29  H   LIG d   1       9.594   5.997  -6.198  0.00  0.00     0.027 H 
ATOM     30  H   LIG d   1       8.565   6.160  -4.748  0.00  0.00     0.027 H 
ATOM     31  H   LIG d   1      11.512   6.948  -4.976  0.00  0.00     0.027 H 
ATOM     32  H   LIG d   1      10.137   8.070  -4.900  0.00  0.00     0.027 H 
ATOM     33  H   LIG d   1      11.906   6.775   0.635  0.00  0.00     0.029 H 
ATOM     34  H   LIG d   1      12.936   6.518  -0.795  0.00  0.00     0.029 H 
ATOM     35  H   LIG d   1      11.883  10.249  -2.724  0.00  0.00     0.027 H 
ATOM     36  H   LIG d   1      11.188   9.488  -4.176  0.00  0.00     0.027 H 
ATOM     37  H   LIG d   1       9.484  10.828  -2.972  0.00  0.00     0.029 H 
ATOM     38  H   LIG d   1       9.065   9.099  -2.953  0.00  0.00     0.029 H 
ATOM     39  H   LIG d   1       9.420   7.732  -0.885  0.00  0.00     0.029 H 
ATOM     40  H   LIG d   1      10.093   8.494   0.575  0.00  0.00     0.029 H 
ENDROOT
BRANCH   1  41
ATOM     41  C   LIG d   1       9.941   2.796  -6.240  0.00  0.00    -0.040 C 
ATOM     42  H   LIG d   1      10.962   3.156  -6.364  0.00  0.00     0.030 H 
BRANCH  41  43
ATOM     43  C   LIG d   1       9.111   3.181  -7.465  0.00  0.00    -0.062 C 
ATOM     44  H   LIG d   1       8.286   3.825  -7.158  0.00  0.00     0.023 H 
ATOM     45  H   LIG d   1       9.740   3.713  -8.179  0.00  0.00     0.023 H 
ATOM     46  H   LIG d   1       8.713   2.280  -7.933  0.00  0.00     0.023 H 
ENDBRANCH  41  43
BRANCH  41  47
ATOM     47  C   LIG d   1       9.954   1.272  -6.091  0.00  0.00    -0.042 C 
ATOM     48  H   LIG d   1      10.927   0.887  -6.394  0.00  0.00     0.027 H 
ATOM     49  H   LIG d   1       9.767   1.008  -5.051  0.00  0.00     0.027 H 
BRANCH  47  50
ATOM     50  C   LIG d   1       8.864   0.664  -6.976  0.00  0.00     0.024 C 
ATOM     51  H   LIG d   1       8.064   1.390  -7.118  0.00  0.00     0.036 H 
ATOM     52  H   LIG d   1       9.290   0.397  -7.944  0.00  0.00     0.036 H 
BRANCH  50  53
ATOM     53  C   LIG d   1       8.311  -0.571  -6.313  0.00  0.00     0.213 C 
ATOM     54  O   LIG d   1       8.345  -1.636  -6.891  0.00  0.00    -0.276 OA
ATOM     55  N   LIG d   1       7.779  -0.492  -5.078  0.00  0.00    -0.315 N 
ATOM     56  H   LIG d   1       7.752   0.361  -4.615  0.00  0.00     0.149 HD
BRANCH  55  57
ATOM     57  C   LIG d   1       7.241  -1.692  -4.432  0.00  0.00     0.016 C 
ATOM     58  H   LIG d   1       7.553  -2.574  -4.989  0.00  0.00     0.046 H 
ATOM     59  H   LIG d   1       7.618  -1.754  -3.411  0.00  0.00     0.046 H 
BRANCH  57  60
ATOM     60  C   LIG d   1       5.713  -1.617  -4.408  0.00  0.00    -0.012 C 
ATOM     61  H   LIG d   1       5.359  -1.737  -3.384  0.00  0.00     0.033 H 
ATOM     62  H   LIG d   1       5.391  -0.647  -4.791  0.00  0.00     0.033 H 
BRANCH  60  63
ATOM     63  C   LIG d   1       5.143  -2.712  -5.270  0.00  0.00    -0.042 A 
ATOM     64  C   LIG d   1       4.741  -2.431  -6.563  0.00  0.00    -0.013 A 
ATOM     65  C   LIG d   1       4.220  -3.438  -7.361  0.00  0.00     0.162 A 
ATOM     66  H   LIG d   1       4.837  -1.429  -6.953  0.00  0.00     0.066 H 
ATOM     67  C   LIG d   1       4.094  -4.728  -6.853  0.00  0.00     0.162 A 
ATOM     68  C   LIG d   1       4.493  -5.001  -5.555  0.00  0.00    -0.016 A 
ATOM     69  C   LIG d   1       5.017  -3.993  -4.767  0.00  0.00    -0.055 A 
ATOM     70  H   LIG d   1       4.397  -6.001  -5.159  0.00  0.00     0.066 H 
ATOM     71  H   LIG d   1       5.329  -4.207  -3.755  0.00  0.00     0.062 H 
BRANCH  65  72
ATOM     72  O   LIG d   1       3.830  -3.166  -8.634  0.00  0.00    -0.491 OA
BRANCH  72  73
ATOM     73  C   LIG d   1       3.102  -1.954  -8.845  0.00  0.00     0.079 C 
ATOM     74  H   LIG d   1       3.796  -1.114  -8.880  0.00  0.00     0.066 H 
ATOM     75  H   LIG d   1       2.557  -2.016  -9.788  0.00  0.00     0.066 H 
ATOM     76  H   LIG d   1       2.396  -1.808  -8.027  0.00  0.00     0.066 H 
ENDBRANCH  72  73
ENDBRANCH  65  72
BRANCH  67  77
ATOM     77  O   LIG d   1       3.579  -5.719  -7.630  0.00  0.00    -0.491 OA
BRANCH  77  78
ATOM     78  C   LIG d   1       4.381  -6.888  -7.806  0.00  0.00     0.079 C 
ATOM     79  H   LIG d   1       3.989  -7.477  -8.634  0.00  0.00     0.066 H 
ATOM     80  H   LIG d   1       5.409  -6.595  -8.022  0.00  0.00     0.066 H 
ATOM     81  H   LIG d   1       4.358  -7.484  -6.893  0.00  0.00     0.066 H 
ENDBRANCH  77  78
ENDBRANCH  67  77
ENDBRANCH  60  63
ENDBRANCH  57  60
ENDBRANCH  55  57
ENDBRANCH  50  53
ENDBRANCH  47  50
ENDBRANCH  41  47
ENDBRANCH   1  41
BRANCH   7  82
ATOM     82  C   LIG d   1      11.577   4.511  -4.976  0.00  0.00    -0.059 C 
ATOM     83  H   LIG d   1      11.713   3.562  -5.493  0.00  0.00     0.024 H 
ATOM     84  H   LIG d   1      11.870   5.329  -5.635  0.00  0.00     0.024 H 
ATOM     85  H   LIG d   1      12.195   4.528  -4.078  0.00  0.00     0.024 H 
ENDBRANCH   7  82
BRANCH  14  86
ATOM     86  O   LIG d   1      11.316   4.426  -0.473  0.00  0.00    -0.392 OA
ATOM     87  H   LIG d   1      10.586   3.793  -0.434  0.00  0.00     0.210 HD
ENDBRANCH  14  86
BRANCH  19  88
ATOM     88  C   LIG d   1      12.980   7.765  -3.052  0.00  0.00    -0.059 C 
ATOM     89  H   LIG d   1      12.968   6.763  -3.479  0.00  0.00     0.024 H 
ATOM     90  H   LIG d   1      13.288   8.481  -3.813  0.00  0.00     0.024 H 
ATOM     91  H   LIG d   1      13.680   7.797  -2.218  0.00  0.00     0.024 H 
ENDBRANCH  19  88
BRANCH  22  92
ATOM     92  O   LIG d   1       8.441  10.188  -0.603  0.00  0.00    -0.392 OA
ATOM     93  H   LIG d   1       7.759   9.573  -0.904  0.00  0.00     0.210 HD
ENDBRANCH  22  92
TORSDOF 16
ENDMDL
