MODEL 1
REMARK VINA RESULT:      -7.0      0.000      0.000
REMARK  10 active torsions:
REMARK  status: ('A' for Active; 'I' for Inactive)
REMARK    1  A    between atoms: C_1  and  C_2 
REMARK    2  A    between atoms: C_3  and  C_25 
REMARK    3  A    between atoms: C_5  and  C_6 
REMARK    4  A    between atoms: C_10  and  O_12 
REMARK    5  A    between atoms: O_12  and  C_13 
REMARK    6  A    between atoms: N_16  and  C_17 
REMARK    7  A    between atoms: C_17  and  C_18 
REMARK    8  A    between atoms: C_18  and  C_19 
REMARK    9  A    between atoms: C_25  and  O_27 
REMARK   10  A    between atoms: O_27  and  C_28 
ROOT
ATOM      1  C   LIG d   1       4.743  -4.221  -6.369  0.00  0.00     0.025 A 
ATOM      2  C   LIG d   1       4.261  -4.038  -7.627  0.00  0.00     0.088 A 
ATOM      3  C   LIG d   1       4.112  -2.571  -7.807  0.00  0.00     0.053 A 
ATOM      4  C   LIG d   1       3.668  -1.904  -8.911  0.00  0.00    -0.042 C 
ATOM      5  C   LIG d   1       4.556  -1.997  -6.522  0.00  0.00     0.252 A 
ATOM      6  O   LIG d   1       4.597  -0.816  -6.233  0.00  0.00    -0.270 OA
ATOM      7  N   LIG d   1       4.906  -3.029  -5.733  0.00  0.00    -0.270 N 
ATOM      8  H   LIG d   1       3.257  -2.455  -9.745  0.00  0.00     0.063 H 
ENDROOT
BRANCH   2   9
ATOM      9  C   LIG d   1       3.955  -5.081  -8.612  0.00  0.00     0.341 C 
ATOM     10  O   LIG d   1       4.839  -5.534  -9.312  0.00  0.00    -0.245 OA
BRANCH   9  11
ATOM     11  O   LIG d   1       2.693  -5.538  -8.741  0.00  0.00    -0.464 OA
BRANCH  11  12
ATOM     12  C   LIG d   1       2.017  -5.264  -9.997  0.00  0.00     0.082 C 
ATOM     13  H   LIG d   1       1.830  -4.194 -10.084  0.00  0.00     0.066 H 
ATOM     14  H   LIG d   1       2.644  -5.593 -10.826  0.00  0.00     0.066 H 
ATOM     15  H   LIG d   1       1.070  -5.802 -10.023  0.00  0.00     0.066 H 
ENDBRANCH  11  12
ENDBRANCH   9  11
ENDBRANCH   2   9
BRANCH   4  16
ATOM     16  C   LIG d   1       3.746  -0.440  -8.965  0.00  0.00    -0.021 A 
ATOM     17  C   LIG d   1       4.971   0.190  -9.214  0.00  0.00    -0.013 A 
ATOM     18  C   LIG d   1       5.035   1.572  -9.266  0.00  0.00     0.121 A 
ATOM     19  H   LIG d   1       5.863  -0.399  -9.368  0.00  0.00     0.066 H 
ATOM     20  C   LIG d   1       3.888   2.329  -9.063  0.00  0.00    -0.020 A 
ATOM     21  C   LIG d   1       2.677   1.710  -8.812  0.00  0.00    -0.058 A 
ATOM     22  H   LIG d   1       3.943   3.407  -9.101  0.00  0.00     0.065 H 
ATOM     23  C   LIG d   1       2.597   0.335  -8.761  0.00  0.00    -0.054 A 
ATOM     24  H   LIG d   1       1.790   2.306  -8.654  0.00  0.00     0.062 H 
ATOM     25  H   LIG d   1       1.649  -0.145  -8.565  0.00  0.00     0.062 H 
BRANCH  18  26
ATOM     26  O   LIG d   1       6.221   2.188  -9.512  0.00  0.00    -0.495 OA
BRANCH  26  27
ATOM     27  C   LIG d   1       7.302   1.888  -8.627  0.00  0.00     0.079 C 
ATOM     28  H   LIG d   1       7.268   2.562  -7.771  0.00  0.00     0.066 H 
ATOM     29  H   LIG d   1       7.216   0.858  -8.282  0.00  0.00     0.066 H 
ATOM     30  H   LIG d   1       8.249   2.018  -9.153  0.00  0.00     0.066 H 
ENDBRANCH  26  27
ENDBRANCH  18  26
ENDBRANCH   4  16
BRANCH   1  31
ATOM     31  C   LIG d   1       5.050  -5.563  -5.759  0.00  0.00    -0.025 C 
ATOM     32  H   LIG d   1       6.001  -5.930  -6.145  0.00  0.00     0.029 H 
ATOM     33  H   LIG d   1       5.113  -5.463  -4.675  0.00  0.00     0.029 H 
ATOM     34  H   LIG d   1       4.259  -6.268  -6.013  0.00  0.00     0.029 H 
ENDBRANCH   1  31
BRANCH   7  35
ATOM     35  C   LIG d   1       5.405  -2.888  -4.363  0.00  0.00     0.024 C 
ATOM     36  H   LIG d   1       5.997  -1.975  -4.285  0.00  0.00     0.047 H 
ATOM     37  H   LIG d   1       6.027  -3.746  -4.112  0.00  0.00     0.047 H 
BRANCH  35  38
ATOM     38  C   LIG d   1       4.223  -2.814  -3.395  0.00  0.00    -0.011 C 
ATOM     39  H   LIG d   1       3.321  -3.166  -3.894  0.00  0.00     0.033 H 
ATOM     40  H   LIG d   1       4.426  -3.439  -2.526  0.00  0.00     0.033 H 
BRANCH  38  41
ATOM     41  C   LIG d   1       4.026  -1.386  -2.951  0.00  0.00    -0.046 A 
ATOM     42  C   LIG d   1       2.945  -0.662  -3.417  0.00  0.00    -0.059 A 
ATOM     43  C   LIG d   1       2.764   0.647  -3.011  0.00  0.00    -0.061 A 
ATOM     44  H   LIG d   1       2.242  -1.118  -4.099  0.00  0.00     0.062 H 
ATOM     45  C   LIG d   1       3.663   1.232  -2.139  0.00  0.00    -0.062 A 
ATOM     46  H   LIG d   1       1.919   1.214  -3.376  0.00  0.00     0.062 H 
ATOM     47  C   LIG d   1       4.744   0.506  -1.673  0.00  0.00    -0.061 A 
ATOM     48  H   LIG d   1       3.522   2.254  -1.822  0.00  0.00     0.062 H 
ATOM     49  C   LIG d   1       4.923  -0.805  -2.076  0.00  0.00    -0.059 A 
ATOM     50  H   LIG d   1       5.447   0.962  -0.991  0.00  0.00     0.062 H 
ATOM     51  H   LIG d   1       5.765  -1.372  -1.709  0.00  0.00     0.062 H 
ENDBRANCH  38  41
ENDBRANCH  35  38
ENDBRANCH   7  35
TORSDOF 10
ENDMDL
MODEL 2
REMARK VINA RESULT:      -6.9      1.863      5.380
REMARK  10 active torsions:
REMARK  status: ('A' for Active; 'I' for Inactive)
REMARK    1  A    between atoms: C_1  and  C_2 
REMARK    2  A    between atoms: C_3  and  C_25 
REMARK    3  A    between atoms: C_5  and  C_6 
REMARK    4  A    between atoms: C_10  and  O_12 
REMARK    5  A    between atoms: O_12  and  C_13 
REMARK    6  A    between atoms: N_16  and  C_17 
REMARK    7  A    between atoms: C_17  and  C_18 
REMARK    8  A    between atoms: C_18  and  C_19 
REMARK    9  A    between atoms: C_25  and  O_27 
REMARK   10  A    between atoms: O_27  and  C_28 
ROOT
ATOM      1  C   LIG d   1       4.388  -4.092  -7.284  0.00  0.00     0.025 A 
ATOM      2  C   LIG d   1       4.964  -4.379  -6.087  0.00  0.00     0.088 A 
ATOM      3  C   LIG d   1       5.007  -3.102  -5.329  0.00  0.00     0.053 A 
ATOM      4  C   LIG d   1       5.492  -2.892  -4.071  0.00  0.00    -0.042 C 
ATOM      5  C   LIG d   1       4.405  -2.112  -6.243  0.00  0.00     0.252 A 
ATOM      6  O   LIG d   1       4.241  -0.927  -6.021  0.00  0.00    -0.270 OA
ATOM      7  N   LIG d   1       4.072  -2.771  -7.368  0.00  0.00    -0.270 N 
ATOM      8  H   LIG d   1       6.020  -3.682  -3.557  0.00  0.00     0.063 H 
ENDROOT
BRANCH   2   9
ATOM      9  C   LIG d   1       5.441  -5.689  -5.631  0.00  0.00     0.341 C 
ATOM     10  O   LIG d   1       6.632  -5.927  -5.605  0.00  0.00    -0.245 OA
BRANCH   9  11
ATOM     11  O   LIG d   1       4.557  -6.629  -5.240  0.00  0.00    -0.464 OA
BRANCH  11  12
ATOM     12  C   LIG d   1       4.952  -8.017  -5.408  0.00  0.00     0.082 C 
ATOM     13  H   LIG d   1       5.938  -8.060  -5.873  0.00  0.00     0.066 H 
ATOM     14  H   LIG d   1       4.987  -8.505  -4.434  0.00  0.00     0.066 H 
ATOM     15  H   LIG d   1       4.228  -8.525  -6.044  0.00  0.00     0.066 H 
ENDBRANCH  11  12
ENDBRANCH   9  11
ENDBRANCH   2   9
BRANCH   4  16
ATOM     16  C   LIG d   1       5.299  -1.591  -3.418  0.00  0.00    -0.021 A 
ATOM     17  C   LIG d   1       6.160  -0.526  -3.706  0.00  0.00    -0.013 A 
ATOM     18  C   LIG d   1       5.968   0.698  -3.088  0.00  0.00     0.121 A 
ATOM     19  H   LIG d   1       6.968  -0.655  -4.410  0.00  0.00     0.066 H 
ATOM     20  C   LIG d   1       4.931   0.863  -2.178  0.00  0.00    -0.020 A 
ATOM     21  C   LIG d   1       4.082  -0.190  -1.888  0.00  0.00    -0.058 A 
ATOM     22  H   LIG d   1       4.787   1.818  -1.695  0.00  0.00     0.065 H 
ATOM     23  C   LIG d   1       4.258  -1.413  -2.499  0.00  0.00    -0.054 A 
ATOM     24  H   LIG d   1       3.278  -0.053  -1.179  0.00  0.00     0.062 H 
ATOM     25  H   LIG d   1       3.592  -2.233  -2.270  0.00  0.00     0.062 H 
BRANCH  18  26
ATOM     26  O   LIG d   1       6.798   1.737  -3.367  0.00  0.00    -0.495 OA
BRANCH  26  27
ATOM     27  C   LIG d   1       8.083   1.414  -3.902  0.00  0.00     0.079 C 
ATOM     28  H   LIG d   1       8.322   2.102  -4.713  0.00  0.00     0.066 H 
ATOM     29  H   LIG d   1       8.836   1.500  -3.119  0.00  0.00     0.066 H 
ATOM     30  H   LIG d   1       8.072   0.392  -4.283  0.00  0.00     0.066 H 
ENDBRANCH  26  27
ENDBRANCH  18  26
ENDBRANCH   4  16
BRANCH   1  31
ATOM     31  C   LIG d   1       4.139  -5.100  -8.376  0.00  0.00    -0.025 C 
ATOM     32  H   LIG d   1       3.896  -4.581  -9.303  0.00  0.00     0.029 H 
ATOM     33  H   LIG d   1       5.033  -5.705  -8.521  0.00  0.00     0.029 H 
ATOM     34  H   LIG d   1       3.306  -5.744  -8.092  0.00  0.00     0.029 H 
ENDBRANCH   1  31
BRANCH   7  35
ATOM     35  C   LIG d   1       3.443  -2.147  -8.533  0.00  0.00     0.024 C 
ATOM     36  H   LIG d   1       2.690  -1.432  -8.200  0.00  0.00     0.047 H 
ATOM     37  H   LIG d   1       2.968  -2.913  -9.145  0.00  0.00     0.047 H 
BRANCH  35  38
ATOM     38  C   LIG d   1       4.506  -1.420  -9.359  0.00  0.00    -0.011 C 
ATOM     39  H   LIG d   1       5.495  -1.656  -8.967  0.00  0.00     0.033 H 
ATOM     40  H   LIG d   1       4.441  -1.741 -10.398  0.00  0.00     0.033 H 
BRANCH  38  41
ATOM     41  C   LIG d   1       4.276   0.068  -9.277  0.00  0.00    -0.046 A 
ATOM     42  C   LIG d   1       5.348   0.937  -9.341  0.00  0.00    -0.059 A 
ATOM     43  C   LIG d   1       5.137   2.301  -9.267  0.00  0.00    -0.061 A 
ATOM     44  H   LIG d   1       6.351   0.551  -9.450  0.00  0.00     0.062 H 
ATOM     45  C   LIG d   1       3.854   2.796  -9.127  0.00  0.00    -0.062 A 
ATOM     46  H   LIG d   1       5.975   2.981  -9.316  0.00  0.00     0.062 H 
ATOM     47  C   LIG d   1       2.781   1.926  -9.064  0.00  0.00    -0.061 A 
ATOM     48  H   LIG d   1       3.689   3.862  -9.068  0.00  0.00     0.062 H 
ATOM     49  C   LIG d   1       2.992   0.562  -9.143  0.00  0.00    -0.059 A 
ATOM     50  H   LIG d   1       1.778   2.312  -8.955  0.00  0.00     0.062 H 
ATOM     51  H   LIG d   1       2.154  -0.118  -9.097  0.00  0.00     0.062 H 
ENDBRANCH  38  41
ENDBRANCH  35  38
ENDBRANCH   7  35
TORSDOF 10
ENDMDL
MODEL 3
REMARK VINA RESULT:      -6.5      3.267      7.844
REMARK  10 active torsions:
REMARK  status: ('A' for Active; 'I' for Inactive)
REMARK    1  A    between atoms: C_1  and  C_2 
REMARK    2  A    between atoms: C_3  and  C_25 
REMARK    3  A    between atoms: C_5  and  C_6 
REMARK    4  A    between atoms: C_10  and  O_12 
REMARK    5  A    between atoms: O_12  and  C_13 
REMARK    6  A    between atoms: N_16  and  C_17 
REMARK    7  A    between atoms: C_17  and  C_18 
REMARK    8  A    between atoms: C_18  and  C_19 
REMARK    9  A    between atoms: C_25  and  O_27 
REMARK   10  A    between atoms: O_27  and  C_28 
ROOT
ATOM      1  C   LIG d   1       8.897   1.652  -6.057  0.00  0.00     0.025 A 
ATOM      2  C   LIG d   1       8.716   1.726  -4.712  0.00  0.00     0.088 A 
ATOM      3  C   LIG d   1       7.381   1.135  -4.438  0.00  0.00     0.053 A 
ATOM      4  C   LIG d   1       6.765   0.984  -3.230  0.00  0.00    -0.042 C 
ATOM      5  C   LIG d   1       6.871   0.748  -5.767  0.00  0.00     0.252 A 
ATOM      6  O   LIG d   1       5.801   0.223  -6.008  0.00  0.00    -0.270 OA
ATOM      7  N   LIG d   1       7.818   1.087  -6.662  0.00  0.00    -0.270 N 
ATOM      8  H   LIG d   1       7.199   1.423  -2.344  0.00  0.00     0.063 H 
ENDROOT
BRANCH   2   9
ATOM      9  C   LIG d   1       9.655   2.272  -3.726  0.00  0.00     0.341 C 
ATOM     10  O   LIG d   1      10.738   1.745  -3.560  0.00  0.00    -0.245 OA
BRANCH   9  11
ATOM     11  O   LIG d   1       9.318   3.360  -3.005  0.00  0.00    -0.464 OA
BRANCH  11  12
ATOM     12  C   LIG d   1       9.875   4.632  -3.430  0.00  0.00     0.082 C 
ATOM     13  H   LIG d   1      10.934   4.670  -3.171  0.00  0.00     0.066 H 
ATOM     14  H   LIG d   1       9.761   4.738  -4.508  0.00  0.00     0.066 H 
ATOM     15  H   LIG d   1       9.349   5.444  -2.928  0.00  0.00     0.066 H 
ENDBRANCH  11  12
ENDBRANCH   9  11
ENDBRANCH   2   9
BRANCH   4  16
ATOM     16  C   LIG d   1       5.512   0.225  -3.136  0.00  0.00    -0.021 A 
ATOM     17  C   LIG d   1       5.503  -1.151  -3.391  0.00  0.00    -0.013 A 
ATOM     18  C   LIG d   1       4.317  -1.859  -3.297  0.00  0.00     0.121 A 
ATOM     19  H   LIG d   1       6.417  -1.660  -3.658  0.00  0.00     0.066 H 
ATOM     20  C   LIG d   1       3.141  -1.203  -2.958  0.00  0.00    -0.020 A 
ATOM     21  C   LIG d   1       3.145   0.157  -2.709  0.00  0.00    -0.058 A 
ATOM     22  H   LIG d   1       2.217  -1.759  -2.889  0.00  0.00     0.065 H 
ATOM     23  C   LIG d   1       4.319   0.875  -2.796  0.00  0.00    -0.054 A 
ATOM     24  H   LIG d   1       2.226   0.660  -2.447  0.00  0.00     0.062 H 
ATOM     25  H   LIG d   1       4.319   1.938  -2.600  0.00  0.00     0.062 H 
BRANCH  18  26
ATOM     26  O   LIG d   1       4.304  -3.196  -3.540  0.00  0.00    -0.495 OA
BRANCH  26  27
ATOM     27  C   LIG d   1       4.999  -3.650  -4.703  0.00  0.00     0.079 C 
ATOM     28  H   LIG d   1       4.336  -3.598  -5.566  0.00  0.00     0.066 H 
ATOM     29  H   LIG d   1       5.871  -3.020  -4.875  0.00  0.00     0.066 H 
ATOM     30  H   LIG d   1       5.321  -4.682  -4.554  0.00  0.00     0.066 H 
ENDBRANCH  26  27
ENDBRANCH  18  26
ENDBRANCH   4  16
BRANCH   1  31
ATOM     31  C   LIG d   1      10.127   2.135  -6.782  0.00  0.00    -0.025 C 
ATOM     32  H   LIG d   1      10.152   3.224  -6.770  0.00  0.00     0.029 H 
ATOM     33  H   LIG d   1      11.016   1.746  -6.286  0.00  0.00     0.029 H 
ATOM     34  H   LIG d   1      10.102   1.783  -7.813  0.00  0.00     0.029 H 
ENDBRANCH   1  31
BRANCH   7  35
ATOM     35  C   LIG d   1       7.702   0.871  -8.106  0.00  0.00     0.024 C 
ATOM     36  H   LIG d   1       7.122  -0.034  -8.293  0.00  0.00     0.047 H 
ATOM     37  H   LIG d   1       8.696   0.760  -8.538  0.00  0.00     0.047 H 
BRANCH  35  38
ATOM     38  C   LIG d   1       6.998   2.069  -8.747  0.00  0.00    -0.011 C 
ATOM     39  H   LIG d   1       6.914   2.874  -8.018  0.00  0.00     0.033 H 
ATOM     40  H   LIG d   1       7.575   2.413  -9.605  0.00  0.00     0.033 H 
BRANCH  38  41
ATOM     41  C   LIG d   1       5.620   1.658  -9.202  0.00  0.00    -0.046 A 
ATOM     42  C   LIG d   1       5.386   0.357  -9.606  0.00  0.00    -0.059 A 
ATOM     43  C   LIG d   1       4.123  -0.020 -10.023  0.00  0.00    -0.061 A 
ATOM     44  H   LIG d   1       6.189  -0.365  -9.597  0.00  0.00     0.062 H 
ATOM     45  C   LIG d   1       3.095   0.904 -10.036  0.00  0.00    -0.062 A 
ATOM     46  H   LIG d   1       3.940  -1.036 -10.340  0.00  0.00     0.062 H 
ATOM     47  C   LIG d   1       3.329   2.204  -9.630  0.00  0.00    -0.061 A 
ATOM     48  H   LIG d   1       2.108   0.609 -10.361  0.00  0.00     0.062 H 
ATOM     49  C   LIG d   1       4.592   2.580  -9.209  0.00  0.00    -0.059 A 
ATOM     50  H   LIG d   1       2.526   2.926  -9.639  0.00  0.00     0.062 H 
ATOM     51  H   LIG d   1       4.774   3.596  -8.890  0.00  0.00     0.062 H 
ENDBRANCH  38  41
ENDBRANCH  35  38
ENDBRANCH   7  35
TORSDOF 10
ENDMDL
MODEL 4
REMARK VINA RESULT:      -6.4      2.718      5.844
REMARK  10 active torsions:
REMARK  status: ('A' for Active; 'I' for Inactive)
REMARK    1  A    between atoms: C_1  and  C_2 
REMARK    2  A    between atoms: C_3  and  C_25 
REMARK    3  A    between atoms: C_5  and  C_6 
REMARK    4  A    between atoms: C_10  and  O_12 
REMARK    5  A    between atoms: O_12  and  C_13 
REMARK    6  A    between atoms: N_16  and  C_17 
REMARK    7  A    between atoms: C_17  and  C_18 
REMARK    8  A    between atoms: C_18  and  C_19 
REMARK    9  A    between atoms: C_25  and  O_27 
REMARK   10  A    between atoms: O_27  and  C_28 
ROOT
ATOM      1  C   LIG d   1       8.892   1.888  -6.715  0.00  0.00     0.025 A 
ATOM      2  C   LIG d   1       8.523   2.356  -7.937  0.00  0.00     0.088 A 
ATOM      3  C   LIG d   1       7.180   1.782  -8.214  0.00  0.00     0.053 A 
ATOM      4  C   LIG d   1       6.401   1.972  -9.317  0.00  0.00    -0.042 C 
ATOM      5  C   LIG d   1       6.880   0.962  -7.025  0.00  0.00     0.252 A 
ATOM      6  O   LIG d   1       5.872   0.309  -6.832  0.00  0.00    -0.270 OA
ATOM      7  N   LIG d   1       7.934   1.074  -6.196  0.00  0.00    -0.270 N 
ATOM      8  H   LIG d   1       6.796   2.502 -10.172  0.00  0.00     0.063 H 
ENDROOT
BRANCH   2   9
ATOM      9  C   LIG d   1       9.291   3.254  -8.805  0.00  0.00     0.341 C 
ATOM     10  O   LIG d   1       9.186   4.459  -8.679  0.00  0.00    -0.245 OA
BRANCH   9  11
ATOM     11  O   LIG d   1      10.116   2.744  -9.742  0.00  0.00    -0.464 OA
BRANCH  11  12
ATOM     12  C   LIG d   1      10.258   3.496 -10.976  0.00  0.00     0.082 C 
ATOM     13  H   LIG d   1      11.235   3.294 -11.415  0.00  0.00     0.066 H 
ATOM     14  H   LIG d   1       9.476   3.197 -11.675  0.00  0.00     0.066 H 
ATOM     15  H   LIG d   1      10.168   4.561 -10.765  0.00  0.00     0.066 H 
ENDBRANCH  11  12
ENDBRANCH   9  11
ENDBRANCH   2   9
BRANCH   4  16
ATOM     16  C   LIG d   1       5.027   1.456  -9.343  0.00  0.00    -0.021 A 
ATOM     17  C   LIG d   1       4.767   0.177  -9.850  0.00  0.00    -0.013 A 
ATOM     18  C   LIG d   1       3.469  -0.303  -9.868  0.00  0.00     0.121 A 
ATOM     19  H   LIG d   1       5.575  -0.434 -10.224  0.00  0.00     0.066 H 
ATOM     20  C   LIG d   1       2.429   0.486  -9.392  0.00  0.00    -0.020 A 
ATOM     21  C   LIG d   1       2.682   1.752  -8.895  0.00  0.00    -0.058 A 
ATOM     22  H   LIG d   1       1.417   0.109  -9.412  0.00  0.00     0.065 H 
ATOM     23  C   LIG d   1       3.971   2.241  -8.867  0.00  0.00    -0.054 A 
ATOM     24  H   LIG d   1       1.868   2.358  -8.528  0.00  0.00     0.062 H 
ATOM     25  H   LIG d   1       4.165   3.231  -8.478  0.00  0.00     0.062 H 
BRANCH  18  26
ATOM     26  O   LIG d   1       3.211  -1.545 -10.356  0.00  0.00    -0.495 OA
BRANCH  26  27
ATOM     27  C   LIG d   1       2.045  -2.206  -9.861  0.00  0.00     0.079 C 
ATOM     28  H   LIG d   1       1.586  -1.598  -9.082  0.00  0.00     0.066 H 
ATOM     29  H   LIG d   1       1.335  -2.350 -10.675  0.00  0.00     0.066 H 
ATOM     30  H   LIG d   1       2.325  -3.176  -9.448  0.00  0.00     0.066 H 
ENDBRANCH  26  27
ENDBRANCH  18  26
ENDBRANCH   4  16
BRANCH   1  31
ATOM     31  C   LIG d   1      10.192   2.221  -6.030  0.00  0.00    -0.025 C 
ATOM     32  H   LIG d   1      10.798   2.849  -6.684  0.00  0.00     0.029 H 
ATOM     33  H   LIG d   1       9.987   2.755  -5.103  0.00  0.00     0.029 H 
ATOM     34  H   LIG d   1      10.732   1.301  -5.808  0.00  0.00     0.029 H 
ENDBRANCH   1  31
BRANCH   7  35
ATOM     35  C   LIG d   1       8.034   0.408  -4.895  0.00  0.00     0.024 C 
ATOM     36  H   LIG d   1       9.085   0.262  -4.642  0.00  0.00     0.047 H 
ATOM     37  H   LIG d   1       7.535  -0.559  -4.942  0.00  0.00     0.047 H 
BRANCH  35  38
ATOM     38  C   LIG d   1       7.368   1.276  -3.825  0.00  0.00    -0.011 C 
ATOM     39  H   LIG d   1       8.103   1.548  -3.068  0.00  0.00     0.033 H 
ATOM     40  H   LIG d   1       6.969   2.179  -4.287  0.00  0.00     0.033 H 
BRANCH  38  41
ATOM     41  C   LIG d   1       6.245   0.504  -3.181  0.00  0.00    -0.046 A 
ATOM     42  C   LIG d   1       5.258   1.173  -2.483  0.00  0.00    -0.059 A 
ATOM     43  C   LIG d   1       4.228   0.466  -1.892  0.00  0.00    -0.061 A 
ATOM     44  H   LIG d   1       5.290   2.250  -2.400  0.00  0.00     0.062 H 
ATOM     45  C   LIG d   1       4.186  -0.912  -1.998  0.00  0.00    -0.062 A 
ATOM     46  H   LIG d   1       3.456   0.989  -1.346  0.00  0.00     0.062 H 
ATOM     47  C   LIG d   1       5.173  -1.582  -2.696  0.00  0.00    -0.061 A 
ATOM     48  H   LIG d   1       3.381  -1.465  -1.536  0.00  0.00     0.062 H 
ATOM     49  C   LIG d   1       6.200  -0.873  -3.292  0.00  0.00    -0.059 A 
ATOM     50  H   LIG d   1       5.140  -2.658  -2.780  0.00  0.00     0.062 H 
ATOM     51  H   LIG d   1       6.970  -1.396  -3.840  0.00  0.00     0.062 H 
ENDBRANCH  38  41
ENDBRANCH  35  38
ENDBRANCH   7  35
TORSDOF 10
ENDMDL
MODEL 5
REMARK VINA RESULT:      -6.3      2.290      6.095
REMARK  10 active torsions:
REMARK  status: ('A' for Active; 'I' for Inactive)
REMARK    1  A    between atoms: C_1  and  C_2 
REMARK    2  A    between atoms: C_3  and  C_25 
REMARK    3  A    between atoms: C_5  and  C_6 
REMARK    4  A    between atoms: C_10  and  O_12 
REMARK    5  A    between atoms: O_12  and  C_13 
REMARK    6  A    between atoms: N_16  and  C_17 
REMARK    7  A    between atoms: C_17  and  C_18 
REMARK    8  A    between atoms: C_18  and  C_19 
REMARK    9  A    between atoms: C_25  and  O_27 
REMARK   10  A    between atoms: O_27  and  C_28 
ROOT
ATOM      1  C   LIG d   1       4.352  -3.781  -7.424  0.00  0.00     0.025 A 
ATOM      2  C   LIG d   1       4.645  -4.108  -6.137  0.00  0.00     0.088 A 
ATOM      3  C   LIG d   1       4.742  -2.826  -5.393  0.00  0.00     0.053 A 
ATOM      4  C   LIG d   1       5.013  -2.646  -4.068  0.00  0.00    -0.042 C 
ATOM      5  C   LIG d   1       4.479  -1.791  -6.411  0.00  0.00     0.252 A 
ATOM      6  O   LIG d   1       4.460  -0.588  -6.232  0.00  0.00    -0.270 OA
ATOM      7  N   LIG d   1       4.263  -2.432  -7.574  0.00  0.00    -0.270 N 
ATOM      8  H   LIG d   1       5.308  -3.487  -3.459  0.00  0.00     0.063 H 
ENDROOT
BRANCH   2   9
ATOM      9  C   LIG d   1       4.822  -5.458  -5.591  0.00  0.00     0.341 C 
ATOM     10  O   LIG d   1       3.925  -5.982  -4.961  0.00  0.00    -0.245 OA
BRANCH   9  11
ATOM     11  O   LIG d   1       5.981  -6.118  -5.788  0.00  0.00    -0.464 OA
BRANCH  11  12
ATOM     12  C   LIG d   1       5.905  -7.394  -6.477  0.00  0.00     0.082 C 
ATOM     13  H   LIG d   1       5.241  -8.064  -5.929  0.00  0.00     0.066 H 
ATOM     14  H   LIG d   1       5.518  -7.241  -7.484  0.00  0.00     0.066 H 
ATOM     15  H   LIG d   1       6.900  -7.836  -6.533  0.00  0.00     0.066 H 
ENDBRANCH  11  12
ENDBRANCH   9  11
ENDBRANCH   2   9
BRANCH   4  16
ATOM     16  C   LIG d   1       4.904  -1.309  -3.472  0.00  0.00    -0.021 A 
ATOM     17  C   LIG d   1       5.970  -0.408  -3.568  0.00  0.00    -0.013 A 
ATOM     18  C   LIG d   1       5.858   0.852  -3.006  0.00  0.00     0.121 A 
ATOM     19  H   LIG d   1       6.877  -0.692  -4.082  0.00  0.00     0.066 H 
ATOM     20  C   LIG d   1       4.693   1.215  -2.341  0.00  0.00    -0.020 A 
ATOM     21  C   LIG d   1       3.639   0.325  -2.240  0.00  0.00    -0.058 A 
ATOM     22  H   LIG d   1       4.611   2.197  -1.900  0.00  0.00     0.065 H 
ATOM     23  C   LIG d   1       3.735  -0.932  -2.799  0.00  0.00    -0.054 A 
ATOM     24  H   LIG d   1       2.737   0.615  -1.721  0.00  0.00     0.062 H 
ATOM     25  H   LIG d   1       2.909  -1.624  -2.719  0.00  0.00     0.062 H 
BRANCH  18  26
ATOM     26  O   LIG d   1       6.889   1.732  -3.100  0.00  0.00    -0.495 OA
BRANCH  26  27
ATOM     27  C   LIG d   1       7.974   1.370  -3.956  0.00  0.00     0.079 C 
ATOM     28  H   LIG d   1       8.862   1.935  -3.675  0.00  0.00     0.066 H 
ATOM     29  H   LIG d   1       8.175   0.303  -3.858  0.00  0.00     0.066 H 
ATOM     30  H   LIG d   1       7.711   1.596  -4.991  0.00  0.00     0.066 H 
ENDBRANCH  26  27
ENDBRANCH  18  26
ENDBRANCH   4  16
BRANCH   1  31
ATOM     31  C   LIG d   1       4.157  -4.779  -8.536  0.00  0.00    -0.025 C 
ATOM     32  H   LIG d   1       3.729  -5.696  -8.131  0.00  0.00     0.029 H 
ATOM     33  H   LIG d   1       3.482  -4.362  -9.283  0.00  0.00     0.029 H 
ATOM     34  H   LIG d   1       5.118  -5.000  -8.998  0.00  0.00     0.029 H 
ENDBRANCH   1  31
BRANCH   7  35
ATOM     35  C   LIG d   1       3.964  -1.762  -8.842  0.00  0.00     0.024 C 
ATOM     36  H   LIG d   1       4.090  -2.468  -9.664  0.00  0.00     0.047 H 
ATOM     37  H   LIG d   1       4.643  -0.922  -8.979  0.00  0.00     0.047 H 
BRANCH  35  38
ATOM     38  C   LIG d   1       2.521  -1.254  -8.823  0.00  0.00    -0.011 C 
ATOM     39  H   LIG d   1       2.019  -1.616  -7.925  0.00  0.00     0.033 H 
ATOM     40  H   LIG d   1       2.519  -0.165  -8.826  0.00  0.00     0.033 H 
BRANCH  38  41
ATOM     41  C   LIG d   1       1.793  -1.761 -10.042  0.00  0.00    -0.046 A 
ATOM     42  C   LIG d   1       1.437  -3.093 -10.130  0.00  0.00    -0.059 A 
ATOM     43  C   LIG d   1       0.770  -3.558 -11.248  0.00  0.00    -0.061 A 
ATOM     44  H   LIG d   1       1.680  -3.772  -9.325  0.00  0.00     0.062 H 
ATOM     45  C   LIG d   1       0.459  -2.691 -12.278  0.00  0.00    -0.062 A 
ATOM     46  H   LIG d   1       0.492  -4.600 -11.317  0.00  0.00     0.062 H 
ATOM     47  C   LIG d   1       0.815  -1.357 -12.190  0.00  0.00    -0.061 A 
ATOM     48  H   LIG d   1      -0.062  -3.054 -13.152  0.00  0.00     0.062 H 
ATOM     49  C   LIG d   1       1.478  -0.892 -11.069  0.00  0.00    -0.059 A 
ATOM     50  H   LIG d   1       0.572  -0.679 -12.994  0.00  0.00     0.062 H 
ATOM     51  H   LIG d   1       1.753   0.150 -10.999  0.00  0.00     0.062 H 
ENDBRANCH  38  41
ENDBRANCH  35  38
ENDBRANCH   7  35
TORSDOF 10
ENDMDL
MODEL 6
REMARK VINA RESULT:      -6.3      3.872      7.261
REMARK  10 active torsions:
REMARK  status: ('A' for Active; 'I' for Inactive)
REMARK    1  A    between atoms: C_1  and  C_2 
REMARK    2  A    between atoms: C_3  and  C_25 
REMARK    3  A    between atoms: C_5  and  C_6 
REMARK    4  A    between atoms: C_10  and  O_12 
REMARK    5  A    between atoms: O_12  and  C_13 
REMARK    6  A    between atoms: N_16  and  C_17 
REMARK    7  A    between atoms: C_17  and  C_18 
REMARK    8  A    between atoms: C_18  and  C_19 
REMARK    9  A    between atoms: C_25  and  O_27 
REMARK   10  A    between atoms: O_27  and  C_28 
ROOT
ATOM      1  C   LIG d   1       7.124  -3.323  -4.593  0.00  0.00     0.025 A 
ATOM      2  C   LIG d   1       7.926  -4.415  -4.700  0.00  0.00     0.088 A 
ATOM      3  C   LIG d   1       7.053  -5.529  -5.153  0.00  0.00     0.053 A 
ATOM      4  C   LIG d   1       7.410  -6.821  -5.406  0.00  0.00    -0.042 C 
ATOM      5  C   LIG d   1       5.714  -4.922  -5.267  0.00  0.00     0.252 A 
ATOM      6  O   LIG d   1       4.691  -5.484  -5.611  0.00  0.00    -0.270 OA
ATOM      7  N   LIG d   1       5.840  -3.628  -4.918  0.00  0.00    -0.270 N 
ATOM      8  H   LIG d   1       8.405  -7.164  -5.163  0.00  0.00     0.063 H 
ENDROOT
BRANCH   2   9
ATOM      9  C   LIG d   1       9.367  -4.480  -4.431  0.00  0.00     0.341 C 
ATOM     10  O   LIG d   1      10.157  -4.498  -5.354  0.00  0.00    -0.245 OA
BRANCH   9  11
ATOM     11  O   LIG d   1       9.814  -4.517  -3.160  0.00  0.00    -0.464 OA
BRANCH  11  12
ATOM     12  C   LIG d   1      10.029  -5.829  -2.575  0.00  0.00     0.082 C 
ATOM     13  H   LIG d   1       9.484  -5.901  -1.633  0.00  0.00     0.066 H 
ATOM     14  H   LIG d   1       9.671  -6.596  -3.261  0.00  0.00     0.066 H 
ATOM     15  H   LIG d   1      11.093  -5.974  -2.390  0.00  0.00     0.066 H 
ENDBRANCH  11  12
ENDBRANCH   9  11
ENDBRANCH   2   9
BRANCH   4  16
ATOM     16  C   LIG d   1       6.441  -7.746  -6.007  0.00  0.00    -0.021 A 
ATOM     17  C   LIG d   1       5.632  -8.544  -5.190  0.00  0.00    -0.013 A 
ATOM     18  C   LIG d   1       4.719  -9.411  -5.765  0.00  0.00     0.121 A 
ATOM     19  H   LIG d   1       5.718  -8.484  -4.116  0.00  0.00     0.066 H 
ATOM     20  C   LIG d   1       4.613  -9.492  -7.148  0.00  0.00    -0.020 A 
ATOM     21  C   LIG d   1       5.414  -8.708  -7.958  0.00  0.00    -0.058 A 
ATOM     22  H   LIG d   1       3.902 -10.173  -7.593  0.00  0.00     0.065 H 
ATOM     23  C   LIG d   1       6.325  -7.837  -7.399  0.00  0.00    -0.054 A 
ATOM     24  H   LIG d   1       5.326  -8.778  -9.032  0.00  0.00     0.062 H 
ATOM     25  H   LIG d   1       6.949  -7.225  -8.035  0.00  0.00     0.062 H 
BRANCH  18  26
ATOM     26  O   LIG d   1       3.929 -10.186  -4.977  0.00  0.00    -0.495 OA
BRANCH  26  27
ATOM     27  C   LIG d   1       3.955  -9.920  -3.573  0.00  0.00     0.079 C 
ATOM     28  H   LIG d   1       4.985  -9.769  -3.251  0.00  0.00     0.066 H 
ATOM     29  H   LIG d   1       3.372  -9.024  -3.361  0.00  0.00     0.066 H 
ATOM     30  H   LIG d   1       3.526 -10.767  -3.035  0.00  0.00     0.066 H 
ENDBRANCH  26  27
ENDBRANCH  18  26
ENDBRANCH   4  16
BRANCH   1  31
ATOM     31  C   LIG d   1       7.595  -1.957  -4.164  0.00  0.00    -0.025 C 
ATOM     32  H   LIG d   1       8.435  -1.649  -4.786  0.00  0.00     0.029 H 
ATOM     33  H   LIG d   1       6.780  -1.242  -4.274  0.00  0.00     0.029 H 
ATOM     34  H   LIG d   1       7.909  -1.992  -3.121  0.00  0.00     0.029 H 
ENDBRANCH   1  31
BRANCH   7  35
ATOM     35  C   LIG d   1       4.733  -2.668  -4.898  0.00  0.00     0.024 C 
ATOM     36  H   LIG d   1       3.953  -2.999  -5.584  0.00  0.00     0.047 H 
ATOM     37  H   LIG d   1       5.096  -1.689  -5.208  0.00  0.00     0.047 H 
BRANCH  35  38
ATOM     38  C   LIG d   1       4.163  -2.577  -3.481  0.00  0.00    -0.011 C 
ATOM     39  H   LIG d   1       3.186  -3.059  -3.451  0.00  0.00     0.033 H 
ATOM     40  H   LIG d   1       4.837  -3.077  -2.786  0.00  0.00     0.033 H 
BRANCH  38  41
ATOM     41  C   LIG d   1       4.021  -1.128  -3.089  0.00  0.00    -0.046 A 
ATOM     42  C   LIG d   1       4.626  -0.662  -1.938  0.00  0.00    -0.059 A 
ATOM     43  C   LIG d   1       4.496   0.667  -1.579  0.00  0.00    -0.061 A 
ATOM     44  H   LIG d   1       5.202  -1.334  -1.319  0.00  0.00     0.062 H 
ATOM     45  C   LIG d   1       3.759   1.528  -2.370  0.00  0.00    -0.062 A 
ATOM     46  H   LIG d   1       4.969   1.032  -0.678  0.00  0.00     0.062 H 
ATOM     47  C   LIG d   1       3.154   1.061  -3.522  0.00  0.00    -0.061 A 
ATOM     48  H   LIG d   1       3.657   2.566  -2.089  0.00  0.00     0.062 H 
ATOM     49  C   LIG d   1       3.288  -0.267  -3.884  0.00  0.00    -0.059 A 
ATOM     50  H   LIG d   1       2.579   1.734  -4.141  0.00  0.00     0.062 H 
ATOM     51  H   LIG d   1       2.818  -0.630  -4.785  0.00  0.00     0.062 H 
ENDBRANCH  38  41
ENDBRANCH  35  38
ENDBRANCH   7  35
TORSDOF 10
ENDMDL
MODEL 7
REMARK VINA RESULT:      -6.2      2.293      5.445
REMARK  10 active torsions:
REMARK  status: ('A' for Active; 'I' for Inactive)
REMARK    1  A    between atoms: C_1  and  C_2 
REMARK    2  A    between atoms: C_3  and  C_25 
REMARK    3  A    between atoms: C_5  and  C_6 
REMARK    4  A    between atoms: C_10  and  O_12 
REMARK    5  A    between atoms: O_12  and  C_13 
REMARK    6  A    between atoms: N_16  and  C_17 
REMARK    7  A    between atoms: C_17  and  C_18 
REMARK    8  A    between atoms: C_18  and  C_19 
REMARK    9  A    between atoms: C_25  and  O_27 
REMARK   10  A    between atoms: O_27  and  C_28 
ROOT
ATOM      1  C   LIG d   1       2.968  -1.126  -8.520  0.00  0.00     0.025 A 
ATOM      2  C   LIG d   1       2.967  -2.319  -9.172  0.00  0.00     0.088 A 
ATOM      3  C   LIG d   1       3.879  -3.211  -8.410  0.00  0.00     0.053 A 
ATOM      4  C   LIG d   1       4.193  -4.511  -8.678  0.00  0.00    -0.042 C 
ATOM      5  C   LIG d   1       4.367  -2.373  -7.298  0.00  0.00     0.252 A 
ATOM      6  O   LIG d   1       5.143  -2.710  -6.424  0.00  0.00    -0.270 OA
ATOM      7  N   LIG d   1       3.789  -1.166  -7.436  0.00  0.00    -0.270 N 
ATOM      8  H   LIG d   1       3.859  -4.969  -9.597  0.00  0.00     0.063 H 
ENDROOT
BRANCH   2   9
ATOM      9  C   LIG d   1       2.210  -2.660 -10.381  0.00  0.00     0.341 C 
ATOM     10  O   LIG d   1       2.748  -2.611 -11.469  0.00  0.00    -0.245 OA
BRANCH   9  11
ATOM     11  O   LIG d   1       0.916  -3.029 -10.285  0.00  0.00    -0.464 OA
BRANCH  11  12
ATOM     12  C   LIG d   1       0.562  -4.335 -10.812  0.00  0.00     0.082 C 
ATOM     13  H   LIG d   1      -0.497  -4.523 -10.635  0.00  0.00     0.066 H 
ATOM     14  H   LIG d   1       0.763  -4.362 -11.883  0.00  0.00     0.066 H 
ATOM     15  H   LIG d   1       1.155  -5.101 -10.312  0.00  0.00     0.066 H 
ENDBRANCH  11  12
ENDBRANCH   9  11
ENDBRANCH   2   9
BRANCH   4  16
ATOM     16  C   LIG d   1       4.987  -5.287  -7.717  0.00  0.00    -0.021 A 
ATOM     17  C   LIG d   1       4.348  -6.060  -6.741  0.00  0.00    -0.013 A 
ATOM     18  C   LIG d   1       5.105  -6.791  -5.841  0.00  0.00     0.121 A 
ATOM     19  H   LIG d   1       3.270  -6.090  -6.691  0.00  0.00     0.066 H 
ATOM     20  C   LIG d   1       6.492  -6.748  -5.902  0.00  0.00    -0.020 A 
ATOM     21  C   LIG d   1       7.126  -5.981  -6.863  0.00  0.00    -0.058 A 
ATOM     22  H   LIG d   1       7.079  -7.316  -5.196  0.00  0.00     0.065 H 
ATOM     23  C   LIG d   1       6.386  -5.251  -7.768  0.00  0.00    -0.054 A 
ATOM     24  H   LIG d   1       8.205  -5.953  -6.903  0.00  0.00     0.062 H 
ATOM     25  H   LIG d   1       6.884  -4.653  -8.518  0.00  0.00     0.062 H 
BRANCH  18  26
ATOM     26  O   LIG d   1       4.490  -7.546  -4.893  0.00  0.00    -0.495 OA
BRANCH  26  27
ATOM     27  C   LIG d   1       4.769  -8.948  -4.901  0.00  0.00     0.079 C 
ATOM     28  H   LIG d   1       3.833  -9.505  -4.868  0.00  0.00     0.066 H 
ATOM     29  H   LIG d   1       5.314  -9.206  -5.808  0.00  0.00     0.066 H 
ATOM     30  H   LIG d   1       5.374  -9.202  -4.029  0.00  0.00     0.066 H 
ENDBRANCH  26  27
ENDBRANCH  18  26
ENDBRANCH   4  16
BRANCH   1  31
ATOM     31  C   LIG d   1       2.172   0.080  -8.944  0.00  0.00    -0.025 C 
ATOM     32  H   LIG d   1       2.360   0.902  -8.254  0.00  0.00     0.029 H 
ATOM     33  H   LIG d   1       2.469   0.375  -9.950  0.00  0.00     0.029 H 
ATOM     34  H   LIG d   1       1.110  -0.164  -8.936  0.00  0.00     0.029 H 
ENDBRANCH   1  31
BRANCH   7  35
ATOM     35  C   LIG d   1       4.011  -0.037  -6.529  0.00  0.00     0.024 C 
ATOM     36  H   LIG d   1       4.054   0.888  -7.104  0.00  0.00     0.047 H 
ATOM     37  H   LIG d   1       4.952  -0.177  -5.998  0.00  0.00     0.047 H 
BRANCH  35  38
ATOM     38  C   LIG d   1       2.863   0.042  -5.521  0.00  0.00    -0.011 C 
ATOM     39  H   LIG d   1       2.377   1.015  -5.598  0.00  0.00     0.033 H 
ATOM     40  H   LIG d   1       2.138  -0.744  -5.734  0.00  0.00     0.033 H 
BRANCH  38  41
ATOM     41  C   LIG d   1       3.405  -0.139  -4.126  0.00  0.00    -0.046 A 
ATOM     42  C   LIG d   1       3.577  -1.410  -3.612  0.00  0.00    -0.059 A 
ATOM     43  C   LIG d   1       4.074  -1.576  -2.333  0.00  0.00    -0.061 A 
ATOM     44  H   LIG d   1       3.323  -2.274  -4.209  0.00  0.00     0.062 H 
ATOM     45  C   LIG d   1       4.398  -0.471  -1.568  0.00  0.00    -0.062 A 
ATOM     46  H   LIG d   1       4.208  -2.570  -1.930  0.00  0.00     0.062 H 
ATOM     47  C   LIG d   1       4.226   0.800  -2.083  0.00  0.00    -0.061 A 
ATOM     48  H   LIG d   1       4.786  -0.601  -0.568  0.00  0.00     0.062 H 
ATOM     49  C   LIG d   1       3.733   0.966  -3.364  0.00  0.00    -0.059 A 
ATOM     50  H   LIG d   1       4.480   1.664  -1.486  0.00  0.00     0.062 H 
ATOM     51  H   LIG d   1       3.602   1.959  -3.767  0.00  0.00     0.062 H 
ENDBRANCH  38  41
ENDBRANCH  35  38
ENDBRANCH   7  35
TORSDOF 10
ENDMDL
MODEL 8
REMARK VINA RESULT:      -6.1      2.521      4.648
REMARK  10 active torsions:
REMARK  status: ('A' for Active; 'I' for Inactive)
REMARK    1  A    between atoms: C_1  and  C_2 
REMARK    2  A    between atoms: C_3  and  C_25 
REMARK    3  A    between atoms: C_5  and  C_6 
REMARK    4  A    between atoms: C_10  and  O_12 
REMARK    5  A    between atoms: O_12  and  C_13 
REMARK    6  A    between atoms: N_16  and  C_17 
REMARK    7  A    between atoms: C_17  and  C_18 
REMARK    8  A    between atoms: C_18  and  C_19 
REMARK    9  A    between atoms: C_25  and  O_27 
REMARK   10  A    between atoms: O_27  and  C_28 
ROOT
ATOM      1  C   LIG d   1       5.061  -0.668  -6.695  0.00  0.00     0.025 A 
ATOM      2  C   LIG d   1       5.403  -1.628  -7.595  0.00  0.00     0.088 A 
ATOM      3  C   LIG d   1       4.228  -1.799  -8.487  0.00  0.00     0.053 A 
ATOM      4  C   LIG d   1       4.100  -2.648  -9.548  0.00  0.00    -0.042 C 
ATOM      5  C   LIG d   1       3.231  -0.843  -7.969  0.00  0.00     0.252 A 
ATOM      6  O   LIG d   1       2.113  -0.653  -8.409  0.00  0.00    -0.270 OA
ATOM      7  N   LIG d   1       3.796  -0.222  -6.917  0.00  0.00    -0.270 N 
ATOM      8  H   LIG d   1       4.865  -3.385  -9.745  0.00  0.00     0.063 H 
ENDROOT
BRANCH   2   9
ATOM      9  C   LIG d   1       6.680  -2.346  -7.673  0.00  0.00     0.341 C 
ATOM     10  O   LIG d   1       7.595  -1.890  -8.331  0.00  0.00    -0.245 OA
BRANCH   9  11
ATOM     11  O   LIG d   1       6.840  -3.512  -7.015  0.00  0.00    -0.464 OA
BRANCH  11  12
ATOM     12  C   LIG d   1       7.766  -3.517  -5.897  0.00  0.00     0.082 C 
ATOM     13  H   LIG d   1       8.737  -3.883  -6.230  0.00  0.00     0.066 H 
ATOM     14  H   LIG d   1       7.872  -2.504  -5.508  0.00  0.00     0.066 H 
ATOM     15  H   LIG d   1       7.382  -4.168  -5.112  0.00  0.00     0.066 H 
ENDBRANCH  11  12
ENDBRANCH   9  11
ENDBRANCH   2   9
BRANCH   4  16
ATOM     16  C   LIG d   1       2.922  -2.561 -10.419  0.00  0.00    -0.021 A 
ATOM     17  C   LIG d   1       1.843  -3.432 -10.230  0.00  0.00    -0.013 A 
ATOM     18  C   LIG d   1       0.735  -3.340 -11.055  0.00  0.00     0.121 A 
ATOM     19  H   LIG d   1       1.872  -4.170  -9.443  0.00  0.00     0.066 H 
ATOM     20  C   LIG d   1       0.700  -2.393 -12.071  0.00  0.00    -0.020 A 
ATOM     21  C   LIG d   1       1.767  -1.534 -12.263  0.00  0.00    -0.058 A 
ATOM     22  H   LIG d   1      -0.165  -2.328 -12.715  0.00  0.00     0.065 H 
ATOM     23  C   LIG d   1       2.875  -1.611 -11.447  0.00  0.00    -0.054 A 
ATOM     24  H   LIG d   1       1.732  -0.801 -13.055  0.00  0.00     0.062 H 
ATOM     25  H   LIG d   1       3.707  -0.938 -11.600  0.00  0.00     0.062 H 
BRANCH  18  26
ATOM     26  O   LIG d   1      -0.318  -4.181 -10.874  0.00  0.00    -0.495 OA
BRANCH  26  27
ATOM     27  C   LIG d   1      -0.015  -5.528 -10.506  0.00  0.00     0.079 C 
ATOM     28  H   LIG d   1       1.012  -5.584 -10.147  0.00  0.00     0.066 H 
ATOM     29  H   LIG d   1      -0.694  -5.851  -9.717  0.00  0.00     0.066 H 
ATOM     30  H   LIG d   1      -0.133  -6.177 -11.375  0.00  0.00     0.066 H 
ENDBRANCH  26  27
ENDBRANCH  18  26
ENDBRANCH   4  16
BRANCH   1  31
ATOM     31  C   LIG d   1       5.962  -0.169  -5.595  0.00  0.00    -0.025 C 
ATOM     32  H   LIG d   1       5.360   0.115  -4.732  0.00  0.00     0.029 H 
ATOM     33  H   LIG d   1       6.657  -0.958  -5.309  0.00  0.00     0.029 H 
ATOM     34  H   LIG d   1       6.520   0.698  -5.948  0.00  0.00     0.029 H 
ENDBRANCH   1  31
BRANCH   7  35
ATOM     35  C   LIG d   1       3.132   0.809  -6.115  0.00  0.00     0.024 C 
ATOM     36  H   LIG d   1       2.517   1.433  -6.764  0.00  0.00     0.047 H 
ATOM     37  H   LIG d   1       3.883   1.426  -5.623  0.00  0.00     0.047 H 
BRANCH  35  38
ATOM     38  C   LIG d   1       2.247   0.143  -5.059  0.00  0.00    -0.011 C 
ATOM     39  H   LIG d   1       1.397   0.788  -4.838  0.00  0.00     0.033 H 
ATOM     40  H   LIG d   1       1.889  -0.814  -5.437  0.00  0.00     0.033 H 
BRANCH  38  41
ATOM     41  C   LIG d   1       3.047  -0.082  -3.802  0.00  0.00    -0.046 A 
ATOM     42  C   LIG d   1       3.534   0.999  -3.091  0.00  0.00    -0.059 A 
ATOM     43  C   LIG d   1       4.268   0.793  -1.938  0.00  0.00    -0.061 A 
ATOM     44  H   LIG d   1       3.342   2.004  -3.436  0.00  0.00     0.062 H 
ATOM     45  C   LIG d   1       4.515  -0.493  -1.495  0.00  0.00    -0.062 A 
ATOM     46  H   LIG d   1       4.649   1.638  -1.382  0.00  0.00     0.062 H 
ATOM     47  C   LIG d   1       4.027  -1.574  -2.206  0.00  0.00    -0.061 A 
ATOM     48  H   LIG d   1       5.088  -0.654  -0.594  0.00  0.00     0.062 H 
ATOM     49  C   LIG d   1       3.289  -1.368  -3.357  0.00  0.00    -0.059 A 
ATOM     50  H   LIG d   1       4.220  -2.579  -1.861  0.00  0.00     0.062 H 
ATOM     51  H   LIG d   1       2.906  -2.212  -3.911  0.00  0.00     0.062 H 
ENDBRANCH  38  41
ENDBRANCH  35  38
ENDBRANCH   7  35
TORSDOF 10
ENDMDL
MODEL 9
REMARK VINA RESULT:      -6.1      5.785      8.962
REMARK  10 active torsions:
REMARK  status: ('A' for Active; 'I' for Inactive)
REMARK    1  A    between atoms: C_1  and  C_2 
REMARK    2  A    between atoms: C_3  and  C_25 
REMARK    3  A    between atoms: C_5  and  C_6 
REMARK    4  A    between atoms: C_10  and  O_12 
REMARK    5  A    between atoms: O_12  and  C_13 
REMARK    6  A    between atoms: N_16  and  C_17 
REMARK    7  A    between atoms: C_17  and  C_18 
REMARK    8  A    between atoms: C_18  and  C_19 
REMARK    9  A    between atoms: C_25  and  O_27 
REMARK   10  A    between atoms: O_27  and  C_28 
ROOT
ATOM      1  C   LIG d   1       8.908   2.275  -6.148  0.00  0.00     0.025 A 
ATOM      2  C   LIG d   1       9.598   3.424  -6.372  0.00  0.00     0.088 A 
ATOM      3  C   LIG d   1       9.897   3.998  -5.034  0.00  0.00     0.053 A 
ATOM      4  C   LIG d   1      10.577   5.145  -4.749  0.00  0.00    -0.042 C 
ATOM      5  C   LIG d   1       9.292   3.045  -4.084  0.00  0.00     0.252 A 
ATOM      6  O   LIG d   1       9.301   3.129  -2.870  0.00  0.00    -0.270 OA
ATOM      7  N   LIG d   1       8.730   2.066  -4.816  0.00  0.00    -0.270 N 
ATOM      8  H   LIG d   1      10.861   5.816  -5.546  0.00  0.00     0.063 H 
ENDROOT
BRANCH   2   9
ATOM      9  C   LIG d   1       9.980   3.983  -7.673  0.00  0.00     0.341 C 
ATOM     10  O   LIG d   1      10.985   3.591  -8.232  0.00  0.00    -0.245 OA
BRANCH   9  11
ATOM     11  O   LIG d   1       9.213   4.930  -8.251  0.00  0.00    -0.464 OA
BRANCH  11  12
ATOM     12  C   LIG d   1       9.730   6.287  -8.251  0.00  0.00     0.082 C 
ATOM     13  H   LIG d   1       9.043   6.938  -7.710  0.00  0.00     0.066 H 
ATOM     14  H   LIG d   1      10.706   6.304  -7.766  0.00  0.00     0.066 H 
ATOM     15  H   LIG d   1       9.829   6.637  -9.278  0.00  0.00     0.066 H 
ENDBRANCH  11  12
ENDBRANCH   9  11
ENDBRANCH   2   9
BRANCH   4  16
ATOM     16  C   LIG d   1      10.919   5.469  -3.359  0.00  0.00    -0.021 A 
ATOM     17  C   LIG d   1      10.044   6.234  -2.579  0.00  0.00    -0.013 A 
ATOM     18  C   LIG d   1      10.375   6.532  -1.268  0.00  0.00     0.121 A 
ATOM     19  H   LIG d   1       9.114   6.588  -2.997  0.00  0.00     0.066 H 
ATOM     20  C   LIG d   1      11.574   6.079  -0.733  0.00  0.00    -0.020 A 
ATOM     21  C   LIG d   1      12.443   5.327  -1.503  0.00  0.00    -0.058 A 
ATOM     22  H   LIG d   1      11.830   6.317   0.289  0.00  0.00     0.065 H 
ATOM     23  C   LIG d   1      12.126   5.019  -2.808  0.00  0.00    -0.054 A 
ATOM     24  H   LIG d   1      13.374   4.980  -1.079  0.00  0.00     0.062 H 
ATOM     25  H   LIG d   1      12.808   4.431  -3.406  0.00  0.00     0.062 H 
BRANCH  18  26
ATOM     26  O   LIG d   1       9.527   7.271  -0.506  0.00  0.00    -0.495 OA
BRANCH  26  27
ATOM     27  C   LIG d   1       9.300   8.622  -0.912  0.00  0.00     0.079 C 
ATOM     28  H   LIG d   1       9.594   9.297  -0.109  0.00  0.00     0.066 H 
ATOM     29  H   LIG d   1       9.889   8.838  -1.803  0.00  0.00     0.066 H 
ATOM     30  H   LIG d   1       8.241   8.761  -1.135  0.00  0.00     0.066 H 
ENDBRANCH  26  27
ENDBRANCH  18  26
ENDBRANCH   4  16
BRANCH   1  31
ATOM     31  C   LIG d   1       8.402   1.357  -7.231  0.00  0.00    -0.025 C 
ATOM     32  H   LIG d   1       9.190   1.193  -7.966  0.00  0.00     0.029 H 
ATOM     33  H   LIG d   1       8.110   0.404  -6.791  0.00  0.00     0.029 H 
ATOM     34  H   LIG d   1       7.540   1.812  -7.718  0.00  0.00     0.029 H 
ENDBRANCH   1  31
BRANCH   7  35
ATOM     35  C   LIG d   1       8.020   0.916  -4.249  0.00  0.00     0.024 C 
ATOM     36  H   LIG d   1       8.670   0.403  -3.539  0.00  0.00     0.047 H 
ATOM     37  H   LIG d   1       7.743   0.230  -5.048  0.00  0.00     0.047 H 
BRANCH  35  38
ATOM     38  C   LIG d   1       6.759   1.399  -3.530  0.00  0.00    -0.011 C 
ATOM     39  H   LIG d   1       7.041   1.944  -2.629  0.00  0.00     0.033 H 
ATOM     40  H   LIG d   1       6.193   2.055  -4.191  0.00  0.00     0.033 H 
BRANCH  38  41
ATOM     41  C   LIG d   1       5.911   0.211  -3.153  0.00  0.00    -0.046 A 
ATOM     42  C   LIG d   1       4.909   0.350  -2.210  0.00  0.00    -0.059 A 
ATOM     43  C   LIG d   1       4.131  -0.739  -1.864  0.00  0.00    -0.061 A 
ATOM     44  H   LIG d   1       4.735   1.308  -1.744  0.00  0.00     0.062 H 
ATOM     45  C   LIG d   1       4.354  -1.966  -2.460  0.00  0.00    -0.062 A 
ATOM     46  H   LIG d   1       3.349  -0.632  -1.126  0.00  0.00     0.062 H 
ATOM     47  C   LIG d   1       5.355  -2.104  -3.404  0.00  0.00    -0.061 A 
ATOM     48  H   LIG d   1       3.746  -2.817  -2.190  0.00  0.00     0.062 H 
ATOM     49  C   LIG d   1       6.131  -1.014  -3.753  0.00  0.00    -0.059 A 
ATOM     50  H   LIG d   1       5.529  -3.062  -3.870  0.00  0.00     0.062 H 
ATOM     51  H   LIG d   1       6.911  -1.121  -4.492  0.00  0.00     0.062 H 
ENDBRANCH  38  41
ENDBRANCH  35  38
ENDBRANCH   7  35
TORSDOF 10
ENDMDL
MODEL 10
REMARK VINA RESULT:      -6.0      2.680      5.521
REMARK  10 active torsions:
REMARK  status: ('A' for Active; 'I' for Inactive)
REMARK    1  A    between atoms: C_1  and  C_2 
REMARK    2  A    between atoms: C_3  and  C_25 
REMARK    3  A    between atoms: C_5  and  C_6 
REMARK    4  A    between atoms: C_10  and  O_12 
REMARK    5  A    between atoms: O_12  and  C_13 
REMARK    6  A    between atoms: N_16  and  C_17 
REMARK    7  A    between atoms: C_17  and  C_18 
REMARK    8  A    between atoms: C_18  and  C_19 
REMARK    9  A    between atoms: C_25  and  O_27 
REMARK   10  A    between atoms: O_27  and  C_28 
ROOT
ATOM      1  C   LIG d   1       4.685  -1.857  -4.517  0.00  0.00     0.025 A 
ATOM      2  C   LIG d   1       3.877  -0.795  -4.775  0.00  0.00     0.088 A 
ATOM      3  C   LIG d   1       3.834  -0.654  -6.253  0.00  0.00     0.053 A 
ATOM      4  C   LIG d   1       3.147   0.269  -6.986  0.00  0.00    -0.042 C 
ATOM      5  C   LIG d   1       4.702  -1.738  -6.750  0.00  0.00     0.252 A 
ATOM      6  O   LIG d   1       4.951  -1.990  -7.914  0.00  0.00    -0.270 OA
ATOM      7  N   LIG d   1       5.164  -2.395  -5.671  0.00  0.00    -0.270 N 
ATOM      8  H   LIG d   1       2.645   1.087  -6.489  0.00  0.00     0.063 H 
ENDROOT
BRANCH   2   9
ATOM      9  C   LIG d   1       3.179   0.040  -3.791  0.00  0.00     0.341 C 
ATOM     10  O   LIG d   1       2.185  -0.380  -3.233  0.00  0.00    -0.245 OA
BRANCH   9  11
ATOM     11  O   LIG d   1       3.642   1.273  -3.504  0.00  0.00    -0.464 OA
BRANCH  11  12
ATOM     12  C   LIG d   1       4.830   1.356  -2.673  0.00  0.00     0.082 C 
ATOM     13  H   LIG d   1       5.709   1.485  -3.306  0.00  0.00     0.066 H 
ATOM     14  H   LIG d   1       4.742   2.205  -1.996  0.00  0.00     0.066 H 
ATOM     15  H   LIG d   1       4.932   0.438  -2.094  0.00  0.00     0.066 H 
ENDBRANCH  11  12
ENDBRANCH   9  11
ENDBRANCH   2   9
BRANCH   4  16
ATOM     16  C   LIG d   1       3.091   0.152  -8.448  0.00  0.00    -0.021 A 
ATOM     17  C   LIG d   1       2.198  -0.743  -9.047  0.00  0.00    -0.013 A 
ATOM     18  C   LIG d   1       2.151  -0.844 -10.427  0.00  0.00     0.121 A 
ATOM     19  H   LIG d   1       1.546  -1.350  -8.438  0.00  0.00     0.066 H 
ATOM     20  C   LIG d   1       2.993  -0.066 -11.211  0.00  0.00    -0.020 A 
ATOM     21  C   LIG d   1       3.881   0.816 -10.621  0.00  0.00    -0.058 A 
ATOM     22  H   LIG d   1       2.956  -0.152 -12.287  0.00  0.00     0.065 H 
ATOM     23  C   LIG d   1       3.936   0.930  -9.249  0.00  0.00    -0.054 A 
ATOM     24  H   LIG d   1       4.533   1.416 -11.238  0.00  0.00     0.062 H 
ATOM     25  H   LIG d   1       4.631   1.621  -8.791  0.00  0.00     0.062 H 
BRANCH  18  26
ATOM     26  O   LIG d   1       1.282  -1.709 -11.015  0.00  0.00    -0.495 OA
BRANCH  26  27
ATOM     27  C   LIG d   1       1.176  -3.012 -10.439  0.00  0.00     0.079 C 
ATOM     28  H   LIG d   1       1.782  -3.060  -9.534  0.00  0.00     0.066 H 
ATOM     29  H   LIG d   1       0.135  -3.217 -10.190  0.00  0.00     0.066 H 
ATOM     30  H   LIG d   1       1.531  -3.755 -11.154  0.00  0.00     0.066 H 
ENDBRANCH  26  27
ENDBRANCH  18  26
ENDBRANCH   4  16
BRANCH   1  31
ATOM     31  C   LIG d   1       5.011  -2.368  -3.137  0.00  0.00    -0.025 C 
ATOM     32  H   LIG d   1       4.827  -3.441  -3.093  0.00  0.00     0.029 H 
ATOM     33  H   LIG d   1       6.059  -2.169  -2.916  0.00  0.00     0.029 H 
ATOM     34  H   LIG d   1       4.383  -1.861  -2.405  0.00  0.00     0.029 H 
ENDBRANCH   1  31
BRANCH   7  35
ATOM     35  C   LIG d   1       6.066  -3.548  -5.730  0.00  0.00     0.024 C 
ATOM     36  H   LIG d   1       5.945  -4.054  -6.689  0.00  0.00     0.047 H 
ATOM     37  H   LIG d   1       5.826  -4.240  -4.924  0.00  0.00     0.047 H 
BRANCH  35  38
ATOM     38  C   LIG d   1       7.512  -3.073  -5.582  0.00  0.00    -0.011 C 
ATOM     39  H   LIG d   1       8.007  -3.106  -6.553  0.00  0.00     0.033 H 
ATOM     40  H   LIG d   1       7.522  -2.051  -5.204  0.00  0.00     0.033 H 
BRANCH  38  41
ATOM     41  C   LIG d   1       8.241  -3.973  -4.617  0.00  0.00    -0.046 A 
ATOM     42  C   LIG d   1       8.325  -5.330  -4.867  0.00  0.00    -0.059 A 
ATOM     43  C   LIG d   1       8.993  -6.155  -3.982  0.00  0.00    -0.061 A 
ATOM     44  H   LIG d   1       7.869  -5.745  -5.754  0.00  0.00     0.062 H 
ATOM     45  C   LIG d   1       9.575  -5.624  -2.846  0.00  0.00    -0.062 A 
ATOM     46  H   LIG d   1       9.058  -7.216  -4.177  0.00  0.00     0.062 H 
ATOM     47  C   LIG d   1       9.492  -4.267  -2.597  0.00  0.00    -0.061 A 
ATOM     48  H   LIG d   1      10.097  -6.269  -2.155  0.00  0.00     0.062 H 
ATOM     49  C   LIG d   1       8.827  -3.441  -3.485  0.00  0.00    -0.059 A 
ATOM     50  H   LIG d   1       9.947  -3.852  -1.710  0.00  0.00     0.062 H 
ATOM     51  H   LIG d   1       8.765  -2.380  -3.291  0.00  0.00     0.062 H 
ENDBRANCH  38  41
ENDBRANCH  35  38
ENDBRANCH   7  35
TORSDOF 10
ENDMDL
