MODEL 1
REMARK VINA RESULT:      -7.2      0.000      0.000
REMARK  5 active torsions:
REMARK  status: ('A' for Active; 'I' for Inactive)
REMARK    1  A    between atoms: C_1  and  C_2 
REMARK    2  A    between atoms: C_7  and  C_8 
REMARK    3  A    between atoms: C_7  and  N_54 
REMARK    4  A    between atoms: C_9  and  O_31 
REMARK    5  A    between atoms: C_18  and  C_19 
ROOT
ATOM      1  C   LIG d   1       4.877  -3.612  -5.924  0.00  0.00     0.081 A 
ATOM      2  C   LIG d   1       4.250  -4.825  -6.158  0.00  0.00     0.129 A 
ATOM      3  C   LIG d   1       3.621  -5.073  -7.374  0.00  0.00    -0.019 A 
ATOM      4  C   LIG d   1       3.615  -4.122  -8.355  0.00  0.00    -0.047 A 
ATOM      5  C   LIG d   1       4.237  -2.892  -8.133  0.00  0.00     0.026 A 
ATOM      6  C   LIG d   1       4.879  -2.637  -6.909  0.00  0.00     0.151 A 
ATOM      7  O   LIG d   1       5.486  -1.448  -6.701  0.00  0.00    -0.421 OA
ATOM      8  C   LIG d   1       5.504  -0.485  -7.636  0.00  0.00     0.338 A 
ATOM      9  O   LIG d   1       6.067   0.568  -7.391  0.00  0.00    -0.245 OA
ATOM     10  C   LIG d   1       4.894  -0.657  -8.888  0.00  0.00     0.032 A 
ATOM     11  C   LIG d   1       4.251  -1.850  -9.175  0.00  0.00     0.006 A 
ATOM     12  H   LIG d   1       3.137  -6.023  -7.545  0.00  0.00     0.065 H 
ATOM     13  H   LIG d   1       3.125  -4.319  -9.298  0.00  0.00     0.063 H 
ATOM     14  H   LIG d   1       4.924   0.135  -9.621  0.00  0.00     0.070 H 
ENDROOT
BRANCH   1  15
ATOM     15  C   LIG d   1       5.556  -3.353  -4.604  0.00  0.00     0.001 C 
ATOM     16  H   LIG d   1       5.287  -4.137  -3.896  0.00  0.00     0.087 H 
ATOM     17  H   LIG d   1       6.637  -3.347  -4.746  0.00  0.00     0.087 H 
BRANCH  15  18
ATOM     18  N   LIG d   1       5.137  -2.031  -4.095  0.00  0.00     0.239 N 
ATOM     19  C   LIG d   1       6.280  -1.354  -3.448  0.00  0.00    -0.031 C 
ATOM     20  C   LIG d   1       5.853   0.058  -3.037  0.00  0.00    -0.010 C 
ATOM     21  H   LIG d   1       6.604  -1.906  -2.566  0.00  0.00     0.081 H 
ATOM     22  H   LIG d   1       7.104  -1.290  -4.159  0.00  0.00     0.081 H 
ATOM     23  C   LIG d   1       4.684  -0.034  -2.054  0.00  0.00    -0.034 C 
ATOM     24  H   LIG d   1       6.691   0.567  -2.560  0.00  0.00     0.032 H 
ATOM     25  H   LIG d   1       5.543   0.616  -3.920  0.00  0.00     0.032 H 
ATOM     26  C   LIG d   1       3.534  -0.802  -2.710  0.00  0.00    -0.010 C 
ATOM     27  H   LIG d   1       5.005  -0.557  -1.153  0.00  0.00     0.030 H 
ATOM     28  C   LIG d   1       4.028  -2.188  -3.131  0.00  0.00    -0.031 C 
ATOM     29  H   LIG d   1       2.714  -0.908  -2.000  0.00  0.00     0.032 H 
ATOM     30  H   LIG d   1       3.188  -0.258  -3.588  0.00  0.00     0.032 H 
ATOM     31  H   LIG d   1       3.216  -2.733  -3.611  0.00  0.00     0.081 H 
ATOM     32  H   LIG d   1       4.362  -2.738  -2.250  0.00  0.00     0.081 H 
ATOM     33  H   LIG d   1       4.814  -1.458  -4.884  0.00  0.00     0.204 HD
BRANCH  23  34
ATOM     34  C   LIG d   1       4.213   1.374  -1.685  0.00  0.00    -0.062 C 
ATOM     35  H   LIG d   1       3.788   1.364  -0.681  0.00  0.00     0.023 H 
ATOM     36  H   LIG d   1       5.059   2.061  -1.714  0.00  0.00     0.023 H 
ATOM     37  H   LIG d   1       3.454   1.702  -2.396  0.00  0.00     0.023 H 
ENDBRANCH  23  34
ENDBRANCH  15  18
ENDBRANCH   1  15
BRANCH   2  38
ATOM     38  O   LIG d   1       4.249  -5.780  -5.192  0.00  0.00    -0.506 OA
ATOM     39  H   LIG d   1       4.964  -5.690  -4.548  0.00  0.00     0.292 HD
ENDBRANCH   2  38
BRANCH  11  40
ATOM     40  C   LIG d   1       3.597  -2.068 -10.480  0.00  0.00     0.068 A 
ATOM     41  C   LIG d   1       4.347  -2.643 -11.604  0.00  0.00     0.345 A 
ATOM     42  O   LIG d   1       3.744  -2.832 -12.789  0.00  0.00    -0.422 OA
ATOM     43  O   LIG d   1       5.517  -2.945 -11.462  0.00  0.00    -0.244 OA
ATOM     44  C   LIG d   1       2.446  -2.513 -12.978  0.00  0.00     0.139 A 
ATOM     45  C   LIG d   1       1.681  -1.959 -11.936  0.00  0.00     0.019 A 
ATOM     46  C   LIG d   1       1.853  -2.728 -14.217  0.00  0.00    -0.018 A 
ATOM     47  C   LIG d   1       2.270  -1.733 -10.665  0.00  0.00    -0.036 A 
ATOM     48  C   LIG d   1       0.335  -1.630 -12.159  0.00  0.00    -0.037 A 
ATOM     49  H   LIG d   1       1.691  -1.308  -9.858  0.00  0.00     0.063 H 
ATOM     50  C   LIG d   1      -0.225  -1.850 -13.385  0.00  0.00     0.019 A 
ATOM     51  H   LIG d   1      -0.256  -1.204 -11.362  0.00  0.00     0.064 H 
ATOM     52  C   LIG d   1       0.529  -2.398 -14.415  0.00  0.00    -0.044 A 
ATOM     53 BR   LIG d   1      -2.038  -1.406 -13.683  0.00  0.00    -0.050 Br
ATOM     54  H   LIG d   1       0.074  -2.565 -15.380  0.00  0.00     0.063 H 
ATOM     55  H   LIG d   1       2.430  -3.153 -15.026  0.00  0.00     0.066 H 
ENDBRANCH  11  40
TORSDOF 5
ENDMDL
MODEL 2
REMARK VINA RESULT:      -7.1      6.235     10.925
REMARK  5 active torsions:
REMARK  status: ('A' for Active; 'I' for Inactive)
REMARK    1  A    between atoms: C_1  and  C_2 
REMARK    2  A    between atoms: C_7  and  C_8 
REMARK    3  A    between atoms: C_7  and  N_54 
REMARK    4  A    between atoms: C_9  and  O_31 
REMARK    5  A    between atoms: C_18  and  C_19 
ROOT
ATOM      1  C   LIG d   1       7.328   0.425  -6.143  0.00  0.00     0.081 A 
ATOM      2  C   LIG d   1       6.691   0.119  -4.951  0.00  0.00     0.129 A 
ATOM      3  C   LIG d   1       6.995   0.820  -3.788  0.00  0.00    -0.019 A 
ATOM      4  C   LIG d   1       7.925   1.821  -3.808  0.00  0.00    -0.047 A 
ATOM      5  C   LIG d   1       8.579   2.137  -4.999  0.00  0.00     0.026 A 
ATOM      6  C   LIG d   1       8.274   1.437  -6.179  0.00  0.00     0.151 A 
ATOM      7  O   LIG d   1       8.904   1.752  -7.332  0.00  0.00    -0.421 OA
ATOM      8  C   LIG d   1       9.824   2.727  -7.397  0.00  0.00     0.338 A 
ATOM      9  O   LIG d   1      10.360   2.966  -8.465  0.00  0.00    -0.245 OA
ATOM     10  C   LIG d   1      10.185   3.480  -6.269  0.00  0.00     0.032 A 
ATOM     11  C   LIG d   1       9.581   3.216  -5.051  0.00  0.00     0.006 A 
ATOM     12  H   LIG d   1       6.492   0.573  -2.865  0.00  0.00     0.065 H 
ATOM     13  H   LIG d   1       8.157   2.362  -2.902  0.00  0.00     0.063 H 
ATOM     14  H   LIG d   1      10.928   4.259  -6.351  0.00  0.00     0.070 H 
ENDROOT
BRANCH   1  15
ATOM     15  C   LIG d   1       6.992  -0.339  -7.398  0.00  0.00     0.001 C 
ATOM     16  H   LIG d   1       7.559   0.068  -8.235  0.00  0.00     0.087 H 
ATOM     17  H   LIG d   1       7.247  -1.391  -7.263  0.00  0.00     0.087 H 
BRANCH  15  18
ATOM     18  N   LIG d   1       5.540  -0.232  -7.656  0.00  0.00     0.239 N 
ATOM     19  C   LIG d   1       5.037  -1.494  -8.238  0.00  0.00    -0.031 C 
ATOM     20  C   LIG d   1       3.516  -1.401  -8.384  0.00  0.00    -0.010 C 
ATOM     21  H   LIG d   1       5.485  -1.671  -9.215  0.00  0.00     0.081 H 
ATOM     22  H   LIG d   1       5.287  -2.318  -7.569  0.00  0.00     0.081 H 
ATOM     23  C   LIG d   1       3.167  -0.231  -9.307  0.00  0.00    -0.034 C 
ATOM     24  H   LIG d   1       3.134  -2.329  -8.811  0.00  0.00     0.032 H 
ATOM     25  H   LIG d   1       3.065  -1.239  -7.405  0.00  0.00     0.032 H 
ATOM     26  C   LIG d   1       3.758   1.058  -8.731  0.00  0.00    -0.010 C 
ATOM     27  H   LIG d   1       3.584  -0.412 -10.298  0.00  0.00     0.030 H 
ATOM     28  C   LIG d   1       5.272   0.894  -8.574  0.00  0.00    -0.031 C 
ATOM     29  H   LIG d   1       3.550   1.888  -9.405  0.00  0.00     0.032 H 
ATOM     30  H   LIG d   1       3.312   1.259  -7.757  0.00  0.00     0.032 H 
ATOM     31  H   LIG d   1       5.694   1.805  -8.151  0.00  0.00     0.081 H 
ATOM     32  H   LIG d   1       5.720   0.706  -9.551  0.00  0.00     0.081 H 
ATOM     33  H   LIG d   1       5.056  -0.060  -6.766  0.00  0.00     0.204 HD
BRANCH  23  34
ATOM     34  C   LIG d   1       1.647  -0.095  -9.410  0.00  0.00    -0.062 C 
ATOM     35  H   LIG d   1       1.280  -0.720 -10.225  0.00  0.00     0.023 H 
ATOM     36  H   LIG d   1       1.189  -0.414  -8.474  0.00  0.00     0.023 H 
ATOM     37  H   LIG d   1       1.387   0.945  -9.605  0.00  0.00     0.023 H 
ENDBRANCH  23  34
ENDBRANCH  15  18
ENDBRANCH   1  15
BRANCH   2  38
ATOM     38  O   LIG d   1       5.765  -0.874  -4.918  0.00  0.00    -0.506 OA
ATOM     39  H   LIG d   1       4.860  -0.573  -5.073  0.00  0.00     0.292 HD
ENDBRANCH   2  38
BRANCH  11  40
ATOM     40  C   LIG d   1       9.936   3.986  -3.843  0.00  0.00     0.068 A 
ATOM     41  C   LIG d   1      10.843   3.420  -2.837  0.00  0.00     0.345 A 
ATOM     42  O   LIG d   1      11.155   4.127  -1.738  0.00  0.00    -0.422 OA
ATOM     43  O   LIG d   1      11.309   2.308  -2.997  0.00  0.00    -0.244 OA
ATOM     44  C   LIG d   1      10.659   5.366  -1.533  0.00  0.00     0.139 A 
ATOM     45  C   LIG d   1       9.786   5.956  -2.464  0.00  0.00     0.019 A 
ATOM     46  C   LIG d   1      11.009   6.071  -0.386  0.00  0.00    -0.018 A 
ATOM     47  C   LIG d   1       9.419   5.251  -3.639  0.00  0.00    -0.036 A 
ATOM     48  C   LIG d   1       9.279   7.243  -2.225  0.00  0.00    -0.037 A 
ATOM     49  H   LIG d   1       8.749   5.695  -4.361  0.00  0.00     0.063 H 
ATOM     50  C   LIG d   1       9.637   7.915  -1.092  0.00  0.00     0.019 A 
ATOM     51  H   LIG d   1       8.608   7.700  -2.937  0.00  0.00     0.064 H 
ATOM     52  C   LIG d   1      10.500   7.334  -0.171  0.00  0.00    -0.044 A 
ATOM     53 BR   LIG d   1       8.952   9.649  -0.773  0.00  0.00    -0.050 Br
ATOM     54  H   LIG d   1      10.773   7.877   0.721  0.00  0.00     0.063 H 
ATOM     55  H   LIG d   1      11.679   5.629   0.337  0.00  0.00     0.066 H 
ENDBRANCH  11  40
TORSDOF 5
ENDMDL
MODEL 3
REMARK VINA RESULT:      -6.9      1.714      2.149
REMARK  5 active torsions:
REMARK  status: ('A' for Active; 'I' for Inactive)
REMARK    1  A    between atoms: C_1  and  C_2 
REMARK    2  A    between atoms: C_7  and  C_8 
REMARK    3  A    between atoms: C_7  and  N_54 
REMARK    4  A    between atoms: C_9  and  O_31 
REMARK    5  A    between atoms: C_18  and  C_19 
ROOT
ATOM      1  C   LIG d   1       4.847  -3.615  -6.069  0.00  0.00     0.081 A 
ATOM      2  C   LIG d   1       4.183  -4.798  -6.350  0.00  0.00     0.129 A 
ATOM      3  C   LIG d   1       3.535  -4.972  -7.569  0.00  0.00    -0.019 A 
ATOM      4  C   LIG d   1       3.548  -3.977  -8.506  0.00  0.00    -0.047 A 
ATOM      5  C   LIG d   1       4.208  -2.777  -8.236  0.00  0.00     0.026 A 
ATOM      6  C   LIG d   1       4.869  -2.597  -7.009  0.00  0.00     0.151 A 
ATOM      7  O   LIG d   1       5.513  -1.436  -6.754  0.00  0.00    -0.421 OA
ATOM      8  C   LIG d   1       5.550  -0.433  -7.645  0.00  0.00     0.338 A 
ATOM      9  O   LIG d   1       6.147   0.591  -7.359  0.00  0.00    -0.245 OA
ATOM     10  C   LIG d   1       4.923  -0.531  -8.896  0.00  0.00     0.032 A 
ATOM     11  C   LIG d   1       4.243  -1.691  -9.230  0.00  0.00     0.006 A 
ATOM     12  H   LIG d   1       3.021  -5.898  -7.778  0.00  0.00     0.065 H 
ATOM     13  H   LIG d   1       3.044  -4.117  -9.452  0.00  0.00     0.063 H 
ATOM     14  H   LIG d   1       4.970   0.292  -9.594  0.00  0.00     0.070 H 
ENDROOT
BRANCH   1  15
ATOM     15  C   LIG d   1       5.547  -3.436  -4.745  0.00  0.00     0.001 C 
ATOM     16  H   LIG d   1       5.260  -4.243  -4.071  0.00  0.00     0.087 H 
ATOM     17  H   LIG d   1       6.626  -3.456  -4.899  0.00  0.00     0.087 H 
BRANCH  15  18
ATOM     18  N   LIG d   1       5.172  -2.126  -4.174  0.00  0.00     0.239 N 
ATOM     19  C   LIG d   1       6.334  -1.526  -3.483  0.00  0.00    -0.031 C 
ATOM     20  C   LIG d   1       5.956  -0.122  -3.005  0.00  0.00    -0.010 C 
ATOM     21  H   LIG d   1       6.627  -2.135  -2.628  0.00  0.00     0.081 H 
ATOM     22  H   LIG d   1       7.166  -1.459  -4.184  0.00  0.00     0.081 H 
ATOM     23  C   LIG d   1       4.774  -0.219  -2.037  0.00  0.00    -0.034 C 
ATOM     24  H   LIG d   1       6.808   0.330  -2.496  0.00  0.00     0.032 H 
ATOM     25  H   LIG d   1       5.677   0.492  -3.861  0.00  0.00     0.032 H 
ATOM     26  C   LIG d   1       3.603  -0.908  -2.742  0.00  0.00    -0.010 C 
ATOM     27  H   LIG d   1       5.066  -0.798  -1.162  0.00  0.00     0.030 H 
ATOM     28  C   LIG d   1       4.048  -2.289  -3.228  0.00  0.00    -0.031 C 
ATOM     29  H   LIG d   1       2.772  -1.019  -2.045  0.00  0.00     0.032 H 
ATOM     30  H   LIG d   1       3.286  -0.307  -3.594  0.00  0.00     0.032 H 
ATOM     31  H   LIG d   1       3.221  -2.778  -3.743  0.00  0.00     0.081 H 
ATOM     32  H   LIG d   1       4.352  -2.895  -2.374  0.00  0.00     0.081 H 
ATOM     33  H   LIG d   1       4.879  -1.502  -4.935  0.00  0.00     0.204 HD
BRANCH  23  34
ATOM     34  C   LIG d   1       4.353   1.186  -1.602  0.00  0.00    -0.062 C 
ATOM     35  H   LIG d   1       5.192   1.871  -1.723  0.00  0.00     0.023 H 
ATOM     36  H   LIG d   1       3.518   1.523  -2.216  0.00  0.00     0.023 H 
ATOM     37  H   LIG d   1       4.049   1.167  -0.555  0.00  0.00     0.023 H 
ENDBRANCH  23  34
ENDBRANCH  15  18
ENDBRANCH   1  15
BRANCH   2  38
ATOM     38  O   LIG d   1       4.162  -5.794  -5.428  0.00  0.00    -0.506 OA
ATOM     39  H   LIG d   1       4.900  -5.769  -4.803  0.00  0.00     0.292 HD
ENDBRANCH   2  38
BRANCH  11  40
ATOM     40  C   LIG d   1       3.571  -1.830 -10.536  0.00  0.00     0.068 A 
ATOM     41  C   LIG d   1       2.166  -1.435 -10.698  0.00  0.00     0.345 A 
ATOM     42  O   LIG d   1       1.561  -1.570 -11.890  0.00  0.00    -0.422 OA
ATOM     43  O   LIG d   1       1.548  -0.988  -9.750  0.00  0.00    -0.244 OA
ATOM     44  C   LIG d   1       2.220  -2.058 -12.962  0.00  0.00     0.139 A 
ATOM     45  C   LIG d   1       3.566  -2.451 -12.864  0.00  0.00     0.019 A 
ATOM     46  C   LIG d   1       1.563  -2.179 -14.183  0.00  0.00    -0.018 A 
ATOM     47  C   LIG d   1       4.252  -2.334 -11.627  0.00  0.00    -0.036 A 
ATOM     48  C   LIG d   1       4.228  -2.960 -13.992  0.00  0.00    -0.037 A 
ATOM     49  H   LIG d   1       5.286  -2.634 -11.541  0.00  0.00     0.063 H 
ATOM     50  C   LIG d   1       3.562  -3.070 -15.179  0.00  0.00     0.019 A 
ATOM     51  H   LIG d   1       5.262  -3.264 -13.921  0.00  0.00     0.064 H 
ATOM     52  C   LIG d   1       2.232  -2.681 -15.279  0.00  0.00    -0.044 A 
ATOM     53 BR   LIG d   1       4.455  -3.756 -16.698  0.00  0.00    -0.050 Br
ATOM     54  H   LIG d   1       1.717  -2.774 -16.223  0.00  0.00     0.063 H 
ATOM     55  H   LIG d   1       0.529  -1.880 -14.271  0.00  0.00     0.066 H 
ENDBRANCH  11  40
TORSDOF 5
ENDMDL
MODEL 4
REMARK VINA RESULT:      -6.9      3.439      4.859
REMARK  5 active torsions:
REMARK  status: ('A' for Active; 'I' for Inactive)
REMARK    1  A    between atoms: C_1  and  C_2 
REMARK    2  A    between atoms: C_7  and  C_8 
REMARK    3  A    between atoms: C_7  and  N_54 
REMARK    4  A    between atoms: C_9  and  O_31 
REMARK    5  A    between atoms: C_18  and  C_19 
ROOT
ATOM      1  C   LIG d   1       2.956   0.264  -8.544  0.00  0.00     0.081 A 
ATOM      2  C   LIG d   1       3.191   1.600  -8.828  0.00  0.00     0.129 A 
ATOM      3  C   LIG d   1       3.759   1.975 -10.042  0.00  0.00    -0.019 A 
ATOM      4  C   LIG d   1       4.090   1.029 -10.970  0.00  0.00    -0.047 A 
ATOM      5  C   LIG d   1       3.865  -0.321 -10.697  0.00  0.00     0.026 A 
ATOM      6  C   LIG d   1       3.288  -0.707  -9.475  0.00  0.00     0.151 A 
ATOM      7  O   LIG d   1       3.065  -2.014  -9.217  0.00  0.00    -0.421 OA
ATOM      8  C   LIG d   1       3.375  -2.976 -10.100  0.00  0.00     0.338 A 
ATOM      9  O   LIG d   1       3.151  -4.139  -9.812  0.00  0.00    -0.245 OA
ATOM     10  C   LIG d   1       3.949  -2.681 -11.346  0.00  0.00     0.032 A 
ATOM     11  C   LIG d   1       4.207  -1.362 -11.682  0.00  0.00     0.006 A 
ATOM     12  H   LIG d   1       3.937   3.019 -10.253  0.00  0.00     0.065 H 
ATOM     13  H   LIG d   1       4.531   1.325 -11.912  0.00  0.00     0.063 H 
ATOM     14  H   LIG d   1       4.188  -3.475 -12.037  0.00  0.00     0.070 H 
ENDROOT
BRANCH   1  15
ATOM     15  C   LIG d   1       2.341  -0.132  -7.226  0.00  0.00     0.001 C 
ATOM     16  H   LIG d   1       1.359   0.332  -7.129  0.00  0.00     0.087 H 
ATOM     17  H   LIG d   1       2.236  -1.216  -7.184  0.00  0.00     0.087 H 
BRANCH  15  18
ATOM     18  N   LIG d   1       3.229   0.302  -6.127  0.00  0.00     0.239 N 
ATOM     19  C   LIG d   1       4.261  -0.727  -5.878  0.00  0.00    -0.031 C 
ATOM     20  C   LIG d   1       5.237  -0.204  -4.821  0.00  0.00    -0.010 C 
ATOM     21  H   LIG d   1       3.804  -1.650  -5.524  0.00  0.00     0.081 H 
ATOM     22  H   LIG d   1       4.800  -0.920  -6.805  0.00  0.00     0.081 H 
ATOM     23  C   LIG d   1       4.474   0.086  -3.526  0.00  0.00    -0.034 C 
ATOM     24  H   LIG d   1       6.005  -0.955  -4.631  0.00  0.00     0.032 H 
ATOM     25  H   LIG d   1       5.707   0.712  -5.180  0.00  0.00     0.032 H 
ATOM     26  C   LIG d   1       3.361   1.097  -3.815  0.00  0.00    -0.010 C 
ATOM     27  H   LIG d   1       4.039  -0.838  -3.146  0.00  0.00     0.030 H 
ATOM     28  C   LIG d   1       2.439   0.536  -4.900  0.00  0.00    -0.031 C 
ATOM     29  H   LIG d   1       2.786   1.275  -2.906  0.00  0.00     0.032 H 
ATOM     30  H   LIG d   1       3.800   2.033  -4.158  0.00  0.00     0.032 H 
ATOM     31  H   LIG d   1       1.653   1.259  -5.119  0.00  0.00     0.081 H 
ATOM     32  H   LIG d   1       1.989  -0.393  -4.551  0.00  0.00     0.081 H 
ATOM     33  H   LIG d   1       3.691   1.178  -6.399  0.00  0.00     0.204 HD
BRANCH  23  34
ATOM     34  C   LIG d   1       5.433   0.666  -2.485  0.00  0.00    -0.062 C 
ATOM     35  H   LIG d   1       6.289   0.001  -2.370  0.00  0.00     0.023 H 
ATOM     36  H   LIG d   1       5.776   1.646  -2.812  0.00  0.00     0.023 H 
ATOM     37  H   LIG d   1       4.917   0.761  -1.529  0.00  0.00     0.023 H 
ENDBRANCH  23  34
ENDBRANCH  15  18
ENDBRANCH   1  15
BRANCH   2  38
ATOM     38  O   LIG d   1       2.867   2.550  -7.914  0.00  0.00    -0.506 OA
ATOM     39  H   LIG d   1       3.325   2.456  -7.067  0.00  0.00     0.292 HD
ENDBRANCH   2  38
BRANCH  11  40
ATOM     40  C   LIG d   1       4.810  -1.012 -12.983  0.00  0.00     0.068 A 
ATOM     41  C   LIG d   1       6.269  -0.940 -13.133  0.00  0.00     0.345 A 
ATOM     42  O   LIG d   1       6.809  -0.616 -14.320  0.00  0.00    -0.422 OA
ATOM     43  O   LIG d   1       6.990  -1.171 -12.181  0.00  0.00    -0.244 OA
ATOM     44  C   LIG d   1       6.037  -0.359 -15.398  0.00  0.00     0.139 A 
ATOM     45  C   LIG d   1       4.635  -0.413 -15.310  0.00  0.00     0.019 A 
ATOM     46  C   LIG d   1       6.631  -0.031 -16.612  0.00  0.00    -0.018 A 
ATOM     47  C   LIG d   1       4.013  -0.746 -14.079  0.00  0.00    -0.036 A 
ATOM     48  C   LIG d   1       3.855  -0.136 -16.443  0.00  0.00    -0.037 A 
ATOM     49  H   LIG d   1       2.937  -0.790 -14.001  0.00  0.00     0.063 H 
ATOM     50  C   LIG d   1       4.461   0.183 -17.624  0.00  0.00     0.019 A 
ATOM     51  H   LIG d   1       2.778  -0.177 -16.381  0.00  0.00     0.064 H 
ATOM     52  C   LIG d   1       5.846   0.237 -17.713  0.00  0.00    -0.044 A 
ATOM     53 BR   LIG d   1       3.407   0.556 -19.150  0.00  0.00    -0.050 Br
ATOM     54  H   LIG d   1       6.312   0.492 -18.654  0.00  0.00     0.063 H 
ATOM     55  H   LIG d   1       7.707   0.014 -16.693  0.00  0.00     0.066 H 
ENDBRANCH  11  40
TORSDOF 5
ENDMDL
MODEL 5
REMARK VINA RESULT:      -6.9      7.663     11.117
REMARK  5 active torsions:
REMARK  status: ('A' for Active; 'I' for Inactive)
REMARK    1  A    between atoms: C_1  and  C_2 
REMARK    2  A    between atoms: C_7  and  C_8 
REMARK    3  A    between atoms: C_7  and  N_54 
REMARK    4  A    between atoms: C_9  and  O_31 
REMARK    5  A    between atoms: C_18  and  C_19 
ROOT
ATOM      1  C   LIG d   1      11.399   6.274  -3.249  0.00  0.00     0.081 A 
ATOM      2  C   LIG d   1      11.586   5.690  -2.007  0.00  0.00     0.129 A 
ATOM      3  C   LIG d   1      11.110   4.407  -1.751  0.00  0.00    -0.019 A 
ATOM      4  C   LIG d   1      10.454   3.707  -2.724  0.00  0.00    -0.047 A 
ATOM      5  C   LIG d   1      10.253   4.284  -3.978  0.00  0.00     0.026 A 
ATOM      6  C   LIG d   1      10.735   5.577  -4.246  0.00  0.00     0.151 A 
ATOM      7  O   LIG d   1      10.544   6.129  -5.464  0.00  0.00    -0.421 OA
ATOM      8  C   LIG d   1       9.905   5.478  -6.449  0.00  0.00     0.338 A 
ATOM      9  O   LIG d   1       9.763   6.027  -7.527  0.00  0.00    -0.245 OA
ATOM     10  C   LIG d   1       9.397   4.182  -6.271  0.00  0.00     0.032 A 
ATOM     11  C   LIG d   1       9.554   3.550  -5.048  0.00  0.00     0.006 A 
ATOM     12  H   LIG d   1      11.262   3.961  -0.779  0.00  0.00     0.065 H 
ATOM     13  H   LIG d   1      10.087   2.711  -2.520  0.00  0.00     0.063 H 
ATOM     14  H   LIG d   1       8.887   3.681  -7.080  0.00  0.00     0.070 H 
ENDROOT
BRANCH   1  15
ATOM     15  C   LIG d   1      11.918   7.664  -3.517  0.00  0.00     0.001 C 
ATOM     16  H   LIG d   1      12.674   7.919  -2.774  0.00  0.00     0.087 H 
ATOM     17  H   LIG d   1      12.359   7.702  -4.513  0.00  0.00     0.087 H 
BRANCH  15  18
ATOM     18  N   LIG d   1      10.793   8.620  -3.459  0.00  0.00     0.239 N 
ATOM     19  C   LIG d   1      10.828   9.511  -4.638  0.00  0.00    -0.031 C 
ATOM     20  C   LIG d   1       9.589  10.411  -4.616  0.00  0.00    -0.010 C 
ATOM     21  H   LIG d   1      11.725  10.130  -4.624  0.00  0.00     0.081 H 
ATOM     22  H   LIG d   1      10.819   8.903  -5.542  0.00  0.00     0.081 H 
ATOM     23  C   LIG d   1       9.593  11.248  -3.335  0.00  0.00    -0.034 C 
ATOM     24  H   LIG d   1       9.604  11.071  -5.484  0.00  0.00     0.032 H 
ATOM     25  H   LIG d   1       8.691   9.794  -4.645  0.00  0.00     0.032 H 
ATOM     26  C   LIG d   1       9.632  10.313  -2.124  0.00  0.00    -0.010 C 
ATOM     27  H   LIG d   1      10.471  11.894  -3.326  0.00  0.00     0.030 H 
ATOM     28  C   LIG d   1      10.869   9.417  -2.217  0.00  0.00    -0.031 C 
ATOM     29  H   LIG d   1       9.679  10.903  -1.209  0.00  0.00     0.032 H 
ATOM     30  H   LIG d   1       8.735   9.694  -2.113  0.00  0.00     0.032 H 
ATOM     31  H   LIG d   1      10.893   8.740  -1.363  0.00  0.00     0.081 H 
ATOM     32  H   LIG d   1      11.767  10.035  -2.214  0.00  0.00     0.081 H 
ATOM     33  H   LIG d   1       9.910   8.095  -3.465  0.00  0.00     0.204 HD
BRANCH  23  34
ATOM     34  C   LIG d   1       8.327  12.105  -3.279  0.00  0.00    -0.062 C 
ATOM     35  H   LIG d   1       8.568  13.081  -2.858  0.00  0.00     0.023 H 
ATOM     36  H   LIG d   1       7.928  12.231  -4.285  0.00  0.00     0.023 H 
ATOM     37  H   LIG d   1       7.583  11.613  -2.652  0.00  0.00     0.023 H 
ENDBRANCH  23  34
ENDBRANCH  15  18
ENDBRANCH   1  15
BRANCH   2  38
ATOM     38  O   LIG d   1      12.236   6.374  -1.031  0.00  0.00    -0.506 OA
ATOM     39  H   LIG d   1      13.062   5.962  -0.743  0.00  0.00     0.292 HD
ENDBRANCH   2  38
BRANCH  11  40
ATOM     40  C   LIG d   1       9.033   2.188  -4.823  0.00  0.00     0.068 A 
ATOM     41  C   LIG d   1       9.765   1.016  -5.320  0.00  0.00     0.345 A 
ATOM     42  O   LIG d   1       9.280  -0.219  -5.115  0.00  0.00    -0.422 OA
ATOM     43  O   LIG d   1      10.812   1.165  -5.922  0.00  0.00    -0.244 OA
ATOM     44  C   LIG d   1       8.124  -0.419  -4.445  0.00  0.00     0.139 A 
ATOM     45  C   LIG d   1       7.382   0.666  -3.948  0.00  0.00     0.019 A 
ATOM     46  C   LIG d   1       7.654  -1.713  -4.247  0.00  0.00    -0.018 A 
ATOM     47  C   LIG d   1       7.847   1.993  -4.142  0.00  0.00    -0.036 A 
ATOM     48  C   LIG d   1       6.181   0.432  -3.261  0.00  0.00    -0.037 A 
ATOM     49  H   LIG d   1       7.284   2.834  -3.764  0.00  0.00     0.063 H 
ATOM     50  C   LIG d   1       5.740  -0.847  -3.078  0.00  0.00     0.019 A 
ATOM     51  H   LIG d   1       5.607   1.263  -2.877  0.00  0.00     0.064 H 
ATOM     52  C   LIG d   1       6.472  -1.921  -3.568  0.00  0.00    -0.044 A 
ATOM     53 BR   LIG d   1       4.121  -1.159  -2.152  0.00  0.00    -0.050 Br
ATOM     54  H   LIG d   1       6.111  -2.927  -3.418  0.00  0.00     0.063 H 
ATOM     55  H   LIG d   1       8.215  -2.556  -4.624  0.00  0.00     0.066 H 
ENDBRANCH  11  40
TORSDOF 5
ENDMDL
MODEL 6
REMARK VINA RESULT:      -6.7      2.602      4.025
REMARK  5 active torsions:
REMARK  status: ('A' for Active; 'I' for Inactive)
REMARK    1  A    between atoms: C_1  and  C_2 
REMARK    2  A    between atoms: C_7  and  C_8 
REMARK    3  A    between atoms: C_7  and  N_54 
REMARK    4  A    between atoms: C_9  and  O_31 
REMARK    5  A    between atoms: C_18  and  C_19 
ROOT
ATOM      1  C   LIG d   1       3.795  -0.420  -8.135  0.00  0.00     0.081 A 
ATOM      2  C   LIG d   1       2.985   0.594  -8.618  0.00  0.00     0.129 A 
ATOM      3  C   LIG d   1       1.968   0.315  -9.527  0.00  0.00    -0.019 A 
ATOM      4  C   LIG d   1       1.756  -0.966  -9.953  0.00  0.00    -0.047 A 
ATOM      5  C   LIG d   1       2.567  -1.999  -9.480  0.00  0.00     0.026 A 
ATOM      6  C   LIG d   1       3.592  -1.725  -8.558  0.00  0.00     0.151 A 
ATOM      7  O   LIG d   1       4.371  -2.728  -8.097  0.00  0.00    -0.421 OA
ATOM      8  C   LIG d   1       4.197  -4.000  -8.488  0.00  0.00     0.338 A 
ATOM      9  O   LIG d   1       4.931  -4.864  -8.038  0.00  0.00    -0.245 OA
ATOM     10  C   LIG d   1       3.195  -4.364  -9.400  0.00  0.00     0.032 A 
ATOM     11  C   LIG d   1       2.356  -3.390  -9.916  0.00  0.00     0.006 A 
ATOM     12  H   LIG d   1       1.343   1.114  -9.896  0.00  0.00     0.065 H 
ATOM     13  H   LIG d   1       0.965  -1.178 -10.658  0.00  0.00     0.063 H 
ATOM     14  H   LIG d   1       3.078  -5.395  -9.697  0.00  0.00     0.070 H 
ENDROOT
BRANCH   1  15
ATOM     15  C   LIG d   1       4.893  -0.108  -7.151  0.00  0.00     0.001 C 
ATOM     16  H   LIG d   1       5.851  -0.429  -7.560  0.00  0.00     0.087 H 
ATOM     17  H   LIG d   1       4.919   0.966  -6.964  0.00  0.00     0.087 H 
BRANCH  15  18
ATOM     18  N   LIG d   1       4.614  -0.804  -5.877  0.00  0.00     0.239 N 
ATOM     19  C   LIG d   1       3.601  -0.055  -5.105  0.00  0.00    -0.031 C 
ATOM     20  C   LIG d   1       3.243  -0.855  -3.850  0.00  0.00    -0.010 C 
ATOM     21  H   LIG d   1       3.986   0.922  -4.814  0.00  0.00     0.081 H 
ATOM     22  H   LIG d   1       2.710   0.073  -5.719  0.00  0.00     0.081 H 
ATOM     23  C   LIG d   1       4.500  -1.051  -2.999  0.00  0.00    -0.034 C 
ATOM     24  H   LIG d   1       2.493  -0.312  -3.273  0.00  0.00     0.032 H 
ATOM     25  H   LIG d   1       2.844  -1.827  -4.139  0.00  0.00     0.032 H 
ATOM     26  C   LIG d   1       5.567  -1.762  -3.835  0.00  0.00    -0.010 C 
ATOM     27  H   LIG d   1       4.876  -0.081  -2.676  0.00  0.00     0.030 H 
ATOM     28  C   LIG d   1       5.858  -0.936  -5.090  0.00  0.00    -0.031 C 
ATOM     29  H   LIG d   1       6.480  -1.866  -3.249  0.00  0.00     0.032 H 
ATOM     30  H   LIG d   1       5.205  -2.748  -4.125  0.00  0.00     0.032 H 
ATOM     31  H   LIG d   1       6.608  -1.445  -5.695  0.00  0.00     0.081 H 
ATOM     32  H   LIG d   1       6.233   0.046  -4.800  0.00  0.00     0.081 H 
ATOM     33  H   LIG d   1       4.250  -1.742  -6.084  0.00  0.00     0.204 HD
BRANCH  23  34
ATOM     34  C   LIG d   1       4.161  -1.902  -1.773  0.00  0.00    -0.062 C 
ATOM     35  H   LIG d   1       3.884  -2.906  -2.094  0.00  0.00     0.023 H 
ATOM     36  H   LIG d   1       5.029  -1.956  -1.116  0.00  0.00     0.023 H 
ATOM     37  H   LIG d   1       3.327  -1.450  -1.236  0.00  0.00     0.023 H 
ENDBRANCH  23  34
ENDBRANCH  15  18
ENDBRANCH   1  15
BRANCH   2  38
ATOM     38  O   LIG d   1       3.185   1.872  -8.204  0.00  0.00    -0.506 OA
ATOM     39  H   LIG d   1       2.499   2.491  -8.487  0.00  0.00     0.292 HD
ENDBRANCH   2  38
BRANCH  11  40
ATOM     40  C   LIG d   1       1.291  -3.734 -10.878  0.00  0.00     0.068 A 
ATOM     41  C   LIG d   1       1.515  -3.591 -12.322  0.00  0.00     0.345 A 
ATOM     42  O   LIG d   1       0.537  -3.902 -13.190  0.00  0.00    -0.422 OA
ATOM     43  O   LIG d   1       2.586  -3.187 -12.734  0.00  0.00    -0.244 OA
ATOM     44  C   LIG d   1      -0.661  -4.358 -12.766  0.00  0.00     0.139 A 
ATOM     45  C   LIG d   1      -0.930  -4.514 -11.395  0.00  0.00     0.019 A 
ATOM     46  C   LIG d   1      -1.648  -4.676 -13.693  0.00  0.00    -0.018 A 
ATOM     47  C   LIG d   1       0.066  -4.195 -10.435  0.00  0.00    -0.036 A 
ATOM     48  C   LIG d   1      -2.185  -4.985 -10.979  0.00  0.00    -0.037 A 
ATOM     49  H   LIG d   1      -0.129  -4.311  -9.379  0.00  0.00     0.063 H 
ATOM     50  C   LIG d   1      -3.138  -5.289 -11.908  0.00  0.00     0.019 A 
ATOM     51  H   LIG d   1      -2.395  -5.105  -9.927  0.00  0.00     0.064 H 
ATOM     52  C   LIG d   1      -2.874  -5.137 -13.263  0.00  0.00    -0.044 A 
ATOM     53 BR   LIG d   1      -4.828  -5.923 -11.346  0.00  0.00    -0.050 Br
ATOM     54  H   LIG d   1      -3.638  -5.380 -13.987  0.00  0.00     0.063 H 
ATOM     55  H   LIG d   1      -1.454  -4.560 -14.749  0.00  0.00     0.066 H 
ENDBRANCH  11  40
TORSDOF 5
ENDMDL
MODEL 7
REMARK VINA RESULT:      -6.7      4.581      7.115
REMARK  5 active torsions:
REMARK  status: ('A' for Active; 'I' for Inactive)
REMARK    1  A    between atoms: C_1  and  C_2 
REMARK    2  A    between atoms: C_7  and  C_8 
REMARK    3  A    between atoms: C_7  and  N_54 
REMARK    4  A    between atoms: C_9  and  O_31 
REMARK    5  A    between atoms: C_18  and  C_19 
ROOT
ATOM      1  C   LIG d   1       6.803  -7.395  -5.379  0.00  0.00     0.081 A 
ATOM      2  C   LIG d   1       5.594  -7.736  -5.963  0.00  0.00     0.129 A 
ATOM      3  C   LIG d   1       4.677  -6.750  -6.316  0.00  0.00    -0.019 A 
ATOM      4  C   LIG d   1       4.960  -5.433  -6.091  0.00  0.00    -0.047 A 
ATOM      5  C   LIG d   1       6.171  -5.073  -5.498  0.00  0.00     0.026 A 
ATOM      6  C   LIG d   1       7.104  -6.063  -5.144  0.00  0.00     0.151 A 
ATOM      7  O   LIG d   1       8.279  -5.711  -4.577  0.00  0.00    -0.421 OA
ATOM      8  C   LIG d   1       8.597  -4.429  -4.338  0.00  0.00     0.338 A 
ATOM      9  O   LIG d   1       9.672  -4.171  -3.824  0.00  0.00    -0.245 OA
ATOM     10  C   LIG d   1       7.728  -3.377  -4.665  0.00  0.00     0.032 A 
ATOM     11  C   LIG d   1       6.505  -3.660  -5.251  0.00  0.00     0.006 A 
ATOM     12  H   LIG d   1       3.739  -7.028  -6.771  0.00  0.00     0.065 H 
ATOM     13  H   LIG d   1       4.245  -4.671  -6.367  0.00  0.00     0.063 H 
ATOM     14  H   LIG d   1       8.011  -2.355  -4.462  0.00  0.00     0.070 H 
ENDROOT
BRANCH   1  15
ATOM     15  C   LIG d   1       7.790  -8.471  -5.000  0.00  0.00     0.001 C 
ATOM     16  H   LIG d   1       7.978  -9.111  -5.862  0.00  0.00     0.087 H 
ATOM     17  H   LIG d   1       8.724  -8.010  -4.679  0.00  0.00     0.087 H 
BRANCH  15  18
ATOM     18  N   LIG d   1       7.239  -9.260  -3.879  0.00  0.00     0.239 N 
ATOM     19  C   LIG d   1       7.955  -8.927  -2.629  0.00  0.00    -0.031 C 
ATOM     20  C   LIG d   1       7.290  -9.666  -1.465  0.00  0.00    -0.010 C 
ATOM     21  H   LIG d   1       9.001  -9.224  -2.696  0.00  0.00     0.081 H 
ATOM     22  H   LIG d   1       7.892  -7.853  -2.460  0.00  0.00     0.081 H 
ATOM     23  C   LIG d   1       7.361 -11.174  -1.716  0.00  0.00    -0.034 C 
ATOM     24  H   LIG d   1       7.810  -9.426  -0.537  0.00  0.00     0.032 H 
ATOM     25  H   LIG d   1       6.247  -9.359  -1.387  0.00  0.00     0.032 H 
ATOM     26  C   LIG d   1       6.681 -11.495  -3.049  0.00  0.00    -0.010 C 
ATOM     27  H   LIG d   1       8.404 -11.488  -1.753  0.00  0.00     0.030 H 
ATOM     28  C   LIG d   1       7.364 -10.704  -4.167  0.00  0.00    -0.031 C 
ATOM     29  H   LIG d   1       6.767 -12.562  -3.255  0.00  0.00     0.032 H 
ATOM     30  H   LIG d   1       5.629 -11.217  -2.997  0.00  0.00     0.032 H 
ATOM     31  H   LIG d   1       6.874 -10.919  -5.116  0.00  0.00     0.081 H 
ATOM     32  H   LIG d   1       8.414 -10.992  -4.228  0.00  0.00     0.081 H 
ATOM     33  H   LIG d   1       6.245  -9.027  -3.765  0.00  0.00     0.204 HD
BRANCH  23  34
ATOM     34  C   LIG d   1       6.645 -11.916  -0.585  0.00  0.00    -0.062 C 
ATOM     35  H   LIG d   1       5.877 -12.565  -1.006  0.00  0.00     0.023 H 
ATOM     36  H   LIG d   1       7.365 -12.517  -0.031  0.00  0.00     0.023 H 
ATOM     37  H   LIG d   1       6.181 -11.194   0.086  0.00  0.00     0.023 H 
ENDBRANCH  23  34
ENDBRANCH  15  18
ENDBRANCH   1  15
BRANCH   2  38
ATOM     38  O   LIG d   1       5.301  -9.042  -6.191  0.00  0.00    -0.506 OA
ATOM     39  H   LIG d   1       4.581  -9.386  -5.644  0.00  0.00     0.292 HD
ENDBRANCH   2  38
BRANCH  11  40
ATOM     40  C   LIG d   1       5.564  -2.580  -5.608  0.00  0.00     0.068 A 
ATOM     41  C   LIG d   1       4.522  -2.156  -4.665  0.00  0.00     0.345 A 
ATOM     42  O   LIG d   1       3.667  -1.176  -5.001  0.00  0.00    -0.422 OA
ATOM     43  O   LIG d   1       4.430  -2.696  -3.579  0.00  0.00    -0.244 OA
ATOM     44  C   LIG d   1       3.746  -0.554  -6.197  0.00  0.00     0.139 A 
ATOM     45  C   LIG d   1       4.724  -0.919  -7.138  0.00  0.00     0.019 A 
ATOM     46  C   LIG d   1       2.847   0.461  -6.510  0.00  0.00    -0.018 A 
ATOM     47  C   LIG d   1       5.649  -1.952  -6.836  0.00  0.00    -0.036 A 
ATOM     48  C   LIG d   1       4.781  -0.261  -8.376  0.00  0.00    -0.037 A 
ATOM     49  H   LIG d   1       6.404  -2.241  -7.551  0.00  0.00     0.063 H 
ATOM     50  C   LIG d   1       3.888   0.732  -8.660  0.00  0.00     0.019 A 
ATOM     51  H   LIG d   1       5.531  -0.539  -9.102  0.00  0.00     0.064 H 
ATOM     52  C   LIG d   1       2.921   1.095  -7.731  0.00  0.00    -0.044 A 
ATOM     53 BR   LIG d   1       3.967   1.618 -10.328  0.00  0.00    -0.050 Br
ATOM     54  H   LIG d   1       2.220   1.882  -7.969  0.00  0.00     0.063 H 
ATOM     55  H   LIG d   1       2.090   0.752  -5.795  0.00  0.00     0.066 H 
ENDBRANCH  11  40
TORSDOF 5
ENDMDL
MODEL 8
REMARK VINA RESULT:      -6.5      5.700      9.834
REMARK  5 active torsions:
REMARK  status: ('A' for Active; 'I' for Inactive)
REMARK    1  A    between atoms: C_1  and  C_2 
REMARK    2  A    between atoms: C_7  and  C_8 
REMARK    3  A    between atoms: C_7  and  N_54 
REMARK    4  A    between atoms: C_9  and  O_31 
REMARK    5  A    between atoms: C_18  and  C_19 
ROOT
ATOM      1  C   LIG d   1       5.886  -0.459  -4.957  0.00  0.00     0.081 A 
ATOM      2  C   LIG d   1       5.483  -0.027  -3.704  0.00  0.00     0.129 A 
ATOM      3  C   LIG d   1       6.158   1.007  -3.062  0.00  0.00    -0.019 A 
ATOM      4  C   LIG d   1       7.227   1.610  -3.662  0.00  0.00    -0.047 A 
ATOM      5  C   LIG d   1       7.649   1.183  -4.922  0.00  0.00     0.026 A 
ATOM      6  C   LIG d   1       6.969   0.143  -5.578  0.00  0.00     0.151 A 
ATOM      7  O   LIG d   1       7.376  -0.264  -6.801  0.00  0.00    -0.421 OA
ATOM      8  C   LIG d   1       8.420   0.301  -7.426  0.00  0.00     0.338 A 
ATOM      9  O   LIG d   1       8.742  -0.108  -8.529  0.00  0.00    -0.245 OA
ATOM     10  C   LIG d   1       9.152   1.348  -6.847  0.00  0.00     0.032 A 
ATOM     11  C   LIG d   1       8.794   1.819  -5.595  0.00  0.00     0.006 A 
ATOM     12  H   LIG d   1       5.834   1.336  -2.086  0.00  0.00     0.065 H 
ATOM     13  H   LIG d   1       7.748   2.413  -3.160  0.00  0.00     0.063 H 
ATOM     14  H   LIG d   1       9.989   1.784  -7.374  0.00  0.00     0.070 H 
ENDROOT
BRANCH   1  15
ATOM     15  C   LIG d   1       5.147  -1.580  -5.644  0.00  0.00     0.001 C 
ATOM     16  H   LIG d   1       5.841  -2.391  -5.865  0.00  0.00     0.087 H 
ATOM     17  H   LIG d   1       4.355  -1.946  -4.992  0.00  0.00     0.087 H 
BRANCH  15  18
ATOM     18  N   LIG d   1       4.538  -1.066  -6.889  0.00  0.00     0.239 N 
ATOM     19  C   LIG d   1       3.357  -0.238  -6.567  0.00  0.00    -0.031 C 
ATOM     20  C   LIG d   1       2.816   0.378  -7.861  0.00  0.00    -0.010 C 
ATOM     21  H   LIG d   1       2.580  -0.843  -6.102  0.00  0.00     0.081 H 
ATOM     22  H   LIG d   1       3.656   0.557  -5.885  0.00  0.00     0.081 H 
ATOM     23  C   LIG d   1       2.416  -0.741  -8.825  0.00  0.00    -0.034 C 
ATOM     24  H   LIG d   1       1.945   0.993  -7.634  0.00  0.00     0.032 H 
ATOM     25  H   LIG d   1       3.587   0.996  -8.320  0.00  0.00     0.032 H 
ATOM     26  C   LIG d   1       3.630  -1.634  -9.091  0.00  0.00    -0.010 C 
ATOM     27  H   LIG d   1       1.616  -1.334  -8.382  0.00  0.00     0.030 H 
ATOM     28  C   LIG d   1       4.147  -2.192  -7.763  0.00  0.00    -0.031 C 
ATOM     29  H   LIG d   1       3.341  -2.458  -9.743  0.00  0.00     0.032 H 
ATOM     30  H   LIG d   1       4.415  -1.048  -9.569  0.00  0.00     0.032 H 
ATOM     31  H   LIG d   1       5.021  -2.817  -7.946  0.00  0.00     0.081 H 
ATOM     32  H   LIG d   1       3.367  -2.789  -7.290  0.00  0.00     0.081 H 
ATOM     33  H   LIG d   1       5.228  -0.485  -7.382  0.00  0.00     0.204 HD
BRANCH  23  34
ATOM     34  C   LIG d   1       1.931  -0.133 -10.142  0.00  0.00    -0.062 C 
ATOM     35  H   LIG d   1       1.455  -0.906 -10.746  0.00  0.00     0.023 H 
ATOM     36  H   LIG d   1       1.212   0.659  -9.935  0.00  0.00     0.023 H 
ATOM     37  H   LIG d   1       2.780   0.281 -10.686  0.00  0.00     0.023 H 
ENDBRANCH  23  34
ENDBRANCH  15  18
ENDBRANCH   1  15
BRANCH   2  38
ATOM     38  O   LIG d   1       4.422  -0.618  -3.096  0.00  0.00    -0.506 OA
ATOM     39  H   LIG d   1       4.410  -0.514  -2.135  0.00  0.00     0.292 HD
ENDBRANCH   2  38
BRANCH  11  40
ATOM     40  C   LIG d   1       9.541   2.919  -4.953  0.00  0.00     0.068 A 
ATOM     41  C   LIG d   1      10.656   2.632  -4.042  0.00  0.00     0.345 A 
ATOM     42  O   LIG d   1      11.326   3.640  -3.459  0.00  0.00    -0.422 OA
ATOM     43  O   LIG d   1      10.972   1.480  -3.813  0.00  0.00    -0.244 OA
ATOM     44  C   LIG d   1      11.005   4.930  -3.697  0.00  0.00     0.139 A 
ATOM     45  C   LIG d   1       9.946   5.262  -4.560  0.00  0.00     0.019 A 
ATOM     46  C   LIG d   1      11.724   5.948  -3.080  0.00  0.00    -0.018 A 
ATOM     47  C   LIG d   1       9.202   4.236  -5.198  0.00  0.00    -0.036 A 
ATOM     48  C   LIG d   1       9.628   6.610  -4.787  0.00  0.00    -0.037 A 
ATOM     49  H   LIG d   1       8.386   4.480  -5.863  0.00  0.00     0.063 H 
ATOM     50  C   LIG d   1      10.348   7.591  -4.169  0.00  0.00     0.019 A 
ATOM     51  H   LIG d   1       8.815   6.869  -5.449  0.00  0.00     0.064 H 
ATOM     52  C   LIG d   1      11.395   7.265  -3.317  0.00  0.00    -0.044 A 
ATOM     53 BR   LIG d   1       9.918   9.407  -4.476  0.00  0.00    -0.050 Br
ATOM     54  H   LIG d   1      11.956   8.052  -2.834  0.00  0.00     0.063 H 
ATOM     55  H   LIG d   1      12.540   5.706  -2.415  0.00  0.00     0.066 H 
ENDBRANCH  11  40
TORSDOF 5
ENDMDL
MODEL 9
REMARK VINA RESULT:      -6.5      7.479     10.840
REMARK  5 active torsions:
REMARK  status: ('A' for Active; 'I' for Inactive)
REMARK    1  A    between atoms: C_1  and  C_2 
REMARK    2  A    between atoms: C_7  and  C_8 
REMARK    3  A    between atoms: C_7  and  N_54 
REMARK    4  A    between atoms: C_9  and  O_31 
REMARK    5  A    between atoms: C_18  and  C_19 
ROOT
ATOM      1  C   LIG d   1      10.776   6.135  -5.862  0.00  0.00     0.081 A 
ATOM      2  C   LIG d   1      10.259   5.844  -7.114  0.00  0.00     0.129 A 
ATOM      3  C   LIG d   1       9.569   4.656  -7.334  0.00  0.00    -0.019 A 
ATOM      4  C   LIG d   1       9.390   3.762  -6.317  0.00  0.00    -0.047 A 
ATOM      5  C   LIG d   1       9.910   4.038  -5.051  0.00  0.00     0.026 A 
ATOM      6  C   LIG d   1      10.603   5.238  -4.820  0.00  0.00     0.151 A 
ATOM      7  O   LIG d   1      11.098   5.505  -3.591  0.00  0.00    -0.421 OA
ATOM      8  C   LIG d   1      10.947   4.656  -2.563  0.00  0.00     0.338 A 
ATOM      9  O   LIG d   1      11.415   4.950  -1.477  0.00  0.00    -0.245 OA
ATOM     10  C   LIG d   1      10.263   3.439  -2.703  0.00  0.00     0.032 A 
ATOM     11  C   LIG d   1       9.727   3.095  -3.934  0.00  0.00     0.006 A 
ATOM     12  H   LIG d   1       9.170   4.440  -8.314  0.00  0.00     0.065 H 
ATOM     13  H   LIG d   1       8.854   2.841  -6.493  0.00  0.00     0.063 H 
ATOM     14  H   LIG d   1      10.156   2.774  -1.859  0.00  0.00     0.070 H 
ENDROOT
BRANCH   1  15
ATOM     15  C   LIG d   1      11.522   7.425  -5.633  0.00  0.00     0.001 C 
ATOM     16  H   LIG d   1      12.414   7.229  -5.039  0.00  0.00     0.087 H 
ATOM     17  H   LIG d   1      11.811   7.853  -6.593  0.00  0.00     0.087 H 
BRANCH  15  18
ATOM     18  N   LIG d   1      10.635   8.380  -4.936  0.00  0.00     0.239 N 
ATOM     19  C   LIG d   1      10.271   9.487  -5.845  0.00  0.00    -0.031 C 
ATOM     20  C   LIG d   1       9.261  10.396  -5.140  0.00  0.00    -0.010 C 
ATOM     21  H   LIG d   1      11.154  10.066  -6.115  0.00  0.00     0.081 H 
ATOM     22  H   LIG d   1       9.819   9.072  -6.746  0.00  0.00     0.081 H 
ATOM     23  C   LIG d   1       9.891  10.961  -3.865  0.00  0.00    -0.034 C 
ATOM     24  H   LIG d   1       8.984  11.215  -5.805  0.00  0.00     0.032 H 
ATOM     25  H   LIG d   1       8.371   9.821  -4.883  0.00  0.00     0.032 H 
ATOM     26  C   LIG d   1      10.330   9.802  -2.966  0.00  0.00    -0.010 C 
ATOM     27  H   LIG d   1      10.757  11.569  -4.126  0.00  0.00     0.030 H 
ATOM     28  C   LIG d   1      11.310   8.911  -3.733  0.00  0.00    -0.031 C 
ATOM     29  H   LIG d   1      10.819  10.197  -2.075  0.00  0.00     0.032 H 
ATOM     30  H   LIG d   1       9.458   9.217  -2.674  0.00  0.00     0.032 H 
ATOM     31  H   LIG d   1      11.614   8.077  -3.101  0.00  0.00     0.081 H 
ATOM     32  H   LIG d   1      12.188   9.493  -4.013  0.00  0.00     0.081 H 
ATOM     33  H   LIG d   1       9.779   7.890  -4.649  0.00  0.00     0.204 HD
BRANCH  23  34
ATOM     34  C   LIG d   1       8.866  11.822  -3.125  0.00  0.00    -0.062 C 
ATOM     35  H   LIG d   1       7.987  11.962  -3.755  0.00  0.00     0.023 H 
ATOM     36  H   LIG d   1       8.574  11.327  -2.199  0.00  0.00     0.023 H 
ATOM     37  H   LIG d   1       9.305  12.793  -2.895  0.00  0.00     0.023 H 
ENDBRANCH  23  34
ENDBRANCH  15  18
ENDBRANCH   1  15
BRANCH   2  38
ATOM     38  O   LIG d   1      10.429   6.723  -8.134  0.00  0.00    -0.506 OA
ATOM     39  H   LIG d   1      10.203   7.636  -7.910  0.00  0.00     0.292 HD
ENDBRANCH   2  38
BRANCH  11  40
ATOM     40  C   LIG d   1       9.002   1.823  -4.120  0.00  0.00     0.068 A 
ATOM     41  C   LIG d   1       9.645   0.690  -4.797  0.00  0.00     0.345 A 
ATOM     42  O   LIG d   1       8.975  -0.462  -4.967  0.00  0.00    -0.422 OA
ATOM     43  O   LIG d   1      10.785   0.796  -5.209  0.00  0.00    -0.244 OA
ATOM     44  C   LIG d   1       7.711  -0.613  -4.517  0.00  0.00     0.139 A 
ATOM     45  C   LIG d   1       7.047   0.439  -3.862  0.00  0.00     0.019 A 
ATOM     46  C   LIG d   1       7.050  -1.823  -4.705  0.00  0.00    -0.018 A 
ATOM     47  C   LIG d   1       7.707   1.679  -3.661  0.00  0.00    -0.036 A 
ATOM     48  C   LIG d   1       5.732   0.258  -3.409  0.00  0.00    -0.037 A 
ATOM     49  H   LIG d   1       7.206   2.494  -3.159  0.00  0.00     0.063 H 
ATOM     50  C   LIG d   1       5.103  -0.938  -3.606  0.00  0.00     0.019 A 
ATOM     51  H   LIG d   1       5.218   1.063  -2.905  0.00  0.00     0.064 H 
ATOM     52  C   LIG d   1       5.757  -1.979  -4.252  0.00  0.00    -0.044 A 
ATOM     53 BR   LIG d   1       3.330  -1.180  -2.995  0.00  0.00    -0.050 Br
ATOM     54  H   LIG d   1       5.248  -2.920  -4.402  0.00  0.00     0.063 H 
ATOM     55  H   LIG d   1       7.549  -2.639  -5.207  0.00  0.00     0.066 H 
ENDBRANCH  11  40
TORSDOF 5
ENDMDL
