MODEL 1
REMARK VINA RESULT:      -6.3      0.000      0.000
REMARK  8 active torsions:
REMARK  status: ('A' for Active; 'I' for Inactive)
REMARK    1  A    between atoms: C_1  and  C_2 
REMARK    2  A    between atoms: C_5  and  C_7 
REMARK    3  A    between atoms: C_14  and  O_28 
REMARK    4  A    between atoms: C_15  and  C_18 
REMARK    5  A    between atoms: C_18  and  N_19 
REMARK    6  A    between atoms: N_22  and  C_25 
REMARK    7  A    between atoms: C_25  and  C_26 
REMARK    8  A    between atoms: C_26  and  O_27 
ROOT
ATOM      1  C   LIG d   1       2.405   0.720  -7.176  0.00  0.00     0.027 C 
ATOM      2  C   LIG d   1       3.167   0.206  -6.168  0.00  0.00     0.179 A 
ATOM      3  C   LIG d   1       2.696  -0.175  -4.883  0.00  0.00     0.232 A 
ATOM      4  O   LIG d   1       1.552  -0.112  -4.464  0.00  0.00    -0.283 OA
ATOM      5  C   LIG d   1       3.886  -0.663  -4.165  0.00  0.00     0.068 A 
ATOM      6  C   LIG d   1       4.093  -1.172  -2.883  0.00  0.00    -0.044 A 
ATOM      7  C   LIG d   1       5.348  -1.551  -2.496  0.00  0.00    -0.019 A 
ATOM      8  C   LIG d   1       6.419  -1.432  -3.377  0.00  0.00     0.125 A 
ATOM      9  C   LIG d   1       6.229  -0.927  -4.654  0.00  0.00     0.051 A 
ATOM     10  C   LIG d   1       4.960  -0.539  -5.062  0.00  0.00     0.147 A 
ATOM     11  O   LIG d   1       4.498  -0.031  -6.226  0.00  0.00    -0.451 OA
ATOM     12  H   LIG d   1       1.346   0.872  -7.029  0.00  0.00     0.069 H 
ATOM     13  H   LIG d   1       3.264  -1.265  -2.197  0.00  0.00     0.063 H 
ATOM     14  H   LIG d   1       5.509  -1.944  -1.503  0.00  0.00     0.065 H 
ENDROOT
BRANCH   9  15
ATOM     15  C   LIG d   1       7.396  -0.802  -5.598  0.00  0.00     0.031 C 
ATOM     16  H   LIG d   1       8.258  -1.324  -5.181  0.00  0.00     0.048 H 
ATOM     17  H   LIG d   1       7.135  -1.244  -6.559  0.00  0.00     0.048 H 
BRANCH  15  18
ATOM     18  N   LIG d   1       7.726   0.617  -5.784  0.00  0.00    -0.295 N 
ATOM     19  C   LIG d   1       8.456   0.828  -7.043  0.00  0.00     0.012 C 
ATOM     20  C   LIG d   1       8.710   2.324  -7.237  0.00  0.00     0.012 C 
ATOM     21  H   LIG d   1       9.408   0.298  -7.003  0.00  0.00     0.044 H 
ATOM     22  H   LIG d   1       7.863   0.447  -7.874  0.00  0.00     0.044 H 
ATOM     23  N   LIG d   1       9.477   2.840  -6.094  0.00  0.00    -0.298 N 
ATOM     24  H   LIG d   1       7.757   2.849  -7.303  0.00  0.00     0.044 H 
ATOM     25  H   LIG d   1       9.277   2.480  -8.155  0.00  0.00     0.044 H 
ATOM     26  C   LIG d   1       8.748   2.630  -4.836  0.00  0.00     0.012 C 
ATOM     27  C   LIG d   1       8.493   1.134  -4.641  0.00  0.00     0.012 C 
ATOM     28  H   LIG d   1       7.796   3.159  -4.875  0.00  0.00     0.044 H 
ATOM     29  H   LIG d   1       9.341   3.009  -4.004  0.00  0.00     0.044 H 
ATOM     30  H   LIG d   1       7.927   0.977  -3.723  0.00  0.00     0.044 H 
ATOM     31  H   LIG d   1       9.446   0.608  -4.575  0.00  0.00     0.044 H 
BRANCH  23  32
ATOM     32  C   LIG d   1       9.807   4.260  -6.280  0.00  0.00     0.022 C 
ATOM     33  H   LIG d   1      10.805   4.348  -6.709  0.00  0.00     0.045 H 
ATOM     34  H   LIG d   1       9.081   4.716  -6.953  0.00  0.00     0.045 H 
BRANCH  32  35
ATOM     35  C   LIG d   1       9.769   4.974  -4.928  0.00  0.00     0.057 C 
ATOM     36  H   LIG d   1       9.200   4.375  -4.217  0.00  0.00     0.057 H 
ATOM     37  H   LIG d   1      10.785   5.107  -4.558  0.00  0.00     0.057 H 
BRANCH  35  38
ATOM     38  O   LIG d   1       9.146   6.251  -5.079  0.00  0.00    -0.394 OA
ATOM     39  H   LIG d   1       9.552   6.810  -5.756  0.00  0.00     0.209 HD
ENDBRANCH  35  38
ENDBRANCH  32  35
ENDBRANCH  23  32
ENDBRANCH  15  18
ENDBRANCH   9  15
BRANCH   8  40
ATOM     40  O   LIG d   1       7.661  -1.811  -2.982  0.00  0.00    -0.506 OA
ATOM     41  H   LIG d   1       8.287  -1.079  -2.893  0.00  0.00     0.292 HD
ENDBRANCH   8  40
BRANCH   1  42
ATOM     42  C   LIG d   1       3.001   1.053  -8.414  0.00  0.00     0.132 A 
ATOM     43  C   LIG d   1       3.408   2.312  -8.809  0.00  0.00    -0.016 A 
ATOM     44  C   LIG d   1       3.939   2.173 -10.100  0.00  0.00    -0.020 A 
ATOM     45  H   LIG d   1       3.334   3.224  -8.237  0.00  0.00     0.066 H 
ATOM     46  C   LIG d   1       3.838   0.865 -10.435  0.00  0.00     0.103 A 
ATOM     47  H   LIG d   1       4.351   2.960 -10.712  0.00  0.00     0.065 H 
ATOM     48  O   LIG d   1       3.269   0.197  -9.422  0.00  0.00    -0.461 OA
BRANCH  46  49
ATOM     49  C   LIG d   1       4.286   0.261 -11.740  0.00  0.00    -0.006 C 
ATOM     50  H   LIG d   1       3.910  -0.759 -11.816  0.00  0.00     0.031 H 
ATOM     51  H   LIG d   1       3.899   0.855 -12.568  0.00  0.00     0.031 H 
ATOM     52  H   LIG d   1       5.375   0.250 -11.780  0.00  0.00     0.031 H 
ENDBRANCH  46  49
ENDBRANCH   1  42
TORSDOF 8
ENDMDL
MODEL 2
REMARK VINA RESULT:      -6.2      2.178      4.858
REMARK  8 active torsions:
REMARK  status: ('A' for Active; 'I' for Inactive)
REMARK    1  A    between atoms: C_1  and  C_2 
REMARK    2  A    between atoms: C_5  and  C_7 
REMARK    3  A    between atoms: C_14  and  O_28 
REMARK    4  A    between atoms: C_15  and  C_18 
REMARK    5  A    between atoms: C_18  and  N_19 
REMARK    6  A    between atoms: N_22  and  C_25 
REMARK    7  A    between atoms: C_25  and  C_26 
REMARK    8  A    between atoms: C_26  and  O_27 
ROOT
ATOM      1  C   LIG d   1       2.626   0.455  -6.064  0.00  0.00     0.027 C 
ATOM      2  C   LIG d   1       3.617   0.338  -6.995  0.00  0.00     0.179 A 
ATOM      3  C   LIG d   1       3.464   0.517  -8.397  0.00  0.00     0.232 A 
ATOM      4  O   LIG d   1       2.443   0.800  -9.001  0.00  0.00    -0.283 OA
ATOM      5  C   LIG d   1       4.804   0.286  -8.963  0.00  0.00     0.068 A 
ATOM      6  C   LIG d   1       5.317   0.310 -10.260  0.00  0.00    -0.044 A 
ATOM      7  C   LIG d   1       6.641   0.046 -10.474  0.00  0.00    -0.019 A 
ATOM      8  C   LIG d   1       7.479  -0.245  -9.402  0.00  0.00     0.125 A 
ATOM      9  C   LIG d   1       6.984  -0.274  -8.107  0.00  0.00     0.051 A 
ATOM     10  C   LIG d   1       5.642  -0.007  -7.874  0.00  0.00     0.147 A 
ATOM     11  O   LIG d   1       4.912   0.038  -6.738  0.00  0.00    -0.451 OA
ATOM     12  H   LIG d   1       1.621   0.699  -6.373  0.00  0.00     0.069 H 
ATOM     13  H   LIG d   1       4.669   0.536 -11.094  0.00  0.00     0.063 H 
ATOM     14  H   LIG d   1       7.037   0.065 -11.478  0.00  0.00     0.065 H 
ENDROOT
BRANCH   9  15
ATOM     15  C   LIG d   1       7.902  -0.592  -6.955  0.00  0.00     0.031 C 
ATOM     16  H   LIG d   1       7.457  -1.375  -6.342  0.00  0.00     0.048 H 
ATOM     17  H   LIG d   1       8.863  -0.933  -7.340  0.00  0.00     0.048 H 
BRANCH  15  18
ATOM     18  N   LIG d   1       8.102   0.613  -6.140  0.00  0.00    -0.295 N 
ATOM     19  C   LIG d   1       9.434   1.189  -6.368  0.00  0.00     0.012 C 
ATOM     20  C   LIG d   1       9.573   2.483  -5.563  0.00  0.00     0.012 C 
ATOM     21  H   LIG d   1      10.197   0.478  -6.048  0.00  0.00     0.044 H 
ATOM     22  H   LIG d   1       9.560   1.405  -7.429  0.00  0.00     0.044 H 
ATOM     23  N   LIG d   1       9.364   2.194  -4.137  0.00  0.00    -0.298 N 
ATOM     24  H   LIG d   1       8.828   3.203  -5.901  0.00  0.00     0.044 H 
ATOM     25  H   LIG d   1      10.571   2.897  -5.708  0.00  0.00     0.044 H 
ATOM     26  C   LIG d   1       8.031   1.619  -3.909  0.00  0.00     0.012 C 
ATOM     27  C   LIG d   1       7.892   0.325  -4.714  0.00  0.00     0.012 C 
ATOM     28  H   LIG d   1       7.269   2.329  -4.228  0.00  0.00     0.044 H 
ATOM     29  H   LIG d   1       7.905   1.402  -2.848  0.00  0.00     0.044 H 
ATOM     30  H   LIG d   1       6.894  -0.089  -4.569  0.00  0.00     0.044 H 
ATOM     31  H   LIG d   1       8.637  -0.395  -4.375  0.00  0.00     0.044 H 
BRANCH  23  32
ATOM     32  C   LIG d   1       9.563   3.400  -3.321  0.00  0.00     0.022 C 
ATOM     33  H   LIG d   1       9.331   4.284  -3.916  0.00  0.00     0.045 H 
ATOM     34  H   LIG d   1       8.906   3.364  -2.452  0.00  0.00     0.045 H 
BRANCH  32  35
ATOM     35  C   LIG d   1      11.019   3.466  -2.858  0.00  0.00     0.057 C 
ATOM     36  H   LIG d   1      11.488   2.492  -2.992  0.00  0.00     0.057 H 
ATOM     37  H   LIG d   1      11.555   4.211  -3.447  0.00  0.00     0.057 H 
BRANCH  35  38
ATOM     38  O   LIG d   1      11.065   3.830  -1.477  0.00  0.00    -0.394 OA
ATOM     39  H   LIG d   1      11.909   4.211  -1.197  0.00  0.00     0.209 HD
ENDBRANCH  35  38
ENDBRANCH  32  35
ENDBRANCH  23  32
ENDBRANCH  15  18
ENDBRANCH   9  15
BRANCH   8  40
ATOM     40  O   LIG d   1       8.793  -0.506  -9.625  0.00  0.00    -0.506 OA
ATOM     41  H   LIG d   1       8.959  -1.366 -10.035  0.00  0.00     0.292 HD
ENDBRANCH   8  40
BRANCH   1  42
ATOM     42  C   LIG d   1       2.916   0.257  -4.696  0.00  0.00     0.132 A 
ATOM     43  C   LIG d   1       2.389  -0.729  -3.886  0.00  0.00    -0.016 A 
ATOM     44  C   LIG d   1       2.953  -0.546  -2.615  0.00  0.00    -0.020 A 
ATOM     45  H   LIG d   1       1.683  -1.494  -4.175  0.00  0.00     0.066 H 
ATOM     46  C   LIG d   1       3.782   0.519  -2.695  0.00  0.00     0.103 A 
ATOM     47  H   LIG d   1       2.761  -1.144  -1.737  0.00  0.00     0.065 H 
ATOM     48  O   LIG d   1       3.753   1.003  -3.945  0.00  0.00    -0.461 OA
BRANCH  46  49
ATOM     49  C   LIG d   1       4.600   1.077  -1.559  0.00  0.00    -0.006 C 
ATOM     50  H   LIG d   1       5.445   1.637  -1.961  0.00  0.00     0.031 H 
ATOM     51  H   LIG d   1       3.980   1.739  -0.955  0.00  0.00     0.031 H 
ATOM     52  H   LIG d   1       4.968   0.259  -0.941  0.00  0.00     0.031 H 
ENDBRANCH  46  49
ENDBRANCH   1  42
TORSDOF 8
ENDMDL
MODEL 3
REMARK VINA RESULT:      -6.2      2.971      7.029
REMARK  8 active torsions:
REMARK  status: ('A' for Active; 'I' for Inactive)
REMARK    1  A    between atoms: C_1  and  C_2 
REMARK    2  A    between atoms: C_5  and  C_7 
REMARK    3  A    between atoms: C_14  and  O_28 
REMARK    4  A    between atoms: C_15  and  C_18 
REMARK    5  A    between atoms: C_18  and  N_19 
REMARK    6  A    between atoms: N_22  and  C_25 
REMARK    7  A    between atoms: C_25  and  C_26 
REMARK    8  A    between atoms: C_26  and  O_27 
ROOT
ATOM      1  C   LIG d   1       6.989   1.183  -3.263  0.00  0.00     0.027 C 
ATOM      2  C   LIG d   1       7.579   1.310  -4.487  0.00  0.00     0.179 A 
ATOM      3  C   LIG d   1       8.958   1.555  -4.722  0.00  0.00     0.232 A 
ATOM      4  O   LIG d   1       9.839   1.691  -3.890  0.00  0.00    -0.283 OA
ATOM      5  C   LIG d   1       9.096   1.609  -6.188  0.00  0.00     0.068 A 
ATOM      6  C   LIG d   1      10.177   1.815  -7.045  0.00  0.00    -0.044 A 
ATOM      7  C   LIG d   1       9.983   1.810  -8.398  0.00  0.00    -0.019 A 
ATOM      8  C   LIG d   1       8.712   1.598  -8.923  0.00  0.00     0.125 A 
ATOM      9  C   LIG d   1       7.628   1.393  -8.084  0.00  0.00     0.051 A 
ATOM     10  C   LIG d   1       7.808   1.395  -6.708  0.00  0.00     0.147 A 
ATOM     11  O   LIG d   1       6.948   1.219  -5.681  0.00  0.00    -0.451 OA
ATOM     12  H   LIG d   1       7.583   1.272  -2.366  0.00  0.00     0.069 H 
ATOM     13  H   LIG d   1      11.164   1.979  -6.640  0.00  0.00     0.063 H 
ATOM     14  H   LIG d   1      10.820   1.969  -9.061  0.00  0.00     0.065 H 
ENDROOT
BRANCH   9  15
ATOM     15  C   LIG d   1       6.256   1.167  -8.665  0.00  0.00     0.031 C 
ATOM     16  H   LIG d   1       5.548   1.853  -8.202  0.00  0.00     0.048 H 
ATOM     17  H   LIG d   1       6.284   1.344  -9.741  0.00  0.00     0.048 H 
BRANCH  15  18
ATOM     18  N   LIG d   1       5.837  -0.217  -8.409  0.00  0.00    -0.295 N 
ATOM     19  C   LIG d   1       5.770  -0.989  -9.658  0.00  0.00     0.012 C 
ATOM     20  C   LIG d   1       5.408  -2.441  -9.339  0.00  0.00     0.012 C 
ATOM     21  H   LIG d   1       5.010  -0.558 -10.310  0.00  0.00     0.044 H 
ATOM     22  H   LIG d   1       6.738  -0.956 -10.157  0.00  0.00     0.044 H 
ATOM     23  N   LIG d   1       4.121  -2.478  -8.631  0.00  0.00    -0.298 N 
ATOM     24  H   LIG d   1       6.183  -2.879  -8.709  0.00  0.00     0.044 H 
ATOM     25  H   LIG d   1       5.330  -3.008 -10.266  0.00  0.00     0.044 H 
ATOM     26  C   LIG d   1       4.187  -1.707  -7.382  0.00  0.00     0.012 C 
ATOM     27  C   LIG d   1       4.549  -0.255  -7.700  0.00  0.00     0.012 C 
ATOM     28  H   LIG d   1       4.947  -2.137  -6.729  0.00  0.00     0.044 H 
ATOM     29  H   LIG d   1       3.219  -1.739  -6.883  0.00  0.00     0.044 H 
ATOM     30  H   LIG d   1       4.628   0.313  -6.773  0.00  0.00     0.044 H 
ATOM     31  H   LIG d   1       3.775   0.183  -8.330  0.00  0.00     0.044 H 
BRANCH  23  32
ATOM     32  C   LIG d   1       3.702  -3.863  -8.374  0.00  0.00     0.022 C 
ATOM     33  H   LIG d   1       2.616  -3.932  -8.439  0.00  0.00     0.045 H 
ATOM     34  H   LIG d   1       4.154  -4.522  -9.114  0.00  0.00     0.045 H 
BRANCH  32  35
ATOM     35  C   LIG d   1       4.155  -4.280  -6.973  0.00  0.00     0.057 C 
ATOM     36  H   LIG d   1       5.083  -4.846  -7.046  0.00  0.00     0.057 H 
ATOM     37  H   LIG d   1       4.319  -3.391  -6.364  0.00  0.00     0.057 H 
BRANCH  35  38
ATOM     38  O   LIG d   1       3.147  -5.093  -6.368  0.00  0.00    -0.394 OA
ATOM     39  H   LIG d   1       2.445  -4.591  -5.933  0.00  0.00     0.209 HD
ENDBRANCH  35  38
ENDBRANCH  32  35
ENDBRANCH  23  32
ENDBRANCH  15  18
ENDBRANCH   9  15
BRANCH   8  40
ATOM     40  O   LIG d   1       8.531   1.595 -10.269  0.00  0.00    -0.506 OA
ATOM     41  H   LIG d   1       7.653   1.889 -10.548  0.00  0.00     0.292 HD
ENDBRANCH   8  40
BRANCH   1  42
ATOM     42  C   LIG d   1       5.602   0.932  -3.169  0.00  0.00     0.132 A 
ATOM     43  C   LIG d   1       4.849   0.942  -2.012  0.00  0.00    -0.016 A 
ATOM     44  C   LIG d   1       3.531   0.643  -2.390  0.00  0.00    -0.020 A 
ATOM     45  H   LIG d   1       5.203   1.141  -1.012  0.00  0.00     0.066 H 
ATOM     46  C   LIG d   1       3.530   0.468  -3.731  0.00  0.00     0.103 A 
ATOM     47  H   LIG d   1       2.678   0.569  -1.733  0.00  0.00     0.065 H 
ATOM     48  O   LIG d   1       4.777   0.636  -4.195  0.00  0.00    -0.461 OA
BRANCH  46  49
ATOM     49  C   LIG d   1       2.323   0.128  -4.566  0.00  0.00    -0.006 C 
ATOM     50  H   LIG d   1       2.316  -0.941  -4.776  0.00  0.00     0.031 H 
ATOM     51  H   LIG d   1       1.418   0.399  -4.024  0.00  0.00     0.031 H 
ATOM     52  H   LIG d   1       2.364   0.681  -5.505  0.00  0.00     0.031 H 
ENDBRANCH  46  49
ENDBRANCH   1  42
TORSDOF 8
ENDMDL
MODEL 4
REMARK VINA RESULT:      -5.8      3.873      5.537
REMARK  8 active torsions:
REMARK  status: ('A' for Active; 'I' for Inactive)
REMARK    1  A    between atoms: C_1  and  C_2 
REMARK    2  A    between atoms: C_5  and  C_7 
REMARK    3  A    between atoms: C_14  and  O_28 
REMARK    4  A    between atoms: C_15  and  C_18 
REMARK    5  A    between atoms: C_18  and  N_19 
REMARK    6  A    between atoms: N_22  and  C_25 
REMARK    7  A    between atoms: C_25  and  C_26 
REMARK    8  A    between atoms: C_26  and  O_27 
ROOT
ATOM      1  C   LIG d   1       2.458  -2.015 -10.665  0.00  0.00     0.027 C 
ATOM      2  C   LIG d   1       2.953  -3.016  -9.880  0.00  0.00     0.179 A 
ATOM      3  C   LIG d   1       2.652  -4.399 -10.010  0.00  0.00     0.232 A 
ATOM      4  O   LIG d   1       1.915  -4.923 -10.828  0.00  0.00    -0.283 OA
ATOM      5  C   LIG d   1       3.422  -5.062  -8.944  0.00  0.00     0.068 A 
ATOM      6  C   LIG d   1       3.559  -6.391  -8.542  0.00  0.00    -0.044 A 
ATOM      7  C   LIG d   1       4.370  -6.703  -7.487  0.00  0.00    -0.019 A 
ATOM      8  C   LIG d   1       5.059  -5.699  -6.813  0.00  0.00     0.125 A 
ATOM      9  C   LIG d   1       4.933  -4.374  -7.199  0.00  0.00     0.051 A 
ATOM     10  C   LIG d   1       4.114  -4.042  -8.270  0.00  0.00     0.147 A 
ATOM     11  O   LIG d   1       3.818  -2.858  -8.851  0.00  0.00    -0.451 OA
ATOM     12  H   LIG d   1       1.771  -2.246 -11.465  0.00  0.00     0.069 H 
ATOM     13  H   LIG d   1       3.025  -7.171  -9.063  0.00  0.00     0.063 H 
ATOM     14  H   LIG d   1       4.476  -7.731  -7.176  0.00  0.00     0.065 H 
ENDROOT
BRANCH   9  15
ATOM     15  C   LIG d   1       5.684  -3.297  -6.461  0.00  0.00     0.031 C 
ATOM     16  H   LIG d   1       6.475  -3.750  -5.864  0.00  0.00     0.048 H 
ATOM     17  H   LIG d   1       6.121  -2.602  -7.178  0.00  0.00     0.048 H 
BRANCH  15  18
ATOM     18  N   LIG d   1       4.760  -2.572  -5.579  0.00  0.00    -0.295 N 
ATOM     19  C   LIG d   1       4.760  -1.134  -5.882  0.00  0.00     0.012 C 
ATOM     20  C   LIG d   1       3.729  -0.429  -4.997  0.00  0.00     0.012 C 
ATOM     21  H   LIG d   1       5.750  -0.722  -5.687  0.00  0.00     0.044 H 
ATOM     22  H   LIG d   1       4.504  -0.985  -6.930  0.00  0.00     0.044 H 
ATOM     23  N   LIG d   1       4.057  -0.666  -3.584  0.00  0.00    -0.298 N 
ATOM     24  H   LIG d   1       2.736  -0.823  -5.212  0.00  0.00     0.044 H 
ATOM     25  H   LIG d   1       3.748   0.642  -5.200  0.00  0.00     0.044 H 
ATOM     26  C   LIG d   1       4.056  -2.103  -3.280  0.00  0.00     0.012 C 
ATOM     27  C   LIG d   1       5.086  -2.809  -4.164  0.00  0.00     0.012 C 
ATOM     28  H   LIG d   1       3.066  -2.516  -3.475  0.00  0.00     0.044 H 
ATOM     29  H   LIG d   1       4.314  -2.254  -2.232  0.00  0.00     0.044 H 
ATOM     30  H   LIG d   1       5.068  -3.881  -3.962  0.00  0.00     0.044 H 
ATOM     31  H   LIG d   1       6.080  -2.416  -3.950  0.00  0.00     0.044 H 
BRANCH  23  32
ATOM     32  C   LIG d   1       3.132   0.059  -2.701  0.00  0.00     0.022 C 
ATOM     33  H   LIG d   1       2.200   0.253  -3.232  0.00  0.00     0.045 H 
ATOM     34  H   LIG d   1       2.927  -0.544  -1.816  0.00  0.00     0.045 H 
BRANCH  32  35
ATOM     35  C   LIG d   1       3.765   1.386  -2.280  0.00  0.00     0.057 C 
ATOM     36  H   LIG d   1       4.008   1.970  -3.167  0.00  0.00     0.057 H 
ATOM     37  H   LIG d   1       3.064   1.943  -1.660  0.00  0.00     0.057 H 
BRANCH  35  38
ATOM     38  O   LIG d   1       4.959   1.131  -1.537  0.00  0.00    -0.394 OA
ATOM     39  H   LIG d   1       5.301   0.232  -1.637  0.00  0.00     0.209 HD
ENDBRANCH  35  38
ENDBRANCH  32  35
ENDBRANCH  23  32
ENDBRANCH  15  18
ENDBRANCH   9  15
BRANCH   8  40
ATOM     40  O   LIG d   1       5.862  -6.020  -5.766  0.00  0.00    -0.506 OA
ATOM     41  H   LIG d   1       6.549  -6.667  -5.980  0.00  0.00     0.292 HD
ENDBRANCH   8  40
BRANCH   1  42
ATOM     42  C   LIG d   1       2.846  -0.677 -10.432  0.00  0.00     0.132 A 
ATOM     43  C   LIG d   1       3.608   0.109 -11.273  0.00  0.00    -0.016 A 
ATOM     44  C   LIG d   1       3.742   1.355 -10.644  0.00  0.00    -0.020 A 
ATOM     45  H   LIG d   1       4.019  -0.179 -12.229  0.00  0.00     0.066 H 
ATOM     46  C   LIG d   1       3.072   1.285  -9.471  0.00  0.00     0.103 A 
ATOM     47  H   LIG d   1       4.279   2.211 -11.025  0.00  0.00     0.065 H 
ATOM     48  O   LIG d   1       2.540   0.061  -9.344  0.00  0.00    -0.461 OA
BRANCH  46  49
ATOM     49  C   LIG d   1       2.952   2.400  -8.465  0.00  0.00    -0.006 C 
ATOM     50  H   LIG d   1       2.730   1.982  -7.483  0.00  0.00     0.031 H 
ATOM     51  H   LIG d   1       3.890   2.953  -8.421  0.00  0.00     0.031 H 
ATOM     52  H   LIG d   1       2.148   3.072  -8.763  0.00  0.00     0.031 H 
ENDBRANCH  46  49
ENDBRANCH   1  42
TORSDOF 8
ENDMDL
MODEL 5
REMARK VINA RESULT:      -5.8      7.348     11.071
REMARK  8 active torsions:
REMARK  status: ('A' for Active; 'I' for Inactive)
REMARK    1  A    between atoms: C_1  and  C_2 
REMARK    2  A    between atoms: C_5  and  C_7 
REMARK    3  A    between atoms: C_14  and  O_28 
REMARK    4  A    between atoms: C_15  and  C_18 
REMARK    5  A    between atoms: C_18  and  N_19 
REMARK    6  A    between atoms: N_22  and  C_25 
REMARK    7  A    between atoms: C_25  and  C_26 
REMARK    8  A    between atoms: C_26  and  O_27 
ROOT
ATOM      1  C   LIG d   1      11.423   5.502  -2.200  0.00  0.00     0.027 C 
ATOM      2  C   LIG d   1      11.276   6.649  -1.474  0.00  0.00     0.179 A 
ATOM      3  C   LIG d   1      11.962   6.963  -0.270  0.00  0.00     0.232 A 
ATOM      4  O   LIG d   1      12.787   6.279   0.313  0.00  0.00    -0.283 OA
ATOM      5  C   LIG d   1      11.465   8.293   0.121  0.00  0.00     0.068 A 
ATOM      6  C   LIG d   1      11.739   9.145   1.191  0.00  0.00    -0.044 A 
ATOM      7  C   LIG d   1      11.099  10.349   1.283  0.00  0.00    -0.019 A 
ATOM      8  C   LIG d   1      10.176  10.728   0.313  0.00  0.00     0.125 A 
ATOM      9  C   LIG d   1       9.892   9.892  -0.755  0.00  0.00     0.051 A 
ATOM     10  C   LIG d   1      10.535   8.666  -0.863  0.00  0.00     0.147 A 
ATOM     11  O   LIG d   1      10.455   7.679  -1.783  0.00  0.00    -0.451 OA
ATOM     12  H   LIG d   1      12.107   4.736  -1.866  0.00  0.00     0.069 H 
ATOM     13  H   LIG d   1      12.455   8.854   1.945  0.00  0.00     0.063 H 
ATOM     14  H   LIG d   1      11.311  11.008   2.111  0.00  0.00     0.065 H 
ENDROOT
BRANCH   9  15
ATOM     15  C   LIG d   1       8.889  10.313  -1.798  0.00  0.00     0.031 C 
ATOM     16  H   LIG d   1       8.476   9.429  -2.283  0.00  0.00     0.048 H 
ATOM     17  H   LIG d   1       8.086  10.876  -1.323  0.00  0.00     0.048 H 
BRANCH  15  18
ATOM     18  N   LIG d   1       9.551  11.157  -2.801  0.00  0.00    -0.295 N 
ATOM     19  C   LIG d   1       8.771  12.375  -3.064  0.00  0.00     0.012 C 
ATOM     20  C   LIG d   1       9.531  13.261  -4.053  0.00  0.00     0.012 C 
ATOM     21  H   LIG d   1       7.804  12.102  -3.488  0.00  0.00     0.044 H 
ATOM     22  H   LIG d   1       8.619  12.916  -2.131  0.00  0.00     0.044 H 
ATOM     23  N   LIG d   1       9.768  12.513  -5.295  0.00  0.00    -0.298 N 
ATOM     24  H   LIG d   1      10.486  13.556  -3.617  0.00  0.00     0.044 H 
ATOM     25  H   LIG d   1       8.941  14.151  -4.271  0.00  0.00     0.044 H 
ATOM     26  C   LIG d   1      10.549  11.296  -5.033  0.00  0.00     0.012 C 
ATOM     27  C   LIG d   1       9.789  10.409  -4.045  0.00  0.00     0.012 C 
ATOM     28  H   LIG d   1      11.515  11.568  -4.610  0.00  0.00     0.044 H 
ATOM     29  H   LIG d   1      10.700  10.753  -5.966  0.00  0.00     0.044 H 
ATOM     30  H   LIG d   1      10.379   9.519  -3.826  0.00  0.00     0.044 H 
ATOM     31  H   LIG d   1       8.834  10.114  -4.480  0.00  0.00     0.044 H 
BRANCH  23  32
ATOM     32  C   LIG d   1      10.431  13.357  -6.299  0.00  0.00     0.022 C 
ATOM     33  H   LIG d   1      10.018  14.365  -6.256  0.00  0.00     0.045 H 
ATOM     34  H   LIG d   1      11.501  13.393  -6.095  0.00  0.00     0.045 H 
BRANCH  32  35
ATOM     35  C   LIG d   1      10.197  12.770  -7.693  0.00  0.00     0.057 C 
ATOM     36  H   LIG d   1      10.648  13.421  -8.441  0.00  0.00     0.057 H 
ATOM     37  H   LIG d   1      10.651  11.781  -7.751  0.00  0.00     0.057 H 
BRANCH  35  38
ATOM     38  O   LIG d   1       8.793  12.665  -7.937  0.00  0.00    -0.394 OA
ATOM     39  H   LIG d   1       8.322  12.111  -7.299  0.00  0.00     0.209 HD
ENDBRANCH  35  38
ENDBRANCH  32  35
ENDBRANCH  23  32
ENDBRANCH  15  18
ENDBRANCH   9  15
BRANCH   8  40
ATOM     40  O   LIG d   1       9.546  11.926   0.415  0.00  0.00    -0.506 OA
ATOM     41  H   LIG d   1       8.772  11.916   0.996  0.00  0.00     0.292 HD
ENDBRANCH   8  40
BRANCH   1  42
ATOM     42  C   LIG d   1      10.681   5.317  -3.388  0.00  0.00     0.132 A 
ATOM     43  C   LIG d   1       9.601   4.472  -3.550  0.00  0.00    -0.016 A 
ATOM     44  C   LIG d   1       9.182   4.612  -4.882  0.00  0.00    -0.020 A 
ATOM     45  H   LIG d   1       9.164   3.831  -2.800  0.00  0.00     0.066 H 
ATOM     46  C   LIG d   1      10.002   5.515  -5.466  0.00  0.00     0.103 A 
ATOM     47  H   LIG d   1       8.359   4.096  -5.352  0.00  0.00     0.065 H 
ATOM     48  O   LIG d   1      10.905   5.933  -4.568  0.00  0.00    -0.461 OA
BRANCH  46  49
ATOM     49  C   LIG d   1       9.918   5.971  -6.900  0.00  0.00    -0.006 C 
ATOM     50  H   LIG d   1       9.572   5.147  -7.524  0.00  0.00     0.031 H 
ATOM     51  H   LIG d   1       9.219   6.803  -6.977  0.00  0.00     0.031 H 
ATOM     52  H   LIG d   1      10.903   6.292  -7.237  0.00  0.00     0.031 H 
ENDBRANCH  46  49
ENDBRANCH   1  42
TORSDOF 8
ENDMDL
MODEL 6
REMARK VINA RESULT:      -5.7      4.193      6.969
REMARK  8 active torsions:
REMARK  status: ('A' for Active; 'I' for Inactive)
REMARK    1  A    between atoms: C_1  and  C_2 
REMARK    2  A    between atoms: C_5  and  C_7 
REMARK    3  A    between atoms: C_14  and  O_28 
REMARK    4  A    between atoms: C_15  and  C_18 
REMARK    5  A    between atoms: C_18  and  N_19 
REMARK    6  A    between atoms: N_22  and  C_25 
REMARK    7  A    between atoms: C_25  and  C_26 
REMARK    8  A    between atoms: C_26  and  O_27 
ROOT
ATOM      1  C   LIG d   1       7.928   1.973  -3.826  0.00  0.00     0.027 C 
ATOM      2  C   LIG d   1       7.062   0.923  -3.731  0.00  0.00     0.179 A 
ATOM      3  C   LIG d   1       5.851   0.910  -2.987  0.00  0.00     0.232 A 
ATOM      4  O   LIG d   1       5.383   1.816  -2.318  0.00  0.00    -0.283 OA
ATOM      5  C   LIG d   1       5.283  -0.432  -3.199  0.00  0.00     0.068 A 
ATOM      6  C   LIG d   1       4.126  -1.068  -2.749  0.00  0.00    -0.044 A 
ATOM      7  C   LIG d   1       3.865  -2.355  -3.127  0.00  0.00    -0.019 A 
ATOM      8  C   LIG d   1       4.751  -3.033  -3.960  0.00  0.00     0.125 A 
ATOM      9  C   LIG d   1       5.905  -2.415  -4.415  0.00  0.00     0.051 A 
ATOM     10  C   LIG d   1       6.183  -1.107  -4.040  0.00  0.00     0.147 A 
ATOM     11  O   LIG d   1       7.209  -0.279  -4.334  0.00  0.00    -0.451 OA
ATOM     12  H   LIG d   1       7.718   2.895  -3.304  0.00  0.00     0.069 H 
ATOM     13  H   LIG d   1       3.437  -0.544  -2.103  0.00  0.00     0.063 H 
ATOM     14  H   LIG d   1       2.970  -2.847  -2.780  0.00  0.00     0.065 H 
ENDROOT
BRANCH   9  15
ATOM     15  C   LIG d   1       6.856  -3.160  -5.315  0.00  0.00     0.031 C 
ATOM     16  H   LIG d   1       6.289  -3.740  -6.043  0.00  0.00     0.048 H 
ATOM     17  H   LIG d   1       7.496  -2.448  -5.836  0.00  0.00     0.048 H 
BRANCH  15  18
ATOM     18  N   LIG d   1       7.687  -4.065  -4.509  0.00  0.00    -0.295 N 
ATOM     19  C   LIG d   1       8.898  -3.384  -4.032  0.00  0.00     0.012 C 
ATOM     20  C   LIG d   1       9.694  -4.334  -3.135  0.00  0.00     0.012 C 
ATOM     21  H   LIG d   1       9.510  -3.091  -4.886  0.00  0.00     0.044 H 
ATOM     22  H   LIG d   1       8.617  -2.497  -3.466  0.00  0.00     0.044 H 
ATOM     23  N   LIG d   1      10.038  -5.546  -3.892  0.00  0.00    -0.298 N 
ATOM     24  H   LIG d   1       9.092  -4.605  -2.267  0.00  0.00     0.044 H 
ATOM     25  H   LIG d   1      10.608  -3.841  -2.803  0.00  0.00     0.044 H 
ATOM     26  C   LIG d   1       8.827  -6.227  -4.368  0.00  0.00     0.012 C 
ATOM     27  C   LIG d   1       8.031  -5.278  -5.266  0.00  0.00     0.012 C 
ATOM     28  H   LIG d   1       8.215  -6.520  -3.515  0.00  0.00     0.044 H 
ATOM     29  H   LIG d   1       9.108  -7.114  -4.936  0.00  0.00     0.044 H 
ATOM     30  H   LIG d   1       7.117  -5.771  -5.598  0.00  0.00     0.044 H 
ATOM     31  H   LIG d   1       8.633  -5.007  -6.133  0.00  0.00     0.044 H 
BRANCH  23  32
ATOM     32  C   LIG d   1      10.869  -6.451  -3.086  0.00  0.00     0.022 C 
ATOM     33  H   LIG d   1      11.320  -7.204  -3.733  0.00  0.00     0.045 H 
ATOM     34  H   LIG d   1      11.654  -5.880  -2.590  0.00  0.00     0.045 H 
BRANCH  32  35
ATOM     35  C   LIG d   1       9.998  -7.141  -2.034  0.00  0.00     0.057 C 
ATOM     36  H   LIG d   1       8.957  -6.857  -2.182  0.00  0.00     0.057 H 
ATOM     37  H   LIG d   1      10.097  -8.222  -2.131  0.00  0.00     0.057 H 
BRANCH  35  38
ATOM     38  O   LIG d   1      10.419  -6.739  -0.728  0.00  0.00    -0.394 OA
ATOM     39  H   LIG d   1      10.563  -5.788  -0.636  0.00  0.00     0.209 HD
ENDBRANCH  35  38
ENDBRANCH  32  35
ENDBRANCH  23  32
ENDBRANCH  15  18
ENDBRANCH   9  15
BRANCH   8  40
ATOM     40  O   LIG d   1       4.482  -4.312  -4.330  0.00  0.00    -0.506 OA
ATOM     41  H   LIG d   1       4.650  -4.494  -5.265  0.00  0.00     0.292 HD
ENDBRANCH   8  40
BRANCH   1  42
ATOM     42  C   LIG d   1       9.099   1.856  -4.608  0.00  0.00     0.132 A 
ATOM     43  C   LIG d   1       9.222   2.184  -5.943  0.00  0.00    -0.016 A 
ATOM     44  C   LIG d   1      10.550   1.908  -6.301  0.00  0.00    -0.020 A 
ATOM     45  H   LIG d   1       8.450   2.578  -6.586  0.00  0.00     0.066 H 
ATOM     46  C   LIG d   1      11.171   1.434  -5.197  0.00  0.00     0.103 A 
ATOM     47  H   LIG d   1      10.994   2.049  -7.275  0.00  0.00     0.065 H 
ATOM     48  O   LIG d   1      10.295   1.398  -4.183  0.00  0.00    -0.461 OA
BRANCH  46  49
ATOM     49  C   LIG d   1      12.614   1.006  -5.123  0.00  0.00    -0.006 C 
ATOM     50  H   LIG d   1      12.742   0.300  -4.301  0.00  0.00     0.031 H 
ATOM     51  H   LIG d   1      12.901   0.529  -6.059  0.00  0.00     0.031 H 
ATOM     52  H   LIG d   1      13.243   1.879  -4.952  0.00  0.00     0.031 H 
ENDBRANCH  46  49
ENDBRANCH   1  42
TORSDOF 8
ENDMDL
MODEL 7
REMARK VINA RESULT:      -5.5      3.119      5.442
REMARK  8 active torsions:
REMARK  status: ('A' for Active; 'I' for Inactive)
REMARK    1  A    between atoms: C_1  and  C_2 
REMARK    2  A    between atoms: C_5  and  C_7 
REMARK    3  A    between atoms: C_14  and  O_28 
REMARK    4  A    between atoms: C_15  and  C_18 
REMARK    5  A    between atoms: C_18  and  N_19 
REMARK    6  A    between atoms: N_22  and  C_25 
REMARK    7  A    between atoms: C_25  and  C_26 
REMARK    8  A    between atoms: C_26  and  O_27 
ROOT
ATOM      1  C   LIG d   1       6.035  -2.179  -3.395  0.00  0.00     0.027 C 
ATOM      2  C   LIG d   1       7.224  -1.863  -3.986  0.00  0.00     0.179 A 
ATOM      3  C   LIG d   1       8.323  -2.746  -4.166  0.00  0.00     0.232 A 
ATOM      4  O   LIG d   1       8.394  -3.917  -3.832  0.00  0.00    -0.283 OA
ATOM      5  C   LIG d   1       9.356  -1.943  -4.842  0.00  0.00     0.068 A 
ATOM      6  C   LIG d   1      10.647  -2.219  -5.290  0.00  0.00    -0.044 A 
ATOM      7  C   LIG d   1      11.382  -1.239  -5.897  0.00  0.00    -0.019 A 
ATOM      8  C   LIG d   1      10.844   0.033  -6.071  0.00  0.00     0.125 A 
ATOM      9  C   LIG d   1       9.562   0.323  -5.630  0.00  0.00     0.051 A 
ATOM     10  C   LIG d   1       8.804  -0.662  -5.012  0.00  0.00     0.147 A 
ATOM     11  O   LIG d   1       7.553  -0.656  -4.503  0.00  0.00    -0.451 OA
ATOM     12  H   LIG d   1       5.871  -3.175  -3.013  0.00  0.00     0.069 H 
ATOM     13  H   LIG d   1      11.067  -3.205  -5.157  0.00  0.00     0.063 H 
ATOM     14  H   LIG d   1      12.381  -1.453  -6.244  0.00  0.00     0.065 H 
ENDROOT
BRANCH   9  15
ATOM     15  C   LIG d   1       8.993   1.705  -5.823  0.00  0.00     0.031 C 
ATOM     16  H   LIG d   1       9.061   1.983  -6.874  0.00  0.00     0.048 H 
ATOM     17  H   LIG d   1       7.948   1.713  -5.511  0.00  0.00     0.048 H 
BRANCH  15  18
ATOM     18  N   LIG d   1       9.752   2.666  -5.012  0.00  0.00    -0.295 N 
ATOM     19  C   LIG d   1       9.478   2.481  -3.580  0.00  0.00     0.012 C 
ATOM     20  C   LIG d   1      10.345   3.446  -2.769  0.00  0.00     0.012 C 
ATOM     21  H   LIG d   1       8.425   2.685  -3.383  0.00  0.00     0.044 H 
ATOM     22  H   LIG d   1       9.709   1.455  -3.295  0.00  0.00     0.044 H 
ATOM     23  N   LIG d   1      10.058   4.826  -3.184  0.00  0.00    -0.298 N 
ATOM     24  H   LIG d   1      11.398   3.224  -2.945  0.00  0.00     0.044 H 
ATOM     25  H   LIG d   1      10.122   3.331  -1.708  0.00  0.00     0.044 H 
ATOM     26  C   LIG d   1      10.333   5.011  -4.614  0.00  0.00     0.012 C 
ATOM     27  C   LIG d   1       9.466   4.047  -5.427  0.00  0.00     0.012 C 
ATOM     28  H   LIG d   1      11.385   4.808  -4.812  0.00  0.00     0.044 H 
ATOM     29  H   LIG d   1      10.101   6.037  -4.900  0.00  0.00     0.044 H 
ATOM     30  H   LIG d   1       9.688   4.162  -6.488  0.00  0.00     0.044 H 
ATOM     31  H   LIG d   1       8.413   4.269  -5.250  0.00  0.00     0.044 H 
BRANCH  23  32
ATOM     32  C   LIG d   1      10.818   5.788  -2.373  0.00  0.00     0.022 C 
ATOM     33  H   LIG d   1      11.719   6.084  -2.910  0.00  0.00     0.045 H 
ATOM     34  H   LIG d   1      10.204   6.667  -2.181  0.00  0.00     0.045 H 
BRANCH  32  35
ATOM     35  C   LIG d   1      11.208   5.138  -1.044  0.00  0.00     0.057 C 
ATOM     36  H   LIG d   1      11.075   4.059  -1.115  0.00  0.00     0.057 H 
ATOM     37  H   LIG d   1      12.251   5.361  -0.822  0.00  0.00     0.057 H 
BRANCH  35  38
ATOM     38  O   LIG d   1      10.378   5.652  -0.000  0.00  0.00    -0.394 OA
ATOM     39  H   LIG d   1      10.386   5.120   0.807  0.00  0.00     0.209 HD
ENDBRANCH  35  38
ENDBRANCH  32  35
ENDBRANCH  23  32
ENDBRANCH  15  18
ENDBRANCH   9  15
BRANCH   8  40
ATOM     40  O   LIG d   1      11.582   1.000  -6.675  0.00  0.00    -0.506 OA
ATOM     41  H   LIG d   1      11.059   1.736  -7.020  0.00  0.00     0.292 HD
ENDBRANCH   8  40
BRANCH   1  42
ATOM     42  C   LIG d   1       5.019  -1.204  -3.285  0.00  0.00     0.132 A 
ATOM     43  C   LIG d   1       4.573  -0.620  -2.116  0.00  0.00    -0.016 A 
ATOM     44  C   LIG d   1       3.563   0.283  -2.480  0.00  0.00    -0.020 A 
ATOM     45  H   LIG d   1       4.932  -0.819  -1.117  0.00  0.00     0.066 H 
ATOM     46  C   LIG d   1       3.435   0.218  -3.825  0.00  0.00     0.103 A 
ATOM     47  H   LIG d   1       2.996   0.913  -1.812  0.00  0.00     0.065 H 
ATOM     48  O   LIG d   1       4.306  -0.681  -4.305  0.00  0.00    -0.461 OA
BRANCH  46  49
ATOM     49  C   LIG d   1       2.462   1.020  -4.649  0.00  0.00    -0.006 C 
ATOM     50  H   LIG d   1       2.243   0.487  -5.574  0.00  0.00     0.031 H 
ATOM     51  H   LIG d   1       1.540   1.164  -4.086  0.00  0.00     0.031 H 
ATOM     52  H   LIG d   1       2.899   1.990  -4.885  0.00  0.00     0.031 H 
ENDBRANCH  46  49
ENDBRANCH   1  42
TORSDOF 8
ENDMDL
MODEL 8
REMARK VINA RESULT:      -5.5      4.659      8.038
REMARK  8 active torsions:
REMARK  status: ('A' for Active; 'I' for Inactive)
REMARK    1  A    between atoms: C_1  and  C_2 
REMARK    2  A    between atoms: C_5  and  C_7 
REMARK    3  A    between atoms: C_14  and  O_28 
REMARK    4  A    between atoms: C_15  and  C_18 
REMARK    5  A    between atoms: C_18  and  N_19 
REMARK    6  A    between atoms: N_22  and  C_25 
REMARK    7  A    between atoms: C_25  and  C_26 
REMARK    8  A    between atoms: C_26  and  O_27 
ROOT
ATOM      1  C   LIG d   1       6.591  -1.982  -3.496  0.00  0.00     0.027 C 
ATOM      2  C   LIG d   1       6.906  -3.105  -4.204  0.00  0.00     0.179 A 
ATOM      3  C   LIG d   1       8.207  -3.661  -4.344  0.00  0.00     0.232 A 
ATOM      4  O   LIG d   1       9.247  -3.241  -3.865  0.00  0.00    -0.283 OA
ATOM      5  C   LIG d   1       8.028  -4.853  -5.190  0.00  0.00     0.068 A 
ATOM      6  C   LIG d   1       8.902  -5.818  -5.688  0.00  0.00    -0.044 A 
ATOM      7  C   LIG d   1       8.424  -6.833  -6.469  0.00  0.00    -0.019 A 
ATOM      8  C   LIG d   1       7.067  -6.906  -6.768  0.00  0.00     0.125 A 
ATOM      9  C   LIG d   1       6.185  -5.954  -6.282  0.00  0.00     0.051 A 
ATOM     10  C   LIG d   1       6.656  -4.918  -5.486  0.00  0.00     0.147 A 
ATOM     11  O   LIG d   1       6.031  -3.880  -4.887  0.00  0.00    -0.451 OA
ATOM     12  H   LIG d   1       7.366  -1.432  -2.983  0.00  0.00     0.069 H 
ATOM     13  H   LIG d   1       9.956  -5.764  -5.457  0.00  0.00     0.063 H 
ATOM     14  H   LIG d   1       9.101  -7.580  -6.854  0.00  0.00     0.065 H 
ENDROOT
BRANCH   9  15
ATOM     15  C   LIG d   1       4.718  -6.043  -6.614  0.00  0.00     0.031 C 
ATOM     16  H   LIG d   1       4.434  -7.089  -6.727  0.00  0.00     0.048 H 
ATOM     17  H   LIG d   1       4.135  -5.593  -5.810  0.00  0.00     0.048 H 
BRANCH  15  18
ATOM     18  N   LIG d   1       4.455  -5.327  -7.868  0.00  0.00    -0.295 N 
ATOM     19  C   LIG d   1       3.836  -4.019  -7.609  0.00  0.00     0.012 C 
ATOM     20  C   LIG d   1       3.651  -3.274  -8.932  0.00  0.00     0.012 C 
ATOM     21  H   LIG d   1       2.865  -4.165  -7.134  0.00  0.00     0.044 H 
ATOM     22  H   LIG d   1       4.479  -3.437  -6.950  0.00  0.00     0.044 H 
ATOM     23  N   LIG d   1       2.814  -4.080  -9.833  0.00  0.00    -0.298 N 
ATOM     24  H   LIG d   1       4.624  -3.105  -9.394  0.00  0.00     0.044 H 
ATOM     25  H   LIG d   1       3.166  -2.315  -8.746  0.00  0.00     0.044 H 
ATOM     26  C   LIG d   1       3.433  -5.386 -10.093  0.00  0.00     0.012 C 
ATOM     27  C   LIG d   1       3.618  -6.133  -8.770  0.00  0.00     0.012 C 
ATOM     28  H   LIG d   1       4.403  -5.242 -10.568  0.00  0.00     0.044 H 
ATOM     29  H   LIG d   1       2.789  -5.970 -10.752  0.00  0.00     0.044 H 
ATOM     30  H   LIG d   1       4.103  -7.091  -8.957  0.00  0.00     0.044 H 
ATOM     31  H   LIG d   1       2.645  -6.302  -8.308  0.00  0.00     0.044 H 
BRANCH  23  32
ATOM     32  C   LIG d   1       2.551  -3.363 -11.089  0.00  0.00     0.022 C 
ATOM     33  H   LIG d   1       2.933  -2.345 -11.013  0.00  0.00     0.045 H 
ATOM     34  H   LIG d   1       3.047  -3.877 -11.911  0.00  0.00     0.045 H 
BRANCH  32  35
ATOM     35  C   LIG d   1       1.044  -3.323 -11.346  0.00  0.00     0.057 C 
ATOM     36  H   LIG d   1       0.768  -2.345 -11.739  0.00  0.00     0.057 H 
ATOM     37  H   LIG d   1       0.778  -4.094 -12.070  0.00  0.00     0.057 H 
BRANCH  35  38
ATOM     38  O   LIG d   1       0.344  -3.558 -10.122  0.00  0.00    -0.394 OA
ATOM     39  H   LIG d   1       0.176  -2.759  -9.604  0.00  0.00     0.209 HD
ENDBRANCH  35  38
ENDBRANCH  32  35
ENDBRANCH  23  32
ENDBRANCH  15  18
ENDBRANCH   9  15
BRANCH   8  40
ATOM     40  O   LIG d   1       6.602  -7.918  -7.545  0.00  0.00    -0.506 OA
ATOM     41  H   LIG d   1       6.888  -8.797  -7.259  0.00  0.00     0.292 HD
ENDBRANCH   8  40
BRANCH   1  42
ATOM     42  C   LIG d   1       5.251  -1.539  -3.432  0.00  0.00     0.132 A 
ATOM     43  C   LIG d   1       4.328  -1.872  -2.460  0.00  0.00    -0.016 A 
ATOM     44  C   LIG d   1       3.138  -1.209  -2.795  0.00  0.00    -0.020 A 
ATOM     45  H   LIG d   1       4.491  -2.516  -1.609  0.00  0.00     0.066 H 
ATOM     46  C   LIG d   1       3.375  -0.513  -3.931  0.00  0.00     0.103 A 
ATOM     47  H   LIG d   1       2.209  -1.246  -2.249  0.00  0.00     0.065 H 
ATOM     48  O   LIG d   1       4.643  -0.718  -4.314  0.00  0.00    -0.461 OA
BRANCH  46  49
ATOM     49  C   LIG d   1       2.371   0.347  -4.653  0.00  0.00    -0.006 C 
ATOM     50  H   LIG d   1       1.971  -0.200  -5.507  0.00  0.00     0.031 H 
ATOM     51  H   LIG d   1       1.558   0.606  -3.974  0.00  0.00     0.031 H 
ATOM     52  H   LIG d   1       2.857   1.258  -5.001  0.00  0.00     0.031 H 
ENDBRANCH  46  49
ENDBRANCH   1  42
TORSDOF 8
ENDMDL
MODEL 9
REMARK VINA RESULT:      -5.4      5.803      8.489
REMARK  8 active torsions:
REMARK  status: ('A' for Active; 'I' for Inactive)
REMARK    1  A    between atoms: C_1  and  C_2 
REMARK    2  A    between atoms: C_5  and  C_7 
REMARK    3  A    between atoms: C_14  and  O_28 
REMARK    4  A    between atoms: C_15  and  C_18 
REMARK    5  A    between atoms: C_18  and  N_19 
REMARK    6  A    between atoms: N_22  and  C_25 
REMARK    7  A    between atoms: C_25  and  C_26 
REMARK    8  A    between atoms: C_26  and  O_27 
ROOT
ATOM      1  C   LIG d   1       9.979   6.248  -8.223  0.00  0.00     0.027 C 
ATOM      2  C   LIG d   1      10.028   5.430  -7.132  0.00  0.00     0.179 A 
ATOM      3  C   LIG d   1       9.494   4.115  -7.055  0.00  0.00     0.232 A 
ATOM      4  O   LIG d   1       8.910   3.500  -7.931  0.00  0.00    -0.283 OA
ATOM      5  C   LIG d   1       9.797   3.655  -5.688  0.00  0.00     0.068 A 
ATOM      6  C   LIG d   1       9.545   2.472  -4.994  0.00  0.00    -0.044 A 
ATOM      7  C   LIG d   1       9.962   2.340  -3.700  0.00  0.00    -0.019 A 
ATOM      8  C   LIG d   1      10.638   3.382  -3.072  0.00  0.00     0.125 A 
ATOM      9  C   LIG d   1      10.896   4.565  -3.748  0.00  0.00     0.051 A 
ATOM     10  C   LIG d   1      10.479   4.713  -5.064  0.00  0.00     0.147 A 
ATOM     11  O   LIG d   1      10.600   5.732  -5.943  0.00  0.00    -0.451 OA
ATOM     12  H   LIG d   1       9.498   5.911  -9.129  0.00  0.00     0.069 H 
ATOM     13  H   LIG d   1       9.021   1.662  -5.479  0.00  0.00     0.063 H 
ATOM     14  H   LIG d   1       9.766   1.425  -3.162  0.00  0.00     0.065 H 
ENDROOT
BRANCH   9  15
ATOM     15  C   LIG d   1      11.627   5.686  -3.057  0.00  0.00     0.031 C 
ATOM     16  H   LIG d   1      12.019   5.331  -2.104  0.00  0.00     0.048 H 
ATOM     17  H   LIG d   1      12.451   6.023  -3.685  0.00  0.00     0.048 H 
BRANCH  15  18
ATOM     18  N   LIG d   1      10.703   6.802  -2.821  0.00  0.00    -0.295 N 
ATOM     19  C   LIG d   1      11.254   8.062  -3.339  0.00  0.00     0.012 C 
ATOM     20  C   LIG d   1      10.230   9.182  -3.145  0.00  0.00     0.012 C 
ATOM     21  H   LIG d   1      12.169   8.307  -2.799  0.00  0.00     0.044 H 
ATOM     22  H   LIG d   1      11.477   7.951  -4.400  0.00  0.00     0.044 H 
ATOM     23  N   LIG d   1       9.904   9.302  -1.716  0.00  0.00    -0.298 N 
ATOM     24  H   LIG d   1       9.325   8.949  -3.706  0.00  0.00     0.044 H 
ATOM     25  H   LIG d   1      10.648  10.124  -3.502  0.00  0.00     0.044 H 
ATOM     26  C   LIG d   1       9.353   8.043  -1.198  0.00  0.00     0.012 C 
ATOM     27  C   LIG d   1      10.376   6.922  -1.392  0.00  0.00     0.012 C 
ATOM     28  H   LIG d   1       8.438   7.797  -1.737  0.00  0.00     0.044 H 
ATOM     29  H   LIG d   1       9.131   8.153  -0.136  0.00  0.00     0.044 H 
ATOM     30  H   LIG d   1       9.958   5.981  -1.034  0.00  0.00     0.044 H 
ATOM     31  H   LIG d   1      11.281   7.155  -0.830  0.00  0.00     0.044 H 
BRANCH  23  32
ATOM     32  C   LIG d   1       8.979  10.419  -1.480  0.00  0.00     0.022 C 
ATOM     33  H   LIG d   1       7.989  10.028  -1.247  0.00  0.00     0.045 H 
ATOM     34  H   LIG d   1       9.339  11.018  -0.644  0.00  0.00     0.045 H 
BRANCH  32  35
ATOM     35  C   LIG d   1       8.900  11.289  -2.735  0.00  0.00     0.057 C 
ATOM     36  H   LIG d   1       9.442  12.220  -2.567  0.00  0.00     0.057 H 
ATOM     37  H   LIG d   1       9.346  10.757  -3.576  0.00  0.00     0.057 H 
BRANCH  35  38
ATOM     38  O   LIG d   1       7.532  11.582  -3.028  0.00  0.00    -0.394 OA
ATOM     39  H   LIG d   1       7.132  10.986  -3.676  0.00  0.00     0.209 HD
ENDBRANCH  35  38
ENDBRANCH  32  35
ENDBRANCH  23  32
ENDBRANCH  15  18
ENDBRANCH   9  15
BRANCH   8  40
ATOM     40  O   LIG d   1      11.048   3.241  -1.785  0.00  0.00    -0.506 OA
ATOM     41  H   LIG d   1      12.008   3.278  -1.672  0.00  0.00     0.292 HD
ENDBRANCH   8  40
BRANCH   1  42
ATOM     42  C   LIG d   1      10.557   7.535  -8.168  0.00  0.00     0.132 A 
ATOM     43  C   LIG d   1      11.836   7.872  -8.567  0.00  0.00    -0.016 A 
ATOM     44  C   LIG d   1      11.978   9.248  -8.335  0.00  0.00    -0.020 A 
ATOM     45  H   LIG d   1      12.580   7.206  -8.979  0.00  0.00     0.066 H 
ATOM     46  C   LIG d   1      10.809   9.688  -7.816  0.00  0.00     0.103 A 
ATOM     47  H   LIG d   1      12.855   9.843  -8.534  0.00  0.00     0.065 H 
ATOM     48  O   LIG d   1       9.960   8.656  -7.711  0.00  0.00    -0.461 OA
BRANCH  46  49
ATOM     49  C   LIG d   1      10.513  11.109  -7.412  0.00  0.00    -0.006 C 
ATOM     50  H   LIG d   1      10.790  11.255  -6.368  0.00  0.00     0.031 H 
ATOM     51  H   LIG d   1      11.085  11.792  -8.039  0.00  0.00     0.031 H 
ATOM     52  H   LIG d   1       9.449  11.308  -7.536  0.00  0.00     0.031 H 
ENDBRANCH  46  49
ENDBRANCH   1  42
TORSDOF 8
ENDMDL
MODEL 10
REMARK VINA RESULT:      -5.4      4.242      8.258
REMARK  8 active torsions:
REMARK  status: ('A' for Active; 'I' for Inactive)
REMARK    1  A    between atoms: C_1  and  C_2 
REMARK    2  A    between atoms: C_5  and  C_7 
REMARK    3  A    between atoms: C_14  and  O_28 
REMARK    4  A    between atoms: C_15  and  C_18 
REMARK    5  A    between atoms: C_18  and  N_19 
REMARK    6  A    between atoms: N_22  and  C_25 
REMARK    7  A    between atoms: C_25  and  C_26 
REMARK    8  A    between atoms: C_26  and  O_27 
ROOT
ATOM      1  C   LIG d   1       4.192  -1.750  -5.114  0.00  0.00     0.027 C 
ATOM      2  C   LIG d   1       4.017  -0.983  -6.229  0.00  0.00     0.179 A 
ATOM      3  C   LIG d   1       3.398   0.295  -6.268  0.00  0.00     0.232 A 
ATOM      4  O   LIG d   1       2.926   0.919  -5.332  0.00  0.00    -0.283 OA
ATOM      5  C   LIG d   1       3.451   0.706  -7.682  0.00  0.00     0.068 A 
ATOM      6  C   LIG d   1       3.020   1.840  -8.370  0.00  0.00    -0.044 A 
ATOM      7  C   LIG d   1       3.216   1.933  -9.719  0.00  0.00    -0.019 A 
ATOM      8  C   LIG d   1       3.846   0.901 -10.408  0.00  0.00     0.125 A 
ATOM      9  C   LIG d   1       4.279  -0.233  -9.739  0.00  0.00     0.051 A 
ATOM     10  C   LIG d   1       4.088  -0.341  -8.368  0.00  0.00     0.147 A 
ATOM     11  O   LIG d   1       4.409  -1.310  -7.483  0.00  0.00    -0.451 OA
ATOM     12  H   LIG d   1       3.842  -1.398  -4.156  0.00  0.00     0.069 H 
ATOM     13  H   LIG d   1       2.531   2.643  -7.838  0.00  0.00     0.063 H 
ATOM     14  H   LIG d   1       2.882   2.811 -10.252  0.00  0.00     0.065 H 
ENDROOT
BRANCH   9  15
ATOM     15  C   LIG d   1       4.959  -1.344 -10.497  0.00  0.00     0.031 C 
ATOM     16  H   LIG d   1       5.141  -1.025 -11.523  0.00  0.00     0.048 H 
ATOM     17  H   LIG d   1       5.907  -1.583 -10.017  0.00  0.00     0.048 H 
BRANCH  15  18
ATOM     18  N   LIG d   1       4.097  -2.533 -10.499  0.00  0.00    -0.295 N 
ATOM     19  C   LIG d   1       4.897  -3.764 -10.412  0.00  0.00     0.012 C 
ATOM     20  C   LIG d   1       3.962  -4.972 -10.337  0.00  0.00     0.012 C 
ATOM     21  H   LIG d   1       5.531  -3.848 -11.295  0.00  0.00     0.044 H 
ATOM     22  H   LIG d   1       5.520  -3.729  -9.519  0.00  0.00     0.044 H 
ATOM     23  N   LIG d   1       3.096  -4.993 -11.525  0.00  0.00    -0.298 N 
ATOM     24  H   LIG d   1       3.347  -4.902  -9.440  0.00  0.00     0.044 H 
ATOM     25  H   LIG d   1       4.553  -5.888 -10.302  0.00  0.00     0.044 H 
ATOM     26  C   LIG d   1       2.297  -3.764 -11.612  0.00  0.00     0.012 C 
ATOM     27  C   LIG d   1       3.231  -2.555 -11.687  0.00  0.00     0.012 C 
ATOM     28  H   LIG d   1       1.662  -3.680 -10.730  0.00  0.00     0.044 H 
ATOM     29  H   LIG d   1       1.674  -3.797 -12.506  0.00  0.00     0.044 H 
ATOM     30  H   LIG d   1       2.640  -1.639 -11.722  0.00  0.00     0.044 H 
ATOM     31  H   LIG d   1       3.846  -2.625 -12.584  0.00  0.00     0.044 H 
BRANCH  23  32
ATOM     32  C   LIG d   1       2.234  -6.183 -11.527  0.00  0.00     0.022 C 
ATOM     33  H   LIG d   1       1.266  -5.930 -11.959  0.00  0.00     0.045 H 
ATOM     34  H   LIG d   1       2.702  -6.970 -12.119  0.00  0.00     0.045 H 
BRANCH  32  35
ATOM     35  C   LIG d   1       2.039  -6.673 -10.091  0.00  0.00     0.057 C 
ATOM     36  H   LIG d   1       2.045  -7.762 -10.074  0.00  0.00     0.057 H 
ATOM     37  H   LIG d   1       2.847  -6.295  -9.465  0.00  0.00     0.057 H 
BRANCH  35  38
ATOM     38  O   LIG d   1       0.787  -6.197  -9.591  0.00  0.00    -0.394 OA
ATOM     39  H   LIG d   1       0.867  -5.482  -8.945  0.00  0.00     0.209 HD
ENDBRANCH  35  38
ENDBRANCH  32  35
ENDBRANCH  23  32
ENDBRANCH  15  18
ENDBRANCH   9  15
BRANCH   8  40
ATOM     40  O   LIG d   1       4.036   1.004 -11.749  0.00  0.00    -0.506 OA
ATOM     41  H   LIG d   1       3.571   0.331 -12.265  0.00  0.00     0.292 HD
ENDBRANCH   8  40
BRANCH   1  42
ATOM     42  C   LIG d   1       4.831  -3.006  -5.213  0.00  0.00     0.132 A 
ATOM     43  C   LIG d   1       6.188  -3.240  -5.106  0.00  0.00    -0.016 A 
ATOM     44  C   LIG d   1       6.370  -4.621  -5.267  0.00  0.00    -0.020 A 
ATOM     45  H   LIG d   1       6.959  -2.504  -4.931  0.00  0.00     0.066 H 
ATOM     46  C   LIG d   1       5.146  -5.165  -5.461  0.00  0.00     0.103 A 
ATOM     47  H   LIG d   1       7.309  -5.151  -5.240  0.00  0.00     0.065 H 
ATOM     48  O   LIG d   1       4.225  -4.191  -5.435  0.00  0.00    -0.461 OA
BRANCH  46  49
ATOM     49  C   LIG d   1       4.866  -6.629  -5.682  0.00  0.00    -0.006 C 
ATOM     50  H   LIG d   1       3.997  -6.925  -5.094  0.00  0.00     0.031 H 
ATOM     51  H   LIG d   1       4.668  -6.807  -6.739  0.00  0.00     0.031 H 
ATOM     52  H   LIG d   1       5.731  -7.215  -5.371  0.00  0.00     0.031 H 
ENDBRANCH  46  49
ENDBRANCH   1  42
TORSDOF 8
ENDMDL
