MODEL 1
REMARK VINA RESULT:      -6.3      0.000      0.000
REMARK  12 active torsions:
REMARK  status: ('A' for Active; 'I' for Inactive)
REMARK    1  A    between atoms: C_1  and  C_2 
REMARK    2  A    between atoms: C_2  and  C_3 
REMARK    3  A    between atoms: C_2  and  C_4 
REMARK    4  A    between atoms: C_7  and  C_11 
REMARK    5  A    between atoms: C_7  and  C_23 
REMARK    6  A    between atoms: C_11  and  C_12 
REMARK    7  A    between atoms: C_12  and  N_13 
REMARK    8  A    between atoms: N_13  and  C_14 
REMARK       I    between atoms: N_13  and  C_20 
REMARK    9  A    between atoms: C_14  and  C_15 
REMARK   10  A    between atoms: C_20  and  C_22 
REMARK   11  A    between atoms: C_28  and  O_29 
REMARK   12  A    between atoms: O_29  and  C_30 
ROOT
ATOM      1  C   LIG d   1       6.047  -4.323  -5.603  0.00  0.00     0.062 C 
ATOM      2  H   LIG d   1       5.896  -3.947  -6.615  0.00  0.00     0.060 H 
ATOM      3  C   LIG d   1       5.430  -3.345  -4.599  0.00  0.00    -0.017 C 
ATOM      4  C   LIG d   1       6.145  -1.996  -4.707  0.00  0.00     0.005 C 
ATOM      5  C   LIG d   1       7.644  -2.204  -4.469  0.00  0.00    -0.019 C 
ATOM      6  C   LIG d   1       8.177  -3.226  -5.477  0.00  0.00     0.049 C 
ATOM      7  O   LIG d   1       7.447  -4.447  -5.346  0.00  0.00    -0.376 OA
ATOM      8  H   LIG d   1       5.546  -3.739  -3.589  0.00  0.00     0.030 H 
ATOM      9  H   LIG d   1       4.371  -3.215  -4.821  0.00  0.00     0.030 H 
ATOM     10  H   LIG d   1       8.169  -1.257  -4.599  0.00  0.00     0.030 H 
ATOM     11  H   LIG d   1       7.805  -2.574  -3.456  0.00  0.00     0.030 H 
ATOM     12  H   LIG d   1       8.054  -2.836  -6.488  0.00  0.00     0.056 H 
ATOM     13  H   LIG d   1       9.234  -3.410  -5.285  0.00  0.00     0.056 H 
ENDROOT
BRANCH   4  14
ATOM     14  C   LIG d   1       5.926  -1.407  -6.101  0.00  0.00    -0.027 C 
ATOM     15  H   LIG d   1       6.312  -0.387  -6.130  0.00  0.00     0.029 H 
ATOM     16  H   LIG d   1       6.452  -2.014  -6.838  0.00  0.00     0.029 H 
BRANCH  14  17
ATOM     17  C   LIG d   1       4.430  -1.396  -6.422  0.00  0.00     0.016 C 
ATOM     18  H   LIG d   1       4.204  -2.196  -7.126  0.00  0.00     0.046 H 
ATOM     19  H   LIG d   1       3.861  -1.547  -5.505  0.00  0.00     0.046 H 
BRANCH  17  20
ATOM     20  N   LIG d   1       4.067  -0.106  -7.014  0.00  0.00    -0.294 N 
ATOM     21  C   LIG d   1       3.120   0.659  -6.436  0.00  0.00     0.213 C 
ATOM     22  O   LIG d   1       2.757   1.684  -6.974  0.00  0.00    -0.276 OA
BRANCH  20  23
ATOM     23  C   LIG d   1       4.735   0.353  -8.235  0.00  0.00     0.073 C 
ATOM     24  H   LIG d   1       4.691   1.440  -8.287  0.00  0.00     0.054 H 
ATOM     25  H   LIG d   1       5.776   0.032  -8.223  0.00  0.00     0.054 H 
BRANCH  23  26
ATOM     26  C   LIG d   1       4.043  -0.236  -9.437  0.00  0.00     0.122 A 
ATOM     27  O   LIG d   1       4.268  -1.455  -9.954  0.00  0.00    -0.466 OA
ATOM     28  C   LIG d   1       3.471  -1.645 -11.018  0.00  0.00     0.092 A 
ATOM     29  C   LIG d   1       2.731  -0.536 -11.198  0.00  0.00    -0.024 A 
ATOM     30  H   LIG d   1       3.433  -2.535 -11.629  0.00  0.00     0.103 H 
ATOM     31  C   LIG d   1       3.100   0.372 -10.178  0.00  0.00    -0.019 A 
ATOM     32  H   LIG d   1       1.996  -0.371 -11.972  0.00  0.00     0.065 H 
ATOM     33  H   LIG d   1       2.701   1.364 -10.025  0.00  0.00     0.065 H 
ENDBRANCH  23  26
ENDBRANCH  20  23
BRANCH  21  34
ATOM     34  C   LIG d   1       2.511   0.240  -5.124  0.00  0.00     0.012 C 
ATOM     35  H   LIG d   1       1.425   0.249  -5.207  0.00  0.00     0.032 H 
ATOM     36  H   LIG d   1       2.847  -0.766  -4.872  0.00  0.00     0.032 H 
ATOM     37  H   LIG d   1       2.821   0.932  -4.341  0.00  0.00     0.032 H 
ENDBRANCH  21  34
ENDBRANCH  17  20
ENDBRANCH  14  17
ENDBRANCH   4  14
BRANCH   4  38
ATOM     38  C   LIG d   1       5.598  -1.050  -3.668  0.00  0.00     0.001 A 
ATOM     39  C   LIG d   1       5.948   0.292  -3.699  0.00  0.00     0.124 A 
ATOM     40  C   LIG d   1       5.444   1.160  -2.743  0.00  0.00    -0.020 A 
ATOM     41  C   LIG d   1       4.593   0.687  -1.762  0.00  0.00    -0.058 A 
ATOM     42  H   LIG d   1       5.715   2.205  -2.763  0.00  0.00     0.065 H 
ATOM     43  C   LIG d   1       4.247  -0.651  -1.732  0.00  0.00    -0.061 A 
ATOM     44  H   LIG d   1       4.201   1.363  -1.017  0.00  0.00     0.062 H 
ATOM     45  C   LIG d   1       4.744  -1.517  -2.688  0.00  0.00    -0.055 A 
ATOM     46  H   LIG d   1       3.582  -1.019  -0.965  0.00  0.00     0.062 H 
ATOM     47  H   LIG d   1       4.468  -2.561  -2.666  0.00  0.00     0.062 H 
BRANCH  39  48
ATOM     48  O   LIG d   1       6.786   0.755  -4.664  0.00  0.00    -0.495 OA
BRANCH  48  49
ATOM     49  C   LIG d   1       7.847   1.615  -4.245  0.00  0.00     0.079 C 
ATOM     50  H   LIG d   1       8.781   1.053  -4.216  0.00  0.00     0.066 H 
ATOM     51  H   LIG d   1       7.942   2.444  -4.946  0.00  0.00     0.066 H 
ATOM     52  H   LIG d   1       7.628   2.004  -3.251  0.00  0.00     0.066 H 
ENDBRANCH  48  49
ENDBRANCH  39  48
ENDBRANCH   4  38
BRANCH   1  53
ATOM     53  C   LIG d   1       5.378  -5.691  -5.460  0.00  0.00    -0.020 C 
ATOM     54  H   LIG d   1       4.974  -5.794  -4.453  0.00  0.00     0.032 H 
BRANCH  53  55
ATOM     55  C   LIG d   1       4.245  -5.814  -6.479  0.00  0.00    -0.060 C 
ATOM     56  H   LIG d   1       4.660  -6.057  -7.458  0.00  0.00     0.023 H 
ATOM     57  H   LIG d   1       3.560  -6.603  -6.169  0.00  0.00     0.023 H 
ATOM     58  H   LIG d   1       3.706  -4.868  -6.540  0.00  0.00     0.023 H 
ENDBRANCH  53  55
BRANCH  53  59
ATOM     59  C   LIG d   1       6.411  -6.792  -5.710  0.00  0.00    -0.060 C 
ATOM     60  H   LIG d   1       7.400  -6.346  -5.818  0.00  0.00     0.023 H 
ATOM     61  H   LIG d   1       6.415  -7.484  -4.868  0.00  0.00     0.023 H 
ATOM     62  H   LIG d   1       6.154  -7.331  -6.622  0.00  0.00     0.023 H 
ENDBRANCH  53  59
ENDBRANCH   1  53
TORSDOF 12
ENDMDL
MODEL 2
REMARK VINA RESULT:      -5.7      2.274      4.847
REMARK  12 active torsions:
REMARK  status: ('A' for Active; 'I' for Inactive)
REMARK    1  A    between atoms: C_1  and  C_2 
REMARK    2  A    between atoms: C_2  and  C_3 
REMARK    3  A    between atoms: C_2  and  C_4 
REMARK    4  A    between atoms: C_7  and  C_11 
REMARK    5  A    between atoms: C_7  and  C_23 
REMARK    6  A    between atoms: C_11  and  C_12 
REMARK    7  A    between atoms: C_12  and  N_13 
REMARK    8  A    between atoms: N_13  and  C_14 
REMARK       I    between atoms: N_13  and  C_20 
REMARK    9  A    between atoms: C_14  and  C_15 
REMARK   10  A    between atoms: C_20  and  C_22 
REMARK   11  A    between atoms: C_28  and  O_29 
REMARK   12  A    between atoms: O_29  and  C_30 
ROOT
ATOM      1  C   LIG d   1       4.710  -1.557  -4.451  0.00  0.00     0.062 C 
ATOM      2  H   LIG d   1       4.986  -2.543  -4.826  0.00  0.00     0.060 H 
ATOM      3  C   LIG d   1       4.100  -0.732  -5.588  0.00  0.00    -0.017 C 
ATOM      4  C   LIG d   1       5.149  -0.536  -6.686  0.00  0.00     0.005 C 
ATOM      5  C   LIG d   1       6.387   0.134  -6.080  0.00  0.00    -0.019 C 
ATOM      6  C   LIG d   1       6.909  -0.723  -4.924  0.00  0.00     0.049 C 
ATOM      7  O   LIG d   1       5.874  -0.894  -3.955  0.00  0.00    -0.376 OA
ATOM      8  H   LIG d   1       3.788   0.240  -5.205  0.00  0.00     0.030 H 
ATOM      9  H   LIG d   1       3.238  -1.257  -5.998  0.00  0.00     0.030 H 
ATOM     10  H   LIG d   1       7.160   0.227  -6.843  0.00  0.00     0.030 H 
ATOM     11  H   LIG d   1       6.121   1.124  -5.709  0.00  0.00     0.030 H 
ATOM     12  H   LIG d   1       7.214  -1.698  -5.305  0.00  0.00     0.056 H 
ATOM     13  H   LIG d   1       7.764  -0.229  -4.462  0.00  0.00     0.056 H 
ENDROOT
BRANCH   4  14
ATOM     14  C   LIG d   1       5.539  -1.893  -7.274  0.00  0.00    -0.027 C 
ATOM     15  H   LIG d   1       6.051  -1.744  -8.225  0.00  0.00     0.029 H 
ATOM     16  H   LIG d   1       6.204  -2.411  -6.582  0.00  0.00     0.029 H 
BRANCH  14  17
ATOM     17  C   LIG d   1       4.280  -2.733  -7.498  0.00  0.00     0.016 C 
ATOM     18  H   LIG d   1       4.170  -3.447  -6.681  0.00  0.00     0.046 H 
ATOM     19  H   LIG d   1       3.408  -2.080  -7.530  0.00  0.00     0.046 H 
BRANCH  17  20
ATOM     20  N   LIG d   1       4.395  -3.456  -8.767  0.00  0.00    -0.294 N 
ATOM     21  C   LIG d   1       4.264  -4.798  -8.793  0.00  0.00     0.213 C 
ATOM     22  O   LIG d   1       4.447  -5.404  -9.827  0.00  0.00    -0.276 OA
BRANCH  20  23
ATOM     23  C   LIG d   1       4.653  -2.721 -10.008  0.00  0.00     0.073 C 
ATOM     24  H   LIG d   1       5.428  -1.975  -9.834  0.00  0.00     0.054 H 
ATOM     25  H   LIG d   1       4.983  -3.415 -10.780  0.00  0.00     0.054 H 
BRANCH  23  26
ATOM     26  C   LIG d   1       3.388  -2.035 -10.456  0.00  0.00     0.122 A 
ATOM     27  O   LIG d   1       2.207  -2.068  -9.816  0.00  0.00    -0.466 OA
ATOM     28  C   LIG d   1       1.306  -1.344 -10.500  0.00  0.00     0.092 A 
ATOM     29  C   LIG d   1       1.906  -0.846 -11.597  0.00  0.00    -0.024 A 
ATOM     30  H   LIG d   1       0.274  -1.191 -10.220  0.00  0.00     0.103 H 
ATOM     31  C   LIG d   1       3.247  -1.292 -11.568  0.00  0.00    -0.019 A 
ATOM     32  H   LIG d   1       1.449  -0.225 -12.354  0.00  0.00     0.065 H 
ATOM     33  H   LIG d   1       4.012  -1.077 -12.300  0.00  0.00     0.065 H 
ENDBRANCH  23  26
ENDBRANCH  20  23
BRANCH  21  34
ATOM     34  C   LIG d   1       3.892  -5.543  -7.538  0.00  0.00     0.012 C 
ATOM     35  H   LIG d   1       4.754  -6.102  -7.178  0.00  0.00     0.032 H 
ATOM     36  H   LIG d   1       3.575  -4.832  -6.774  0.00  0.00     0.032 H 
ATOM     37  H   LIG d   1       3.075  -6.232  -7.753  0.00  0.00     0.032 H 
ENDBRANCH  21  34
ENDBRANCH  17  20
ENDBRANCH  14  17
ENDBRANCH   4  14
BRANCH   4  38
ATOM     38  C   LIG d   1       4.584   0.341  -7.773  0.00  0.00     0.001 A 
ATOM     39  C   LIG d   1       5.387   0.736  -8.833  0.00  0.00     0.124 A 
ATOM     40  C   LIG d   1       4.865   1.543  -9.833  0.00  0.00    -0.020 A 
ATOM     41  C   LIG d   1       3.546   1.952  -9.771  0.00  0.00    -0.058 A 
ATOM     42  H   LIG d   1       5.487   1.853 -10.659  0.00  0.00     0.065 H 
ATOM     43  C   LIG d   1       2.748   1.558  -8.713  0.00  0.00    -0.061 A 
ATOM     44  H   LIG d   1       3.140   2.580 -10.550  0.00  0.00     0.062 H 
ATOM     45  C   LIG d   1       3.265   0.749  -7.719  0.00  0.00    -0.055 A 
ATOM     46  H   LIG d   1       1.718   1.878  -8.667  0.00  0.00     0.062 H 
ATOM     47  H   LIG d   1       2.639   0.439  -6.895  0.00  0.00     0.062 H 
BRANCH  39  48
ATOM     48  O   LIG d   1       6.684   0.334  -8.891  0.00  0.00    -0.495 OA
BRANCH  48  49
ATOM     49  C   LIG d   1       7.214   0.035 -10.184  0.00  0.00     0.079 C 
ATOM     50  H   LIG d   1       7.814   0.874 -10.534  0.00  0.00     0.066 H 
ATOM     51  H   LIG d   1       7.835  -0.859 -10.125  0.00  0.00     0.066 H 
ATOM     52  H   LIG d   1       6.394  -0.140 -10.881  0.00  0.00     0.066 H 
ENDBRANCH  48  49
ENDBRANCH  39  48
ENDBRANCH   4  38
BRANCH   1  53
ATOM     53  C   LIG d   1       3.687  -1.707  -3.324  0.00  0.00    -0.020 C 
ATOM     54  H   LIG d   1       3.211  -2.685  -3.392  0.00  0.00     0.032 H 
BRANCH  53  55
ATOM     55  C   LIG d   1       4.394  -1.578  -1.974  0.00  0.00    -0.060 C 
ATOM     56  H   LIG d   1       3.953  -0.755  -1.409  0.00  0.00     0.023 H 
ATOM     57  H   LIG d   1       4.281  -2.506  -1.413  0.00  0.00     0.023 H 
ATOM     58  H   LIG d   1       5.454  -1.378  -2.136  0.00  0.00     0.023 H 
ENDBRANCH  53  55
BRANCH  53  59
ATOM     59  C   LIG d   1       2.625  -0.613  -3.450  0.00  0.00    -0.060 C 
ATOM     60  H   LIG d   1       1.728  -1.028  -3.910  0.00  0.00     0.023 H 
ATOM     61  H   LIG d   1       2.380  -0.228  -2.461  0.00  0.00     0.023 H 
ATOM     62  H   LIG d   1       3.010   0.197  -4.071  0.00  0.00     0.023 H 
ENDBRANCH  53  59
ENDBRANCH   1  53
TORSDOF 12
ENDMDL
MODEL 3
REMARK VINA RESULT:      -5.6      1.806      3.005
REMARK  12 active torsions:
REMARK  status: ('A' for Active; 'I' for Inactive)
REMARK    1  A    between atoms: C_1  and  C_2 
REMARK    2  A    between atoms: C_2  and  C_3 
REMARK    3  A    between atoms: C_2  and  C_4 
REMARK    4  A    between atoms: C_7  and  C_11 
REMARK    5  A    between atoms: C_7  and  C_23 
REMARK    6  A    between atoms: C_11  and  C_12 
REMARK    7  A    between atoms: C_12  and  N_13 
REMARK    8  A    between atoms: N_13  and  C_14 
REMARK       I    between atoms: N_13  and  C_20 
REMARK    9  A    between atoms: C_14  and  C_15 
REMARK   10  A    between atoms: C_20  and  C_22 
REMARK   11  A    between atoms: C_28  and  O_29 
REMARK   12  A    between atoms: O_29  and  C_30 
ROOT
ATOM      1  C   LIG d   1       5.842  -4.014  -5.375  0.00  0.00     0.062 C 
ATOM      2  H   LIG d   1       6.095  -3.685  -6.382  0.00  0.00     0.060 H 
ATOM      3  C   LIG d   1       4.999  -2.938  -4.683  0.00  0.00    -0.017 C 
ATOM      4  C   LIG d   1       5.825  -1.655  -4.560  0.00  0.00     0.005 C 
ATOM      5  C   LIG d   1       7.116  -1.963  -3.795  0.00  0.00    -0.019 C 
ATOM      6  C   LIG d   1       7.877  -3.076  -4.518  0.00  0.00     0.049 C 
ATOM      7  O   LIG d   1       7.041  -4.229  -4.628  0.00  0.00    -0.376 OA
ATOM      8  H   LIG d   1       4.712  -3.283  -3.691  0.00  0.00     0.030 H 
ATOM      9  H   LIG d   1       4.105  -2.740  -5.275  0.00  0.00     0.030 H 
ATOM     10  H   LIG d   1       7.736  -1.067  -3.750  0.00  0.00     0.030 H 
ATOM     11  H   LIG d   1       6.871  -2.286  -2.783  0.00  0.00     0.030 H 
ATOM     12  H   LIG d   1       8.158  -2.736  -5.515  0.00  0.00     0.056 H 
ATOM     13  H   LIG d   1       8.775  -3.329  -3.954  0.00  0.00     0.056 H 
ENDROOT
BRANCH   4  14
ATOM     14  C   LIG d   1       6.171  -1.129  -5.954  0.00  0.00    -0.027 C 
ATOM     15  H   LIG d   1       6.859  -1.819  -6.443  0.00  0.00     0.029 H 
ATOM     16  H   LIG d   1       5.260  -1.047  -6.548  0.00  0.00     0.029 H 
BRANCH  14  17
ATOM     17  C   LIG d   1       6.828   0.247  -5.834  0.00  0.00     0.016 C 
ATOM     18  H   LIG d   1       6.072   0.988  -5.576  0.00  0.00     0.046 H 
ATOM     19  H   LIG d   1       7.590   0.219  -5.055  0.00  0.00     0.046 H 
BRANCH  17  20
ATOM     20  N   LIG d   1       7.448   0.606  -7.111  0.00  0.00    -0.294 N 
ATOM     21  C   LIG d   1       8.470   1.484  -7.142  0.00  0.00     0.213 C 
ATOM     22  O   LIG d   1       8.925   1.848  -8.206  0.00  0.00    -0.276 OA
BRANCH  20  23
ATOM     23  C   LIG d   1       6.958   0.009  -8.357  0.00  0.00     0.073 C 
ATOM     24  H   LIG d   1       7.756   0.008  -9.098  0.00  0.00     0.054 H 
ATOM     25  H   LIG d   1       6.637  -1.015  -8.167  0.00  0.00     0.054 H 
BRANCH  23  26
ATOM     26  C   LIG d   1       5.794   0.813  -8.874  0.00  0.00     0.122 A 
ATOM     27  O   LIG d   1       5.582   2.121  -8.652  0.00  0.00    -0.466 OA
ATOM     28  C   LIG d   1       4.451   2.502  -9.267  0.00  0.00     0.092 A 
ATOM     29  C   LIG d   1       3.920   1.431  -9.884  0.00  0.00    -0.024 A 
ATOM     30  H   LIG d   1       4.034   3.499  -9.264  0.00  0.00     0.103 H 
ATOM     31  C   LIG d   1       4.786   0.342  -9.630  0.00  0.00    -0.019 A 
ATOM     32  H   LIG d   1       3.008   1.407 -10.462  0.00  0.00     0.065 H 
ATOM     33  H   LIG d   1       4.662  -0.673  -9.977  0.00  0.00     0.065 H 
ENDBRANCH  23  26
ENDBRANCH  20  23
BRANCH  21  34
ATOM     34  C   LIG d   1       9.046   2.014  -5.854  0.00  0.00     0.012 C 
ATOM     35  H   LIG d   1       9.090   3.102  -5.897  0.00  0.00     0.032 H 
ATOM     36  H   LIG d   1       8.414   1.709  -5.021  0.00  0.00     0.032 H 
ATOM     37  H   LIG d   1      10.050   1.615  -5.713  0.00  0.00     0.032 H 
ENDBRANCH  21  34
ENDBRANCH  17  20
ENDBRANCH  14  17
ENDBRANCH   4  14
BRANCH   4  38
ATOM     38  C   LIG d   1       5.032  -0.614  -3.812  0.00  0.00     0.001 A 
ATOM     39  C   LIG d   1       3.862  -0.108  -4.358  0.00  0.00     0.124 A 
ATOM     40  C   LIG d   1       3.133   0.849  -3.668  0.00  0.00    -0.020 A 
ATOM     41  C   LIG d   1       3.575   1.296  -2.437  0.00  0.00    -0.058 A 
ATOM     42  H   LIG d   1       2.223   1.245  -4.091  0.00  0.00     0.065 H 
ATOM     43  C   LIG d   1       4.742   0.791  -1.895  0.00  0.00    -0.061 A 
ATOM     44  H   LIG d   1       3.008   2.041  -1.899  0.00  0.00     0.062 H 
ATOM     45  C   LIG d   1       5.466  -0.167  -2.579  0.00  0.00    -0.055 A 
ATOM     46  H   LIG d   1       5.085   1.142  -0.933  0.00  0.00     0.062 H 
ATOM     47  H   LIG d   1       6.376  -0.564  -2.151  0.00  0.00     0.062 H 
BRANCH  39  48
ATOM     48  O   LIG d   1       3.430  -0.549  -5.569  0.00  0.00    -0.495 OA
BRANCH  48  49
ATOM     49  C   LIG d   1       2.796   0.409  -6.420  0.00  0.00     0.079 C 
ATOM     50  H   LIG d   1       1.905  -0.035  -6.865  0.00  0.00     0.066 H 
ATOM     51  H   LIG d   1       2.513   1.284  -5.835  0.00  0.00     0.066 H 
ATOM     52  H   LIG d   1       3.486   0.707  -7.209  0.00  0.00     0.066 H 
ENDBRANCH  48  49
ENDBRANCH  39  48
ENDBRANCH   4  38
BRANCH   1  53
ATOM     53  C   LIG d   1       5.045  -5.317  -5.448  0.00  0.00    -0.020 C 
ATOM     54  H   LIG d   1       4.538  -5.487  -4.497  0.00  0.00     0.032 H 
BRANCH  53  55
ATOM     55  C   LIG d   1       4.008  -5.219  -6.568  0.00  0.00    -0.060 C 
ATOM     56  H   LIG d   1       3.321  -4.399  -6.356  0.00  0.00     0.023 H 
ATOM     57  H   LIG d   1       4.513  -5.035  -7.516  0.00  0.00     0.023 H 
ATOM     58  H   LIG d   1       3.450  -6.154  -6.630  0.00  0.00     0.023 H 
ENDBRANCH  53  55
BRANCH  53  59
ATOM     59  C   LIG d   1       5.996  -6.482  -5.732  0.00  0.00    -0.060 C 
ATOM     60  H   LIG d   1       6.414  -6.374  -6.733  0.00  0.00     0.023 H 
ATOM     61  H   LIG d   1       6.803  -6.479  -5.000  0.00  0.00     0.023 H 
ATOM     62  H   LIG d   1       5.448  -7.422  -5.667  0.00  0.00     0.023 H 
ENDBRANCH  53  59
ENDBRANCH   1  53
TORSDOF 12
ENDMDL
MODEL 4
REMARK VINA RESULT:      -5.6      2.409      6.158
REMARK  12 active torsions:
REMARK  status: ('A' for Active; 'I' for Inactive)
REMARK    1  A    between atoms: C_1  and  C_2 
REMARK    2  A    between atoms: C_2  and  C_3 
REMARK    3  A    between atoms: C_2  and  C_4 
REMARK    4  A    between atoms: C_7  and  C_11 
REMARK    5  A    between atoms: C_7  and  C_23 
REMARK    6  A    between atoms: C_11  and  C_12 
REMARK    7  A    between atoms: C_12  and  N_13 
REMARK    8  A    between atoms: N_13  and  C_14 
REMARK       I    between atoms: N_13  and  C_20 
REMARK    9  A    between atoms: C_14  and  C_15 
REMARK   10  A    between atoms: C_20  and  C_22 
REMARK   11  A    between atoms: C_28  and  O_29 
REMARK   12  A    between atoms: O_29  and  C_30 
ROOT
ATOM      1  C   LIG d   1       4.570   0.334  -8.296  0.00  0.00     0.062 C 
ATOM      2  H   LIG d   1       5.356   1.077  -8.165  0.00  0.00     0.060 H 
ATOM      3  C   LIG d   1       4.040  -0.097  -6.926  0.00  0.00    -0.017 C 
ATOM      4  C   LIG d   1       5.173  -0.754  -6.133  0.00  0.00     0.005 C 
ATOM      5  C   LIG d   1       5.729  -1.933  -6.938  0.00  0.00    -0.019 C 
ATOM      6  C   LIG d   1       6.193  -1.433  -8.309  0.00  0.00     0.049 C 
ATOM      7  O   LIG d   1       5.099  -0.803  -8.980  0.00  0.00    -0.376 OA
ATOM      8  H   LIG d   1       3.227  -0.810  -7.058  0.00  0.00     0.030 H 
ATOM      9  H   LIG d   1       3.676   0.776  -6.385  0.00  0.00     0.030 H 
ATOM     10  H   LIG d   1       6.572  -2.373  -6.406  0.00  0.00     0.030 H 
ATOM     11  H   LIG d   1       4.950  -2.684  -7.069  0.00  0.00     0.030 H 
ATOM     12  H   LIG d   1       7.001  -0.712  -8.178  0.00  0.00     0.056 H 
ATOM     13  H   LIG d   1       6.549  -2.275  -8.902  0.00  0.00     0.056 H 
ENDROOT
BRANCH   4  14
ATOM     14  C   LIG d   1       6.286   0.265  -5.885  0.00  0.00    -0.027 C 
ATOM     15  H   LIG d   1       6.828   0.444  -6.814  0.00  0.00     0.029 H 
ATOM     16  H   LIG d   1       5.850   1.201  -5.535  0.00  0.00     0.029 H 
BRANCH  14  17
ATOM     17  C   LIG d   1       7.249  -0.277  -4.828  0.00  0.00     0.016 C 
ATOM     18  H   LIG d   1       7.204   0.352  -3.939  0.00  0.00     0.046 H 
ATOM     19  H   LIG d   1       6.966  -1.296  -4.567  0.00  0.00     0.046 H 
BRANCH  17  20
ATOM     20  N   LIG d   1       8.614  -0.272  -5.362  0.00  0.00    -0.294 N 
ATOM     21  C   LIG d   1       9.346  -1.403  -5.353  0.00  0.00     0.213 C 
ATOM     22  O   LIG d   1      10.504  -1.378  -5.712  0.00  0.00    -0.276 OA
BRANCH  20  23
ATOM     23  C   LIG d   1       9.182   0.964  -5.906  0.00  0.00     0.073 C 
ATOM     24  H   LIG d   1      10.081   0.731  -6.477  0.00  0.00     0.054 H 
ATOM     25  H   LIG d   1       8.453   1.444  -6.558  0.00  0.00     0.054 H 
BRANCH  23  26
ATOM     26  C   LIG d   1       9.533   1.896  -4.775  0.00  0.00     0.122 A 
ATOM     27  O   LIG d   1      10.512   1.704  -3.875  0.00  0.00    -0.466 OA
ATOM     28  C   LIG d   1      10.540   2.737  -3.017  0.00  0.00     0.092 A 
ATOM     29  C   LIG d   1       9.565   3.600  -3.358  0.00  0.00    -0.024 A 
ATOM     30  H   LIG d   1      11.225   2.854  -2.190  0.00  0.00     0.103 H 
ATOM     31  C   LIG d   1       8.917   3.057  -4.492  0.00  0.00    -0.019 A 
ATOM     32  H   LIG d   1       9.324   4.528  -2.861  0.00  0.00     0.065 H 
ATOM     33  H   LIG d   1       8.085   3.492  -5.026  0.00  0.00     0.065 H 
ENDBRANCH  23  26
ENDBRANCH  20  23
BRANCH  21  34
ATOM     34  C   LIG d   1       8.726  -2.697  -4.894  0.00  0.00     0.012 C 
ATOM     35  H   LIG d   1       9.504  -3.451  -4.775  0.00  0.00     0.032 H 
ATOM     36  H   LIG d   1       8.223  -2.541  -3.940  0.00  0.00     0.032 H 
ATOM     37  H   LIG d   1       8.002  -3.036  -5.635  0.00  0.00     0.032 H 
ENDBRANCH  21  34
ENDBRANCH  17  20
ENDBRANCH  14  17
ENDBRANCH   4  14
BRANCH   4  38
ATOM     38  C   LIG d   1       4.642  -1.252  -4.813  0.00  0.00     0.001 A 
ATOM     39  C   LIG d   1       4.012  -0.374  -3.943  0.00  0.00     0.124 A 
ATOM     40  C   LIG d   1       3.524  -0.834  -2.729  0.00  0.00    -0.020 A 
ATOM     41  C   LIG d   1       3.666  -2.166  -2.389  0.00  0.00    -0.058 A 
ATOM     42  H   LIG d   1       3.034  -0.154  -2.050  0.00  0.00     0.065 H 
ATOM     43  C   LIG d   1       4.296  -3.039  -3.257  0.00  0.00    -0.061 A 
ATOM     44  H   LIG d   1       3.287  -2.525  -1.444  0.00  0.00     0.062 H 
ATOM     45  C   LIG d   1       4.778  -2.583  -4.470  0.00  0.00    -0.055 A 
ATOM     46  H   LIG d   1       4.406  -4.079  -2.990  0.00  0.00     0.062 H 
ATOM     47  H   LIG d   1       5.265  -3.268  -5.149  0.00  0.00     0.062 H 
BRANCH  39  48
ATOM     48  O   LIG d   1       3.874   0.936  -4.280  0.00  0.00    -0.495 OA
BRANCH  48  49
ATOM     49  C   LIG d   1       3.667   1.862  -3.211  0.00  0.00     0.079 C 
ATOM     50  H   LIG d   1       3.824   1.358  -2.258  0.00  0.00     0.066 H 
ATOM     51  H   LIG d   1       4.370   2.689  -3.306  0.00  0.00     0.066 H 
ATOM     52  H   LIG d   1       2.647   2.245  -3.255  0.00  0.00     0.066 H 
ENDBRANCH  48  49
ENDBRANCH  39  48
ENDBRANCH   4  38
BRANCH   1  53
ATOM     53  C   LIG d   1       3.429   0.937  -9.118  0.00  0.00    -0.020 C 
ATOM     54  H   LIG d   1       2.650   0.188  -9.263  0.00  0.00     0.032 H 
BRANCH  53  55
ATOM     55  C   LIG d   1       2.847   2.141  -8.375  0.00  0.00    -0.060 C 
ATOM     56  H   LIG d   1       2.851   1.943  -7.302  0.00  0.00     0.023 H 
ATOM     57  H   LIG d   1       3.449   3.024  -8.584  0.00  0.00     0.023 H 
ATOM     58  H   LIG d   1       1.823   2.313  -8.708  0.00  0.00     0.023 H 
ENDBRANCH  53  55
BRANCH  53  59
ATOM     59  C   LIG d   1       3.963   1.387 -10.480  0.00  0.00    -0.060 C 
ATOM     60  H   LIG d   1       4.352   2.402 -10.401  0.00  0.00     0.023 H 
ATOM     61  H   LIG d   1       4.761   0.716 -10.796  0.00  0.00     0.023 H 
ATOM     62  H   LIG d   1       3.156   1.363 -11.212  0.00  0.00     0.023 H 
ENDBRANCH  53  59
ENDBRANCH   1  53
TORSDOF 12
ENDMDL
MODEL 5
REMARK VINA RESULT:      -5.5      2.295      6.882
REMARK  12 active torsions:
REMARK  status: ('A' for Active; 'I' for Inactive)
REMARK    1  A    between atoms: C_1  and  C_2 
REMARK    2  A    between atoms: C_2  and  C_3 
REMARK    3  A    between atoms: C_2  and  C_4 
REMARK    4  A    between atoms: C_7  and  C_11 
REMARK    5  A    between atoms: C_7  and  C_23 
REMARK    6  A    between atoms: C_11  and  C_12 
REMARK    7  A    between atoms: C_12  and  N_13 
REMARK    8  A    between atoms: N_13  and  C_14 
REMARK       I    between atoms: N_13  and  C_20 
REMARK    9  A    between atoms: C_14  and  C_15 
REMARK   10  A    between atoms: C_20  and  C_22 
REMARK   11  A    between atoms: C_28  and  O_29 
REMARK   12  A    between atoms: O_29  and  C_30 
ROOT
ATOM      1  C   LIG d   1       5.866   0.050  -2.874  0.00  0.00     0.062 C 
ATOM      2  H   LIG d   1       6.608  -0.609  -2.425  0.00  0.00     0.060 H 
ATOM      3  C   LIG d   1       5.518  -0.454  -4.277  0.00  0.00    -0.017 C 
ATOM      4  C   LIG d   1       6.772  -0.407  -5.154  0.00  0.00     0.005 C 
ATOM      5  C   LIG d   1       7.318   1.024  -5.169  0.00  0.00    -0.019 C 
ATOM      6  C   LIG d   1       7.596   1.473  -3.732  0.00  0.00     0.049 C 
ATOM      7  O   LIG d   1       6.396   1.373  -2.963  0.00  0.00    -0.376 OA
ATOM      8  H   LIG d   1       4.746   0.182  -4.711  0.00  0.00     0.030 H 
ATOM      9  H   LIG d   1       5.154  -1.480  -4.216  0.00  0.00     0.030 H 
ATOM     10  H   LIG d   1       8.242   1.056  -5.746  0.00  0.00     0.030 H 
ATOM     11  H   LIG d   1       6.583   1.690  -5.623  0.00  0.00     0.030 H 
ATOM     12  H   LIG d   1       8.362   0.832  -3.294  0.00  0.00     0.056 H 
ATOM     13  H   LIG d   1       7.944   2.506  -3.734  0.00  0.00     0.056 H 
ENDROOT
BRANCH   4  14
ATOM     14  C   LIG d   1       7.832  -1.352  -4.586  0.00  0.00    -0.027 C 
ATOM     15  H   LIG d   1       8.481  -1.697  -5.392  0.00  0.00     0.029 H 
ATOM     16  H   LIG d   1       8.429  -0.824  -3.842  0.00  0.00     0.029 H 
BRANCH  14  17
ATOM     17  C   LIG d   1       7.148  -2.554  -3.932  0.00  0.00     0.016 C 
ATOM     18  H   LIG d   1       7.484  -2.645  -2.900  0.00  0.00     0.046 H 
ATOM     19  H   LIG d   1       6.068  -2.412  -3.952  0.00  0.00     0.046 H 
BRANCH  17  20
ATOM     20  N   LIG d   1       7.494  -3.773  -4.669  0.00  0.00    -0.294 N 
ATOM     21  C   LIG d   1       6.527  -4.494  -5.271  0.00  0.00     0.213 C 
ATOM     22  O   LIG d   1       6.801  -5.549  -5.804  0.00  0.00    -0.276 OA
BRANCH  20  23
ATOM     23  C   LIG d   1       8.891  -4.207  -4.751  0.00  0.00     0.073 C 
ATOM     24  H   LIG d   1       9.041  -4.779  -5.666  0.00  0.00     0.054 H 
ATOM     25  H   LIG d   1       9.543  -3.334  -4.758  0.00  0.00     0.054 H 
BRANCH  23  26
ATOM     26  C   LIG d   1       9.219  -5.071  -3.560  0.00  0.00     0.122 A 
ATOM     27  O   LIG d   1       9.107  -6.408  -3.506  0.00  0.00    -0.466 OA
ATOM     28  C   LIG d   1       9.489  -6.840  -2.293  0.00  0.00     0.092 A 
ATOM     29  C   LIG d   1       9.841  -5.773  -1.553  0.00  0.00    -0.024 A 
ATOM     30  H   LIG d   1       9.506  -7.869  -1.964  0.00  0.00     0.103 H 
ATOM     31  C   LIG d   1       9.667  -4.632  -2.371  0.00  0.00    -0.019 A 
ATOM     32  H   LIG d   1      10.190  -5.785  -0.531  0.00  0.00     0.065 H 
ATOM     33  H   LIG d   1       9.857  -3.607  -2.092  0.00  0.00     0.065 H 
ENDBRANCH  23  26
ENDBRANCH  20  23
BRANCH  21  34
ATOM     34  C   LIG d   1       5.107  -3.991  -5.279  0.00  0.00     0.012 C 
ATOM     35  H   LIG d   1       4.478  -4.686  -5.834  0.00  0.00     0.032 H 
ATOM     36  H   LIG d   1       4.744  -3.913  -4.254  0.00  0.00     0.032 H 
ATOM     37  H   LIG d   1       5.071  -3.011  -5.753  0.00  0.00     0.032 H 
ENDBRANCH  21  34
ENDBRANCH  17  20
ENDBRANCH  14  17
ENDBRANCH   4  14
BRANCH   4  38
ATOM     38  C   LIG d   1       6.422  -0.827  -6.558  0.00  0.00     0.001 A 
ATOM     39  C   LIG d   1       5.189  -0.487  -7.097  0.00  0.00     0.124 A 
ATOM     40  C   LIG d   1       4.869  -0.875  -8.389  0.00  0.00    -0.020 A 
ATOM     41  C   LIG d   1       5.779  -1.597  -9.139  0.00  0.00    -0.058 A 
ATOM     42  H   LIG d   1       3.911  -0.613  -8.811  0.00  0.00     0.065 H 
ATOM     43  C   LIG d   1       7.006  -1.935  -8.599  0.00  0.00    -0.061 A 
ATOM     44  H   LIG d   1       5.530  -1.898 -10.145  0.00  0.00     0.062 H 
ATOM     45  C   LIG d   1       7.329  -1.545  -7.313  0.00  0.00    -0.055 A 
ATOM     46  H   LIG d   1       7.716  -2.499  -9.186  0.00  0.00     0.062 H 
ATOM     47  H   LIG d   1       8.291  -1.806  -6.895  0.00  0.00     0.062 H 
BRANCH  39  48
ATOM     48  O   LIG d   1       4.296   0.222  -6.358  0.00  0.00    -0.495 OA
BRANCH  48  49
ATOM     49  C   LIG d   1       2.938   0.219  -6.803  0.00  0.00     0.079 C 
ATOM     50  H   LIG d   1       2.671   1.214  -7.160  0.00  0.00     0.066 H 
ATOM     51  H   LIG d   1       2.822  -0.501  -7.613  0.00  0.00     0.066 H 
ATOM     52  H   LIG d   1       2.285  -0.057  -5.975  0.00  0.00     0.066 H 
ENDBRANCH  48  49
ENDBRANCH  39  48
ENDBRANCH   4  38
BRANCH   1  53
ATOM     53  C   LIG d   1       4.604   0.063  -2.009  0.00  0.00    -0.020 C 
ATOM     54  H   LIG d   1       4.886   0.121  -0.957  0.00  0.00     0.032 H 
BRANCH  53  55
ATOM     55  C   LIG d   1       3.747   1.275  -2.375  0.00  0.00    -0.060 C 
ATOM     56  H   LIG d   1       3.199   1.613  -1.495  0.00  0.00     0.023 H 
ATOM     57  H   LIG d   1       4.389   2.080  -2.734  0.00  0.00     0.023 H 
ATOM     58  H   LIG d   1       3.041   0.998  -3.158  0.00  0.00     0.023 H 
ENDBRANCH  53  55
BRANCH  53  59
ATOM     59  C   LIG d   1       3.806  -1.220  -2.252  0.00  0.00    -0.060 C 
ATOM     60  H   LIG d   1       4.191  -2.015  -1.613  0.00  0.00     0.023 H 
ATOM     61  H   LIG d   1       2.756  -1.043  -2.019  0.00  0.00     0.023 H 
ATOM     62  H   LIG d   1       3.902  -1.514  -3.297  0.00  0.00     0.023 H 
ENDBRANCH  53  59
ENDBRANCH   1  53
TORSDOF 12
ENDMDL
MODEL 6
REMARK VINA RESULT:      -5.5      2.383      5.248
REMARK  12 active torsions:
REMARK  status: ('A' for Active; 'I' for Inactive)
REMARK    1  A    between atoms: C_1  and  C_2 
REMARK    2  A    between atoms: C_2  and  C_3 
REMARK    3  A    between atoms: C_2  and  C_4 
REMARK    4  A    between atoms: C_7  and  C_11 
REMARK    5  A    between atoms: C_7  and  C_23 
REMARK    6  A    between atoms: C_11  and  C_12 
REMARK    7  A    between atoms: C_12  and  N_13 
REMARK    8  A    between atoms: N_13  and  C_14 
REMARK       I    between atoms: N_13  and  C_20 
REMARK    9  A    between atoms: C_14  and  C_15 
REMARK   10  A    between atoms: C_20  and  C_22 
REMARK   11  A    between atoms: C_28  and  O_29 
REMARK   12  A    between atoms: O_29  and  C_30 
ROOT
ATOM      1  C   LIG d   1       4.076  -0.148  -8.684  0.00  0.00     0.062 C 
ATOM      2  H   LIG d   1       5.119   0.120  -8.845  0.00  0.00     0.060 H 
ATOM      3  C   LIG d   1       3.764  -0.111  -7.186  0.00  0.00    -0.017 C 
ATOM      4  C   LIG d   1       4.628  -1.150  -6.467  0.00  0.00     0.005 C 
ATOM      5  C   LIG d   1       4.366  -2.529  -7.081  0.00  0.00    -0.019 C 
ATOM      6  C   LIG d   1       4.653  -2.475  -8.583  0.00  0.00     0.049 C 
ATOM      7  O   LIG d   1       3.840  -1.465  -9.186  0.00  0.00    -0.376 OA
ATOM      8  H   LIG d   1       2.711  -0.341  -7.027  0.00  0.00     0.030 H 
ATOM      9  H   LIG d   1       3.985   0.881  -6.792  0.00  0.00     0.030 H 
ATOM     10  H   LIG d   1       5.018  -3.267  -6.612  0.00  0.00     0.030 H 
ATOM     11  H   LIG d   1       3.325  -2.809  -6.918  0.00  0.00     0.030 H 
ATOM     12  H   LIG d   1       5.705  -2.237  -8.744  0.00  0.00     0.056 H 
ATOM     13  H   LIG d   1       4.426  -3.442  -9.033  0.00  0.00     0.056 H 
ENDROOT
BRANCH   4  14
ATOM     14  C   LIG d   1       6.106  -0.792  -6.629  0.00  0.00    -0.027 C 
ATOM     15  H   LIG d   1       6.711  -1.454  -6.008  0.00  0.00     0.029 H 
ATOM     16  H   LIG d   1       6.396  -0.910  -7.673  0.00  0.00     0.029 H 
BRANCH  14  17
ATOM     17  C   LIG d   1       6.331   0.659  -6.197  0.00  0.00     0.016 C 
ATOM     18  H   LIG d   1       6.264   1.311  -7.067  0.00  0.00     0.046 H 
ATOM     19  H   LIG d   1       5.570   0.943  -5.470  0.00  0.00     0.046 H 
BRANCH  17  20
ATOM     20  N   LIG d   1       7.658   0.787  -5.589  0.00  0.00    -0.294 N 
ATOM     21  C   LIG d   1       7.775   1.131  -4.291  0.00  0.00     0.213 C 
ATOM     22  O   LIG d   1       8.872   1.324  -3.812  0.00  0.00    -0.276 OA
BRANCH  20  23
ATOM     23  C   LIG d   1       8.858   0.541  -6.393  0.00  0.00     0.073 C 
ATOM     24  H   LIG d   1       9.738   0.573  -5.752  0.00  0.00     0.054 H 
ATOM     25  H   LIG d   1       8.786  -0.439  -6.864  0.00  0.00     0.054 H 
BRANCH  23  26
ATOM     26  C   LIG d   1       8.975   1.602  -7.457  0.00  0.00     0.122 A 
ATOM     27  O   LIG d   1       8.910   1.394  -8.783  0.00  0.00    -0.466 OA
ATOM     28  C   LIG d   1       9.050   2.564  -9.427  0.00  0.00     0.092 A 
ATOM     29  C   LIG d   1       9.216   3.536  -8.511  0.00  0.00    -0.024 A 
ATOM     30  H   LIG d   1       9.036   2.703 -10.498  0.00  0.00     0.103 H 
ATOM     31  C   LIG d   1       9.168   2.915  -7.242  0.00  0.00    -0.019 A 
ATOM     32  H   LIG d   1       9.360   4.589  -8.708  0.00  0.00     0.065 H 
ATOM     33  H   LIG d   1       9.267   3.402  -6.283  0.00  0.00     0.065 H 
ENDBRANCH  23  26
ENDBRANCH  20  23
BRANCH  21  34
ATOM     34  C   LIG d   1       6.543   1.277  -3.437  0.00  0.00     0.012 C 
ATOM     35  H   LIG d   1       5.893   2.042  -3.863  0.00  0.00     0.032 H 
ATOM     36  H   LIG d   1       6.010   0.327  -3.402  0.00  0.00     0.032 H 
ATOM     37  H   LIG d   1       6.832   1.569  -2.427  0.00  0.00     0.032 H 
ENDBRANCH  21  34
ENDBRANCH  17  20
ENDBRANCH  14  17
ENDBRANCH   4  14
BRANCH   4  38
ATOM     38  C   LIG d   1       4.273  -1.176  -5.002  0.00  0.00     0.001 A 
ATOM     39  C   LIG d   1       5.026  -1.937  -4.120  0.00  0.00     0.124 A 
ATOM     40  C   LIG d   1       4.697  -1.960  -2.772  0.00  0.00    -0.020 A 
ATOM     41  C   LIG d   1       3.622  -1.224  -2.312  0.00  0.00    -0.058 A 
ATOM     42  H   LIG d   1       5.280  -2.552  -2.083  0.00  0.00     0.065 H 
ATOM     43  C   LIG d   1       2.873  -0.467  -3.194  0.00  0.00    -0.061 A 
ATOM     44  H   LIG d   1       3.366  -1.241  -1.263  0.00  0.00     0.062 H 
ATOM     45  C   LIG d   1       3.202  -0.439  -4.536  0.00  0.00    -0.055 A 
ATOM     46  H   LIG d   1       2.033   0.108  -2.832  0.00  0.00     0.062 H 
ATOM     47  H   LIG d   1       2.619   0.157  -5.223  0.00  0.00     0.062 H 
BRANCH  39  48
ATOM     48  O   LIG d   1       6.082  -2.661  -4.575  0.00  0.00    -0.495 OA
BRANCH  48  49
ATOM     49  C   LIG d   1       7.289  -2.598  -3.813  0.00  0.00     0.079 C 
ATOM     50  H   LIG d   1       7.375  -3.489  -3.192  0.00  0.00     0.066 H 
ATOM     51  H   LIG d   1       8.143  -2.541  -4.488  0.00  0.00     0.066 H 
ATOM     52  H   LIG d   1       7.271  -1.713  -3.176  0.00  0.00     0.066 H 
ENDBRANCH  48  49
ENDBRANCH  39  48
ENDBRANCH   4  38
BRANCH   1  53
ATOM     53  C   LIG d   1       3.173   0.846  -9.418  0.00  0.00    -0.020 C 
ATOM     54  H   LIG d   1       2.270   0.336  -9.755  0.00  0.00     0.032 H 
BRANCH  53  55
ATOM     55  C   LIG d   1       2.793   1.985  -8.470  0.00  0.00    -0.060 C 
ATOM     56  H   LIG d   1       2.985   2.942  -8.957  0.00  0.00     0.023 H 
ATOM     57  H   LIG d   1       1.735   1.911  -8.218  0.00  0.00     0.023 H 
ATOM     58  H   LIG d   1       3.389   1.915  -7.560  0.00  0.00     0.023 H 
ENDBRANCH  53  55
BRANCH  53  59
ATOM     59  C   LIG d   1       3.918   1.415 -10.627  0.00  0.00    -0.060 C 
ATOM     60  H   LIG d   1       4.986   1.231 -10.517  0.00  0.00     0.023 H 
ATOM     61  H   LIG d   1       3.558   0.932 -11.536  0.00  0.00     0.023 H 
ATOM     62  H   LIG d   1       3.739   2.488 -10.692  0.00  0.00     0.023 H 
ENDBRANCH  53  59
ENDBRANCH   1  53
TORSDOF 12
ENDMDL
MODEL 7
REMARK VINA RESULT:      -5.5      2.313      5.409
REMARK  12 active torsions:
REMARK  status: ('A' for Active; 'I' for Inactive)
REMARK    1  A    between atoms: C_1  and  C_2 
REMARK    2  A    between atoms: C_2  and  C_3 
REMARK    3  A    between atoms: C_2  and  C_4 
REMARK    4  A    between atoms: C_7  and  C_11 
REMARK    5  A    between atoms: C_7  and  C_23 
REMARK    6  A    between atoms: C_11  and  C_12 
REMARK    7  A    between atoms: C_12  and  N_13 
REMARK    8  A    between atoms: N_13  and  C_14 
REMARK       I    between atoms: N_13  and  C_20 
REMARK    9  A    between atoms: C_14  and  C_15 
REMARK   10  A    between atoms: C_20  and  C_22 
REMARK   11  A    between atoms: C_28  and  O_29 
REMARK   12  A    between atoms: O_29  and  C_30 
ROOT
ATOM      1  C   LIG d   1       4.290  -1.378  -4.631  0.00  0.00     0.062 C 
ATOM      2  H   LIG d   1       4.358  -2.402  -4.996  0.00  0.00     0.060 H 
ATOM      3  C   LIG d   1       3.782  -0.469  -5.753  0.00  0.00    -0.017 C 
ATOM      4  C   LIG d   1       4.786  -0.487  -6.909  0.00  0.00     0.005 C 
ATOM      5  C   LIG d   1       6.158  -0.051  -6.385  0.00  0.00    -0.019 C 
ATOM      6  C   LIG d   1       6.576  -0.974  -5.237  0.00  0.00     0.049 C 
ATOM      7  O   LIG d   1       5.583  -0.936  -4.211  0.00  0.00    -0.376 OA
ATOM      8  H   LIG d   1       3.676   0.549  -5.378  0.00  0.00     0.030 H 
ATOM      9  H   LIG d   1       2.816  -0.830  -6.105  0.00  0.00     0.030 H 
ATOM     10  H   LIG d   1       6.892  -0.113  -7.188  0.00  0.00     0.030 H 
ATOM     11  H   LIG d   1       6.101   0.977  -6.023  0.00  0.00     0.030 H 
ATOM     12  H   LIG d   1       6.674  -1.994  -5.610  0.00  0.00     0.056 H 
ATOM     13  H   LIG d   1       7.532  -0.642  -4.832  0.00  0.00     0.056 H 
ENDROOT
BRANCH   4  14
ATOM     14  C   LIG d   1       4.885  -1.900  -7.484  0.00  0.00    -0.027 C 
ATOM     15  H   LIG d   1       5.690  -1.939  -8.217  0.00  0.00     0.029 H 
ATOM     16  H   LIG d   1       5.094  -2.606  -6.679  0.00  0.00     0.029 H 
BRANCH  14  17
ATOM     17  C   LIG d   1       3.562  -2.271  -8.157  0.00  0.00     0.016 C 
ATOM     18  H   LIG d   1       3.063  -3.045  -7.575  0.00  0.00     0.046 H 
ATOM     19  H   LIG d   1       2.924  -1.390  -8.214  0.00  0.00     0.046 H 
BRANCH  17  20
ATOM     20  N   LIG d   1       3.826  -2.771  -9.509  0.00  0.00    -0.294 N 
ATOM     21  C   LIG d   1       3.067  -2.354 -10.542  0.00  0.00     0.213 C 
ATOM     22  O   LIG d   1       3.228  -2.834 -11.645  0.00  0.00    -0.276 OA
BRANCH  20  23
ATOM     23  C   LIG d   1       4.916  -3.723  -9.738  0.00  0.00     0.073 C 
ATOM     24  H   LIG d   1       5.124  -3.788 -10.806  0.00  0.00     0.054 H 
ATOM     25  H   LIG d   1       5.810  -3.386  -9.214  0.00  0.00     0.054 H 
BRANCH  23  26
ATOM     26  C   LIG d   1       4.513  -5.080  -9.222  0.00  0.00     0.122 A 
ATOM     27  O   LIG d   1       4.839  -5.594  -8.024  0.00  0.00    -0.466 OA
ATOM     28  C   LIG d   1       4.306  -6.820  -7.902  0.00  0.00     0.092 A 
ATOM     29  C   LIG d   1       3.637  -7.107  -9.034  0.00  0.00    -0.024 A 
ATOM     30  H   LIG d   1       4.401  -7.469  -7.044  0.00  0.00     0.103 H 
ATOM     31  C   LIG d   1       3.771  -5.985  -9.884  0.00  0.00    -0.019 A 
ATOM     32  H   LIG d   1       3.102  -8.020  -9.251  0.00  0.00     0.065 H 
ATOM     33  H   LIG d   1       3.357  -5.877 -10.876  0.00  0.00     0.065 H 
ENDBRANCH  23  26
ENDBRANCH  20  23
BRANCH  21  34
ATOM     34  C   LIG d   1       2.018  -1.294 -10.327  0.00  0.00     0.012 C 
ATOM     35  H   LIG d   1       1.320  -1.298 -11.163  0.00  0.00     0.032 H 
ATOM     36  H   LIG d   1       1.479  -1.499  -9.402  0.00  0.00     0.032 H 
ATOM     37  H   LIG d   1       2.498  -0.317 -10.258  0.00  0.00     0.032 H 
ENDBRANCH  21  34
ENDBRANCH  17  20
ENDBRANCH  14  17
ENDBRANCH   4  14
BRANCH   4  38
ATOM     38  C   LIG d   1       4.334   0.466  -7.986  0.00  0.00     0.001 A 
ATOM     39  C   LIG d   1       5.079   0.603  -9.148  0.00  0.00     0.124 A 
ATOM     40  C   LIG d   1       4.661   1.480 -10.138  0.00  0.00    -0.020 A 
ATOM     41  C   LIG d   1       3.502   2.214  -9.965  0.00  0.00    -0.058 A 
ATOM     42  H   LIG d   1       5.239   1.590 -11.042  0.00  0.00     0.065 H 
ATOM     43  C   LIG d   1       2.762   2.075  -8.805  0.00  0.00    -0.061 A 
ATOM     44  H   LIG d   1       3.177   2.896 -10.735  0.00  0.00     0.062 H 
ATOM     45  C   LIG d   1       3.174   1.198  -7.820  0.00  0.00    -0.055 A 
ATOM     46  H   LIG d   1       1.857   2.649  -8.673  0.00  0.00     0.062 H 
ATOM     47  H   LIG d   1       2.591   1.088  -6.917  0.00  0.00     0.062 H 
BRANCH  39  48
ATOM     48  O   LIG d   1       6.219  -0.118  -9.315  0.00  0.00    -0.495 OA
BRANCH  48  49
ATOM     49  C   LIG d   1       6.567  -0.481 -10.652  0.00  0.00     0.079 C 
ATOM     50  H   LIG d   1       6.558  -1.566 -10.749  0.00  0.00     0.066 H 
ATOM     51  H   LIG d   1       5.847  -0.047 -11.346  0.00  0.00     0.066 H 
ATOM     52  H   LIG d   1       7.564  -0.105 -10.882  0.00  0.00     0.066 H 
ENDBRANCH  48  49
ENDBRANCH  39  48
ENDBRANCH   4  38
BRANCH   1  53
ATOM     53  C   LIG d   1       3.322  -1.319  -3.448  0.00  0.00    -0.020 C 
ATOM     54  H   LIG d   1       2.352  -1.712  -3.753  0.00  0.00     0.032 H 
BRANCH  53  55
ATOM     55  C   LIG d   1       3.873  -2.160  -2.296  0.00  0.00    -0.060 C 
ATOM     56  H   LIG d   1       3.770  -1.607  -1.361  0.00  0.00     0.023 H 
ATOM     57  H   LIG d   1       3.317  -3.095  -2.228  0.00  0.00     0.023 H 
ATOM     58  H   LIG d   1       4.927  -2.376  -2.474  0.00  0.00     0.023 H 
ENDBRANCH  53  55
BRANCH  53  59
ATOM     59  C   LIG d   1       3.163   0.133  -2.991  0.00  0.00    -0.060 C 
ATOM     60  H   LIG d   1       2.878   0.154  -1.939  0.00  0.00     0.023 H 
ATOM     61  H   LIG d   1       4.107   0.661  -3.122  0.00  0.00     0.023 H 
ATOM     62  H   LIG d   1       2.389   0.618  -3.587  0.00  0.00     0.023 H 
ENDBRANCH  53  59
ENDBRANCH   1  53
TORSDOF 12
ENDMDL
MODEL 8
REMARK VINA RESULT:      -5.3      2.013      4.973
REMARK  12 active torsions:
REMARK  status: ('A' for Active; 'I' for Inactive)
REMARK    1  A    between atoms: C_1  and  C_2 
REMARK    2  A    between atoms: C_2  and  C_3 
REMARK    3  A    between atoms: C_2  and  C_4 
REMARK    4  A    between atoms: C_7  and  C_11 
REMARK    5  A    between atoms: C_7  and  C_23 
REMARK    6  A    between atoms: C_11  and  C_12 
REMARK    7  A    between atoms: C_12  and  N_13 
REMARK    8  A    between atoms: N_13  and  C_14 
REMARK       I    between atoms: N_13  and  C_20 
REMARK    9  A    between atoms: C_14  and  C_15 
REMARK   10  A    between atoms: C_20  and  C_22 
REMARK   11  A    between atoms: C_28  and  O_29 
REMARK   12  A    between atoms: O_29  and  C_30 
ROOT
ATOM      1  C   LIG d   1       3.869  -0.031  -4.085  0.00  0.00     0.062 C 
ATOM      2  H   LIG d   1       4.658   0.707  -4.225  0.00  0.00     0.060 H 
ATOM      3  C   LIG d   1       4.265  -1.339  -4.775  0.00  0.00    -0.017 C 
ATOM      4  C   LIG d   1       4.409  -1.091  -6.279  0.00  0.00     0.005 C 
ATOM      5  C   LIG d   1       3.093  -0.524  -6.820  0.00  0.00    -0.019 C 
ATOM      6  C   LIG d   1       2.740   0.752  -6.052  0.00  0.00     0.049 C 
ATOM      7  O   LIG d   1       2.654   0.458  -4.656  0.00  0.00    -0.376 OA
ATOM      8  H   LIG d   1       3.494  -2.090  -4.602  0.00  0.00     0.030 H 
ATOM      9  H   LIG d   1       5.215  -1.691  -4.371  0.00  0.00     0.030 H 
ATOM     10  H   LIG d   1       3.204  -0.292  -7.880  0.00  0.00     0.030 H 
ATOM     11  H   LIG d   1       2.298  -1.259  -6.690  0.00  0.00     0.030 H 
ATOM     12  H   LIG d   1       3.515   1.502  -6.217  0.00  0.00     0.056 H 
ATOM     13  H   LIG d   1       1.782   1.136  -6.404  0.00  0.00     0.056 H 
ENDROOT
BRANCH   4  14
ATOM     14  C   LIG d   1       5.538  -0.089  -6.529  0.00  0.00    -0.027 C 
ATOM     15  H   LIG d   1       5.174   0.922  -6.346  0.00  0.00     0.029 H 
ATOM     16  H   LIG d   1       6.368  -0.302  -5.855  0.00  0.00     0.029 H 
BRANCH  14  17
ATOM     17  C   LIG d   1       6.014  -0.207  -7.979  0.00  0.00     0.016 C 
ATOM     18  H   LIG d   1       7.018  -0.628  -7.998  0.00  0.00     0.046 H 
ATOM     19  H   LIG d   1       5.336  -0.857  -8.531  0.00  0.00     0.046 H 
BRANCH  17  20
ATOM     20  N   LIG d   1       6.028   1.121  -8.597  0.00  0.00    -0.294 N 
ATOM     21  C   LIG d   1       7.189   1.797  -8.715  0.00  0.00     0.213 C 
ATOM     22  O   LIG d   1       7.188   2.931  -9.145  0.00  0.00    -0.276 OA
BRANCH  20  23
ATOM     23  C   LIG d   1       4.782   1.715  -9.086  0.00  0.00     0.073 C 
ATOM     24  H   LIG d   1       4.065   1.783  -8.269  0.00  0.00     0.054 H 
ATOM     25  H   LIG d   1       4.982   2.712  -9.477  0.00  0.00     0.054 H 
BRANCH  23  26
ATOM     26  C   LIG d   1       4.212   0.852 -10.183  0.00  0.00     0.122 A 
ATOM     27  O   LIG d   1       4.847   0.494 -11.310  0.00  0.00    -0.466 OA
ATOM     28  C   LIG d   1       4.039  -0.278 -12.054  0.00  0.00     0.092 A 
ATOM     29  C   LIG d   1       2.867  -0.413 -11.407  0.00  0.00    -0.024 A 
ATOM     30  H   LIG d   1       4.285  -0.714 -13.012  0.00  0.00     0.103 H 
ATOM     31  C   LIG d   1       2.979   0.316 -10.201  0.00  0.00    -0.019 A 
ATOM     32  H   LIG d   1       2.006  -0.972 -11.745  0.00  0.00     0.065 H 
ATOM     33  H   LIG d   1       2.219   0.421  -9.441  0.00  0.00     0.065 H 
ENDBRANCH  23  26
ENDBRANCH  20  23
BRANCH  21  34
ATOM     34  C   LIG d   1       8.485   1.144  -8.312  0.00  0.00     0.012 C 
ATOM     35  H   LIG d   1       9.232   1.911  -8.113  0.00  0.00     0.032 H 
ATOM     36  H   LIG d   1       8.327   0.548  -7.413  0.00  0.00     0.032 H 
ATOM     37  H   LIG d   1       8.833   0.498  -9.118  0.00  0.00     0.032 H 
ENDBRANCH  21  34
ENDBRANCH  17  20
ENDBRANCH  14  17
ENDBRANCH   4  14
BRANCH   4  38
ATOM     38  C   LIG d   1       4.723  -2.389  -6.977  0.00  0.00     0.001 A 
ATOM     39  C   LIG d   1       5.778  -3.175  -6.538  0.00  0.00     0.124 A 
ATOM     40  C   LIG d   1       6.065  -4.370  -7.182  0.00  0.00    -0.020 A 
ATOM     41  C   LIG d   1       5.299  -4.774  -8.259  0.00  0.00    -0.058 A 
ATOM     42  H   LIG d   1       6.886  -4.984  -6.843  0.00  0.00     0.065 H 
ATOM     43  C   LIG d   1       4.248  -3.988  -8.695  0.00  0.00    -0.061 A 
ATOM     44  H   LIG d   1       5.522  -5.704  -8.760  0.00  0.00     0.062 H 
ATOM     45  C   LIG d   1       3.957  -2.800  -8.051  0.00  0.00    -0.055 A 
ATOM     46  H   LIG d   1       3.650  -4.306  -9.536  0.00  0.00     0.062 H 
ATOM     47  H   LIG d   1       3.133  -2.190  -8.391  0.00  0.00     0.062 H 
BRANCH  39  48
ATOM     48  O   LIG d   1       6.531  -2.775  -5.480  0.00  0.00    -0.495 OA
BRANCH  48  49
ATOM     49  C   LIG d   1       7.950  -2.832  -5.634  0.00  0.00     0.079 C 
ATOM     50  H   LIG d   1       8.426  -2.766  -4.656  0.00  0.00     0.066 H 
ATOM     51  H   LIG d   1       8.227  -3.772  -6.112  0.00  0.00     0.066 H 
ATOM     52  H   LIG d   1       8.282  -1.999  -6.255  0.00  0.00     0.066 H 
ENDBRANCH  48  49
ENDBRANCH  39  48
ENDBRANCH   4  38
BRANCH   1  53
ATOM     53  C   LIG d   1       3.664  -0.284  -2.590  0.00  0.00    -0.020 C 
ATOM     54  H   LIG d   1       2.616  -0.123  -2.335  0.00  0.00     0.032 H 
BRANCH  53  55
ATOM     55  C   LIG d   1       4.054  -1.725  -2.259  0.00  0.00    -0.060 C 
ATOM     56  H   LIG d   1       4.058  -2.320  -3.173  0.00  0.00     0.023 H 
ATOM     57  H   LIG d   1       5.048  -1.740  -1.812  0.00  0.00     0.023 H 
ATOM     58  H   LIG d   1       3.334  -2.145  -1.556  0.00  0.00     0.023 H 
ENDBRANCH  53  55
BRANCH  53  59
ATOM     59  C   LIG d   1       4.538   0.680  -1.785  0.00  0.00    -0.060 C 
ATOM     60  H   LIG d   1       4.925   0.170  -0.903  0.00  0.00     0.023 H 
ATOM     61  H   LIG d   1       5.370   1.019  -2.403  0.00  0.00     0.023 H 
ATOM     62  H   LIG d   1       3.942   1.539  -1.476  0.00  0.00     0.023 H 
ENDBRANCH  53  59
ENDBRANCH   1  53
TORSDOF 12
ENDMDL
MODEL 9
REMARK VINA RESULT:      -5.2      2.288      4.285
REMARK  12 active torsions:
REMARK  status: ('A' for Active; 'I' for Inactive)
REMARK    1  A    between atoms: C_1  and  C_2 
REMARK    2  A    between atoms: C_2  and  C_3 
REMARK    3  A    between atoms: C_2  and  C_4 
REMARK    4  A    between atoms: C_7  and  C_11 
REMARK    5  A    between atoms: C_7  and  C_23 
REMARK    6  A    between atoms: C_11  and  C_12 
REMARK    7  A    between atoms: C_12  and  N_13 
REMARK    8  A    between atoms: N_13  and  C_14 
REMARK       I    between atoms: N_13  and  C_20 
REMARK    9  A    between atoms: C_14  and  C_15 
REMARK   10  A    between atoms: C_20  and  C_22 
REMARK   11  A    between atoms: C_28  and  O_29 
REMARK   12  A    between atoms: O_29  and  C_30 
ROOT
ATOM      1  C   LIG d   1       4.262  -1.917  -4.296  0.00  0.00     0.062 C 
ATOM      2  H   LIG d   1       3.743  -1.302  -5.030  0.00  0.00     0.060 H 
ATOM      3  C   LIG d   1       5.723  -1.471  -4.197  0.00  0.00    -0.017 C 
ATOM      4  C   LIG d   1       6.407  -1.683  -5.551  0.00  0.00     0.005 C 
ATOM      5  C   LIG d   1       6.276  -3.156  -5.950  0.00  0.00    -0.019 C 
ATOM      6  C   LIG d   1       4.795  -3.540  -5.981  0.00  0.00     0.049 C 
ATOM      7  O   LIG d   1       4.212  -3.287  -4.701  0.00  0.00    -0.376 OA
ATOM      8  H   LIG d   1       6.234  -2.059  -3.435  0.00  0.00     0.030 H 
ATOM      9  H   LIG d   1       5.764  -0.414  -3.931  0.00  0.00     0.030 H 
ATOM     10  H   LIG d   1       6.712  -3.306  -6.938  0.00  0.00     0.030 H 
ATOM     11  H   LIG d   1       6.799  -3.779  -5.224  0.00  0.00     0.030 H 
ATOM     12  H   LIG d   1       4.281  -2.946  -6.738  0.00  0.00     0.056 H 
ATOM     13  H   LIG d   1       4.698  -4.599  -6.223  0.00  0.00     0.056 H 
ENDROOT
BRANCH   4  14
ATOM     14  C   LIG d   1       5.738  -0.805  -6.609  0.00  0.00    -0.027 C 
ATOM     15  H   LIG d   1       4.656  -0.933  -6.557  0.00  0.00     0.029 H 
ATOM     16  H   LIG d   1       5.987   0.240  -6.424  0.00  0.00     0.029 H 
BRANCH  14  17
ATOM     17  C   LIG d   1       6.234  -1.211  -7.998  0.00  0.00     0.016 C 
ATOM     18  H   LIG d   1       6.846  -2.109  -7.917  0.00  0.00     0.046 H 
ATOM     19  H   LIG d   1       5.380  -1.410  -8.645  0.00  0.00     0.046 H 
BRANCH  17  20
ATOM     20  N   LIG d   1       7.034  -0.123  -8.567  0.00  0.00    -0.294 N 
ATOM     21  C   LIG d   1       8.200  -0.396  -9.186  0.00  0.00     0.213 C 
ATOM     22  O   LIG d   1       8.904   0.509  -9.579  0.00  0.00    -0.276 OA
BRANCH  20  23
ATOM     23  C   LIG d   1       6.567   1.262  -8.464  0.00  0.00     0.073 C 
ATOM     24  H   LIG d   1       6.292   1.477  -7.432  0.00  0.00     0.054 H 
ATOM     25  H   LIG d   1       7.361   1.938  -8.778  0.00  0.00     0.054 H 
BRANCH  23  26
ATOM     26  C   LIG d   1       5.365   1.453  -9.353  0.00  0.00     0.122 A 
ATOM     27  O   LIG d   1       5.139   0.819 -10.515  0.00  0.00    -0.466 OA
ATOM     28  C   LIG d   1       3.971   1.234 -11.032  0.00  0.00     0.092 A 
ATOM     29  C   LIG d   1       3.441   2.151 -10.203  0.00  0.00    -0.024 A 
ATOM     30  H   LIG d   1       3.533   0.893 -11.959  0.00  0.00     0.103 H 
ATOM     31  C   LIG d   1       4.340   2.292  -9.120  0.00  0.00    -0.019 A 
ATOM     32  H   LIG d   1       2.507   2.678 -10.338  0.00  0.00     0.065 H 
ATOM     33  H   LIG d   1       4.225   2.947  -8.270  0.00  0.00     0.065 H 
ENDBRANCH  23  26
ENDBRANCH  20  23
BRANCH  21  34
ATOM     34  C   LIG d   1       8.628  -1.827  -9.389  0.00  0.00     0.012 C 
ATOM     35  H   LIG d   1       7.778  -2.415  -9.734  0.00  0.00     0.032 H 
ATOM     36  H   LIG d   1       9.423  -1.867 -10.133  0.00  0.00     0.032 H 
ATOM     37  H   LIG d   1       8.993  -2.234  -8.446  0.00  0.00     0.032 H 
ENDBRANCH  21  34
ENDBRANCH  17  20
ENDBRANCH  14  17
ENDBRANCH   4  14
BRANCH   4  38
ATOM     38  C   LIG d   1       7.866  -1.319  -5.442  0.00  0.00     0.001 A 
ATOM     39  C   LIG d   1       8.235  -0.013  -5.153  0.00  0.00     0.124 A 
ATOM     40  C   LIG d   1       9.578   0.320  -5.054  0.00  0.00    -0.020 A 
ATOM     41  C   LIG d   1      10.544  -0.650  -5.242  0.00  0.00    -0.058 A 
ATOM     42  H   LIG d   1       9.868   1.335  -4.830  0.00  0.00     0.065 H 
ATOM     43  C   LIG d   1      10.173  -1.950  -5.531  0.00  0.00    -0.061 A 
ATOM     44  H   LIG d   1      11.590  -0.391  -5.165  0.00  0.00     0.062 H 
ATOM     45  C   LIG d   1       8.836  -2.285  -5.625  0.00  0.00    -0.055 A 
ATOM     46  H   LIG d   1      10.930  -2.706  -5.677  0.00  0.00     0.062 H 
ATOM     47  H   LIG d   1       8.548  -3.303  -5.846  0.00  0.00     0.062 H 
BRANCH  39  48
ATOM     48  O   LIG d   1       7.282   0.939  -4.970  0.00  0.00    -0.495 OA
BRANCH  48  49
ATOM     49  C   LIG d   1       7.431   1.796  -3.836  0.00  0.00     0.079 C 
ATOM     50  H   LIG d   1       7.851   2.749  -4.153  0.00  0.00     0.066 H 
ATOM     51  H   LIG d   1       6.456   1.962  -3.376  0.00  0.00     0.066 H 
ATOM     52  H   LIG d   1       8.098   1.328  -3.112  0.00  0.00     0.066 H 
ENDBRANCH  48  49
ENDBRANCH  39  48
ENDBRANCH   4  38
BRANCH   1  53
ATOM     53  C   LIG d   1       3.588  -1.764  -2.931  0.00  0.00    -0.020 C 
ATOM     54  H   LIG d   1       3.016  -2.664  -2.706  0.00  0.00     0.032 H 
BRANCH  53  55
ATOM     55  C   LIG d   1       4.656  -1.556  -1.856  0.00  0.00    -0.060 C 
ATOM     56  H   LIG d   1       5.574  -2.066  -2.151  0.00  0.00     0.023 H 
ATOM     57  H   LIG d   1       4.853  -0.491  -1.739  0.00  0.00     0.023 H 
ATOM     58  H   LIG d   1       4.303  -1.966  -0.909  0.00  0.00     0.023 H 
ENDBRANCH  53  55
BRANCH  53  59
ATOM     59  C   LIG d   1       2.649  -0.556  -2.959  0.00  0.00    -0.060 C 
ATOM     60  H   LIG d   1       1.615  -0.899  -2.930  0.00  0.00     0.023 H 
ATOM     61  H   LIG d   1       2.846   0.077  -2.094  0.00  0.00     0.023 H 
ATOM     62  H   LIG d   1       2.818   0.014  -3.873  0.00  0.00     0.023 H 
ENDBRANCH  53  59
ENDBRANCH   1  53
TORSDOF 12
ENDMDL
MODEL 10
REMARK VINA RESULT:      -5.2      2.238      5.594
REMARK  12 active torsions:
REMARK  status: ('A' for Active; 'I' for Inactive)
REMARK    1  A    between atoms: C_1  and  C_2 
REMARK    2  A    between atoms: C_2  and  C_3 
REMARK    3  A    between atoms: C_2  and  C_4 
REMARK    4  A    between atoms: C_7  and  C_11 
REMARK    5  A    between atoms: C_7  and  C_23 
REMARK    6  A    between atoms: C_11  and  C_12 
REMARK    7  A    between atoms: C_12  and  N_13 
REMARK    8  A    between atoms: N_13  and  C_14 
REMARK       I    between atoms: N_13  and  C_20 
REMARK    9  A    between atoms: C_14  and  C_15 
REMARK   10  A    between atoms: C_20  and  C_22 
REMARK   11  A    between atoms: C_28  and  O_29 
REMARK   12  A    between atoms: O_29  and  C_30 
ROOT
ATOM      1  C   LIG d   1       3.821  -0.091  -8.061  0.00  0.00     0.062 C 
ATOM      2  H   LIG d   1       4.822   0.168  -8.407  0.00  0.00     0.060 H 
ATOM      3  C   LIG d   1       3.789  -0.067  -6.530  0.00  0.00    -0.017 C 
ATOM      4  C   LIG d   1       4.757  -1.123  -5.990  0.00  0.00     0.005 C 
ATOM      5  C   LIG d   1       4.370  -2.493  -6.558  0.00  0.00    -0.019 C 
ATOM      6  C   LIG d   1       4.379  -2.425  -8.087  0.00  0.00     0.049 C 
ATOM      7  O   LIG d   1       3.482  -1.401  -8.522  0.00  0.00    -0.376 OA
ATOM      8  H   LIG d   1       2.779  -0.288  -6.184  0.00  0.00     0.030 H 
ATOM      9  H   LIG d   1       4.090   0.918  -6.175  0.00  0.00     0.030 H 
ATOM     10  H   LIG d   1       5.087  -3.242  -6.222  0.00  0.00     0.030 H 
ATOM     11  H   LIG d   1       3.372  -2.763  -6.211  0.00  0.00     0.030 H 
ATOM     12  H   LIG d   1       5.387  -2.196  -8.435  0.00  0.00     0.056 H 
ATOM     13  H   LIG d   1       4.062  -3.385  -8.496  0.00  0.00     0.056 H 
ENDROOT
BRANCH   4  14
ATOM     14  C   LIG d   1       6.185  -0.779  -6.416  0.00  0.00    -0.027 C 
ATOM     15  H   LIG d   1       6.166  -0.287  -7.389  0.00  0.00     0.029 H 
ATOM     16  H   LIG d   1       6.631  -0.108  -5.681  0.00  0.00     0.029 H 
BRANCH  14  17
ATOM     17  C   LIG d   1       7.015  -2.061  -6.507  0.00  0.00     0.016 C 
ATOM     18  H   LIG d   1       6.349  -2.923  -6.523  0.00  0.00     0.046 H 
ATOM     19  H   LIG d   1       7.610  -2.043  -7.420  0.00  0.00     0.046 H 
BRANCH  17  20
ATOM     20  N   LIG d   1       7.904  -2.151  -5.346  0.00  0.00    -0.294 N 
ATOM     21  C   LIG d   1       7.861  -3.235  -4.546  0.00  0.00     0.213 C 
ATOM     22  O   LIG d   1       8.532  -3.270  -3.537  0.00  0.00    -0.276 OA
BRANCH  20  23
ATOM     23  C   LIG d   1       8.840  -1.062  -5.055  0.00  0.00     0.073 C 
ATOM     24  H   LIG d   1       8.327  -0.105  -5.148  0.00  0.00     0.054 H 
ATOM     25  H   LIG d   1       9.222  -1.172  -4.040  0.00  0.00     0.054 H 
BRANCH  23  26
ATOM     26  C   LIG d   1       9.988  -1.112  -6.030  0.00  0.00     0.122 A 
ATOM     27  O   LIG d   1      10.869  -2.118  -6.154  0.00  0.00    -0.466 OA
ATOM     28  C   LIG d   1      11.751  -1.824  -7.124  0.00  0.00     0.092 A 
ATOM     29  C   LIG d   1      11.443  -0.614  -7.626  0.00  0.00    -0.024 A 
ATOM     30  H   LIG d   1      12.570  -2.451  -7.445  0.00  0.00     0.103 H 
ATOM     31  C   LIG d   1      10.306  -0.156  -6.920  0.00  0.00    -0.019 A 
ATOM     32  H   LIG d   1      11.964  -0.094  -8.415  0.00  0.00     0.065 H 
ATOM     33  H   LIG d   1       9.794   0.783  -7.068  0.00  0.00     0.065 H 
ENDBRANCH  23  26
ENDBRANCH  20  23
BRANCH  21  34
ATOM     34  C   LIG d   1       6.978  -4.401  -4.906  0.00  0.00     0.012 C 
ATOM     35  H   LIG d   1       7.580  -5.307  -4.969  0.00  0.00     0.032 H 
ATOM     36  H   LIG d   1       6.212  -4.527  -4.140  0.00  0.00     0.032 H 
ATOM     37  H   LIG d   1       6.501  -4.213  -5.867  0.00  0.00     0.032 H 
ENDBRANCH  21  34
ENDBRANCH  17  20
ENDBRANCH  14  17
ENDBRANCH   4  14
BRANCH   4  38
ATOM     38  C   LIG d   1       4.674  -1.161  -4.485  0.00  0.00     0.001 A 
ATOM     39  C   LIG d   1       5.227  -0.134  -3.735  0.00  0.00     0.124 A 
ATOM     40  C   LIG d   1       5.150  -0.170  -2.350  0.00  0.00    -0.020 A 
ATOM     41  C   LIG d   1       4.523  -1.230  -1.722  0.00  0.00    -0.058 A 
ATOM     42  H   LIG d   1       5.579   0.627  -1.763  0.00  0.00     0.065 H 
ATOM     43  C   LIG d   1       3.974  -2.253  -2.473  0.00  0.00    -0.061 A 
ATOM     44  H   LIG d   1       4.463  -1.258  -0.644  0.00  0.00     0.062 H 
ATOM     45  C   LIG d   1       4.045  -2.215  -3.853  0.00  0.00    -0.055 A 
ATOM     46  H   LIG d   1       3.484  -3.080  -1.980  0.00  0.00     0.062 H 
ATOM     47  H   LIG d   1       3.611  -3.014  -4.437  0.00  0.00     0.062 H 
BRANCH  39  48
ATOM     48  O   LIG d   1       5.844   0.906  -4.355  0.00  0.00    -0.495 OA
BRANCH  48  49
ATOM     49  C   LIG d   1       6.934   1.520  -3.663  0.00  0.00     0.079 C 
ATOM     50  H   LIG d   1       7.798   1.578  -4.324  0.00  0.00     0.066 H 
ATOM     51  H   LIG d   1       6.646   2.524  -3.350  0.00  0.00     0.066 H 
ATOM     52  H   LIG d   1       7.187   0.926  -2.785  0.00  0.00     0.066 H 
ENDBRANCH  48  49
ENDBRANCH  39  48
ENDBRANCH   4  38
BRANCH   1  53
ATOM     53  C   LIG d   1       2.813   0.920  -8.609  0.00  0.00    -0.020 C 
ATOM     54  H   LIG d   1       2.114   1.200  -7.820  0.00  0.00     0.032 H 
BRANCH  53  55
ATOM     55  C   LIG d   1       3.554   2.165  -9.099  0.00  0.00    -0.060 C 
ATOM     56  H   LIG d   1       2.861   3.006  -9.145  0.00  0.00     0.023 H 
ATOM     57  H   LIG d   1       4.366   2.400  -8.411  0.00  0.00     0.023 H 
ATOM     58  H   LIG d   1       3.962   1.977 -10.092  0.00  0.00     0.023 H 
ENDBRANCH  53  55
BRANCH  53  59
ATOM     59  C   LIG d   1       2.042   0.292  -9.772  0.00  0.00    -0.060 C 
ATOM     60  H   LIG d   1       1.904   1.034 -10.559  0.00  0.00     0.023 H 
ATOM     61  H   LIG d   1       2.604  -0.555 -10.165  0.00  0.00     0.023 H 
ATOM     62  H   LIG d   1       1.068  -0.050  -9.420  0.00  0.00     0.023 H 
ENDBRANCH  53  59
ENDBRANCH   1  53
TORSDOF 12
ENDMDL
