MODEL 1
REMARK VINA RESULT:      -7.0      0.000      0.000
REMARK  5 active torsions:
REMARK  status: ('A' for Active; 'I' for Inactive)
REMARK    1  A    between atoms: C_1  and  N_44 
REMARK    2  A    between atoms: C_3  and  N_19 
REMARK    3  A    between atoms: C_6  and  C_8 
REMARK    4  A    between atoms: C_10  and  C_13 
REMARK       I    between atoms: N_19  and  C_20 
REMARK    5  A    between atoms: C_20  and  C_22 
ROOT
ATOM      1  C   LIG d   1       3.849  -4.868  -7.047  0.00  0.00    -0.012 C 
ATOM      2  C   LIG d   1       4.949  -4.245  -6.162  0.00  0.00     0.069 C 
ATOM      3  H   LIG d   1       5.765  -3.863  -6.775  0.00  0.00     0.055 H 
ATOM      4  C   LIG d   1       5.425  -5.440  -5.295  0.00  0.00     0.023 C 
ATOM      5  C   LIG d   1       5.308  -6.618  -6.298  0.00  0.00     0.061 C 
ATOM      6  H   LIG d   1       6.186  -6.654  -6.943  0.00  0.00     0.095 H 
ATOM      7  H   LIG d   1       2.868  -4.673  -6.613  0.00  0.00     0.083 H 
ATOM      8  H   LIG d   1       3.901  -4.453  -8.053  0.00  0.00     0.083 H 
ATOM      9  H   LIG d   1       6.456  -5.300  -4.972  0.00  0.00     0.035 H 
ATOM     10  H   LIG d   1       4.766  -5.589  -4.440  0.00  0.00     0.035 H 
ATOM     11  N   LIG d   1       4.089  -6.323  -7.074  0.00  0.00     0.243 N 
ATOM     12  H   LIG d   1       3.290  -6.807  -6.649  0.00  0.00     0.204 HD
ENDROOT
BRANCH   5  13
ATOM     13  C   LIG d   1       5.145  -7.922  -5.560  0.00  0.00     0.276 A 
ATOM     14  O   LIG d   1       4.109  -8.762  -5.651  0.00  0.00    -0.332 OA
ATOM     15  N   LIG d   1       4.289  -9.721  -4.931  0.00  0.00    -0.056 NA
ATOM     16  C   LIG d   1       5.430  -9.605  -4.304  0.00  0.00     0.204 A 
ATOM     17  N   LIG d   1       5.990  -8.443  -4.705  0.00  0.00    -0.186 NA
BRANCH  16  18
ATOM     18  C   LIG d   1       6.003 -10.569  -3.332  0.00  0.00     0.041 A 
ATOM     19  C   LIG d   1       6.738 -11.666  -3.772  0.00  0.00     0.038 A 
ATOM     20  N   LIG d   1       7.252 -12.520  -2.909  0.00  0.00    -0.263 NA
ATOM     21  H   LIG d   1       6.893 -11.817  -4.830  0.00  0.00     0.084 H 
ATOM     22  C   LIG d   1       7.085 -12.380  -1.608  0.00  0.00     0.028 A 
ATOM     23  C   LIG d   1       6.362 -11.320  -1.092  0.00  0.00    -0.043 A 
ATOM     24  H   LIG d   1       7.519 -13.105  -0.936  0.00  0.00     0.083 H 
ATOM     25  C   LIG d   1       5.807 -10.394  -1.958  0.00  0.00    -0.048 A 
ATOM     26  H   LIG d   1       6.232 -11.215  -0.025  0.00  0.00     0.063 H 
ATOM     27  H   LIG d   1       5.238  -9.556  -1.583  0.00  0.00     0.063 H 
ENDBRANCH  16  18
ENDBRANCH   5  13
BRANCH  11  28
ATOM     28  C   LIG d   1       4.248  -6.787  -8.477  0.00  0.00    -0.042 C 
ATOM     29  H   LIG d   1       5.120  -7.436  -8.554  0.00  0.00     0.078 H 
ATOM     30  H   LIG d   1       3.357  -7.339  -8.776  0.00  0.00     0.078 H 
ATOM     31  H   LIG d   1       4.378  -5.925  -9.131  0.00  0.00     0.078 H 
ENDBRANCH  11  28
BRANCH   2  32
ATOM     32  N   LIG d   1       4.395  -3.182  -5.320  0.00  0.00    -0.303 N 
ATOM     33  C   LIG d   1       5.199  -2.213  -4.840  0.00  0.00     0.246 C 
ATOM     34  O   LIG d   1       6.385  -2.219  -5.111  0.00  0.00    -0.270 OA
ATOM     35  H   LIG d   1       3.449  -3.177  -5.105  0.00  0.00     0.149 HD
BRANCH  33  36
ATOM     36  C   LIG d   1       4.641  -1.144  -3.986  0.00  0.00     0.055 A 
ATOM     37  C   LIG d   1       3.901  -0.102  -4.546  0.00  0.00     0.040 A 
ATOM     38  N   LIG d   1       3.404   0.851  -3.785  0.00  0.00    -0.263 NA
ATOM     39  H   LIG d   1       3.736  -0.077  -5.613  0.00  0.00     0.084 H 
ATOM     40  C   LIG d   1       3.581   0.863  -2.478  0.00  0.00     0.028 A 
ATOM     41  C   LIG d   1       4.302  -0.135  -1.846  0.00  0.00    -0.043 A 
ATOM     42  H   LIG d   1       3.156   1.664  -1.892  0.00  0.00     0.083 H 
ATOM     43  C   LIG d   1       4.841  -1.163  -2.600  0.00  0.00    -0.047 A 
ATOM     44  H   LIG d   1       4.440  -0.114  -0.775  0.00  0.00     0.063 H 
ATOM     45  H   LIG d   1       5.404  -1.956  -2.132  0.00  0.00     0.063 H 
ENDBRANCH  33  36
ENDBRANCH   2  32
TORSDOF 5
ENDMDL
MODEL 2
REMARK VINA RESULT:      -6.9      7.027     10.547
REMARK  5 active torsions:
REMARK  status: ('A' for Active; 'I' for Inactive)
REMARK    1  A    between atoms: C_1  and  N_44 
REMARK    2  A    between atoms: C_3  and  N_19 
REMARK    3  A    between atoms: C_6  and  C_8 
REMARK    4  A    between atoms: C_10  and  C_13 
REMARK       I    between atoms: N_19  and  C_20 
REMARK    5  A    between atoms: C_20  and  C_22 
ROOT
ATOM      1  C   LIG d   1       9.936   4.724  -4.798  0.00  0.00    -0.012 C 
ATOM      2  C   LIG d   1      10.566   4.077  -3.547  0.00  0.00     0.069 C 
ATOM      3  H   LIG d   1      11.613   3.830  -3.727  0.00  0.00     0.055 H 
ATOM      4  C   LIG d   1       9.724   2.789  -3.351  0.00  0.00     0.023 C 
ATOM      5  C   LIG d   1       9.440   2.378  -4.820  0.00  0.00     0.061 C 
ATOM      6  H   LIG d   1      10.291   1.835  -5.234  0.00  0.00     0.095 H 
ATOM      7  H   LIG d   1       9.220   5.489  -4.498  0.00  0.00     0.083 H 
ATOM      8  H   LIG d   1      10.714   5.164  -5.420  0.00  0.00     0.083 H 
ATOM      9  H   LIG d   1      10.299   2.021  -2.834  0.00  0.00     0.035 H 
ATOM     10  H   LIG d   1       8.797   3.004  -2.822  0.00  0.00     0.035 H 
ATOM     11  N   LIG d   1       9.230   3.655  -5.528  0.00  0.00     0.243 N 
ATOM     12  H   LIG d   1       8.226   3.867  -5.555  0.00  0.00     0.204 HD
ENDROOT
BRANCH   5  13
ATOM     13  C   LIG d   1       8.193   1.535  -4.899  0.00  0.00     0.276 A 
ATOM     14  O   LIG d   1       7.448   1.319  -5.988  0.00  0.00    -0.332 OA
ATOM     15  N   LIG d   1       6.516   0.594  -5.715  0.00  0.00    -0.056 NA
ATOM     16  C   LIG d   1       6.549   0.276  -4.448  0.00  0.00     0.204 A 
ATOM     17  N   LIG d   1       7.631   0.882  -3.912  0.00  0.00    -0.186 NA
BRANCH  16  18
ATOM     18  C   LIG d   1       5.579  -0.588  -3.730  0.00  0.00     0.041 A 
ATOM     19  C   LIG d   1       5.053  -1.723  -4.341  0.00  0.00     0.038 A 
ATOM     20  N   LIG d   1       4.196  -2.493  -3.703  0.00  0.00    -0.263 NA
ATOM     21  H   LIG d   1       5.354  -1.976  -5.347  0.00  0.00     0.084 H 
ATOM     22  C   LIG d   1       3.795  -2.221  -2.476  0.00  0.00     0.028 A 
ATOM     23  C   LIG d   1       4.266  -1.109  -1.802  0.00  0.00    -0.043 A 
ATOM     24  H   LIG d   1       3.087  -2.876  -1.991  0.00  0.00     0.083 H 
ATOM     25  C   LIG d   1       5.172  -0.271  -2.430  0.00  0.00    -0.048 A 
ATOM     26  H   LIG d   1       3.931  -0.896  -0.798  0.00  0.00     0.063 H 
ATOM     27  H   LIG d   1       5.558   0.603  -1.927  0.00  0.00     0.063 H 
ENDBRANCH  16  18
ENDBRANCH   5  13
BRANCH  11  28
ATOM     28  C   LIG d   1       9.744   3.563  -6.919  0.00  0.00    -0.042 C 
ATOM     29  H   LIG d   1       9.637   2.542  -7.285  0.00  0.00     0.078 H 
ATOM     30  H   LIG d   1       9.177   4.240  -7.558  0.00  0.00     0.078 H 
ATOM     31  H   LIG d   1      10.797   3.845  -6.934  0.00  0.00     0.078 H 
ENDBRANCH  11  28
BRANCH   2  32
ATOM     32  N   LIG d   1      10.437   4.961  -2.386  0.00  0.00    -0.303 N 
ATOM     33  C   LIG d   1      11.528   5.298  -1.670  0.00  0.00     0.246 C 
ATOM     34  O   LIG d   1      12.621   4.873  -1.992  0.00  0.00    -0.270 OA
ATOM     35  H   LIG d   1       9.566   5.301  -2.129  0.00  0.00     0.149 HD
BRANCH  33  36
ATOM     36  C   LIG d   1      11.398   6.185  -0.496  0.00  0.00     0.055 A 
ATOM     37  C   LIG d   1      11.358   5.654   0.794  0.00  0.00     0.040 A 
ATOM     38  N   LIG d   1      11.242   6.444   1.841  0.00  0.00    -0.263 NA
ATOM     39  H   LIG d   1      11.423   4.584   0.934  0.00  0.00     0.084 H 
ATOM     40  C   LIG d   1      11.158   7.754   1.719  0.00  0.00     0.028 A 
ATOM     41  C   LIG d   1      11.191   8.360   0.475  0.00  0.00    -0.043 A 
ATOM     42  H   LIG d   1      11.064   8.365   2.604  0.00  0.00     0.083 H 
ATOM     43  C   LIG d   1      11.318   7.574  -0.657  0.00  0.00    -0.047 A 
ATOM     44  H   LIG d   1      11.122   9.434   0.389  0.00  0.00     0.063 H 
ATOM     45  H   LIG d   1      11.350   8.021  -1.640  0.00  0.00     0.063 H 
ENDBRANCH  33  36
ENDBRANCH   2  32
TORSDOF 5
ENDMDL
MODEL 3
REMARK VINA RESULT:      -6.8      7.818     11.622
REMARK  5 active torsions:
REMARK  status: ('A' for Active; 'I' for Inactive)
REMARK    1  A    between atoms: C_1  and  N_44 
REMARK    2  A    between atoms: C_3  and  N_19 
REMARK    3  A    between atoms: C_6  and  C_8 
REMARK    4  A    between atoms: C_10  and  C_13 
REMARK       I    between atoms: N_19  and  C_20 
REMARK    5  A    between atoms: C_20  and  C_22 
ROOT
ATOM      1  C   LIG d   1      10.648   5.621  -5.034  0.00  0.00    -0.012 C 
ATOM      2  C   LIG d   1      10.887   5.512  -3.514  0.00  0.00     0.069 C 
ATOM      3  H   LIG d   1      11.932   5.284  -3.303  0.00  0.00     0.055 H 
ATOM      4  C   LIG d   1       9.972   4.331  -3.095  0.00  0.00     0.023 C 
ATOM      5  C   LIG d   1      10.084   3.399  -4.330  0.00  0.00     0.061 C 
ATOM      6  H   LIG d   1      10.993   2.799  -4.272  0.00  0.00     0.095 H 
ATOM      7  H   LIG d   1       9.909   6.395  -5.239  0.00  0.00     0.083 H 
ATOM      8  H   LIG d   1      11.584   5.855  -5.541  0.00  0.00     0.083 H 
ATOM      9  H   LIG d   1      10.353   3.841  -2.199  0.00  0.00     0.035 H 
ATOM     10  H   LIG d   1       8.946   4.664  -2.950  0.00  0.00     0.035 H 
ATOM     11  N   LIG d   1      10.126   4.318  -5.484  0.00  0.00     0.243 N 
ATOM     12  H   LIG d   1       9.177   4.441  -5.855  0.00  0.00     0.204 HD
ENDROOT
BRANCH   5  13
ATOM     13  C   LIG d   1       8.873   2.507  -4.427  0.00  0.00     0.276 A 
ATOM     14  O   LIG d   1       8.276   2.097  -5.551  0.00  0.00    -0.332 OA
ATOM     15  N   LIG d   1       7.331   1.387  -5.284  0.00  0.00    -0.056 NA
ATOM     16  C   LIG d   1       7.209   1.270  -3.987  0.00  0.00     0.204 A 
ATOM     17  N   LIG d   1       8.203   1.993  -3.426  0.00  0.00    -0.186 NA
BRANCH  16  18
ATOM     18  C   LIG d   1       6.172   0.491  -3.266  0.00  0.00     0.041 A 
ATOM     19  C   LIG d   1       6.182  -0.901  -3.299  0.00  0.00     0.038 A 
ATOM     20  N   LIG d   1       5.265  -1.595  -2.655  0.00  0.00    -0.263 NA
ATOM     21  H   LIG d   1       6.951  -1.418  -3.854  0.00  0.00     0.084 H 
ATOM     22  C   LIG d   1       4.304  -1.008  -1.969  0.00  0.00     0.028 A 
ATOM     23  C   LIG d   1       4.221   0.371  -1.892  0.00  0.00    -0.043 A 
ATOM     24  H   LIG d   1       3.569  -1.614  -1.459  0.00  0.00     0.083 H 
ATOM     25  C   LIG d   1       5.164   1.142  -2.548  0.00  0.00    -0.048 A 
ATOM     26  H   LIG d   1       3.430   0.840  -1.327  0.00  0.00     0.063 H 
ATOM     27  H   LIG d   1       5.125   2.221  -2.506  0.00  0.00     0.063 H 
ENDBRANCH  16  18
ENDBRANCH   5  13
BRANCH  11  28
ATOM     28  C   LIG d   1      10.997   3.761  -6.552  0.00  0.00    -0.042 C 
ATOM     29  H   LIG d   1      11.883   4.384  -6.669  0.00  0.00     0.078 H 
ATOM     30  H   LIG d   1      11.297   2.749  -6.280  0.00  0.00     0.078 H 
ATOM     31  H   LIG d   1      10.444   3.735  -7.491  0.00  0.00     0.078 H 
ENDBRANCH  11  28
BRANCH   2  32
ATOM     32  N   LIG d   1      10.482   6.746  -2.836  0.00  0.00    -0.303 N 
ATOM     33  C   LIG d   1      11.074   7.107  -1.681  0.00  0.00     0.246 C 
ATOM     34  O   LIG d   1      11.948   6.410  -1.203  0.00  0.00    -0.270 OA
ATOM     35  H   LIG d   1       9.784   7.302  -3.218  0.00  0.00     0.149 HD
BRANCH  33  36
ATOM     36  C   LIG d   1      10.661   8.349  -0.994  0.00  0.00     0.055 A 
ATOM     37  C   LIG d   1      11.584   9.093  -0.258  0.00  0.00     0.040 A 
ATOM     38  N   LIG d   1      11.216  10.200   0.354  0.00  0.00    -0.263 NA
ATOM     39  H   LIG d   1      12.608   8.757  -0.189  0.00  0.00     0.084 H 
ATOM     40  C   LIG d   1       9.977  10.648   0.300  0.00  0.00     0.028 A 
ATOM     41  C   LIG d   1       9.002   9.969  -0.411  0.00  0.00    -0.043 A 
ATOM     42  H   LIG d   1       9.718  11.560   0.816  0.00  0.00     0.083 H 
ATOM     43  C   LIG d   1       9.338   8.803  -1.077  0.00  0.00    -0.047 A 
ATOM     44  H   LIG d   1       7.991  10.346  -0.448  0.00  0.00     0.063 H 
ATOM     45  H   LIG d   1       8.599   8.255  -1.642  0.00  0.00     0.063 H 
ENDBRANCH  33  36
ENDBRANCH   2  32
TORSDOF 5
ENDMDL
MODEL 4
REMARK VINA RESULT:      -6.7      7.173     12.908
REMARK  5 active torsions:
REMARK  status: ('A' for Active; 'I' for Inactive)
REMARK    1  A    between atoms: C_1  and  N_44 
REMARK    2  A    between atoms: C_3  and  N_19 
REMARK    3  A    between atoms: C_6  and  C_8 
REMARK    4  A    between atoms: C_10  and  C_13 
REMARK       I    between atoms: N_19  and  C_20 
REMARK    5  A    between atoms: C_20  and  C_22 
ROOT
ATOM      1  C   LIG d   1      10.067   1.376  -4.057  0.00  0.00    -0.012 C 
ATOM      2  C   LIG d   1       8.625   1.582  -4.566  0.00  0.00     0.069 C 
ATOM      3  H   LIG d   1       8.569   1.422  -5.642  0.00  0.00     0.055 H 
ATOM      4  C   LIG d   1       8.334   3.065  -4.214  0.00  0.00     0.023 C 
ATOM      5  C   LIG d   1       9.723   3.717  -4.446  0.00  0.00     0.061 C 
ATOM      6  H   LIG d   1       9.870   3.930  -5.506  0.00  0.00     0.095 H 
ATOM      7  H   LIG d   1      10.049   0.919  -3.068  0.00  0.00     0.083 H 
ATOM      8  H   LIG d   1      10.618   0.741  -4.751  0.00  0.00     0.083 H 
ATOM      9  H   LIG d   1       7.587   3.486  -4.886  0.00  0.00     0.035 H 
ATOM     10  H   LIG d   1       8.025   3.168  -3.175  0.00  0.00     0.035 H 
ATOM     11  N   LIG d   1      10.689   2.709  -3.968  0.00  0.00     0.243 N 
ATOM     12  H   LIG d   1      10.930   2.908  -2.991  0.00  0.00     0.204 HD
ENDROOT
BRANCH   5  13
ATOM     13  C   LIG d   1       9.854   4.980  -3.635  0.00  0.00     0.276 A 
ATOM     14  O   LIG d   1       9.548   6.218  -4.038  0.00  0.00    -0.332 OA
ATOM     15  N   LIG d   1       9.766   7.009  -3.146  0.00  0.00    -0.056 NA
ATOM     16  C   LIG d   1      10.234   6.388  -2.096  0.00  0.00     0.204 A 
ATOM     17  N   LIG d   1      10.294   5.073  -2.405  0.00  0.00    -0.186 NA
BRANCH  16  18
ATOM     18  C   LIG d   1      10.627   7.008  -0.807  0.00  0.00     0.041 A 
ATOM     19  C   LIG d   1      10.989   6.215   0.279  0.00  0.00     0.038 A 
ATOM     20  N   LIG d   1      11.343   6.765   1.423  0.00  0.00    -0.263 NA
ATOM     21  H   LIG d   1      10.984   5.139   0.182  0.00  0.00     0.084 H 
ATOM     22  C   LIG d   1      11.359   8.073   1.591  0.00  0.00     0.028 A 
ATOM     23  C   LIG d   1      11.007   8.928   0.563  0.00  0.00    -0.043 A 
ATOM     24  H   LIG d   1      11.651   8.482   2.547  0.00  0.00     0.083 H 
ATOM     25  C   LIG d   1      10.633   8.398  -0.660  0.00  0.00    -0.048 A 
ATOM     26  H   LIG d   1      11.025   9.997   0.712  0.00  0.00     0.063 H 
ATOM     27  H   LIG d   1      10.354   9.042  -1.481  0.00  0.00     0.063 H 
ENDBRANCH  16  18
ENDBRANCH   5  13
BRANCH  11  28
ATOM     28  C   LIG d   1      11.925   2.751  -4.792  0.00  0.00    -0.042 C 
ATOM     29  H   LIG d   1      11.698   2.453  -5.815  0.00  0.00     0.078 H 
ATOM     30  H   LIG d   1      12.324   3.766  -4.790  0.00  0.00     0.078 H 
ATOM     31  H   LIG d   1      12.664   2.070  -4.370  0.00  0.00     0.078 H 
ENDBRANCH  11  28
BRANCH   2  32
ATOM     32  N   LIG d   1       7.696   0.693  -3.864  0.00  0.00    -0.303 N 
ATOM     33  C   LIG d   1       6.591   0.242  -4.489  0.00  0.00     0.246 C 
ATOM     34  O   LIG d   1       6.367   0.570  -5.639  0.00  0.00    -0.270 OA
ATOM     35  H   LIG d   1       7.875   0.431  -2.947  0.00  0.00     0.149 HD
BRANCH  33  36
ATOM     36  C   LIG d   1       5.651  -0.651  -3.779  0.00  0.00     0.055 A 
ATOM     37  C   LIG d   1       5.215  -1.838  -4.371  0.00  0.00     0.040 A 
ATOM     38  N   LIG d   1       4.378  -2.633  -3.739  0.00  0.00    -0.263 NA
ATOM     39  H   LIG d   1       5.568  -2.105  -5.357  0.00  0.00     0.084 H 
ATOM     40  C   LIG d   1       3.919  -2.348  -2.536  0.00  0.00     0.028 A 
ATOM     41  C   LIG d   1       4.304  -1.192  -1.880  0.00  0.00    -0.043 A 
ATOM     42  H   LIG d   1       3.234  -3.029  -2.053  0.00  0.00     0.083 H 
ATOM     43  C   LIG d   1       5.187  -0.324  -2.499  0.00  0.00    -0.047 A 
ATOM     44  H   LIG d   1       3.922  -0.970  -0.895  0.00  0.00     0.063 H 
ATOM     45  H   LIG d   1       5.507   0.583  -2.009  0.00  0.00     0.063 H 
ENDBRANCH  33  36
ENDBRANCH   2  32
TORSDOF 5
ENDMDL
MODEL 5
REMARK VINA RESULT:      -6.7      6.996     10.486
REMARK  5 active torsions:
REMARK  status: ('A' for Active; 'I' for Inactive)
REMARK    1  A    between atoms: C_1  and  N_44 
REMARK    2  A    between atoms: C_3  and  N_19 
REMARK    3  A    between atoms: C_6  and  C_8 
REMARK    4  A    between atoms: C_10  and  C_13 
REMARK       I    between atoms: N_19  and  C_20 
REMARK    5  A    between atoms: C_20  and  C_22 
ROOT
ATOM      1  C   LIG d   1      10.251   4.398  -5.715  0.00  0.00    -0.012 C 
ATOM      2  C   LIG d   1      10.288   4.553  -4.181  0.00  0.00     0.069 C 
ATOM      3  H   LIG d   1      11.280   4.322  -3.793  0.00  0.00     0.055 H 
ATOM      4  C   LIG d   1       9.251   3.507  -3.694  0.00  0.00     0.023 C 
ATOM      5  C   LIG d   1       9.455   2.365  -4.723  0.00  0.00     0.061 C 
ATOM      6  H   LIG d   1      10.307   1.747  -4.439  0.00  0.00     0.095 H 
ATOM      7  H   LIG d   1       9.598   5.154  -6.149  0.00  0.00     0.083 H 
ATOM      8  H   LIG d   1      11.257   4.496  -6.122  0.00  0.00     0.083 H 
ATOM      9  H   LIG d   1       9.481   3.171  -2.683  0.00  0.00     0.035 H 
ATOM     10  H   LIG d   1       8.238   3.905  -3.750  0.00  0.00     0.035 H 
ATOM     11  N   LIG d   1       9.705   3.059  -6.001  0.00  0.00     0.243 N 
ATOM     12  H   LIG d   1       8.821   3.154  -6.513  0.00  0.00     0.204 HD
ENDROOT
BRANCH   5  13
ATOM     13  C   LIG d   1       8.209   1.523  -4.830  0.00  0.00     0.276 A 
ATOM     14  O   LIG d   1       7.472   1.332  -5.928  0.00  0.00    -0.332 OA
ATOM     15  N   LIG d   1       6.538   0.600  -5.678  0.00  0.00    -0.056 NA
ATOM     16  C   LIG d   1       6.563   0.253  -4.418  0.00  0.00     0.204 A 
ATOM     17  N   LIG d   1       7.642   0.847  -3.862  0.00  0.00    -0.186 NA
BRANCH  16  18
ATOM     18  C   LIG d   1       5.590  -0.628  -3.726  0.00  0.00     0.041 A 
ATOM     19  C   LIG d   1       5.094  -1.767  -4.355  0.00  0.00     0.038 A 
ATOM     20  N   LIG d   1       4.234  -2.553  -3.740  0.00  0.00    -0.263 NA
ATOM     21  H   LIG d   1       5.421  -2.011  -5.355  0.00  0.00     0.084 H 
ATOM     22  C   LIG d   1       3.801  -2.293  -2.521  0.00  0.00     0.028 A 
ATOM     23  C   LIG d   1       4.241  -1.177  -1.831  0.00  0.00    -0.043 A 
ATOM     24  H   LIG d   1       3.092  -2.960  -2.055  0.00  0.00     0.083 H 
ATOM     25  C   LIG d   1       5.150  -0.324  -2.434  0.00  0.00    -0.048 A 
ATOM     26  H   LIG d   1       3.881  -0.975  -0.834  0.00  0.00     0.063 H 
ATOM     27  H   LIG d   1       5.511   0.553  -1.919  0.00  0.00     0.063 H 
ENDBRANCH  16  18
ENDBRANCH   5  13
BRANCH  11  28
ATOM     28  C   LIG d   1      10.664   2.282  -6.828  0.00  0.00    -0.042 C 
ATOM     29  H   LIG d   1      11.568   2.079  -6.254  0.00  0.00     0.078 H 
ATOM     30  H   LIG d   1      10.203   1.340  -7.125  0.00  0.00     0.078 H 
ATOM     31  H   LIG d   1      10.921   2.856  -7.718  0.00  0.00     0.078 H 
ENDBRANCH  11  28
BRANCH   2  32
ATOM     32  N   LIG d   1       9.883   5.906  -3.788  0.00  0.00    -0.303 N 
ATOM     33  C   LIG d   1      10.410   6.474  -2.685  0.00  0.00     0.246 C 
ATOM     34  O   LIG d   1      11.226   5.865  -2.019  0.00  0.00    -0.270 OA
ATOM     35  H   LIG d   1       9.233   6.391  -4.319  0.00  0.00     0.149 HD
BRANCH  33  36
ATOM     36  C   LIG d   1       9.998   7.836  -2.286  0.00  0.00     0.055 A 
ATOM     37  C   LIG d   1      10.314   8.936  -3.084  0.00  0.00     0.040 A 
ATOM     38  N   LIG d   1       9.948  10.149  -2.728  0.00  0.00    -0.263 NA
ATOM     39  H   LIG d   1      10.866   8.790  -4.001  0.00  0.00     0.084 H 
ATOM     40  C   LIG d   1       9.274  10.376  -1.617  0.00  0.00     0.028 A 
ATOM     41  C   LIG d   1       8.920   9.339  -0.772  0.00  0.00    -0.043 A 
ATOM     42  H   LIG d   1       8.992  11.387  -1.363  0.00  0.00     0.083 H 
ATOM     43  C   LIG d   1       9.277   8.043  -1.103  0.00  0.00    -0.047 A 
ATOM     44  H   LIG d   1       8.368   9.537   0.135  0.00  0.00     0.063 H 
ATOM     45  H   LIG d   1       9.011   7.215  -0.463  0.00  0.00     0.063 H 
ENDBRANCH  33  36
ENDBRANCH   2  32
TORSDOF 5
ENDMDL
MODEL 6
REMARK VINA RESULT:      -6.6      2.375      2.817
REMARK  5 active torsions:
REMARK  status: ('A' for Active; 'I' for Inactive)
REMARK    1  A    between atoms: C_1  and  N_44 
REMARK    2  A    between atoms: C_3  and  N_19 
REMARK    3  A    between atoms: C_6  and  C_8 
REMARK    4  A    between atoms: C_10  and  C_13 
REMARK       I    between atoms: N_19  and  C_20 
REMARK    5  A    between atoms: C_20  and  C_22 
ROOT
ATOM      1  C   LIG d   1       3.907  -5.298  -7.514  0.00  0.00    -0.012 C 
ATOM      2  C   LIG d   1       4.892  -4.896  -6.397  0.00  0.00     0.069 C 
ATOM      3  H   LIG d   1       5.826  -4.527  -6.822  0.00  0.00     0.055 H 
ATOM      4  C   LIG d   1       5.123  -6.226  -5.632  0.00  0.00     0.023 C 
ATOM      5  C   LIG d   1       5.079  -7.260  -6.788  0.00  0.00     0.061 C 
ATOM      6  H   LIG d   1       6.045  -7.307  -7.291  0.00  0.00     0.095 H 
ATOM      7  H   LIG d   1       2.887  -5.058  -7.214  0.00  0.00     0.083 H 
ATOM      8  H   LIG d   1       4.156  -4.774  -8.437  0.00  0.00     0.083 H 
ATOM      9  H   LIG d   1       6.095  -6.229  -5.140  0.00  0.00     0.035 H 
ATOM     10  H   LIG d   1       4.323  -6.409  -4.916  0.00  0.00     0.035 H 
ATOM     11  N   LIG d   1       4.032  -6.756  -7.696  0.00  0.00     0.243 N 
ATOM     12  H   LIG d   1       3.138  -7.205  -7.466  0.00  0.00     0.204 HD
ENDROOT
BRANCH   5  13
ATOM     13  C   LIG d   1       4.695  -8.619  -6.264  0.00  0.00     0.276 A 
ATOM     14  O   LIG d   1       4.293  -8.907  -5.021  0.00  0.00    -0.332 OA
ATOM     15  N   LIG d   1       4.057 -10.092  -4.926  0.00  0.00    -0.056 NA
ATOM     16  C   LIG d   1       4.285 -10.690  -6.066  0.00  0.00     0.204 A 
ATOM     17  N   LIG d   1       4.698  -9.743  -6.937  0.00  0.00    -0.186 NA
BRANCH  16  18
ATOM     18  C   LIG d   1       4.121 -12.137  -6.351  0.00  0.00     0.041 A 
ATOM     19  C   LIG d   1       5.231 -12.972  -6.437  0.00  0.00     0.038 A 
ATOM     20  N   LIG d   1       5.087 -14.258  -6.685  0.00  0.00    -0.263 NA
ATOM     21  H   LIG d   1       6.221 -12.563  -6.295  0.00  0.00     0.084 H 
ATOM     22  C   LIG d   1       3.899 -14.802  -6.870  0.00  0.00     0.028 A 
ATOM     23  C   LIG d   1       2.748 -14.038  -6.807  0.00  0.00    -0.043 A 
ATOM     24  H   LIG d   1       3.826 -15.859  -7.076  0.00  0.00     0.083 H 
ATOM     25  C   LIG d   1       2.848 -12.683  -6.544  0.00  0.00    -0.048 A 
ATOM     26  H   LIG d   1       1.781 -14.494  -6.959  0.00  0.00     0.063 H 
ATOM     27  H   LIG d   1       1.966 -12.063  -6.488  0.00  0.00     0.063 H 
ENDBRANCH  16  18
ENDBRANCH   5  13
BRANCH  11  28
ATOM     28  C   LIG d   1       4.382  -7.066  -9.107  0.00  0.00    -0.042 C 
ATOM     29  H   LIG d   1       4.196  -6.194  -9.734  0.00  0.00     0.078 H 
ATOM     30  H   LIG d   1       5.436  -7.337  -9.164  0.00  0.00     0.078 H 
ATOM     31  H   LIG d   1       3.773  -7.900  -9.455  0.00  0.00     0.078 H 
ENDBRANCH  11  28
BRANCH   2  32
ATOM     32  N   LIG d   1       4.293  -3.889  -5.517  0.00  0.00    -0.303 N 
ATOM     33  C   LIG d   1       4.892  -2.693  -5.354  0.00  0.00     0.246 C 
ATOM     34  O   LIG d   1       5.928  -2.448  -5.943  0.00  0.00    -0.270 OA
ATOM     35  H   LIG d   1       3.467  -4.085  -5.048  0.00  0.00     0.149 HD
BRANCH  33  36
ATOM     36  C   LIG d   1       4.291  -1.680  -4.461  0.00  0.00     0.055 A 
ATOM     37  C   LIG d   1       3.921  -0.429  -4.956  0.00  0.00     0.040 A 
ATOM     38  N   LIG d   1       3.386   0.474  -4.161  0.00  0.00    -0.263 NA
ATOM     39  H   LIG d   1       4.075  -0.200  -6.001  0.00  0.00     0.084 H 
ATOM     40  C   LIG d   1       3.179   0.240  -2.880  0.00  0.00     0.028 A 
ATOM     41  C   LIG d   1       3.518  -0.976  -2.312  0.00  0.00    -0.043 A 
ATOM     42  H   LIG d   1       2.738   1.008  -2.263  0.00  0.00     0.083 H 
ATOM     43  C   LIG d   1       4.079  -1.961  -3.106  0.00  0.00    -0.047 A 
ATOM     44  H   LIG d   1       3.344  -1.156  -1.261  0.00  0.00     0.063 H 
ATOM     45  H   LIG d   1       4.349  -2.921  -2.690  0.00  0.00     0.063 H 
ENDBRANCH  33  36
ENDBRANCH   2  32
TORSDOF 5
ENDMDL
MODEL 7
REMARK VINA RESULT:      -6.6      8.129     13.882
REMARK  5 active torsions:
REMARK  status: ('A' for Active; 'I' for Inactive)
REMARK    1  A    between atoms: C_1  and  N_44 
REMARK    2  A    between atoms: C_3  and  N_19 
REMARK    3  A    between atoms: C_6  and  C_8 
REMARK    4  A    between atoms: C_10  and  C_13 
REMARK       I    between atoms: N_19  and  C_20 
REMARK    5  A    between atoms: C_20  and  C_22 
ROOT
ATOM      1  C   LIG d   1      10.864   2.159  -3.487  0.00  0.00    -0.012 C 
ATOM      2  C   LIG d   1       9.478   2.370  -4.130  0.00  0.00     0.069 C 
ATOM      3  H   LIG d   1       9.496   2.092  -5.184  0.00  0.00     0.055 H 
ATOM      4  C   LIG d   1       9.239   3.894  -3.967  0.00  0.00     0.023 C 
ATOM      5  C   LIG d   1      10.674   4.454  -4.154  0.00  0.00     0.061 C 
ATOM      6  H   LIG d   1      10.911   4.540  -5.215  0.00  0.00     0.095 H 
ATOM      7  H   LIG d   1      10.748   1.818  -2.458  0.00  0.00     0.083 H 
ATOM      8  H   LIG d   1      11.433   1.427  -4.060  0.00  0.00     0.083 H 
ATOM      9  H   LIG d   1       8.568   4.268  -4.739  0.00  0.00     0.035 H 
ATOM     10  H   LIG d   1       8.858   4.125  -2.973  0.00  0.00     0.035 H 
ATOM     11  N   LIG d   1      11.546   3.466  -3.493  0.00  0.00     0.243 N 
ATOM     12  H   LIG d   1      11.723   3.763  -2.526  0.00  0.00     0.204 HD
ENDROOT
BRANCH   5  13
ATOM     13  C   LIG d   1      10.808   5.794  -3.477  0.00  0.00     0.276 A 
ATOM     14  O   LIG d   1      10.791   6.990  -4.073  0.00  0.00    -0.332 OA
ATOM     15  N   LIG d   1      10.919   7.867  -3.246  0.00  0.00    -0.056 NA
ATOM     16  C   LIG d   1      11.040   7.347  -2.053  0.00  0.00     0.204 A 
ATOM     17  N   LIG d   1      10.969   6.005  -2.194  0.00  0.00    -0.186 NA
BRANCH  16  18
ATOM     18  C   LIG d   1      11.222   8.090  -0.781  0.00  0.00     0.041 A 
ATOM     19  C   LIG d   1      11.782   7.466   0.330  0.00  0.00     0.038 A 
ATOM     20  N   LIG d   1      11.949   8.126   1.458  0.00  0.00    -0.263 NA
ATOM     21  H   LIG d   1      12.087   6.431   0.265  0.00  0.00     0.084 H 
ATOM     22  C   LIG d   1      11.587   9.388   1.585  0.00  0.00     0.028 A 
ATOM     23  C   LIG d   1      11.018  10.077   0.530  0.00  0.00    -0.043 A 
ATOM     24  H   LIG d   1      11.738   9.891   2.529  0.00  0.00     0.083 H 
ATOM     25  C   LIG d   1      10.828   9.428  -0.678  0.00  0.00    -0.048 A 
ATOM     26  H   LIG d   1      10.727  11.110   0.646  0.00  0.00     0.063 H 
ATOM     27  H   LIG d   1      10.387   9.941  -1.519  0.00  0.00     0.063 H 
ENDBRANCH  16  18
ENDBRANCH   5  13
BRANCH  11  28
ATOM     28  C   LIG d   1      12.842   3.362  -4.213  0.00  0.00    -0.042 C 
ATOM     29  H   LIG d   1      12.685   3.514  -5.280  0.00  0.00     0.078 H 
ATOM     30  H   LIG d   1      13.526   4.122  -3.834  0.00  0.00     0.078 H 
ATOM     31  H   LIG d   1      13.270   2.373  -4.045  0.00  0.00     0.078 H 
ENDBRANCH  11  28
BRANCH   2  32
ATOM     32  N   LIG d   1       8.453   1.605  -3.413  0.00  0.00    -0.303 N 
ATOM     33  C   LIG d   1       7.345   1.192  -4.059  0.00  0.00     0.246 C 
ATOM     34  O   LIG d   1       7.198   1.449  -5.239  0.00  0.00    -0.270 OA
ATOM     35  H   LIG d   1       8.571   1.400  -2.473  0.00  0.00     0.149 HD
BRANCH  33  36
ATOM     36  C   LIG d   1       6.309   0.426  -3.335  0.00  0.00     0.055 A 
ATOM     37  C   LIG d   1       6.264  -0.966  -3.424  0.00  0.00     0.040 A 
ATOM     38  N   LIG d   1       5.340  -1.649  -2.780  0.00  0.00    -0.263 NA
ATOM     39  H   LIG d   1       6.992  -1.487  -4.028  0.00  0.00     0.084 H 
ATOM     40  C   LIG d   1       4.430  -1.056  -2.032  0.00  0.00     0.028 A 
ATOM     41  C   LIG d   1       4.408   0.321  -1.891  0.00  0.00    -0.043 A 
ATOM     42  H   LIG d   1       3.692  -1.654  -1.520  0.00  0.00     0.083 H 
ATOM     43  C   LIG d   1       5.360   1.084  -2.543  0.00  0.00    -0.047 A 
ATOM     44  H   LIG d   1       3.657   0.794  -1.275  0.00  0.00     0.063 H 
ATOM     45  H   LIG d   1       5.368   2.160  -2.448  0.00  0.00     0.063 H 
ENDBRANCH  33  36
ENDBRANCH   2  32
TORSDOF 5
ENDMDL
MODEL 8
REMARK VINA RESULT:      -6.4      4.583      9.733
REMARK  5 active torsions:
REMARK  status: ('A' for Active; 'I' for Inactive)
REMARK    1  A    between atoms: C_1  and  N_44 
REMARK    2  A    between atoms: C_3  and  N_19 
REMARK    3  A    between atoms: C_6  and  C_8 
REMARK    4  A    between atoms: C_10  and  C_13 
REMARK       I    between atoms: N_19  and  C_20 
REMARK    5  A    between atoms: C_20  and  C_22 
ROOT
ATOM      1  C   LIG d   1      11.302  -4.387  -3.002  0.00  0.00    -0.012 C 
ATOM      2  C   LIG d   1      10.694  -5.803  -3.088  0.00  0.00     0.069 C 
ATOM      3  H   LIG d   1      11.143  -6.366  -3.906  0.00  0.00     0.055 H 
ATOM      4  C   LIG d   1       9.193  -5.528  -3.368  0.00  0.00     0.023 C 
ATOM      5  C   LIG d   1       9.272  -4.270  -4.274  0.00  0.00     0.061 C 
ATOM      6  H   LIG d   1       9.478  -4.558  -5.305  0.00  0.00     0.095 H 
ATOM      7  H   LIG d   1      11.380  -4.079  -1.960  0.00  0.00     0.083 H 
ATOM      8  H   LIG d   1      12.287  -4.377  -3.469  0.00  0.00     0.083 H 
ATOM      9  H   LIG d   1       8.736  -6.363  -3.897  0.00  0.00     0.035 H 
ATOM     10  H   LIG d   1       8.657  -5.309  -2.446  0.00  0.00     0.035 H 
ATOM     11  N   LIG d   1      10.383  -3.479  -3.712  0.00  0.00     0.243 N 
ATOM     12  H   LIG d   1      10.007  -2.789  -3.050  0.00  0.00     0.204 HD
ENDROOT
BRANCH   5  13
ATOM     13  C   LIG d   1       7.989  -3.484  -4.195  0.00  0.00     0.276 A 
ATOM     14  O   LIG d   1       6.843  -3.770  -4.822  0.00  0.00    -0.332 OA
ATOM     15  N   LIG d   1       6.002  -2.941  -4.546  0.00  0.00    -0.056 NA
ATOM     16  C   LIG d   1       6.502  -2.044  -3.738  0.00  0.00     0.204 A 
ATOM     17  N   LIG d   1       7.788  -2.388  -3.507  0.00  0.00    -0.186 NA
BRANCH  16  18
ATOM     18  C   LIG d   1       5.791  -0.867  -3.179  0.00  0.00     0.041 A 
ATOM     19  C   LIG d   1       6.266   0.421  -3.408  0.00  0.00     0.038 A 
ATOM     20  N   LIG d   1       5.633   1.467  -2.917  0.00  0.00    -0.263 NA
ATOM     21  H   LIG d   1       7.159   0.566  -3.998  0.00  0.00     0.084 H 
ATOM     22  C   LIG d   1       4.542   1.341  -2.187  0.00  0.00     0.028 A 
ATOM     23  C   LIG d   1       4.010   0.094  -1.909  0.00  0.00    -0.043 A 
ATOM     24  H   LIG d   1       4.056   2.224  -1.799  0.00  0.00     0.083 H 
ATOM     25  C   LIG d   1       4.637  -1.035  -2.408  0.00  0.00    -0.048 A 
ATOM     26  H   LIG d   1       3.116   0.003  -1.311  0.00  0.00     0.063 H 
ATOM     27  H   LIG d   1       4.244  -2.020  -2.207  0.00  0.00     0.063 H 
ENDBRANCH  16  18
ENDBRANCH   5  13
BRANCH  11  28
ATOM     28  C   LIG d   1      11.106  -2.766  -4.797  0.00  0.00    -0.042 C 
ATOM     29  H   LIG d   1      12.110  -3.177  -4.903  0.00  0.00     0.078 H 
ATOM     30  H   LIG d   1      10.562  -2.889  -5.733  0.00  0.00     0.078 H 
ATOM     31  H   LIG d   1      11.172  -1.706  -4.552  0.00  0.00     0.078 H 
ENDBRANCH  11  28
BRANCH   2  32
ATOM     32  N   LIG d   1      10.861  -6.516  -1.819  0.00  0.00    -0.303 N 
ATOM     33  C   LIG d   1      10.711  -7.854  -1.772  0.00  0.00     0.246 C 
ATOM     34  O   LIG d   1      10.440  -8.470  -2.784  0.00  0.00    -0.270 OA
ATOM     35  H   LIG d   1      11.078  -6.023  -1.011  0.00  0.00     0.149 HD
BRANCH  33  36
ATOM     36  C   LIG d   1      10.874  -8.572  -0.490  0.00  0.00     0.055 A 
ATOM     37  C   LIG d   1      11.498  -7.955   0.595  0.00  0.00     0.040 A 
ATOM     38  N   LIG d   1      11.644  -8.595   1.736  0.00  0.00    -0.263 NA
ATOM     39  H   LIG d   1      11.865  -6.944   0.496  0.00  0.00     0.084 H 
ATOM     40  C   LIG d   1      11.213  -9.830   1.903  0.00  0.00     0.028 A 
ATOM     41  C   LIG d   1      10.582 -10.511   0.876  0.00  0.00    -0.043 A 
ATOM     42  H   LIG d   1      11.352 -10.318   2.856  0.00  0.00     0.083 H 
ATOM     43  C   LIG d   1      10.399  -9.881  -0.342  0.00  0.00    -0.047 A 
ATOM     44  H   LIG d   1      10.233 -11.523   1.025  0.00  0.00     0.063 H 
ATOM     45  H   LIG d   1       9.907 -10.388  -1.160  0.00  0.00     0.063 H 
ENDBRANCH  33  36
ENDBRANCH   2  32
TORSDOF 5
ENDMDL
MODEL 9
REMARK VINA RESULT:      -6.4      8.131     14.392
REMARK  5 active torsions:
REMARK  status: ('A' for Active; 'I' for Inactive)
REMARK    1  A    between atoms: C_1  and  N_44 
REMARK    2  A    between atoms: C_3  and  N_19 
REMARK    3  A    between atoms: C_6  and  C_8 
REMARK    4  A    between atoms: C_10  and  C_13 
REMARK       I    between atoms: N_19  and  C_20 
REMARK    5  A    between atoms: C_20  and  C_22 
ROOT
ATOM      1  C   LIG d   1      10.805   2.334  -3.338  0.00  0.00    -0.012 C 
ATOM      2  C   LIG d   1       9.513   2.237  -4.175  0.00  0.00     0.069 C 
ATOM      3  H   LIG d   1       9.708   1.746  -5.129  0.00  0.00     0.055 H 
ATOM      4  C   LIG d   1       9.118   3.722  -4.392  0.00  0.00     0.023 C 
ATOM      5  C   LIG d   1      10.509   4.396  -4.526  0.00  0.00     0.061 C 
ATOM      6  H   LIG d   1      10.889   4.282  -5.542  0.00  0.00     0.095 H 
ATOM      7  H   LIG d   1      10.572   2.208  -2.281  0.00  0.00     0.083 H 
ATOM      8  H   LIG d   1      11.513   1.570  -3.658  0.00  0.00     0.083 H 
ATOM      9  H   LIG d   1       8.535   3.841  -5.304  0.00  0.00     0.035 H 
ATOM     10  H   LIG d   1       8.578   4.112  -3.530  0.00  0.00     0.035 H 
ATOM     11  N   LIG d   1      11.362   3.681  -3.557  0.00  0.00     0.243 N 
ATOM     12  H   LIG d   1      11.369   4.195  -2.668  0.00  0.00     0.204 HD
ENDROOT
BRANCH   5  13
ATOM     13  C   LIG d   1      10.424   5.855  -4.159  0.00  0.00     0.276 A 
ATOM     14  O   LIG d   1      10.580   6.377  -2.938  0.00  0.00    -0.332 OA
ATOM     15  N   LIG d   1      10.453   7.582  -2.983  0.00  0.00    -0.056 NA
ATOM     16  C   LIG d   1      10.198   7.962  -4.208  0.00  0.00     0.204 A 
ATOM     17  N   LIG d   1      10.177   6.849  -4.974  0.00  0.00    -0.186 NA
BRANCH  16  18
ATOM     18  C   LIG d   1       9.972   9.354  -4.670  0.00  0.00     0.041 A 
ATOM     19  C   LIG d   1       9.861   9.640  -6.028  0.00  0.00     0.038 A 
ATOM     20  N   LIG d   1       9.656  10.875  -6.439  0.00  0.00    -0.263 NA
ATOM     21  H   LIG d   1       9.940   8.842  -6.751  0.00  0.00     0.084 H 
ATOM     22  C   LIG d   1       9.558  11.883  -5.594  0.00  0.00     0.028 A 
ATOM     23  C   LIG d   1       9.662  11.682  -4.229  0.00  0.00    -0.043 A 
ATOM     24  H   LIG d   1       9.394  12.881  -5.973  0.00  0.00     0.083 H 
ATOM     25  C   LIG d   1       9.873  10.401  -3.748  0.00  0.00    -0.048 A 
ATOM     26  H   LIG d   1       9.579  12.514  -3.547  0.00  0.00     0.063 H 
ATOM     27  H   LIG d   1       9.958  10.215  -2.688  0.00  0.00     0.063 H 
ENDBRANCH  16  18
ENDBRANCH   5  13
BRANCH  11  28
ATOM     28  C   LIG d   1      12.752   3.581  -4.072  0.00  0.00    -0.042 C 
ATOM     29  H   LIG d   1      13.171   4.578  -4.199  0.00  0.00     0.078 H 
ATOM     30  H   LIG d   1      13.359   3.019  -3.362  0.00  0.00     0.078 H 
ATOM     31  H   LIG d   1      12.745   3.064  -5.032  0.00  0.00     0.078 H 
ENDBRANCH  11  28
BRANCH   2  32
ATOM     32  N   LIG d   1       8.467   1.526  -3.434  0.00  0.00    -0.303 N 
ATOM     33  C   LIG d   1       7.334   1.151  -4.059  0.00  0.00     0.246 C 
ATOM     34  O   LIG d   1       7.181   1.398  -5.240  0.00  0.00    -0.270 OA
ATOM     35  H   LIG d   1       8.590   1.329  -2.492  0.00  0.00     0.149 HD
BRANCH  33  36
ATOM     36  C   LIG d   1       6.277   0.439  -3.310  0.00  0.00     0.055 A 
ATOM     37  C   LIG d   1       6.215  -0.955  -3.323  0.00  0.00     0.040 A 
ATOM     38  N   LIG d   1       5.273  -1.590  -2.656  0.00  0.00    -0.263 NA
ATOM     39  H   LIG d   1       6.945  -1.518  -3.886  0.00  0.00     0.084 H 
ATOM     40  C   LIG d   1       4.360  -0.945  -1.956  0.00  0.00     0.028 A 
ATOM     41  C   LIG d   1       4.354   0.437  -1.891  0.00  0.00    -0.043 A 
ATOM     42  H   LIG d   1       3.606  -1.505  -1.423  0.00  0.00     0.083 H 
ATOM     43  C   LIG d   1       5.326   1.151  -2.570  0.00  0.00    -0.047 A 
ATOM     44  H   LIG d   1       3.601   0.953  -1.314  0.00  0.00     0.063 H 
ATOM     45  H   LIG d   1       5.347   2.231  -2.534  0.00  0.00     0.063 H 
ENDBRANCH  33  36
ENDBRANCH   2  32
TORSDOF 5
ENDMDL
