MODEL 1
REMARK VINA RESULT:      -7.0      0.000      0.000
REMARK  2 active torsions:
REMARK  status: ('A' for Active; 'I' for Inactive)
REMARK    1  A    between atoms: C_8  and  C_14 
REMARK    2  A    between atoms: C_11  and  O_13 
ROOT
ATOM      1  C   LIG d   1       5.829  -1.947  -3.470  0.00  0.00    -0.061 A 
ATOM      2  C   LIG d   1       4.934  -1.487  -2.521  0.00  0.00    -0.061 A 
ATOM      3  C   LIG d   1       3.860  -0.710  -2.906  0.00  0.00    -0.053 A 
ATOM      4  C   LIG d   1       3.671  -0.391  -4.243  0.00  0.00     0.011 A 
ATOM      5  C   LIG d   1       4.561  -0.853  -5.190  0.00  0.00    -0.037 A 
ATOM      6  C   LIG d   1       5.638  -1.636  -4.802  0.00  0.00    -0.058 A 
ATOM      7  C   LIG d   1       4.393  -0.523  -6.651  0.00  0.00    -0.001 C 
ATOM      8  C   LIG d   1       2.968  -0.032  -6.910  0.00  0.00     0.069 C 
ATOM      9  H   LIG d   1       2.270  -0.864  -6.813  0.00  0.00     0.060 H 
ATOM     10  O   LIG d   1       2.653   0.976  -5.942  0.00  0.00    -0.344 OA
ATOM     11  C   LIG d   1       2.484   0.455  -4.625  0.00  0.00     0.183 C 
ATOM     12  H   LIG d   1       2.389   1.281  -3.919  0.00  0.00     0.096 H 
ATOM     13  H   LIG d   1       6.671  -2.553  -3.171  0.00  0.00     0.062 H 
ATOM     14  H   LIG d   1       5.078  -1.732  -1.479  0.00  0.00     0.062 H 
ATOM     15  H   LIG d   1       3.165  -0.348  -2.164  0.00  0.00     0.062 H 
ATOM     16  H   LIG d   1       6.334  -1.999  -5.543  0.00  0.00     0.062 H 
ATOM     17  H   LIG d   1       4.583  -1.415  -7.248  0.00  0.00     0.034 H 
ATOM     18  H   LIG d   1       5.102   0.257  -6.929  0.00  0.00     0.034 H 
ENDROOT
BRANCH   8  19
ATOM     19  C   LIG d   1       2.871   0.559  -8.318  0.00  0.00    -0.014 C 
ATOM     20  C   LIG d   1       4.000   1.570  -8.527  0.00  0.00    -0.048 C 
ATOM     21  C   LIG d   1       3.903   2.160  -9.934  0.00  0.00    -0.053 C 
ATOM     22  H   LIG d   1       3.912   2.369  -7.790  0.00  0.00     0.027 H 
ATOM     23  H   LIG d   1       4.962   1.070  -8.407  0.00  0.00     0.027 H 
ATOM     24  C   LIG d   1       4.027   1.039 -10.967  0.00  0.00    -0.053 C 
ATOM     25  H   LIG d   1       2.942   2.660 -10.053  0.00  0.00     0.026 H 
ATOM     26  H   LIG d   1       4.707   2.881 -10.082  0.00  0.00     0.026 H 
ATOM     27  C   LIG d   1       2.898   0.027 -10.760  0.00  0.00    -0.053 C 
ATOM     28  H   LIG d   1       3.957   1.460 -11.971  0.00  0.00     0.026 H 
ATOM     29  H   LIG d   1       4.989   0.540 -10.848  0.00  0.00     0.026 H 
ATOM     30  C   LIG d   1       2.995  -0.563  -9.352  0.00  0.00    -0.048 C 
ATOM     31  H   LIG d   1       1.936   0.527 -10.878  0.00  0.00     0.026 H 
ATOM     32  H   LIG d   1       2.986  -0.771 -11.496  0.00  0.00     0.026 H 
ATOM     33  H   LIG d   1       3.957  -1.063  -9.232  0.00  0.00     0.027 H 
ATOM     34  H   LIG d   1       2.190  -1.284  -9.204  0.00  0.00     0.027 H 
ATOM     35  H   LIG d   1       1.910   1.058  -8.437  0.00  0.00     0.033 H 
ENDBRANCH   8  19
BRANCH  11  36
ATOM     36  O   LIG d   1       1.299  -0.343  -4.579  0.00  0.00    -0.363 OA
ATOM     37  H   LIG d   1       1.347  -1.149  -5.112  0.00  0.00     0.213 HD
ENDBRANCH  11  36
TORSDOF 2
ENDMDL
MODEL 2
REMARK VINA RESULT:      -7.0      1.618      6.031
REMARK  2 active torsions:
REMARK  status: ('A' for Active; 'I' for Inactive)
REMARK    1  A    between atoms: C_8  and  C_14 
REMARK    2  A    between atoms: C_11  and  O_13 
ROOT
ATOM      1  C   LIG d   1       3.251   2.214  -9.901  0.00  0.00    -0.061 A 
ATOM      2  C   LIG d   1       3.880   1.161 -10.539  0.00  0.00    -0.061 A 
ATOM      3  C   LIG d   1       4.239   0.037  -9.823  0.00  0.00    -0.053 A 
ATOM      4  C   LIG d   1       3.966  -0.044  -8.465  0.00  0.00     0.011 A 
ATOM      5  C   LIG d   1       3.334   1.004  -7.830  0.00  0.00    -0.037 A 
ATOM      6  C   LIG d   1       2.973   2.132  -8.551  0.00  0.00    -0.058 A 
ATOM      7  C   LIG d   1       3.027   0.956  -6.355  0.00  0.00    -0.001 C 
ATOM      8  C   LIG d   1       3.114  -0.486  -5.854  0.00  0.00     0.069 C 
ATOM      9  H   LIG d   1       2.279  -1.063  -6.251  0.00  0.00     0.060 H 
ATOM     10  O   LIG d   1       4.349  -1.051  -6.313  0.00  0.00    -0.344 OA
ATOM     11  C   LIG d   1       4.368  -1.290  -7.719  0.00  0.00     0.183 C 
ATOM     12  H   LIG d   1       5.374  -1.583  -8.022  0.00  0.00     0.096 H 
ATOM     13  H   LIG d   1       2.972   3.096 -10.459  0.00  0.00     0.062 H 
ATOM     14  H   LIG d   1       4.096   1.220 -11.596  0.00  0.00     0.062 H 
ATOM     15  H   LIG d   1       4.734  -0.783 -10.321  0.00  0.00     0.062 H 
ATOM     16  H   LIG d   1       2.477   2.952  -8.054  0.00  0.00     0.062 H 
ATOM     17  H   LIG d   1       2.021   1.339  -6.182  0.00  0.00     0.034 H 
ATOM     18  H   LIG d   1       3.747   1.572  -5.816  0.00  0.00     0.034 H 
ENDROOT
BRANCH   8  19
ATOM     19  C   LIG d   1       3.075  -0.508  -4.325  0.00  0.00    -0.014 C 
ATOM     20  C   LIG d   1       3.923  -1.672  -3.809  0.00  0.00    -0.048 C 
ATOM     21  C   LIG d   1       3.884  -1.693  -2.280  0.00  0.00    -0.053 C 
ATOM     22  H   LIG d   1       3.525  -2.610  -4.196  0.00  0.00     0.027 H 
ATOM     23  H   LIG d   1       4.953  -1.548  -4.145  0.00  0.00     0.027 H 
ATOM     24  C   LIG d   1       4.442  -0.377  -1.737  0.00  0.00    -0.053 C 
ATOM     25  H   LIG d   1       2.854  -1.817  -1.945  0.00  0.00     0.026 H 
ATOM     26  H   LIG d   1       4.487  -2.523  -1.913  0.00  0.00     0.026 H 
ATOM     27  C   LIG d   1       3.595   0.788  -2.253  0.00  0.00    -0.053 C 
ATOM     28  H   LIG d   1       4.414  -0.392  -0.647  0.00  0.00     0.026 H 
ATOM     29  H   LIG d   1       5.472  -0.254  -2.073  0.00  0.00     0.026 H 
ATOM     30  C   LIG d   1       3.634   0.809  -3.782  0.00  0.00    -0.048 C 
ATOM     31  H   LIG d   1       2.565   0.665  -1.918  0.00  0.00     0.026 H 
ATOM     32  H   LIG d   1       3.993   1.726  -1.866  0.00  0.00     0.026 H 
ATOM     33  H   LIG d   1       4.664   0.933  -4.118  0.00  0.00     0.027 H 
ATOM     34  H   LIG d   1       3.030   1.639  -4.150  0.00  0.00     0.027 H 
ATOM     35  H   LIG d   1       2.045  -0.631  -3.990  0.00  0.00     0.033 H 
ENDBRANCH   8  19
BRANCH  11  36
ATOM     36  O   LIG d   1       3.456  -2.345  -8.032  0.00  0.00    -0.363 OA
ATOM     37  H   LIG d   1       3.650  -3.179  -7.583  0.00  0.00     0.213 HD
ENDBRANCH  11  36
TORSDOF 2
ENDMDL
MODEL 3
REMARK VINA RESULT:      -6.5      2.006      3.051
REMARK  2 active torsions:
REMARK  status: ('A' for Active; 'I' for Inactive)
REMARK    1  A    between atoms: C_8  and  C_14 
REMARK    2  A    between atoms: C_11  and  O_13 
ROOT
ATOM      1  C   LIG d   1       3.626   0.716  -2.257  0.00  0.00    -0.061 A 
ATOM      2  C   LIG d   1       4.458  -0.295  -1.814  0.00  0.00    -0.061 A 
ATOM      3  C   LIG d   1       4.930  -1.238  -2.706  0.00  0.00    -0.053 A 
ATOM      4  C   LIG d   1       4.577  -1.172  -4.045  0.00  0.00     0.011 A 
ATOM      5  C   LIG d   1       3.750  -0.161  -4.487  0.00  0.00    -0.037 A 
ATOM      6  C   LIG d   1       3.279   0.786  -3.591  0.00  0.00    -0.058 A 
ATOM      7  C   LIG d   1       3.339  -0.060  -5.934  0.00  0.00    -0.001 C 
ATOM      8  C   LIG d   1       4.272  -0.910  -6.798  0.00  0.00     0.069 C 
ATOM      9  H   LIG d   1       5.258  -0.447  -6.838  0.00  0.00     0.060 H 
ATOM     10  O   LIG d   1       4.376  -2.211  -6.207  0.00  0.00    -0.344 OA
ATOM     11  C   LIG d   1       5.117  -2.216  -4.988  0.00  0.00     0.183 C 
ATOM     12  H   LIG d   1       5.038  -3.199  -4.522  0.00  0.00     0.096 H 
ATOM     13  H   LIG d   1       3.253   1.453  -1.561  0.00  0.00     0.062 H 
ATOM     14  H   LIG d   1       4.734  -0.351  -0.772  0.00  0.00     0.062 H 
ATOM     15  H   LIG d   1       5.576  -2.030  -2.358  0.00  0.00     0.062 H 
ATOM     16  H   LIG d   1       2.633   1.580  -3.937  0.00  0.00     0.062 H 
ATOM     17  H   LIG d   1       3.397   0.981  -6.255  0.00  0.00     0.034 H 
ATOM     18  H   LIG d   1       2.316  -0.417  -6.044  0.00  0.00     0.034 H 
ENDROOT
BRANCH   8  19
ATOM     19  C   LIG d   1       3.702  -1.031  -8.212  0.00  0.00    -0.014 C 
ATOM     20  C   LIG d   1       3.477  -2.507  -8.548  0.00  0.00    -0.048 C 
ATOM     21  C   LIG d   1       2.907  -2.628  -9.962  0.00  0.00    -0.053 C 
ATOM     22  H   LIG d   1       4.427  -3.040  -8.491  0.00  0.00     0.027 H 
ATOM     23  H   LIG d   1       2.775  -2.939  -7.834  0.00  0.00     0.027 H 
ATOM     24  C   LIG d   1       1.575  -1.880 -10.041  0.00  0.00    -0.053 C 
ATOM     25  H   LIG d   1       3.609  -2.196 -10.675  0.00  0.00     0.026 H 
ATOM     26  H   LIG d   1       2.749  -3.679 -10.201  0.00  0.00     0.026 H 
ATOM     27  C   LIG d   1       1.799  -0.404  -9.705  0.00  0.00    -0.053 C 
ATOM     28  H   LIG d   1       1.169  -1.965 -11.049  0.00  0.00     0.026 H 
ATOM     29  H   LIG d   1       0.873  -2.312  -9.327  0.00  0.00     0.026 H 
ATOM     30  C   LIG d   1       2.369  -0.283  -8.291  0.00  0.00    -0.048 C 
ATOM     31  H   LIG d   1       2.501   0.029 -10.418  0.00  0.00     0.026 H 
ATOM     32  H   LIG d   1       0.850   0.129  -9.762  0.00  0.00     0.026 H 
ATOM     33  H   LIG d   1       1.667  -0.715  -7.577  0.00  0.00     0.027 H 
ATOM     34  H   LIG d   1       2.529   0.769  -8.052  0.00  0.00     0.027 H 
ATOM     35  H   LIG d   1       4.404  -0.599  -8.925  0.00  0.00     0.033 H 
ENDBRANCH   8  19
BRANCH  11  36
ATOM     36  O   LIG d   1       6.490  -1.937  -5.268  0.00  0.00    -0.363 OA
ATOM     37  H   LIG d   1       6.632  -1.119  -5.764  0.00  0.00     0.213 HD
ENDBRANCH  11  36
TORSDOF 2
ENDMDL
MODEL 4
REMARK VINA RESULT:      -6.5      1.575      2.279
REMARK  2 active torsions:
REMARK  status: ('A' for Active; 'I' for Inactive)
REMARK    1  A    between atoms: C_8  and  C_14 
REMARK    2  A    between atoms: C_11  and  O_13 
ROOT
ATOM      1  C   LIG d   1       3.215  -0.916  -2.345  0.00  0.00    -0.061 A 
ATOM      2  C   LIG d   1       4.059  -2.009  -2.408  0.00  0.00    -0.061 A 
ATOM      3  C   LIG d   1       4.576  -2.411  -3.624  0.00  0.00    -0.053 A 
ATOM      4  C   LIG d   1       4.254  -1.719  -4.783  0.00  0.00     0.011 A 
ATOM      5  C   LIG d   1       3.415  -0.627  -4.719  0.00  0.00    -0.037 A 
ATOM      6  C   LIG d   1       2.899  -0.224  -3.496  0.00  0.00    -0.058 A 
ATOM      7  C   LIG d   1       3.037   0.145  -5.957  0.00  0.00    -0.001 C 
ATOM      8  C   LIG d   1       4.011  -0.184  -7.090  0.00  0.00     0.069 C 
ATOM      9  H   LIG d   1       4.986   0.251  -6.873  0.00  0.00     0.060 H 
ATOM     10  O   LIG d   1       4.131  -1.609  -7.184  0.00  0.00    -0.344 OA
ATOM     11  C   LIG d   1       4.842  -2.185  -6.090  0.00  0.00     0.183 C 
ATOM     12  H   LIG d   1       4.775  -3.272  -6.148  0.00  0.00     0.096 H 
ATOM     13  H   LIG d   1       2.807  -0.602  -1.395  0.00  0.00     0.062 H 
ATOM     14  H   LIG d   1       4.312  -2.551  -1.508  0.00  0.00     0.062 H 
ATOM     15  H   LIG d   1       5.232  -3.266  -3.673  0.00  0.00     0.062 H 
ATOM     16  H   LIG d   1       2.243   0.632  -3.446  0.00  0.00     0.062 H 
ATOM     17  H   LIG d   1       3.078   1.214  -5.744  0.00  0.00     0.034 H 
ATOM     18  H   LIG d   1       2.025  -0.127  -6.257  0.00  0.00     0.034 H 
ENDROOT
BRANCH   8  19
ATOM     19  C   LIG d   1       3.478   0.376  -8.410  0.00  0.00    -0.014 C 
ATOM     20  C   LIG d   1       4.380   1.519  -8.880  0.00  0.00    -0.048 C 
ATOM     21  C   LIG d   1       3.848   2.079 -10.200  0.00  0.00    -0.053 C 
ATOM     22  H   LIG d   1       4.388   2.308  -8.127  0.00  0.00     0.027 H 
ATOM     23  H   LIG d   1       5.394   1.146  -9.025  0.00  0.00     0.027 H 
ATOM     24  C   LIG d   1       3.837   0.972 -11.256  0.00  0.00    -0.053 C 
ATOM     25  H   LIG d   1       2.834   2.452 -10.054  0.00  0.00     0.026 H 
ATOM     26  H   LIG d   1       4.489   2.894 -10.535  0.00  0.00     0.026 H 
ATOM     27  C   LIG d   1       2.935  -0.172 -10.787  0.00  0.00    -0.053 C 
ATOM     28  H   LIG d   1       3.457   1.371 -12.197  0.00  0.00     0.026 H 
ATOM     29  H   LIG d   1       4.851   0.599 -11.401  0.00  0.00     0.026 H 
ATOM     30  C   LIG d   1       3.468  -0.732  -9.466  0.00  0.00    -0.048 C 
ATOM     31  H   LIG d   1       1.922   0.201 -10.640  0.00  0.00     0.026 H 
ATOM     32  H   LIG d   1       2.927  -0.960 -11.539  0.00  0.00     0.026 H 
ATOM     33  H   LIG d   1       4.482  -1.105  -9.612  0.00  0.00     0.027 H 
ATOM     34  H   LIG d   1       2.825  -1.546  -9.131  0.00  0.00     0.027 H 
ATOM     35  H   LIG d   1       2.465   0.748  -8.264  0.00  0.00     0.033 H 
ENDBRANCH   8  19
BRANCH  11  36
ATOM     36  O   LIG d   1       6.215  -1.793  -6.158  0.00  0.00    -0.363 OA
ATOM     37  H   LIG d   1       6.760  -2.368  -6.712  0.00  0.00     0.213 HD
ENDBRANCH  11  36
TORSDOF 2
ENDMDL
MODEL 5
REMARK VINA RESULT:      -6.3      4.725      5.853
REMARK  2 active torsions:
REMARK  status: ('A' for Active; 'I' for Inactive)
REMARK    1  A    between atoms: C_8  and  C_14 
REMARK    2  A    between atoms: C_11  and  O_13 
ROOT
ATOM      1  C   LIG d   1       4.087  -0.067  -1.828  0.00  0.00    -0.061 A 
ATOM      2  C   LIG d   1       4.164  -1.404  -2.169  0.00  0.00    -0.061 A 
ATOM      3  C   LIG d   1       5.184  -1.849  -2.986  0.00  0.00    -0.053 A 
ATOM      4  C   LIG d   1       6.137  -0.961  -3.462  0.00  0.00     0.011 A 
ATOM      5  C   LIG d   1       6.062   0.373  -3.118  0.00  0.00    -0.037 A 
ATOM      6  C   LIG d   1       5.038   0.817  -2.296  0.00  0.00    -0.058 A 
ATOM      7  C   LIG d   1       7.074   1.370  -3.621  0.00  0.00    -0.001 C 
ATOM      8  C   LIG d   1       8.313   0.635  -4.138  0.00  0.00     0.069 C 
ATOM      9  H   LIG d   1       8.859   0.203  -3.299  0.00  0.00     0.060 H 
ATOM     10  O   LIG d   1       7.885  -0.408  -5.022  0.00  0.00    -0.344 OA
ATOM     11  C   LIG d   1       7.239  -1.485  -4.346  0.00  0.00     0.183 C 
ATOM     12  H   LIG d   1       6.815  -2.170  -5.081  0.00  0.00     0.096 H 
ATOM     13  H   LIG d   1       3.288   0.284  -1.192  0.00  0.00     0.062 H 
ATOM     14  H   LIG d   1       3.424  -2.100  -1.802  0.00  0.00     0.062 H 
ATOM     15  H   LIG d   1       5.241  -2.893  -3.255  0.00  0.00     0.062 H 
ATOM     16  H   LIG d   1       4.981   1.861  -2.026  0.00  0.00     0.062 H 
ATOM     17  H   LIG d   1       7.362   2.036  -2.807  0.00  0.00     0.034 H 
ATOM     18  H   LIG d   1       6.635   1.954  -4.430  0.00  0.00     0.034 H 
ENDROOT
BRANCH   8  19
ATOM     19  C   LIG d   1       9.217   1.611  -4.893  0.00  0.00    -0.014 C 
ATOM     20  C   LIG d   1       8.508   2.086  -6.163  0.00  0.00    -0.048 C 
ATOM     21  C   LIG d   1       9.413   3.062  -6.918  0.00  0.00    -0.053 C 
ATOM     22  H   LIG d   1       8.288   1.228  -6.798  0.00  0.00     0.027 H 
ATOM     23  H   LIG d   1       7.578   2.587  -5.893  0.00  0.00     0.027 H 
ATOM     24  C   LIG d   1       9.721   4.266  -6.026  0.00  0.00    -0.053 C 
ATOM     25  H   LIG d   1      10.343   2.561  -7.186  0.00  0.00     0.026 H 
ATOM     26  H   LIG d   1       8.908   3.399  -7.823  0.00  0.00     0.026 H 
ATOM     27  C   LIG d   1      10.430   3.791  -4.756  0.00  0.00    -0.053 C 
ATOM     28  H   LIG d   1      10.366   4.961  -6.564  0.00  0.00     0.026 H 
ATOM     29  H   LIG d   1       8.790   4.766  -5.757  0.00  0.00     0.026 H 
ATOM     30  C   LIG d   1       9.526   2.816  -4.000  0.00  0.00    -0.048 C 
ATOM     31  H   LIG d   1      11.360   3.290  -5.024  0.00  0.00     0.026 H 
ATOM     32  H   LIG d   1      10.650   4.649  -4.121  0.00  0.00     0.026 H 
ATOM     33  H   LIG d   1       8.595   3.316  -3.731  0.00  0.00     0.027 H 
ATOM     34  H   LIG d   1      10.031   2.477  -3.096  0.00  0.00     0.027 H 
ATOM     35  H   LIG d   1      10.147   1.110  -5.161  0.00  0.00     0.033 H 
ENDBRANCH   8  19
BRANCH  11  36
ATOM     36  O   LIG d   1       8.195  -2.185  -3.547  0.00  0.00    -0.363 OA
ATOM     37  H   LIG d   1       8.987  -1.670  -3.342  0.00  0.00     0.213 HD
ENDBRANCH  11  36
TORSDOF 2
ENDMDL
MODEL 6
REMARK VINA RESULT:      -6.3      2.068      5.969
REMARK  2 active torsions:
REMARK  status: ('A' for Active; 'I' for Inactive)
REMARK    1  A    between atoms: C_8  and  C_14 
REMARK    2  A    between atoms: C_11  and  O_13 
ROOT
ATOM      1  C   LIG d   1       2.149  -0.080  -9.735  0.00  0.00    -0.061 A 
ATOM      2  C   LIG d   1       2.545  -1.280 -10.295  0.00  0.00    -0.061 A 
ATOM      3  C   LIG d   1       3.298  -2.171  -9.555  0.00  0.00    -0.053 A 
ATOM      4  C   LIG d   1       3.654  -1.868  -8.249  0.00  0.00     0.011 A 
ATOM      5  C   LIG d   1       3.255  -0.672  -7.689  0.00  0.00    -0.037 A 
ATOM      6  C   LIG d   1       2.498   0.219  -8.434  0.00  0.00    -0.058 A 
ATOM      7  C   LIG d   1       3.628  -0.305  -6.276  0.00  0.00    -0.001 C 
ATOM      8  C   LIG d   1       4.078  -1.555  -5.517  0.00  0.00     0.069 C 
ATOM      9  H   LIG d   1       3.220  -2.202  -5.335  0.00  0.00     0.060 H 
ATOM     10  O   LIG d   1       5.041  -2.249  -6.319  0.00  0.00    -0.344 OA
ATOM     11  C   LIG d   1       4.471  -2.868  -7.471  0.00  0.00     0.183 C 
ATOM     12  H   LIG d   1       5.269  -3.253  -8.107  0.00  0.00     0.096 H 
ATOM     13  H   LIG d   1       1.563   0.619 -10.313  0.00  0.00     0.062 H 
ATOM     14  H   LIG d   1       2.271  -1.520 -11.312  0.00  0.00     0.062 H 
ATOM     15  H   LIG d   1       3.610  -3.106  -9.994  0.00  0.00     0.062 H 
ATOM     16  H   LIG d   1       2.184   1.155  -7.995  0.00  0.00     0.062 H 
ATOM     17  H   LIG d   1       2.763   0.131  -5.775  0.00  0.00     0.034 H 
ATOM     18  H   LIG d   1       4.441   0.421  -6.294  0.00  0.00     0.034 H 
ENDROOT
BRANCH   8  19
ATOM     19  C   LIG d   1       4.712  -1.153  -4.185  0.00  0.00    -0.014 C 
ATOM     20  C   LIG d   1       4.957   0.357  -4.171  0.00  0.00    -0.048 C 
ATOM     21  C   LIG d   1       5.591   0.760  -2.838  0.00  0.00    -0.053 C 
ATOM     22  H   LIG d   1       5.628   0.624  -4.988  0.00  0.00     0.027 H 
ATOM     23  H   LIG d   1       4.009   0.881  -4.295  0.00  0.00     0.027 H 
ATOM     24  C   LIG d   1       4.649   0.387  -1.692  0.00  0.00    -0.053 C 
ATOM     25  H   LIG d   1       6.539   0.236  -2.714  0.00  0.00     0.026 H 
ATOM     26  H   LIG d   1       5.766   1.835  -2.829  0.00  0.00     0.026 H 
ATOM     27  C   LIG d   1       4.403  -1.124  -1.705  0.00  0.00    -0.053 C 
ATOM     28  H   LIG d   1       5.101   0.672  -0.742  0.00  0.00     0.026 H 
ATOM     29  H   LIG d   1       3.700   0.910  -1.817  0.00  0.00     0.026 H 
ATOM     30  C   LIG d   1       3.769  -1.526  -3.038  0.00  0.00    -0.048 C 
ATOM     31  H   LIG d   1       5.350  -1.647  -1.582  0.00  0.00     0.026 H 
ATOM     32  H   LIG d   1       3.732  -1.390  -0.889  0.00  0.00     0.026 H 
ATOM     33  H   LIG d   1       2.820  -1.003  -3.163  0.00  0.00     0.027 H 
ATOM     34  H   LIG d   1       3.594  -2.602  -3.048  0.00  0.00     0.027 H 
ATOM     35  H   LIG d   1       5.659  -1.676  -4.061  0.00  0.00     0.033 H 
ENDBRANCH   8  19
BRANCH  11  36
ATOM     36  O   LIG d   1       3.632  -3.949  -7.062  0.00  0.00    -0.363 OA
ATOM     37  H   LIG d   1       4.108  -4.774  -6.893  0.00  0.00     0.213 HD
ENDBRANCH  11  36
TORSDOF 2
ENDMDL
MODEL 7
REMARK VINA RESULT:      -6.3      1.300      5.802
REMARK  2 active torsions:
REMARK  status: ('A' for Active; 'I' for Inactive)
REMARK    1  A    between atoms: C_8  and  C_14 
REMARK    2  A    between atoms: C_11  and  O_13 
ROOT
ATOM      1  C   LIG d   1       3.148  -2.291 -10.763  0.00  0.00    -0.061 A 
ATOM      2  C   LIG d   1       2.710  -1.051 -11.190  0.00  0.00    -0.061 A 
ATOM      3  C   LIG d   1       2.669   0.007 -10.304  0.00  0.00    -0.053 A 
ATOM      4  C   LIG d   1       3.071  -0.167  -8.988  0.00  0.00     0.011 A 
ATOM      5  C   LIG d   1       3.512  -1.403  -8.564  0.00  0.00    -0.037 A 
ATOM      6  C   LIG d   1       3.553  -2.464  -9.455  0.00  0.00    -0.058 A 
ATOM      7  C   LIG d   1       3.950  -1.632  -7.140  0.00  0.00    -0.001 C 
ATOM      8  C   LIG d   1       4.224  -0.290  -6.460  0.00  0.00     0.069 C 
ATOM      9  H   LIG d   1       5.127   0.155  -6.877  0.00  0.00     0.060 H 
ATOM     10  O   LIG d   1       3.107   0.575  -6.699  0.00  0.00    -0.344 OA
ATOM     11  C   LIG d   1       3.018   1.014  -8.054  0.00  0.00     0.183 C 
ATOM     12  H   LIG d   1       2.078   1.547  -8.199  0.00  0.00     0.096 H 
ATOM     13  H   LIG d   1       3.177  -3.122 -11.453  0.00  0.00     0.062 H 
ATOM     14  H   LIG d   1       2.395  -0.912 -12.214  0.00  0.00     0.062 H 
ATOM     15  H   LIG d   1       2.323   0.974 -10.638  0.00  0.00     0.062 H 
ATOM     16  H   LIG d   1       3.900  -3.431  -9.123  0.00  0.00     0.062 H 
ATOM     17  H   LIG d   1       4.860  -2.234  -7.134  0.00  0.00     0.034 H 
ATOM     18  H   LIG d   1       3.163  -2.159  -6.601  0.00  0.00     0.034 H 
ENDROOT
BRANCH   8  19
ATOM     19  C   LIG d   1       4.400  -0.498  -4.955  0.00  0.00    -0.014 C 
ATOM     20  C   LIG d   1       3.130  -0.057  -4.226  0.00  0.00    -0.048 C 
ATOM     21  C   LIG d   1       3.306  -0.265  -2.720  0.00  0.00    -0.053 C 
ATOM     22  H   LIG d   1       2.944   0.998  -4.428  0.00  0.00     0.027 H 
ATOM     23  H   LIG d   1       2.284  -0.649  -4.578  0.00  0.00     0.027 H 
ATOM     24  C   LIG d   1       3.567  -1.745  -2.438  0.00  0.00    -0.053 C 
ATOM     25  H   LIG d   1       4.151   0.327  -2.369  0.00  0.00     0.026 H 
ATOM     26  H   LIG d   1       2.401   0.050  -2.201  0.00  0.00     0.026 H 
ATOM     27  C   LIG d   1       4.838  -2.188  -3.166  0.00  0.00    -0.053 C 
ATOM     28  H   LIG d   1       3.694  -1.894  -1.365  0.00  0.00     0.026 H 
ATOM     29  H   LIG d   1       2.722  -2.337  -2.790  0.00  0.00     0.026 H 
ATOM     30  C   LIG d   1       4.661  -1.980  -4.672  0.00  0.00    -0.048 C 
ATOM     31  H   LIG d   1       5.683  -1.596  -2.815  0.00  0.00     0.026 H 
ATOM     32  H   LIG d   1       5.024  -3.242  -2.964  0.00  0.00     0.026 H 
ATOM     33  H   LIG d   1       3.816  -2.571  -5.024  0.00  0.00     0.027 H 
ATOM     34  H   LIG d   1       5.567  -2.294  -5.191  0.00  0.00     0.027 H 
ATOM     35  H   LIG d   1       5.245   0.093  -4.603  0.00  0.00     0.033 H 
ENDBRANCH   8  19
BRANCH  11  36
ATOM     36  O   LIG d   1       4.107   1.894  -8.339  0.00  0.00    -0.363 OA
ATOM     37  H   LIG d   1       4.766   1.521  -8.941  0.00  0.00     0.213 HD
ENDBRANCH  11  36
TORSDOF 2
ENDMDL
MODEL 8
REMARK VINA RESULT:      -6.1      3.990      6.452
REMARK  2 active torsions:
REMARK  status: ('A' for Active; 'I' for Inactive)
REMARK    1  A    between atoms: C_8  and  C_14 
REMARK    2  A    between atoms: C_11  and  O_13 
ROOT
ATOM      1  C   LIG d   1       8.850   1.215  -8.196  0.00  0.00    -0.061 A 
ATOM      2  C   LIG d   1       9.588   2.256  -7.663  0.00  0.00    -0.061 A 
ATOM      3  C   LIG d   1       9.406   2.627  -6.346  0.00  0.00    -0.053 A 
ATOM      4  C   LIG d   1       8.489   1.955  -5.551  0.00  0.00     0.011 A 
ATOM      5  C   LIG d   1       7.755   0.915  -6.081  0.00  0.00    -0.037 A 
ATOM      6  C   LIG d   1       7.941   0.543  -7.404  0.00  0.00    -0.058 A 
ATOM      7  C   LIG d   1       6.744   0.166  -5.252  0.00  0.00    -0.001 C 
ATOM      8  C   LIG d   1       6.990   0.436  -3.766  0.00  0.00     0.069 C 
ATOM      9  H   LIG d   1       7.910  -0.056  -3.452  0.00  0.00     0.060 H 
ATOM     10  O   LIG d   1       7.114   1.851  -3.578  0.00  0.00    -0.344 OA
ATOM     11  C   LIG d   1       8.323   2.385  -4.116  0.00  0.00     0.183 C 
ATOM     12  H   LIG d   1       8.289   3.474  -4.068  0.00  0.00     0.096 H 
ATOM     13  H   LIG d   1       8.988   0.926  -9.227  0.00  0.00     0.062 H 
ATOM     14  H   LIG d   1      10.303   2.783  -8.279  0.00  0.00     0.062 H 
ATOM     15  H   LIG d   1       9.980   3.442  -5.933  0.00  0.00     0.062 H 
ATOM     16  H   LIG d   1       7.368  -0.273  -7.819  0.00  0.00     0.062 H 
ATOM     17  H   LIG d   1       6.838  -0.904  -5.445  0.00  0.00     0.034 H 
ATOM     18  H   LIG d   1       5.741   0.497  -5.520  0.00  0.00     0.034 H 
ENDROOT
BRANCH   8  19
ATOM     19  C   LIG d   1       5.815  -0.092  -2.941  0.00  0.00    -0.014 C 
ATOM     20  C   LIG d   1       4.617   0.845  -3.102  0.00  0.00    -0.048 C 
ATOM     21  C   LIG d   1       3.442   0.317  -2.277  0.00  0.00    -0.053 C 
ATOM     22  H   LIG d   1       4.887   1.843  -2.754  0.00  0.00     0.027 H 
ATOM     23  H   LIG d   1       4.331   0.893  -4.153  0.00  0.00     0.027 H 
ATOM     24  C   LIG d   1       3.064  -1.082  -2.766  0.00  0.00    -0.053 C 
ATOM     25  H   LIG d   1       3.728   0.270  -1.226  0.00  0.00     0.026 H 
ATOM     26  H   LIG d   1       2.588   0.985  -2.390  0.00  0.00     0.026 H 
ATOM     27  C   LIG d   1       4.262  -2.020  -2.605  0.00  0.00    -0.053 C 
ATOM     28  H   LIG d   1       2.227  -1.459  -2.177  0.00  0.00     0.026 H 
ATOM     29  H   LIG d   1       2.778  -1.034  -3.817  0.00  0.00     0.026 H 
ATOM     30  C   LIG d   1       5.437  -1.492  -3.431  0.00  0.00    -0.048 C 
ATOM     31  H   LIG d   1       4.548  -2.067  -1.555  0.00  0.00     0.026 H 
ATOM     32  H   LIG d   1       3.992  -3.016  -2.953  0.00  0.00     0.026 H 
ATOM     33  H   LIG d   1       5.151  -1.444  -4.482  0.00  0.00     0.027 H 
ATOM     34  H   LIG d   1       6.291  -2.159  -3.316  0.00  0.00     0.027 H 
ATOM     35  H   LIG d   1       6.102  -0.139  -1.891  0.00  0.00     0.033 H 
ENDBRANCH   8  19
BRANCH  11  36
ATOM     36  O   LIG d   1       9.432   1.913  -3.349  0.00  0.00    -0.363 OA
ATOM     37  H   LIG d   1      10.269   1.904  -3.833  0.00  0.00     0.213 HD
ENDBRANCH  11  36
TORSDOF 2
ENDMDL
MODEL 9
REMARK VINA RESULT:      -6.0      3.807      5.766
REMARK  2 active torsions:
REMARK  status: ('A' for Active; 'I' for Inactive)
REMARK    1  A    between atoms: C_8  and  C_14 
REMARK    2  A    between atoms: C_11  and  O_13 
ROOT
ATOM      1  C   LIG d   1       8.806  -4.839  -5.796  0.00  0.00    -0.061 A 
ATOM      2  C   LIG d   1       8.012  -5.909  -6.168  0.00  0.00    -0.061 A 
ATOM      3  C   LIG d   1       6.652  -5.871  -5.934  0.00  0.00    -0.053 A 
ATOM      4  C   LIG d   1       6.076  -4.762  -5.332  0.00  0.00     0.011 A 
ATOM      5  C   LIG d   1       6.867  -3.694  -4.965  0.00  0.00    -0.037 A 
ATOM      6  C   LIG d   1       8.233  -3.733  -5.203  0.00  0.00    -0.058 A 
ATOM      7  C   LIG d   1       6.280  -2.474  -4.303  0.00  0.00    -0.001 C 
ATOM      8  C   LIG d   1       4.765  -2.449  -4.514  0.00  0.00     0.069 C 
ATOM      9  H   LIG d   1       4.544  -2.234  -5.559  0.00  0.00     0.060 H 
ATOM     10  O   LIG d   1       4.238  -3.735  -4.165  0.00  0.00    -0.344 OA
ATOM     11  C   LIG d   1       4.587  -4.756  -5.100  0.00  0.00     0.183 C 
ATOM     12  H   LIG d   1       4.280  -5.725  -4.706  0.00  0.00     0.096 H 
ATOM     13  H   LIG d   1       9.870  -4.868  -5.975  0.00  0.00     0.062 H 
ATOM     14  H   LIG d   1       8.456  -6.775  -6.636  0.00  0.00     0.062 H 
ATOM     15  H   LIG d   1       6.034  -6.708  -6.222  0.00  0.00     0.062 H 
ATOM     16  H   LIG d   1       8.852  -2.895  -4.917  0.00  0.00     0.062 H 
ATOM     17  H   LIG d   1       6.721  -1.577  -4.739  0.00  0.00     0.034 H 
ATOM     18  H   LIG d   1       6.498  -2.503  -3.235  0.00  0.00     0.034 H 
ENDROOT
BRANCH   8  19
ATOM     19  C   LIG d   1       4.135  -1.377  -3.623  0.00  0.00    -0.014 C 
ATOM     20  C   LIG d   1       5.147  -0.933  -2.565  0.00  0.00    -0.048 C 
ATOM     21  C   LIG d   1       4.517   0.139  -1.674  0.00  0.00    -0.053 C 
ATOM     22  H   LIG d   1       5.434  -1.790  -1.955  0.00  0.00     0.027 H 
ATOM     23  H   LIG d   1       6.031  -0.525  -3.056  0.00  0.00     0.027 H 
ATOM     24  C   LIG d   1       4.115   1.341  -2.530  0.00  0.00    -0.053 C 
ATOM     25  H   LIG d   1       3.634  -0.269  -1.183  0.00  0.00     0.026 H 
ATOM     26  H   LIG d   1       5.238   0.455  -0.920  0.00  0.00     0.026 H 
ATOM     27  C   LIG d   1       3.103   0.898  -3.589  0.00  0.00    -0.053 C 
ATOM     28  H   LIG d   1       3.665   2.105  -1.895  0.00  0.00     0.026 H 
ATOM     29  H   LIG d   1       4.998   1.750  -3.021  0.00  0.00     0.026 H 
ATOM     30  C   LIG d   1       3.733  -0.174  -4.479  0.00  0.00    -0.048 C 
ATOM     31  H   LIG d   1       2.219   0.489  -3.098  0.00  0.00     0.026 H 
ATOM     32  H   LIG d   1       2.816   1.755  -4.198  0.00  0.00     0.026 H 
ATOM     33  H   LIG d   1       4.617   0.234  -4.970  0.00  0.00     0.027 H 
ATOM     34  H   LIG d   1       3.011  -0.491  -5.233  0.00  0.00     0.027 H 
ATOM     35  H   LIG d   1       3.252  -1.786  -3.132  0.00  0.00     0.033 H 
ENDBRANCH   8  19
BRANCH  11  36
ATOM     36  O   LIG d   1       3.915  -4.515  -6.337  0.00  0.00    -0.363 OA
ATOM     37  H   LIG d   1       2.960  -4.657  -6.300  0.00  0.00     0.213 HD
ENDBRANCH  11  36
TORSDOF 2
ENDMDL
MODEL 10
REMARK VINA RESULT:      -6.0      4.743      5.759
REMARK  2 active torsions:
REMARK  status: ('A' for Active; 'I' for Inactive)
REMARK    1  A    between atoms: C_8  and  C_14 
REMARK    2  A    between atoms: C_11  and  O_13 
ROOT
ATOM      1  C   LIG d   1       3.207   0.312  -2.409  0.00  0.00    -0.061 A 
ATOM      2  C   LIG d   1       4.341   1.080  -2.224  0.00  0.00    -0.061 A 
ATOM      3  C   LIG d   1       5.575   0.590  -2.606  0.00  0.00    -0.053 A 
ATOM      4  C   LIG d   1       5.680  -0.669  -3.179  0.00  0.00     0.011 A 
ATOM      5  C   LIG d   1       4.548  -1.433  -3.366  0.00  0.00    -0.037 A 
ATOM      6  C   LIG d   1       3.310  -0.939  -2.984  0.00  0.00    -0.058 A 
ATOM      7  C   LIG d   1       4.623  -2.808  -3.979  0.00  0.00    -0.001 C 
ATOM      8  C   LIG d   1       5.963  -2.984  -4.694  0.00  0.00     0.069 C 
ATOM      9  H   LIG d   1       5.984  -2.365  -5.591  0.00  0.00     0.060 H 
ATOM     10  O   LIG d   1       7.009  -2.576  -3.803  0.00  0.00    -0.344 OA
ATOM     11  C   LIG d   1       7.043  -1.166  -3.587  0.00  0.00     0.183 C 
ATOM     12  H   LIG d   1       7.760  -0.939  -2.799  0.00  0.00     0.096 H 
ATOM     13  H   LIG d   1       2.241   0.691  -2.108  0.00  0.00     0.062 H 
ATOM     14  H   LIG d   1       4.264   2.060  -1.777  0.00  0.00     0.062 H 
ATOM     15  H   LIG d   1       6.460   1.190  -2.458  0.00  0.00     0.062 H 
ATOM     16  H   LIG d   1       2.423  -1.537  -3.132  0.00  0.00     0.062 H 
ATOM     17  H   LIG d   1       3.811  -2.930  -4.696  0.00  0.00     0.034 H 
ATOM     18  H   LIG d   1       4.529  -3.559  -3.194  0.00  0.00     0.034 H 
ENDROOT
BRANCH   8  19
ATOM     19  C   LIG d   1       6.158  -4.452  -5.077  0.00  0.00    -0.014 C 
ATOM     20  C   LIG d   1       4.798  -5.089  -5.367  0.00  0.00    -0.048 C 
ATOM     21  C   LIG d   1       4.992  -6.557  -5.750  0.00  0.00    -0.053 C 
ATOM     22  H   LIG d   1       4.170  -5.026  -4.477  0.00  0.00     0.027 H 
ATOM     23  H   LIG d   1       4.316  -4.559  -6.189  0.00  0.00     0.027 H 
ATOM     24  C   LIG d   1       5.872  -6.646  -6.998  0.00  0.00    -0.053 C 
ATOM     25  H   LIG d   1       5.474  -7.086  -4.928  0.00  0.00     0.026 H 
ATOM     26  H   LIG d   1       4.023  -7.011  -5.955  0.00  0.00     0.026 H 
ATOM     27  C   LIG d   1       7.233  -6.009  -6.709  0.00  0.00    -0.053 C 
ATOM     28  H   LIG d   1       6.012  -7.692  -7.271  0.00  0.00     0.026 H 
ATOM     29  H   LIG d   1       5.391  -6.116  -7.820  0.00  0.00     0.026 H 
ATOM     30  C   LIG d   1       7.038  -4.541  -6.326  0.00  0.00    -0.048 C 
ATOM     31  H   LIG d   1       7.715  -6.538  -5.887  0.00  0.00     0.026 H 
ATOM     32  H   LIG d   1       7.860  -6.073  -7.598  0.00  0.00     0.026 H 
ATOM     33  H   LIG d   1       6.557  -4.011  -7.148  0.00  0.00     0.027 H 
ATOM     34  H   LIG d   1       8.008  -4.087  -6.119  0.00  0.00     0.027 H 
ATOM     35  H   LIG d   1       6.640  -4.981  -4.255  0.00  0.00     0.033 H 
ENDBRANCH   8  19
BRANCH  11  36
ATOM     36  O   LIG d   1       7.444  -0.511  -4.793  0.00  0.00    -0.363 OA
ATOM     37  H   LIG d   1       8.386  -0.296  -4.828  0.00  0.00     0.213 HD
ENDBRANCH  11  36
TORSDOF 2
ENDMDL
