MODEL 1
REMARK VINA RESULT:      -6.9      0.000      0.000
REMARK  7 active torsions:
REMARK  status: ('A' for Active; 'I' for Inactive)
REMARK    1  A    between atoms: C_1  and  C_2 
REMARK    2  A    between atoms: C_2  and  O_3 
REMARK    3  A    between atoms: O_3  and  C_4 
REMARK    4  A    between atoms: C_4  and  C_6 
REMARK    5  A    between atoms: C_7  and  C_25 
REMARK    6  A    between atoms: C_11  and  N_15 
REMARK       I    between atoms: N_15  and  C_16 
REMARK    7  A    between atoms: C_16  and  C_18 
ROOT
ATOM      1  C   LIG d   1       5.148  -8.236  -6.221  0.00  0.00     0.215 A 
ATOM      2  C   LIG d   1       6.434  -7.854  -6.012  0.00  0.00     0.010 A 
ATOM      3  C   LIG d   1       6.405  -6.483  -5.653  0.00  0.00     0.024 A 
ATOM      4  C   LIG d   1       7.393  -5.548  -5.324  0.00  0.00    -0.049 A 
ATOM      5  C   LIG d   1       7.042  -4.266  -5.021  0.00  0.00    -0.040 A 
ATOM      6  C   LIG d   1       5.700  -3.881  -5.028  0.00  0.00     0.037 A 
ATOM      7  C   LIG d   1       4.708  -4.792  -5.352  0.00  0.00     0.003 A 
ATOM      8  C   LIG d   1       5.050  -6.100  -5.667  0.00  0.00     0.138 A 
ATOM      9  O   LIG d   1       4.326  -7.183  -6.014  0.00  0.00    -0.448 OA
ATOM     10  H   LIG d   1       8.433  -5.841  -5.313  0.00  0.00     0.062 H 
ATOM     11  H   LIG d   1       7.806  -3.544  -4.771  0.00  0.00     0.064 H 
ATOM     12  H   LIG d   1       3.673  -4.486  -5.360  0.00  0.00     0.067 H 
ENDROOT
BRANCH   6  13
ATOM     13  N   LIG d   1       5.355  -2.565  -4.711  0.00  0.00    -0.281 N 
ATOM     14  C   LIG d   1       4.525  -2.317  -3.679  0.00  0.00     0.251 C 
ATOM     15  O   LIG d   1       4.010  -3.239  -3.077  0.00  0.00    -0.270 OA
ATOM     16  H   LIG d   1       5.714  -1.831  -5.233  0.00  0.00     0.155 HD
BRANCH  14  17
ATOM     17  C   LIG d   1       4.240  -0.924  -3.280  0.00  0.00     0.072 A 
ATOM     18  C   LIG d   1       3.522  -0.082  -4.134  0.00  0.00     0.136 A 
ATOM     19  C   LIG d   1       3.264   1.224  -3.755  0.00  0.00    -0.026 A 
ATOM     20  F   LIG d   1       3.082  -0.540  -5.326  0.00  0.00    -0.205 F 
ATOM     21  C   LIG d   1       3.708   1.691  -2.532  0.00  0.00    -0.059 A 
ATOM     22  H   LIG d   1       2.713   1.878  -4.414  0.00  0.00     0.065 H 
ATOM     23  C   LIG d   1       4.421   0.861  -1.683  0.00  0.00    -0.061 A 
ATOM     24  H   LIG d   1       3.502   2.709  -2.240  0.00  0.00     0.062 H 
ATOM     25  C   LIG d   1       4.689  -0.441  -2.049  0.00  0.00    -0.047 A 
ATOM     26  H   LIG d   1       4.768   1.235  -0.731  0.00  0.00     0.062 H 
ATOM     27  H   LIG d   1       5.246  -1.085  -1.385  0.00  0.00     0.063 H 
ENDBRANCH  14  17
ENDBRANCH   6  13
BRANCH   2  28
ATOM     28  C   LIG d   1       7.660  -8.723  -6.136  0.00  0.00    -0.035 C 
ATOM     29  H   LIG d   1       8.510  -8.112  -6.439  0.00  0.00     0.028 H 
ATOM     30  H   LIG d   1       7.874  -9.189  -5.175  0.00  0.00     0.028 H 
ATOM     31  H   LIG d   1       7.482  -9.496  -6.884  0.00  0.00     0.028 H 
ENDBRANCH   2  28
BRANCH   1  32
ATOM     32  C   LIG d   1       4.717  -9.583  -6.611  0.00  0.00     0.375 C 
ATOM     33  O   LIG d   1       5.005 -10.019  -7.708  0.00  0.00    -0.241 OA
BRANCH  32  34
ATOM     34  O   LIG d   1       4.001 -10.337  -5.751  0.00  0.00    -0.459 OA
BRANCH  34  35
ATOM     35  C   LIG d   1       4.601 -10.615  -4.459  0.00  0.00     0.090 C 
ATOM     36  H   LIG d   1       4.812 -11.681  -4.378  0.00  0.00     0.070 H 
ATOM     37  H   LIG d   1       5.531 -10.053  -4.363  0.00  0.00     0.070 H 
BRANCH  35  38
ATOM     38  C   LIG d   1       3.637 -10.198  -3.348  0.00  0.00    -0.031 C 
ATOM     39  H   LIG d   1       4.201  -9.759  -2.524  0.00  0.00     0.026 H 
ATOM     40  H   LIG d   1       2.931  -9.465  -3.735  0.00  0.00     0.026 H 
ATOM     41  H   LIG d   1       3.094 -11.073  -2.990  0.00  0.00     0.026 H 
ENDBRANCH  35  38
ENDBRANCH  34  35
ENDBRANCH  32  34
ENDBRANCH   1  32
TORSDOF 7
ENDMDL
MODEL 2
REMARK VINA RESULT:      -6.6      1.786      2.137
REMARK  7 active torsions:
REMARK  status: ('A' for Active; 'I' for Inactive)
REMARK    1  A    between atoms: C_1  and  C_2 
REMARK    2  A    between atoms: C_2  and  O_3 
REMARK    3  A    between atoms: O_3  and  C_4 
REMARK    4  A    between atoms: C_4  and  C_6 
REMARK    5  A    between atoms: C_7  and  C_25 
REMARK    6  A    between atoms: C_11  and  N_15 
REMARK       I    between atoms: N_15  and  C_16 
REMARK    7  A    between atoms: C_16  and  C_18 
ROOT
ATOM      1  C   LIG d   1       4.770  -8.729  -6.633  0.00  0.00     0.215 A 
ATOM      2  C   LIG d   1       4.748  -7.907  -7.715  0.00  0.00     0.010 A 
ATOM      3  C   LIG d   1       4.632  -6.582  -7.225  0.00  0.00     0.024 A 
ATOM      4  C   LIG d   1       4.562  -5.326  -7.840  0.00  0.00    -0.049 A 
ATOM      5  C   LIG d   1       4.446  -4.202  -7.077  0.00  0.00    -0.040 A 
ATOM      6  C   LIG d   1       4.407  -4.294  -5.685  0.00  0.00     0.037 A 
ATOM      7  C   LIG d   1       4.476  -5.528  -5.059  0.00  0.00     0.003 A 
ATOM      8  C   LIG d   1       4.588  -6.682  -5.822  0.00  0.00     0.138 A 
ATOM      9  O   LIG d   1       4.674  -7.990  -5.506  0.00  0.00    -0.448 OA
ATOM     10  H   LIG d   1       4.595  -5.249  -8.917  0.00  0.00     0.062 H 
ATOM     11  H   LIG d   1       4.387  -3.234  -7.554  0.00  0.00     0.064 H 
ATOM     12  H   LIG d   1       4.440  -5.591  -3.982  0.00  0.00     0.067 H 
ENDROOT
BRANCH   6  13
ATOM     13  N   LIG d   1       4.293  -3.133  -4.917  0.00  0.00    -0.281 N 
ATOM     14  C   LIG d   1       5.369  -2.648  -4.267  0.00  0.00     0.251 C 
ATOM     15  O   LIG d   1       6.417  -3.264  -4.281  0.00  0.00    -0.270 OA
ATOM     16  H   LIG d   1       3.440  -2.676  -4.853  0.00  0.00     0.155 HD
BRANCH  14  17
ATOM     17  C   LIG d   1       5.275  -1.367  -3.539  0.00  0.00     0.072 A 
ATOM     18  C   LIG d   1       4.437  -1.252  -2.426  0.00  0.00     0.136 A 
ATOM     19  C   LIG d   1       4.350  -0.046  -1.752  0.00  0.00    -0.026 A 
ATOM     20  F   LIG d   1       3.712  -2.313  -2.011  0.00  0.00    -0.205 F 
ATOM     21  C   LIG d   1       5.097   1.039  -2.173  0.00  0.00    -0.059 A 
ATOM     22  H   LIG d   1       3.700   0.047  -0.894  0.00  0.00     0.065 H 
ATOM     23  C   LIG d   1       5.928   0.930  -3.275  0.00  0.00    -0.061 A 
ATOM     24  H   LIG d   1       5.028   1.976  -1.642  0.00  0.00     0.062 H 
ATOM     25  C   LIG d   1       6.022  -0.263  -3.959  0.00  0.00    -0.047 A 
ATOM     26  H   LIG d   1       6.505   1.783  -3.600  0.00  0.00     0.062 H 
ATOM     27  H   LIG d   1       6.670  -0.344  -4.819  0.00  0.00     0.063 H 
ENDBRANCH  14  17
ENDBRANCH   6  13
BRANCH   2  28
ATOM     28  C   LIG d   1       4.832  -8.325  -9.161  0.00  0.00    -0.035 C 
ATOM     29  H   LIG d   1       5.354  -9.279  -9.233  0.00  0.00     0.028 H 
ATOM     30  H   LIG d   1       3.828  -8.430  -9.569  0.00  0.00     0.028 H 
ATOM     31  H   LIG d   1       5.377  -7.569  -9.726  0.00  0.00     0.028 H 
ENDBRANCH   2  28
BRANCH   1  32
ATOM     32  C   LIG d   1       4.881 -10.190  -6.682  0.00  0.00     0.375 C 
ATOM     33  O   LIG d   1       5.844 -10.709  -7.210  0.00  0.00    -0.241 OA
BRANCH  32  34
ATOM     34  O   LIG d   1       3.911 -10.958  -6.143  0.00  0.00    -0.459 OA
BRANCH  34  35
ATOM     35  C   LIG d   1       4.218 -11.622  -4.889  0.00  0.00     0.090 C 
ATOM     36  H   LIG d   1       3.970 -12.680  -4.967  0.00  0.00     0.070 H 
ATOM     37  H   LIG d   1       5.281 -11.514  -4.670  0.00  0.00     0.070 H 
BRANCH  35  38
ATOM     38  C   LIG d   1       3.399 -10.988  -3.763  0.00  0.00    -0.031 C 
ATOM     39  H   LIG d   1       2.345 -10.980  -4.040  0.00  0.00     0.026 H 
ATOM     40  H   LIG d   1       3.529 -11.566  -2.849  0.00  0.00     0.026 H 
ATOM     41  H   LIG d   1       3.738  -9.965  -3.598  0.00  0.00     0.026 H 
ENDBRANCH  35  38
ENDBRANCH  34  35
ENDBRANCH  32  34
ENDBRANCH   1  32
TORSDOF 7
ENDMDL
MODEL 3
REMARK VINA RESULT:      -6.5      5.955      7.219
REMARK  7 active torsions:
REMARK  status: ('A' for Active; 'I' for Inactive)
REMARK    1  A    between atoms: C_1  and  C_2 
REMARK    2  A    between atoms: C_2  and  O_3 
REMARK    3  A    between atoms: O_3  and  C_4 
REMARK    4  A    between atoms: C_4  and  C_6 
REMARK    5  A    between atoms: C_7  and  C_25 
REMARK    6  A    between atoms: C_11  and  N_15 
REMARK       I    between atoms: N_15  and  C_16 
REMARK    7  A    between atoms: C_16  and  C_18 
ROOT
ATOM      1  C   LIG d   1       1.662  -1.702 -11.927  0.00  0.00     0.215 A 
ATOM      2  C   LIG d   1       2.856  -1.075 -12.092  0.00  0.00     0.010 A 
ATOM      3  C   LIG d   1       3.242  -0.582 -10.820  0.00  0.00     0.024 A 
ATOM      4  C   LIG d   1       4.352   0.135 -10.358  0.00  0.00    -0.049 A 
ATOM      5  C   LIG d   1       4.439   0.477  -9.041  0.00  0.00    -0.040 A 
ATOM      6  C   LIG d   1       3.432   0.108  -8.147  0.00  0.00     0.037 A 
ATOM      7  C   LIG d   1       2.327  -0.602  -8.587  0.00  0.00     0.003 A 
ATOM      8  C   LIG d   1       2.221  -0.953  -9.925  0.00  0.00     0.138 A 
ATOM      9  O   LIG d   1       1.289  -1.625 -10.630  0.00  0.00    -0.448 OA
ATOM     10  H   LIG d   1       5.137   0.420 -11.044  0.00  0.00     0.062 H 
ATOM     11  H   LIG d   1       5.294   1.035  -8.686  0.00  0.00     0.064 H 
ATOM     12  H   LIG d   1       1.550  -0.879  -7.891  0.00  0.00     0.067 H 
ENDROOT
BRANCH   6  13
ATOM     13  N   LIG d   1       3.538   0.461  -6.800  0.00  0.00    -0.281 N 
ATOM     14  C   LIG d   1       4.037  -0.419  -5.910  0.00  0.00     0.251 C 
ATOM     15  O   LIG d   1       4.318  -1.548  -6.264  0.00  0.00    -0.270 OA
ATOM     16  H   LIG d   1       3.252   1.340  -6.506  0.00  0.00     0.155 HD
BRANCH  14  17
ATOM     17  C   LIG d   1       4.244  -0.011  -4.506  0.00  0.00     0.072 A 
ATOM     18  C   LIG d   1       3.148   0.147  -3.653  0.00  0.00     0.136 A 
ATOM     19  C   LIG d   1       3.349   0.535  -2.340  0.00  0.00    -0.026 A 
ATOM     20  F   LIG d   1       1.895  -0.075  -4.109  0.00  0.00    -0.205 F 
ATOM     21  C   LIG d   1       4.631   0.756  -1.871  0.00  0.00    -0.059 A 
ATOM     22  H   LIG d   1       2.504   0.662  -1.679  0.00  0.00     0.065 H 
ATOM     23  C   LIG d   1       5.720   0.601  -2.713  0.00  0.00    -0.061 A 
ATOM     24  H   LIG d   1       4.783   1.055  -0.845  0.00  0.00     0.062 H 
ATOM     25  C   LIG d   1       5.534   0.219  -4.024  0.00  0.00    -0.047 A 
ATOM     26  H   LIG d   1       6.717   0.779  -2.340  0.00  0.00     0.062 H 
ATOM     27  H   LIG d   1       6.385   0.101  -4.678  0.00  0.00     0.063 H 
ENDBRANCH  14  17
ENDBRANCH   6  13
BRANCH   2  28
ATOM     28  C   LIG d   1       3.623  -0.932 -13.381  0.00  0.00    -0.035 C 
ATOM     29  H   LIG d   1       3.518  -1.844 -13.970  0.00  0.00     0.028 H 
ATOM     30  H   LIG d   1       3.231  -0.088 -13.947  0.00  0.00     0.028 H 
ATOM     31  H   LIG d   1       4.677  -0.762 -13.159  0.00  0.00     0.028 H 
ENDBRANCH   2  28
BRANCH   1  32
ATOM     32  C   LIG d   1       0.897  -2.360 -12.991  0.00  0.00     0.375 C 
ATOM     33  O   LIG d   1      -0.126  -1.854 -13.407  0.00  0.00    -0.241 OA
BRANCH  32  34
ATOM     34  O   LIG d   1       1.330  -3.530 -13.508  0.00  0.00    -0.459 OA
BRANCH  34  35
ATOM     35  C   LIG d   1       1.550  -4.620 -12.576  0.00  0.00     0.090 C 
ATOM     36  H   LIG d   1       2.057  -5.439 -13.088  0.00  0.00     0.070 H 
ATOM     37  H   LIG d   1       2.169  -4.272 -11.748  0.00  0.00     0.070 H 
BRANCH  35  38
ATOM     38  C   LIG d   1       0.206  -5.110 -12.036  0.00  0.00    -0.031 C 
ATOM     39  H   LIG d   1       0.320  -5.407 -10.993  0.00  0.00     0.026 H 
ATOM     40  H   LIG d   1      -0.529  -4.309 -12.107  0.00  0.00     0.026 H 
ATOM     41  H   LIG d   1      -0.131  -5.966 -12.621  0.00  0.00     0.026 H 
ENDBRANCH  35  38
ENDBRANCH  34  35
ENDBRANCH  32  34
ENDBRANCH   1  32
TORSDOF 7
ENDMDL
MODEL 4
REMARK VINA RESULT:      -6.4      6.672      8.265
REMARK  7 active torsions:
REMARK  status: ('A' for Active; 'I' for Inactive)
REMARK    1  A    between atoms: C_1  and  C_2 
REMARK    2  A    between atoms: C_2  and  O_3 
REMARK    3  A    between atoms: O_3  and  C_4 
REMARK    4  A    between atoms: C_4  and  C_6 
REMARK    5  A    between atoms: C_7  and  C_25 
REMARK    6  A    between atoms: C_11  and  N_15 
REMARK       I    between atoms: N_15  and  C_16 
REMARK    7  A    between atoms: C_16  and  C_18 
ROOT
ATOM      1  C   LIG d   1       4.473  -0.674 -12.533  0.00  0.00     0.215 A 
ATOM      2  C   LIG d   1       3.219  -1.065 -12.183  0.00  0.00     0.010 A 
ATOM      3  C   LIG d   1       3.067  -0.775 -10.804  0.00  0.00     0.024 A 
ATOM      4  C   LIG d   1       2.020  -0.945  -9.890  0.00  0.00    -0.049 A 
ATOM      5  C   LIG d   1       2.183  -0.561  -8.592  0.00  0.00    -0.040 A 
ATOM      6  C   LIG d   1       3.385   0.010  -8.169  0.00  0.00     0.037 A 
ATOM      7  C   LIG d   1       4.432   0.185  -9.059  0.00  0.00     0.003 A 
ATOM      8  C   LIG d   1       4.284  -0.205 -10.383  0.00  0.00     0.138 A 
ATOM      9  O   LIG d   1       5.103  -0.162 -11.453  0.00  0.00    -0.448 OA
ATOM     10  H   LIG d   1       1.086  -1.382 -10.212  0.00  0.00     0.062 H 
ATOM     11  H   LIG d   1       1.376  -0.696  -7.886  0.00  0.00     0.064 H 
ATOM     12  H   LIG d   1       5.360   0.622  -8.724  0.00  0.00     0.067 H 
ENDROOT
BRANCH   6  13
ATOM     13  N   LIG d   1       3.535   0.403  -6.837  0.00  0.00    -0.281 N 
ATOM     14  C   LIG d   1       4.032  -0.463  -5.932  0.00  0.00     0.251 C 
ATOM     15  O   LIG d   1       4.272  -1.610  -6.256  0.00  0.00    -0.270 OA
ATOM     16  H   LIG d   1       3.281   1.298  -6.565  0.00  0.00     0.155 HD
BRANCH  14  17
ATOM     17  C   LIG d   1       4.285  -0.017  -4.547  0.00  0.00     0.072 A 
ATOM     18  C   LIG d   1       3.216   0.210  -3.676  0.00  0.00     0.136 A 
ATOM     19  C   LIG d   1       3.462   0.633  -2.382  0.00  0.00    -0.026 A 
ATOM     20  F   LIG d   1       1.946   0.021  -4.097  0.00  0.00    -0.205 F 
ATOM     21  C   LIG d   1       4.761   0.821  -1.949  0.00  0.00    -0.059 A 
ATOM     22  H   LIG d   1       2.637   0.814  -1.708  0.00  0.00     0.065 H 
ATOM     23  C   LIG d   1       5.824   0.597  -2.808  0.00  0.00    -0.061 A 
ATOM     24  H   LIG d   1       4.948   1.148  -0.937  0.00  0.00     0.062 H 
ATOM     25  C   LIG d   1       5.594   0.180  -4.101  0.00  0.00    -0.047 A 
ATOM     26  H   LIG d   1       6.836   0.751  -2.463  0.00  0.00     0.062 H 
ATOM     27  H   LIG d   1       6.425   0.008  -4.770  0.00  0.00     0.063 H 
ENDBRANCH  14  17
ENDBRANCH   6  13
BRANCH   2  28
ATOM     28  C   LIG d   1       2.187  -1.686 -13.089  0.00  0.00    -0.035 C 
ATOM     29  H   LIG d   1       2.496  -1.567 -14.127  0.00  0.00     0.028 H 
ATOM     30  H   LIG d   1       2.091  -2.746 -12.858  0.00  0.00     0.028 H 
ATOM     31  H   LIG d   1       1.227  -1.193 -12.936  0.00  0.00     0.028 H 
ENDBRANCH   2  28
BRANCH   1  32
ATOM     32  C   LIG d   1       5.051  -0.791 -13.876  0.00  0.00     0.375 C 
ATOM     33  O   LIG d   1       5.949  -1.582 -14.084  0.00  0.00    -0.241 OA
BRANCH  32  34
ATOM     34  O   LIG d   1       4.586  -0.018 -14.880  0.00  0.00    -0.459 OA
BRANCH  34  35
ATOM     35  C   LIG d   1       4.574  -0.601 -16.209  0.00  0.00     0.090 C 
ATOM     36  H   LIG d   1       4.996   0.109 -16.921  0.00  0.00     0.070 H 
ATOM     37  H   LIG d   1       5.171  -1.514 -16.211  0.00  0.00     0.070 H 
BRANCH  35  38
ATOM     38  C   LIG d   1       3.136  -0.932 -16.609  0.00  0.00    -0.031 C 
ATOM     39  H   LIG d   1       3.129  -1.376 -17.605  0.00  0.00     0.026 H 
ATOM     40  H   LIG d   1       2.712  -1.637 -15.895  0.00  0.00     0.026 H 
ATOM     41  H   LIG d   1       2.540  -0.019 -16.616  0.00  0.00     0.026 H 
ENDBRANCH  35  38
ENDBRANCH  34  35
ENDBRANCH  32  34
ENDBRANCH   1  32
TORSDOF 7
ENDMDL
MODEL 5
REMARK VINA RESULT:      -6.4      7.046     11.407
REMARK  7 active torsions:
REMARK  status: ('A' for Active; 'I' for Inactive)
REMARK    1  A    between atoms: C_1  and  C_2 
REMARK    2  A    between atoms: C_2  and  O_3 
REMARK    3  A    between atoms: O_3  and  C_4 
REMARK    4  A    between atoms: C_4  and  C_6 
REMARK    5  A    between atoms: C_7  and  C_25 
REMARK    6  A    between atoms: C_11  and  N_15 
REMARK       I    between atoms: N_15  and  C_16 
REMARK    7  A    between atoms: C_16  and  C_18 
ROOT
ATOM      1  C   LIG d   1      11.283   5.302  -3.708  0.00  0.00     0.215 A 
ATOM      2  C   LIG d   1      10.881   5.092  -4.989  0.00  0.00     0.010 A 
ATOM      3  C   LIG d   1      10.038   3.953  -4.975  0.00  0.00     0.024 A 
ATOM      4  C   LIG d   1       9.333   3.259  -5.966  0.00  0.00    -0.049 A 
ATOM      5  C   LIG d   1       8.591   2.166  -5.633  0.00  0.00    -0.040 A 
ATOM      6  C   LIG d   1       8.521   1.736  -4.306  0.00  0.00     0.037 A 
ATOM      7  C   LIG d   1       9.213   2.410  -3.312  0.00  0.00     0.003 A 
ATOM      8  C   LIG d   1       9.976   3.522  -3.636  0.00  0.00     0.138 A 
ATOM      9  O   LIG d   1      10.739   4.361  -2.906  0.00  0.00    -0.448 OA
ATOM     10  H   LIG d   1       9.380   3.589  -6.994  0.00  0.00     0.062 H 
ATOM     11  H   LIG d   1       8.051   1.629  -6.399  0.00  0.00     0.064 H 
ATOM     12  H   LIG d   1       9.158   2.070  -2.289  0.00  0.00     0.067 H 
ENDROOT
BRANCH   6  13
ATOM     13  N   LIG d   1       7.753   0.617  -3.979  0.00  0.00    -0.281 N 
ATOM     14  C   LIG d   1       6.511   0.775  -3.482  0.00  0.00     0.251 C 
ATOM     15  O   LIG d   1       6.090   1.889  -3.241  0.00  0.00    -0.270 OA
ATOM     16  H   LIG d   1       8.114  -0.274  -4.110  0.00  0.00     0.155 HD
BRANCH  14  17
ATOM     17  C   LIG d   1       5.661  -0.406  -3.232  0.00  0.00     0.072 A 
ATOM     18  C   LIG d   1       4.746  -0.402  -2.175  0.00  0.00     0.136 A 
ATOM     19  C   LIG d   1       3.958  -1.515  -1.943  0.00  0.00    -0.026 A 
ATOM     20  F   LIG d   1       4.635   0.684  -1.379  0.00  0.00    -0.205 F 
ATOM     21  C   LIG d   1       4.067  -2.625  -2.761  0.00  0.00    -0.059 A 
ATOM     22  H   LIG d   1       3.253  -1.516  -1.125  0.00  0.00     0.065 H 
ATOM     23  C   LIG d   1       4.972  -2.634  -3.809  0.00  0.00    -0.061 A 
ATOM     24  H   LIG d   1       3.448  -3.489  -2.578  0.00  0.00     0.062 H 
ATOM     25  C   LIG d   1       5.768  -1.534  -4.049  0.00  0.00    -0.047 A 
ATOM     26  H   LIG d   1       5.055  -3.506  -4.441  0.00  0.00     0.062 H 
ATOM     27  H   LIG d   1       6.473  -1.545  -4.867  0.00  0.00     0.063 H 
ENDBRANCH  14  17
ENDBRANCH   6  13
BRANCH   2  28
ATOM     28  C   LIG d   1      11.259   5.914  -6.194  0.00  0.00    -0.035 C 
ATOM     29  H   LIG d   1      12.222   6.394  -6.020  0.00  0.00     0.028 H 
ATOM     30  H   LIG d   1      11.329   5.268  -7.068  0.00  0.00     0.028 H 
ATOM     31  H   LIG d   1      10.499   6.677  -6.365  0.00  0.00     0.028 H 
ENDBRANCH   2  28
BRANCH   1  32
ATOM     32  C   LIG d   1      12.170   6.384  -3.266  0.00  0.00     0.375 C 
ATOM     33  O   LIG d   1      13.375   6.230  -3.291  0.00  0.00    -0.241 OA
BRANCH  32  34
ATOM     34  O   LIG d   1      11.647   7.549  -2.830  0.00  0.00    -0.459 OA
BRANCH  34  35
ATOM     35  C   LIG d   1      11.082   7.559  -1.494  0.00  0.00     0.090 C 
ATOM     36  H   LIG d   1      11.375   6.650  -0.968  0.00  0.00     0.070 H 
ATOM     37  H   LIG d   1      11.452   8.428  -0.949  0.00  0.00     0.070 H 
BRANCH  35  38
ATOM     38  C   LIG d   1       9.556   7.627  -1.585  0.00  0.00    -0.031 C 
ATOM     39  H   LIG d   1       9.270   8.341  -2.358  0.00  0.00     0.026 H 
ATOM     40  H   LIG d   1       9.163   6.643  -1.836  0.00  0.00     0.026 H 
ATOM     41  H   LIG d   1       9.149   7.948  -0.626  0.00  0.00     0.026 H 
ENDBRANCH  35  38
ENDBRANCH  34  35
ENDBRANCH  32  34
ENDBRANCH   1  32
TORSDOF 7
ENDMDL
MODEL 6
REMARK VINA RESULT:      -6.4      7.262     11.159
REMARK  7 active torsions:
REMARK  status: ('A' for Active; 'I' for Inactive)
REMARK    1  A    between atoms: C_1  and  C_2 
REMARK    2  A    between atoms: C_2  and  O_3 
REMARK    3  A    between atoms: O_3  and  C_4 
REMARK    4  A    between atoms: C_4  and  C_6 
REMARK    5  A    between atoms: C_7  and  C_25 
REMARK    6  A    between atoms: C_11  and  N_15 
REMARK       I    between atoms: N_15  and  C_16 
REMARK    7  A    between atoms: C_16  and  C_18 
ROOT
ATOM      1  C   LIG d   1      10.501   4.937  -7.062  0.00  0.00     0.215 A 
ATOM      2  C   LIG d   1      10.849   5.020  -5.752  0.00  0.00     0.010 A 
ATOM      3  C   LIG d   1      10.172   3.974  -5.077  0.00  0.00     0.024 A 
ATOM      4  C   LIG d   1      10.129   3.552  -3.743  0.00  0.00    -0.049 A 
ATOM      5  C   LIG d   1       9.357   2.484  -3.393  0.00  0.00    -0.040 A 
ATOM      6  C   LIG d   1       8.616   1.801  -4.359  0.00  0.00     0.037 A 
ATOM      7  C   LIG d   1       8.646   2.204  -5.684  0.00  0.00     0.003 A 
ATOM      8  C   LIG d   1       9.422   3.293  -6.055  0.00  0.00     0.138 A 
ATOM      9  O   LIG d   1       9.648   3.904  -7.236  0.00  0.00    -0.448 OA
ATOM     10  H   LIG d   1      10.704   4.074  -2.992  0.00  0.00     0.062 H 
ATOM     11  H   LIG d   1       9.321   2.162  -2.362  0.00  0.00     0.064 H 
ATOM     12  H   LIG d   1       8.066   1.674  -6.424  0.00  0.00     0.067 H 
ENDROOT
BRANCH   6  13
ATOM     13  N   LIG d   1       7.834   0.706  -3.986  0.00  0.00    -0.281 N 
ATOM     14  C   LIG d   1       6.586   0.899  -3.516  0.00  0.00     0.251 C 
ATOM     15  O   LIG d   1       6.170   2.027  -3.338  0.00  0.00    -0.270 OA
ATOM     16  H   LIG d   1       8.189  -0.193  -4.065  0.00  0.00     0.155 HD
BRANCH  14  17
ATOM     17  C   LIG d   1       5.723  -0.262  -3.217  0.00  0.00     0.072 A 
ATOM     18  C   LIG d   1       4.851  -0.225  -2.125  0.00  0.00     0.136 A 
ATOM     19  C   LIG d   1       4.049  -1.319  -1.848  0.00  0.00    -0.026 A 
ATOM     20  F   LIG d   1       4.793   0.872  -1.339  0.00  0.00    -0.205 F 
ATOM     21  C   LIG d   1       4.104  -2.441  -2.654  0.00  0.00    -0.059 A 
ATOM     22  H   LIG d   1       3.378  -1.296  -1.002  0.00  0.00     0.065 H 
ATOM     23  C   LIG d   1       4.967  -2.482  -3.738  0.00  0.00    -0.061 A 
ATOM     24  H   LIG d   1       3.475  -3.290  -2.437  0.00  0.00     0.062 H 
ATOM     25  C   LIG d   1       5.774  -1.401  -4.023  0.00  0.00    -0.047 A 
ATOM     26  H   LIG d   1       5.006  -3.363  -4.360  0.00  0.00     0.062 H 
ATOM     27  H   LIG d   1       6.446  -1.437  -4.867  0.00  0.00     0.063 H 
ENDBRANCH  14  17
ENDBRANCH   6  13
BRANCH   2  28
ATOM     28  C   LIG d   1      11.781   6.030  -5.134  0.00  0.00    -0.035 C 
ATOM     29  H   LIG d   1      12.306   5.575  -4.294  0.00  0.00     0.028 H 
ATOM     30  H   LIG d   1      12.506   6.360  -5.878  0.00  0.00     0.028 H 
ATOM     31  H   LIG d   1      11.206   6.887  -4.783  0.00  0.00     0.028 H 
ENDBRANCH   2  28
BRANCH   1  32
ATOM     32  C   LIG d   1      10.976   5.831  -8.123  0.00  0.00     0.375 C 
ATOM     33  O   LIG d   1      12.073   5.659  -8.617  0.00  0.00    -0.241 OA
BRANCH  32  34
ATOM     34  O   LIG d   1      10.196   6.847  -8.549  0.00  0.00    -0.459 OA
BRANCH  34  35
ATOM     35  C   LIG d   1      10.417   8.147  -7.944  0.00  0.00     0.090 C 
ATOM     36  H   LIG d   1      11.325   8.118  -7.342  0.00  0.00     0.070 H 
ATOM     37  H   LIG d   1      10.524   8.899  -8.726  0.00  0.00     0.070 H 
BRANCH  35  38
ATOM     38  C   LIG d   1       9.226   8.505  -7.053  0.00  0.00    -0.031 C 
ATOM     39  H   LIG d   1       9.303   7.963  -6.110  0.00  0.00     0.026 H 
ATOM     40  H   LIG d   1       9.227   9.576  -6.857  0.00  0.00     0.026 H 
ATOM     41  H   LIG d   1       8.299   8.227  -7.556  0.00  0.00     0.026 H 
ENDBRANCH  35  38
ENDBRANCH  34  35
ENDBRANCH  32  34
ENDBRANCH   1  32
TORSDOF 7
ENDMDL
MODEL 7
REMARK VINA RESULT:      -6.1      7.308     11.009
REMARK  7 active torsions:
REMARK  status: ('A' for Active; 'I' for Inactive)
REMARK    1  A    between atoms: C_1  and  C_2 
REMARK    2  A    between atoms: C_2  and  O_3 
REMARK    3  A    between atoms: O_3  and  C_4 
REMARK    4  A    between atoms: C_4  and  C_6 
REMARK    5  A    between atoms: C_7  and  C_25 
REMARK    6  A    between atoms: C_11  and  N_15 
REMARK       I    between atoms: N_15  and  C_16 
REMARK    7  A    between atoms: C_16  and  C_18 
ROOT
ATOM      1  C   LIG d   1      10.764   5.134  -6.340  0.00  0.00     0.215 A 
ATOM      2  C   LIG d   1      11.403   3.958  -6.572  0.00  0.00     0.010 A 
ATOM      3  C   LIG d   1      10.643   2.943  -5.939  0.00  0.00     0.024 A 
ATOM      4  C   LIG d   1      10.787   1.555  -5.825  0.00  0.00    -0.049 A 
ATOM      5  C   LIG d   1       9.867   0.831  -5.127  0.00  0.00    -0.040 A 
ATOM      6  C   LIG d   1       8.775   1.464  -4.531  0.00  0.00     0.037 A 
ATOM      7  C   LIG d   1       8.616   2.836  -4.633  0.00  0.00     0.003 A 
ATOM      8  C   LIG d   1       9.546   3.588  -5.336  0.00  0.00     0.138 A 
ATOM      9  O   LIG d   1       9.656   4.906  -5.601  0.00  0.00    -0.448 OA
ATOM     10  H   LIG d   1      11.628   1.059  -6.288  0.00  0.00     0.062 H 
ATOM     11  H   LIG d   1       9.982  -0.240  -5.037  0.00  0.00     0.064 H 
ATOM     12  H   LIG d   1       7.771   3.319  -4.165  0.00  0.00     0.067 H 
ENDROOT
BRANCH   6  13
ATOM     13  N   LIG d   1       7.838   0.708  -3.823  0.00  0.00    -0.281 N 
ATOM     14  C   LIG d   1       6.692   0.325  -4.420  0.00  0.00     0.251 C 
ATOM     15  O   LIG d   1       6.436   0.706  -5.546  0.00  0.00    -0.270 OA
ATOM     16  H   LIG d   1       8.012   0.459  -2.902  0.00  0.00     0.155 HD
BRANCH  14  17
ATOM     17  C   LIG d   1       5.748  -0.558  -3.706  0.00  0.00     0.072 A 
ATOM     18  C   LIG d   1       5.114  -0.113  -2.542  0.00  0.00     0.136 A 
ATOM     19  C   LIG d   1       4.235  -0.949  -1.876  0.00  0.00    -0.026 A 
ATOM     20  F   LIG d   1       5.361   1.127  -2.067  0.00  0.00    -0.205 F 
ATOM     21  C   LIG d   1       3.978  -2.216  -2.365  0.00  0.00    -0.059 A 
ATOM     22  H   LIG d   1       3.747  -0.610  -0.974  0.00  0.00     0.065 H 
ATOM     23  C   LIG d   1       4.604  -2.662  -3.518  0.00  0.00    -0.061 A 
ATOM     24  H   LIG d   1       3.289  -2.863  -1.844  0.00  0.00     0.062 H 
ATOM     25  C   LIG d   1       5.485  -1.842  -4.189  0.00  0.00    -0.047 A 
ATOM     26  H   LIG d   1       4.401  -3.654  -3.891  0.00  0.00     0.062 H 
ATOM     27  H   LIG d   1       5.973  -2.192  -5.087  0.00  0.00     0.063 H 
ENDBRANCH  14  17
ENDBRANCH   6  13
BRANCH   2  28
ATOM     28  C   LIG d   1      12.676   3.768  -7.356  0.00  0.00    -0.035 C 
ATOM     29  H   LIG d   1      12.549   4.173  -8.360  0.00  0.00     0.028 H 
ATOM     30  H   LIG d   1      13.492   4.289  -6.857  0.00  0.00     0.028 H 
ATOM     31  H   LIG d   1      12.908   2.705  -7.420  0.00  0.00     0.028 H 
ENDBRANCH   2  28
BRANCH   1  32
ATOM     32  C   LIG d   1      11.208   6.447  -6.818  0.00  0.00     0.375 C 
ATOM     33  O   LIG d   1      11.824   7.187  -6.078  0.00  0.00    -0.241 OA
BRANCH  32  34
ATOM     34  O   LIG d   1      10.931   6.834  -8.081  0.00  0.00    -0.459 OA
BRANCH  34  35
ATOM     35  C   LIG d   1       9.530   6.974  -8.435  0.00  0.00     0.090 C 
ATOM     36  H   LIG d   1       9.416   6.868  -9.514  0.00  0.00     0.070 H 
ATOM     37  H   LIG d   1       8.949   6.200  -7.932  0.00  0.00     0.070 H 
BRANCH  35  38
ATOM     38  C   LIG d   1       9.028   8.351  -8.000  0.00  0.00    -0.031 C 
ATOM     39  H   LIG d   1       9.760   9.109  -8.280  0.00  0.00     0.026 H 
ATOM     40  H   LIG d   1       8.079   8.564  -8.491  0.00  0.00     0.026 H 
ATOM     41  H   LIG d   1       8.890   8.363  -6.919  0.00  0.00     0.026 H 
ENDBRANCH  35  38
ENDBRANCH  34  35
ENDBRANCH  32  34
ENDBRANCH   1  32
TORSDOF 7
ENDMDL
MODEL 8
REMARK VINA RESULT:      -5.9      8.374     11.280
REMARK  7 active torsions:
REMARK  status: ('A' for Active; 'I' for Inactive)
REMARK    1  A    between atoms: C_1  and  C_2 
REMARK    2  A    between atoms: C_2  and  O_3 
REMARK    3  A    between atoms: O_3  and  C_4 
REMARK    4  A    between atoms: C_4  and  C_6 
REMARK    5  A    between atoms: C_7  and  C_25 
REMARK    6  A    between atoms: C_11  and  N_15 
REMARK       I    between atoms: N_15  and  C_16 
REMARK    7  A    between atoms: C_16  and  C_18 
ROOT
ATOM      1  C   LIG d   1       8.930   1.594  -4.355  0.00  0.00     0.215 A 
ATOM      2  C   LIG d   1       8.834   2.568  -5.297  0.00  0.00     0.010 A 
ATOM      3  C   LIG d   1       9.300   3.767  -4.702  0.00  0.00     0.024 A 
ATOM      4  C   LIG d   1       9.441   5.083  -5.159  0.00  0.00    -0.049 A 
ATOM      5  C   LIG d   1       9.927   6.043  -4.323  0.00  0.00    -0.040 A 
ATOM      6  C   LIG d   1      10.296   5.723  -3.016  0.00  0.00     0.037 A 
ATOM      7  C   LIG d   1      10.162   4.426  -2.546  0.00  0.00     0.003 A 
ATOM      8  C   LIG d   1       9.664   3.438  -3.382  0.00  0.00     0.138 A 
ATOM      9  O   LIG d   1       9.426   2.121  -3.213  0.00  0.00    -0.448 OA
ATOM     10  H   LIG d   1       9.162   5.336  -6.172  0.00  0.00     0.062 H 
ATOM     11  H   LIG d   1      10.032   7.059  -4.677  0.00  0.00     0.064 H 
ATOM     12  H   LIG d   1      10.444   4.186  -1.532  0.00  0.00     0.067 H 
ENDROOT
BRANCH   6  13
ATOM     13  N   LIG d   1      10.797   6.717  -2.173  0.00  0.00    -0.281 N 
ATOM     14  C   LIG d   1       9.968   7.373  -1.338  0.00  0.00     0.251 C 
ATOM     15  O   LIG d   1       8.772   7.159  -1.376  0.00  0.00    -0.270 OA
ATOM     16  H   LIG d   1      11.742   6.934  -2.189  0.00  0.00     0.155 HD
BRANCH  14  17
ATOM     17  C   LIG d   1      10.512   8.352  -0.376  0.00  0.00     0.072 A 
ATOM     18  C   LIG d   1      11.172   7.912   0.775  0.00  0.00     0.136 A 
ATOM     19  C   LIG d   1      11.674   8.836   1.675  0.00  0.00    -0.026 A 
ATOM     20  F   LIG d   1      11.316   6.590   1.012  0.00  0.00    -0.205 F 
ATOM     21  C   LIG d   1      11.533  10.190   1.431  0.00  0.00    -0.059 A 
ATOM     22  H   LIG d   1      12.181   8.500   2.568  0.00  0.00     0.065 H 
ATOM     23  C   LIG d   1      10.880  10.630   0.291  0.00  0.00    -0.061 A 
ATOM     24  H   LIG d   1      11.929  10.906   2.133  0.00  0.00     0.062 H 
ATOM     25  C   LIG d   1      10.370   9.721  -0.611  0.00  0.00    -0.047 A 
ATOM     26  H   LIG d   1      10.770  11.689   0.110  0.00  0.00     0.062 H 
ATOM     27  H   LIG d   1       9.861  10.068  -1.498  0.00  0.00     0.063 H 
ENDBRANCH  14  17
ENDBRANCH   6  13
BRANCH   2  28
ATOM     28  C   LIG d   1       8.330   2.404  -6.708  0.00  0.00    -0.035 C 
ATOM     29  H   LIG d   1       7.318   1.999  -6.688  0.00  0.00     0.028 H 
ATOM     30  H   LIG d   1       8.324   3.372  -7.208  0.00  0.00     0.028 H 
ATOM     31  H   LIG d   1       8.984   1.720  -7.250  0.00  0.00     0.028 H 
ENDBRANCH   2  28
BRANCH   1  32
ATOM     32  C   LIG d   1       8.554   0.190  -4.547  0.00  0.00     0.375 C 
ATOM     33  O   LIG d   1       9.185  -0.509  -5.314  0.00  0.00    -0.241 OA
BRANCH  32  34
ATOM     34  O   LIG d   1       7.506  -0.326  -3.871  0.00  0.00    -0.459 OA
BRANCH  34  35
ATOM     35  C   LIG d   1       6.195   0.221  -4.171  0.00  0.00     0.090 C 
ATOM     36  H   LIG d   1       6.277   0.931  -4.994  0.00  0.00     0.070 H 
ATOM     37  H   LIG d   1       5.520  -0.587  -4.455  0.00  0.00     0.070 H 
BRANCH  35  38
ATOM     38  C   LIG d   1       5.645   0.935  -2.935  0.00  0.00    -0.031 C 
ATOM     39  H   LIG d   1       4.654   0.543  -2.701  0.00  0.00     0.026 H 
ATOM     40  H   LIG d   1       6.311   0.764  -2.090  0.00  0.00     0.026 H 
ATOM     41  H   LIG d   1       5.575   2.004  -3.133  0.00  0.00     0.026 H 
ENDBRANCH  35  38
ENDBRANCH  34  35
ENDBRANCH  32  34
ENDBRANCH   1  32
TORSDOF 7
ENDMDL
MODEL 9
REMARK VINA RESULT:      -5.9      6.398      9.346
REMARK  7 active torsions:
REMARK  status: ('A' for Active; 'I' for Inactive)
REMARK    1  A    between atoms: C_1  and  C_2 
REMARK    2  A    between atoms: C_2  and  O_3 
REMARK    3  A    between atoms: O_3  and  C_4 
REMARK    4  A    between atoms: C_4  and  C_6 
REMARK    5  A    between atoms: C_7  and  C_25 
REMARK    6  A    between atoms: C_11  and  N_15 
REMARK       I    between atoms: N_15  and  C_16 
REMARK    7  A    between atoms: C_16  and  C_18 
ROOT
ATOM      1  C   LIG d   1       4.191  -1.074  -5.403  0.00  0.00     0.215 A 
ATOM      2  C   LIG d   1       3.314  -0.095  -5.746  0.00  0.00     0.010 A 
ATOM      3  C   LIG d   1       3.418   0.079  -7.149  0.00  0.00     0.024 A 
ATOM      4  C   LIG d   1       2.782   0.923  -8.068  0.00  0.00    -0.049 A 
ATOM      5  C   LIG d   1       3.110   0.856  -9.389  0.00  0.00    -0.040 A 
ATOM      6  C   LIG d   1       4.069  -0.055  -9.835  0.00  0.00     0.037 A 
ATOM      7  C   LIG d   1       4.708  -0.897  -8.940  0.00  0.00     0.003 A 
ATOM      8  C   LIG d   1       4.390  -0.838  -7.591  0.00  0.00     0.138 A 
ATOM      9  O   LIG d   1       4.831  -1.513  -6.509  0.00  0.00    -0.448 OA
ATOM     10  H   LIG d   1       2.036   1.627  -7.729  0.00  0.00     0.062 H 
ATOM     11  H   LIG d   1       2.621   1.511 -10.097  0.00  0.00     0.064 H 
ATOM     12  H   LIG d   1       5.452  -1.595  -9.291  0.00  0.00     0.067 H 
ENDROOT
BRANCH   6  13
ATOM     13  N   LIG d   1       4.390  -0.114 -11.192  0.00  0.00    -0.281 N 
ATOM     14  C   LIG d   1       3.885  -1.099 -11.961  0.00  0.00     0.251 C 
ATOM     15  O   LIG d   1       3.218  -1.982 -11.458  0.00  0.00    -0.270 OA
ATOM     16  H   LIG d   1       4.976   0.554 -11.582  0.00  0.00     0.155 HD
BRANCH  14  17
ATOM     17  C   LIG d   1       4.142  -1.104 -13.415  0.00  0.00     0.072 A 
ATOM     18  C   LIG d   1       3.123  -1.455 -14.307  0.00  0.00     0.136 A 
ATOM     19  C   LIG d   1       3.374  -1.464 -15.668  0.00  0.00    -0.026 A 
ATOM     20  F   LIG d   1       1.900  -1.789 -13.842  0.00  0.00    -0.205 F 
ATOM     21  C   LIG d   1       4.624  -1.117 -16.145  0.00  0.00    -0.059 A 
ATOM     22  H   LIG d   1       2.591  -1.739 -16.359  0.00  0.00     0.065 H 
ATOM     23  C   LIG d   1       5.636  -0.769 -15.266  0.00  0.00    -0.061 A 
ATOM     24  H   LIG d   1       4.814  -1.122 -17.207  0.00  0.00     0.062 H 
ATOM     25  C   LIG d   1       5.403  -0.760 -13.908  0.00  0.00    -0.047 A 
ATOM     26  H   LIG d   1       6.612  -0.503 -15.646  0.00  0.00     0.062 H 
ATOM     27  H   LIG d   1       6.195  -0.489 -13.225  0.00  0.00     0.063 H 
ENDBRANCH  14  17
ENDBRANCH   6  13
BRANCH   2  28
ATOM     28  C   LIG d   1       2.403   0.659  -4.812  0.00  0.00    -0.035 C 
ATOM     29  H   LIG d   1       1.607   1.135  -5.387  0.00  0.00     0.028 H 
ATOM     30  H   LIG d   1       1.966  -0.032  -4.092  0.00  0.00     0.028 H 
ATOM     31  H   LIG d   1       2.975   1.421  -4.284  0.00  0.00     0.028 H 
ENDBRANCH   2  28
BRANCH   1  32
ATOM     32  C   LIG d   1       4.410  -1.576  -4.042  0.00  0.00     0.375 C 
ATOM     33  O   LIG d   1       3.928  -2.638  -3.701  0.00  0.00    -0.241 OA
BRANCH  32  34
ATOM     34  O   LIG d   1       5.147  -0.858  -3.169  0.00  0.00    -0.459 OA
BRANCH  34  35
ATOM     35  C   LIG d   1       4.538  -0.551  -1.888  0.00  0.00     0.090 C 
ATOM     36  H   LIG d   1       3.526  -0.957  -1.861  0.00  0.00     0.070 H 
ATOM     37  H   LIG d   1       5.129  -0.998  -1.088  0.00  0.00     0.070 H 
BRANCH  35  38
ATOM     38  C   LIG d   1       4.486   0.965  -1.697  0.00  0.00    -0.031 C 
ATOM     39  H   LIG d   1       3.803   1.400  -2.428  0.00  0.00     0.026 H 
ATOM     40  H   LIG d   1       4.134   1.193  -0.692  0.00  0.00     0.026 H 
ATOM     41  H   LIG d   1       5.482   1.384  -1.838  0.00  0.00     0.026 H 
ENDBRANCH  35  38
ENDBRANCH  34  35
ENDBRANCH  32  34
ENDBRANCH   1  32
TORSDOF 7
ENDMDL
