MODEL 1
REMARK VINA RESULT:      -6.5      0.000      0.000
REMARK  9 active torsions:
REMARK  status: ('A' for Active; 'I' for Inactive)
REMARK    1  A    between atoms: C_1  and  O_2 
REMARK    2  A    between atoms: O_2  and  C_3 
REMARK    3  A    between atoms: C_7  and  N_9 
REMARK       I    between atoms: N_9  and  C_10 
REMARK    4  A    between atoms: C_10  and  C_12 
REMARK    5  A    between atoms: C_12  and  N_13 
REMARK    6  A    between atoms: C_20  and  O_24 
REMARK    7  A    between atoms: C_21  and  O_22 
REMARK    8  A    between atoms: O_22  and  C_23 
REMARK    9  A    between atoms: O_24  and  C_25 
ROOT
ATOM      1  N   LIG d   1       9.431   2.657  -5.163  0.00  0.00    -0.220 N 
ATOM      2  C   LIG d   1       9.537   3.476  -4.096  0.00  0.00     0.279 A 
ATOM      3  O   LIG d   1       9.514   3.027  -2.965  0.00  0.00    -0.265 OA
ATOM      4  C   LIG d   1       9.681   4.917  -4.324  0.00  0.00     0.095 A 
ATOM      5  C   LIG d   1       9.702   5.386  -5.660  0.00  0.00     0.011 A 
ATOM      6  C   LIG d   1       9.838   6.751  -5.912  0.00  0.00    -0.049 A 
ATOM      7  C   LIG d   1       9.952   7.633  -4.860  0.00  0.00    -0.016 A 
ATOM      8  C   LIG d   1       9.932   7.179  -3.545  0.00  0.00     0.162 A 
ATOM      9  C   LIG d   1       9.797   5.825  -3.269  0.00  0.00     0.174 A 
ATOM     10  C   LIG d   1       9.580   4.411  -6.744  0.00  0.00     0.056 A 
ATOM     11  N   LIG d   1       9.460   3.146  -6.470  0.00  0.00    -0.176 NA
ATOM     12  H   LIG d   1       9.855   7.115  -6.929  0.00  0.00     0.062 H 
ATOM     13  H   LIG d   1      10.058   8.689  -5.057  0.00  0.00     0.066 H 
ATOM     14  H   LIG d   1       9.593   4.741  -7.772  0.00  0.00     0.085 H 
ENDROOT
BRANCH   1  15
ATOM     15  C   LIG d   1       9.287   1.216  -4.944  0.00  0.00     0.122 C 
ATOM     16  H   LIG d   1       9.935   0.905  -4.113  0.00  0.00     0.061 H 
ATOM     17  H   LIG d   1       9.576   0.676  -5.858  0.00  0.00     0.061 H 
BRANCH  15  18
ATOM     18  C   LIG d   1       7.852   0.900  -4.607  0.00  0.00     0.239 C 
ATOM     19  N   LIG d   1       7.524   0.500  -3.363  0.00  0.00    -0.284 N 
ATOM     20  H   LIG d   1       8.287   0.487  -2.571  0.00  0.00     0.155 HD
ATOM     21  O   LIG d   1       6.992   1.007  -5.456  0.00  0.00    -0.273 OA
BRANCH  19  22
ATOM     22  C   LIG d   1       6.213   0.102  -3.078  0.00  0.00     0.037 A 
ATOM     23  C   LIG d   1       5.329   0.995  -2.486  0.00  0.00    -0.040 A 
ATOM     24  C   LIG d   1       4.032   0.604  -2.211  0.00  0.00    -0.057 A 
ATOM     25  H   LIG d   1       5.653   1.996  -2.245  0.00  0.00     0.064 H 
ATOM     26  C   LIG d   1       3.614  -0.676  -2.519  0.00  0.00    -0.020 A 
ATOM     27  H   LIG d   1       3.345   1.300  -1.754  0.00  0.00     0.062 H 
ATOM     28  C   LIG d   1       4.495  -1.574  -3.106  0.00  0.00     0.122 A 
ATOM     29  H   LIG d   1       2.600  -0.979  -2.303  0.00  0.00     0.065 H 
ATOM     30  C   LIG d   1       5.797  -1.185  -3.384  0.00  0.00     0.001 A 
ATOM     31  H   LIG d   1       6.483  -1.883  -3.841  0.00  0.00     0.067 H 
BRANCH  28  32
ATOM     32  O   LIG d   1       4.082  -2.833  -3.409  0.00  0.00    -0.495 OA
BRANCH  32  33
ATOM     33  C   LIG d   1       4.750  -3.493  -4.486  0.00  0.00     0.079 C 
ATOM     34  H   LIG d   1       4.316  -4.494  -4.627  0.00  0.00     0.066 H 
ATOM     35  H   LIG d   1       5.820  -3.587  -4.250  0.00  0.00     0.066 H 
ATOM     36  H   LIG d   1       4.627  -2.906  -5.407  0.00  0.00     0.066 H 
ENDBRANCH  32  33
ENDBRANCH  28  32
ENDBRANCH  19  22
ENDBRANCH  15  18
ENDBRANCH   1  15
BRANCH   9  37
ATOM     37  O   LIG d   1       9.778   5.386  -1.983  0.00  0.00    -0.491 OA
BRANCH  37  38
ATOM     38  C   LIG d   1      11.024   5.375  -1.283  0.00  0.00     0.079 C 
ATOM     39  H   LIG d   1      11.345   6.410  -1.089  0.00  0.00     0.066 H 
ATOM     40  H   LIG d   1      11.783   4.865  -1.894  0.00  0.00     0.066 H 
ATOM     41  H   LIG d   1      10.903   4.843  -0.328  0.00  0.00     0.066 H 
ENDBRANCH  37  38
ENDBRANCH   9  37
BRANCH   8  42
ATOM     42  O   LIG d   1      10.045   8.069  -2.523  0.00  0.00    -0.491 OA
BRANCH  42  43
ATOM     43  C   LIG d   1      10.097   9.454  -2.871  0.00  0.00     0.079 C 
ATOM     44  H   LIG d   1      10.930   9.936  -2.337  0.00  0.00     0.066 H 
ATOM     45  H   LIG d   1       9.151   9.939  -2.589  0.00  0.00     0.066 H 
ATOM     46  H   LIG d   1      10.251   9.555  -3.956  0.00  0.00     0.066 H 
ENDBRANCH  42  43
ENDBRANCH   8  42
TORSDOF 9
ENDMDL
MODEL 2
REMARK VINA RESULT:      -6.4      1.694      2.489
REMARK  9 active torsions:
REMARK  status: ('A' for Active; 'I' for Inactive)
REMARK    1  A    between atoms: C_1  and  O_2 
REMARK    2  A    between atoms: O_2  and  C_3 
REMARK    3  A    between atoms: C_7  and  N_9 
REMARK       I    between atoms: N_9  and  C_10 
REMARK    4  A    between atoms: C_10  and  C_12 
REMARK    5  A    between atoms: C_12  and  N_13 
REMARK    6  A    between atoms: C_20  and  O_24 
REMARK    7  A    between atoms: C_21  and  O_22 
REMARK    8  A    between atoms: O_22  and  C_23 
REMARK    9  A    between atoms: O_24  and  C_25 
ROOT
ATOM      1  N   LIG d   1       9.468   2.672  -4.558  0.00  0.00    -0.220 N 
ATOM      2  C   LIG d   1       9.497   3.649  -5.487  0.00  0.00     0.279 A 
ATOM      3  O   LIG d   1       9.321   3.391  -6.664  0.00  0.00    -0.265 OA
ATOM      4  C   LIG d   1       9.743   5.028  -5.053  0.00  0.00     0.095 A 
ATOM      5  C   LIG d   1       9.941   5.271  -3.673  0.00  0.00     0.011 A 
ATOM      6  C   LIG d   1      10.177   6.571  -3.227  0.00  0.00    -0.049 A 
ATOM      7  C   LIG d   1      10.216   7.609  -4.132  0.00  0.00    -0.016 A 
ATOM      8  C   LIG d   1      10.023   7.377  -5.490  0.00  0.00     0.162 A 
ATOM      9  C   LIG d   1       9.786   6.091  -5.959  0.00  0.00     0.174 A 
ATOM     10  C   LIG d   1       9.889   4.137  -2.750  0.00  0.00     0.056 A 
ATOM     11  N   LIG d   1       9.661   2.940  -3.202  0.00  0.00    -0.176 NA
ATOM     12  H   LIG d   1      10.328   6.764  -2.175  0.00  0.00     0.062 H 
ATOM     13  H   LIG d   1      10.399   8.615  -3.784  0.00  0.00     0.066 H 
ATOM     14  H   LIG d   1      10.035   4.295  -1.691  0.00  0.00     0.085 H 
ENDROOT
BRANCH   1  15
ATOM     15  C   LIG d   1       9.223   1.292  -4.983  0.00  0.00     0.122 C 
ATOM     16  H   LIG d   1       9.928   0.621  -4.473  0.00  0.00     0.061 H 
ATOM     17  H   LIG d   1       9.363   1.213  -6.072  0.00  0.00     0.061 H 
BRANCH  15  18
ATOM     18  C   LIG d   1       7.810   0.900  -4.630  0.00  0.00     0.239 C 
ATOM     19  N   LIG d   1       7.532   0.415  -3.404  0.00  0.00    -0.284 N 
ATOM     20  H   LIG d   1       8.317   0.386  -2.633  0.00  0.00     0.155 HD
ATOM     21  O   LIG d   1       6.925   1.021  -5.449  0.00  0.00    -0.273 OA
BRANCH  19  22
ATOM     22  C   LIG d   1       6.246  -0.051  -3.111  0.00  0.00     0.037 A 
ATOM     23  C   LIG d   1       5.341   0.774  -2.453  0.00  0.00    -0.040 A 
ATOM     24  C   LIG d   1       4.068   0.316  -2.170  0.00  0.00    -0.057 A 
ATOM     25  H   LIG d   1       5.632   1.773  -2.168  0.00  0.00     0.064 H 
ATOM     26  C   LIG d   1       3.694  -0.963  -2.534  0.00  0.00    -0.020 A 
ATOM     27  H   LIG d   1       3.366   0.959  -1.662  0.00  0.00     0.062 H 
ATOM     28  C   LIG d   1       4.595  -1.793  -3.187  0.00  0.00     0.122 A 
ATOM     29  H   LIG d   1       2.699  -1.318  -2.312  0.00  0.00     0.065 H 
ATOM     30  C   LIG d   1       5.874  -1.337  -3.474  0.00  0.00     0.001 A 
ATOM     31  H   LIG d   1       6.576  -1.982  -3.982  0.00  0.00     0.067 H 
BRANCH  28  32
ATOM     32  O   LIG d   1       4.226  -3.050  -3.546  0.00  0.00    -0.495 OA
BRANCH  32  33
ATOM     33  C   LIG d   1       4.914  -3.638  -4.652  0.00  0.00     0.079 C 
ATOM     34  H   LIG d   1       4.304  -3.530  -5.562  0.00  0.00     0.066 H 
ATOM     35  H   LIG d   1       5.088  -4.704  -4.451  0.00  0.00     0.066 H 
ATOM     36  H   LIG d   1       5.878  -3.129  -4.795  0.00  0.00     0.066 H 
ENDBRANCH  32  33
ENDBRANCH  28  32
ENDBRANCH  19  22
ENDBRANCH  15  18
ENDBRANCH   1  15
BRANCH   9  37
ATOM     37  O   LIG d   1       9.599   5.869  -7.285  0.00  0.00    -0.491 OA
BRANCH  37  38
ATOM     38  C   LIG d   1      10.753   5.941  -8.124  0.00  0.00     0.079 C 
ATOM     39  H   LIG d   1      10.440   6.102  -9.167  0.00  0.00     0.066 H 
ATOM     40  H   LIG d   1      11.319   5.001  -8.053  0.00  0.00     0.066 H 
ATOM     41  H   LIG d   1      11.390   6.778  -7.801  0.00  0.00     0.066 H 
ENDBRANCH  37  38
ENDBRANCH   9  37
BRANCH   8  42
ATOM     42  O   LIG d   1      10.066   8.417  -6.364  0.00  0.00    -0.491 OA
BRANCH  42  43
ATOM     43  C   LIG d   1       9.559   9.672  -5.906  0.00  0.00     0.079 C 
ATOM     44  H   LIG d   1       9.369   9.618  -4.824  0.00  0.00     0.066 H 
ATOM     45  H   LIG d   1       8.620   9.902  -6.432  0.00  0.00     0.066 H 
ATOM     46  H   LIG d   1      10.296  10.463  -6.110  0.00  0.00     0.066 H 
ENDBRANCH  42  43
ENDBRANCH   8  42
TORSDOF 9
ENDMDL
MODEL 3
REMARK VINA RESULT:      -6.1      5.759     10.555
REMARK  9 active torsions:
REMARK  status: ('A' for Active; 'I' for Inactive)
REMARK    1  A    between atoms: C_1  and  O_2 
REMARK    2  A    between atoms: O_2  and  C_3 
REMARK    3  A    between atoms: C_7  and  N_9 
REMARK       I    between atoms: N_9  and  C_10 
REMARK    4  A    between atoms: C_10  and  C_12 
REMARK    5  A    between atoms: C_12  and  N_13 
REMARK    6  A    between atoms: C_20  and  O_24 
REMARK    7  A    between atoms: C_21  and  O_22 
REMARK    8  A    between atoms: O_22  and  C_23 
REMARK    9  A    between atoms: O_24  and  C_25 
ROOT
ATOM      1  N   LIG d   1       3.915  -3.170  -8.055  0.00  0.00    -0.220 N 
ATOM      2  C   LIG d   1       3.125  -3.762  -8.974  0.00  0.00     0.279 A 
ATOM      3  O   LIG d   1       3.034  -4.975  -9.025  0.00  0.00    -0.265 OA
ATOM      4  C   LIG d   1       2.375  -2.918  -9.910  0.00  0.00     0.095 A 
ATOM      5  C   LIG d   1       2.517  -1.513  -9.807  0.00  0.00     0.011 A 
ATOM      6  C   LIG d   1       1.818  -0.681 -10.681  0.00  0.00    -0.049 A 
ATOM      7  C   LIG d   1       0.995  -1.233 -11.639  0.00  0.00    -0.016 A 
ATOM      8  C   LIG d   1       0.851  -2.612 -11.746  0.00  0.00     0.162 A 
ATOM      9  C   LIG d   1       1.537  -3.461 -10.887  0.00  0.00     0.174 A 
ATOM     10  C   LIG d   1       3.402  -0.975  -8.773  0.00  0.00     0.056 A 
ATOM     11  N   LIG d   1       4.033  -1.782  -7.973  0.00  0.00    -0.176 NA
ATOM     12  H   LIG d   1       1.922   0.391 -10.608  0.00  0.00     0.062 H 
ATOM     13  H   LIG d   1       0.455  -0.586 -12.315  0.00  0.00     0.066 H 
ATOM     14  H   LIG d   1       3.528   0.093  -8.672  0.00  0.00     0.085 H 
ENDROOT
BRANCH   1  15
ATOM     15  C   LIG d   1       4.667  -4.006  -7.117  0.00  0.00     0.122 C 
ATOM     16  H   LIG d   1       5.606  -4.330  -7.587  0.00  0.00     0.061 H 
ATOM     17  H   LIG d   1       4.066  -4.888  -6.850  0.00  0.00     0.061 H 
BRANCH  15  18
ATOM     18  C   LIG d   1       4.975  -3.213  -5.872  0.00  0.00     0.239 C 
ATOM     19  N   LIG d   1       3.982  -2.594  -5.204  0.00  0.00    -0.284 N 
ATOM     20  H   LIG d   1       2.936  -2.739  -5.516  0.00  0.00     0.155 HD
ATOM     21  O   LIG d   1       6.117  -3.132  -5.472  0.00  0.00    -0.273 OA
BRANCH  19  22
ATOM     22  C   LIG d   1       4.280  -1.770  -4.114  0.00  0.00     0.037 A 
ATOM     23  C   LIG d   1       3.959  -2.179  -2.825  0.00  0.00    -0.040 A 
ATOM     24  C   LIG d   1       4.259  -1.367  -1.748  0.00  0.00    -0.057 A 
ATOM     25  H   LIG d   1       3.479  -3.133  -2.666  0.00  0.00     0.064 H 
ATOM     26  C   LIG d   1       4.873  -0.146  -1.949  0.00  0.00    -0.020 A 
ATOM     27  H   LIG d   1       4.012  -1.688  -0.746  0.00  0.00     0.062 H 
ATOM     28  C   LIG d   1       5.191   0.270  -3.234  0.00  0.00     0.122 A 
ATOM     29  H   LIG d   1       5.105   0.486  -1.105  0.00  0.00     0.065 H 
ATOM     30  C   LIG d   1       4.891  -0.542  -4.318  0.00  0.00     0.001 A 
ATOM     31  H   LIG d   1       5.139  -0.219  -5.319  0.00  0.00     0.067 H 
BRANCH  28  32
ATOM     32  O   LIG d   1       5.795   1.471  -3.431  0.00  0.00    -0.495 OA
BRANCH  32  33
ATOM     33  C   LIG d   1       7.188   1.451  -3.750  0.00  0.00     0.079 C 
ATOM     34  H   LIG d   1       7.548   2.483  -3.883  0.00  0.00     0.066 H 
ATOM     35  H   LIG d   1       7.344   0.886  -4.679  0.00  0.00     0.066 H 
ATOM     36  H   LIG d   1       7.744   0.972  -2.931  0.00  0.00     0.066 H 
ENDBRANCH  32  33
ENDBRANCH  28  32
ENDBRANCH  19  22
ENDBRANCH  15  18
ENDBRANCH   1  15
BRANCH   9  37
ATOM     37  O   LIG d   1       1.394  -4.807 -10.995  0.00  0.00    -0.491 OA
BRANCH  37  38
ATOM     38  C   LIG d   1       0.164  -5.368 -10.531  0.00  0.00     0.079 C 
ATOM     39  H   LIG d   1      -0.355  -5.856 -11.370  0.00  0.00     0.066 H 
ATOM     40  H   LIG d   1      -0.472  -4.570 -10.121  0.00  0.00     0.066 H 
ATOM     41  H   LIG d   1       0.372  -6.111  -9.748  0.00  0.00     0.066 H 
ENDBRANCH  37  38
ENDBRANCH   9  37
BRANCH   8  42
ATOM     42  O   LIG d   1       0.033  -3.133 -12.700  0.00  0.00    -0.491 OA
BRANCH  42  43
ATOM     43  C   LIG d   1       0.119  -2.566 -14.008  0.00  0.00     0.079 C 
ATOM     44  H   LIG d   1       0.820  -3.155 -14.618  0.00  0.00     0.066 H 
ATOM     45  H   LIG d   1       0.479  -1.529 -13.936  0.00  0.00     0.066 H 
ATOM     46  H   LIG d   1      -0.875  -2.577 -14.479  0.00  0.00     0.066 H 
ENDBRANCH  42  43
ENDBRANCH   8  42
TORSDOF 9
ENDMDL
MODEL 4
REMARK VINA RESULT:      -6.0      4.888     11.657
REMARK  9 active torsions:
REMARK  status: ('A' for Active; 'I' for Inactive)
REMARK    1  A    between atoms: C_1  and  O_2 
REMARK    2  A    between atoms: O_2  and  C_3 
REMARK    3  A    between atoms: C_7  and  N_9 
REMARK       I    between atoms: N_9  and  C_10 
REMARK    4  A    between atoms: C_10  and  C_12 
REMARK    5  A    between atoms: C_12  and  N_13 
REMARK    6  A    between atoms: C_20  and  O_24 
REMARK    7  A    between atoms: C_21  and  O_22 
REMARK    8  A    between atoms: O_22  and  C_23 
REMARK    9  A    between atoms: O_24  and  C_25 
ROOT
ATOM      1  N   LIG d   1       7.719  -5.867  -5.158  0.00  0.00    -0.220 N 
ATOM      2  C   LIG d   1       6.583  -6.477  -5.554  0.00  0.00     0.279 A 
ATOM      3  O   LIG d   1       5.782  -5.896  -6.263  0.00  0.00    -0.265 OA
ATOM      4  C   LIG d   1       6.332  -7.854  -5.116  0.00  0.00     0.095 A 
ATOM      5  C   LIG d   1       7.297  -8.482  -4.292  0.00  0.00     0.011 A 
ATOM      6  C   LIG d   1       7.089  -9.791  -3.858  0.00  0.00    -0.049 A 
ATOM      7  C   LIG d   1       5.946 -10.463  -4.233  0.00  0.00    -0.016 A 
ATOM      8  C   LIG d   1       4.994  -9.852  -5.041  0.00  0.00     0.162 A 
ATOM      9  C   LIG d   1       5.179  -8.549  -5.487  0.00  0.00     0.174 A 
ATOM     10  C   LIG d   1       8.495  -7.728  -3.922  0.00  0.00     0.056 A 
ATOM     11  N   LIG d   1       8.657  -6.512  -4.350  0.00  0.00    -0.176 NA
ATOM     12  H   LIG d   1       7.822 -10.276  -3.230  0.00  0.00     0.062 H 
ATOM     13  H   LIG d   1       5.788 -11.476  -3.895  0.00  0.00     0.066 H 
ATOM     14  H   LIG d   1       9.248  -8.184  -3.295  0.00  0.00     0.085 H 
ENDROOT
BRANCH   1  15
ATOM     15  C   LIG d   1       7.978  -4.492  -5.592  0.00  0.00     0.122 C 
ATOM     16  H   LIG d   1       7.500  -4.319  -6.566  0.00  0.00     0.061 H 
ATOM     17  H   LIG d   1       9.063  -4.334  -5.682  0.00  0.00     0.061 H 
BRANCH  15  18
ATOM     18  C   LIG d   1       7.414  -3.530  -4.577  0.00  0.00     0.239 C 
ATOM     19  N   LIG d   1       6.185  -3.006  -4.755  0.00  0.00    -0.284 N 
ATOM     20  H   LIG d   1       5.560  -3.345  -5.595  0.00  0.00     0.155 HD
ATOM     21  O   LIG d   1       8.066  -3.229  -3.600  0.00  0.00    -0.273 OA
BRANCH  19  22
ATOM     22  C   LIG d   1       5.706  -2.032  -3.873  0.00  0.00     0.037 A 
ATOM     23  C   LIG d   1       4.676  -2.338  -2.993  0.00  0.00    -0.040 A 
ATOM     24  C   LIG d   1       4.206  -1.377  -2.117  0.00  0.00    -0.057 A 
ATOM     25  H   LIG d   1       4.245  -3.328  -2.989  0.00  0.00     0.064 H 
ATOM     26  C   LIG d   1       4.755  -0.110  -2.119  0.00  0.00    -0.020 A 
ATOM     27  H   LIG d   1       3.408  -1.618  -1.431  0.00  0.00     0.062 H 
ATOM     28  C   LIG d   1       5.781   0.203  -3.000  0.00  0.00     0.122 A 
ATOM     29  H   LIG d   1       4.386   0.639  -1.434  0.00  0.00     0.065 H 
ATOM     30  C   LIG d   1       6.255  -0.758  -3.881  0.00  0.00     0.001 A 
ATOM     31  H   LIG d   1       7.053  -0.515  -4.567  0.00  0.00     0.067 H 
BRANCH  28  32
ATOM     32  O   LIG d   1       6.320   1.451  -3.001  0.00  0.00    -0.495 OA
BRANCH  32  33
ATOM     33  C   LIG d   1       7.511   1.642  -3.768  0.00  0.00     0.079 C 
ATOM     34  H   LIG d   1       8.381   1.311  -3.181  0.00  0.00     0.066 H 
ATOM     35  H   LIG d   1       7.620   2.707  -4.017  0.00  0.00     0.066 H 
ATOM     36  H   LIG d   1       7.448   1.052  -4.694  0.00  0.00     0.066 H 
ENDBRANCH  32  33
ENDBRANCH  28  32
ENDBRANCH  19  22
ENDBRANCH  15  18
ENDBRANCH   1  15
BRANCH   9  37
ATOM     37  O   LIG d   1       4.245  -7.956  -6.275  0.00  0.00    -0.491 OA
BRANCH  37  38
ATOM     38  C   LIG d   1       4.244  -8.313  -7.659  0.00  0.00     0.079 C 
ATOM     39  H   LIG d   1       3.587  -7.626  -8.215  0.00  0.00     0.066 H 
ATOM     40  H   LIG d   1       3.875  -9.343  -7.772  0.00  0.00     0.066 H 
ATOM     41  H   LIG d   1       5.267  -8.244  -8.057  0.00  0.00     0.066 H 
ENDBRANCH  37  38
ENDBRANCH   9  37
BRANCH   8  42
ATOM     42  O   LIG d   1       3.874 -10.535  -5.398  0.00  0.00    -0.491 OA
BRANCH  42  43
ATOM     43  C   LIG d   1       4.060 -11.765  -6.101  0.00  0.00     0.079 C 
ATOM     44  H   LIG d   1       5.036 -12.196  -5.833  0.00  0.00     0.066 H 
ATOM     45  H   LIG d   1       4.027 -11.578  -7.184  0.00  0.00     0.066 H 
ATOM     46  H   LIG d   1       3.261 -12.470  -5.826  0.00  0.00     0.066 H 
ENDBRANCH  42  43
ENDBRANCH   8  42
TORSDOF 9
ENDMDL
MODEL 5
REMARK VINA RESULT:      -5.9      7.140     12.203
REMARK  9 active torsions:
REMARK  status: ('A' for Active; 'I' for Inactive)
REMARK    1  A    between atoms: C_1  and  O_2 
REMARK    2  A    between atoms: O_2  and  C_3 
REMARK    3  A    between atoms: C_7  and  N_9 
REMARK       I    between atoms: N_9  and  C_10 
REMARK    4  A    between atoms: C_10  and  C_12 
REMARK    5  A    between atoms: C_12  and  N_13 
REMARK    6  A    between atoms: C_20  and  O_24 
REMARK    7  A    between atoms: C_21  and  O_22 
REMARK    8  A    between atoms: O_22  and  C_23 
REMARK    9  A    between atoms: O_24  and  C_25 
ROOT
ATOM      1  N   LIG d   1       5.970  -7.040  -5.984  0.00  0.00    -0.220 N 
ATOM      2  C   LIG d   1       5.453  -8.136  -5.393  0.00  0.00     0.279 A 
ATOM      3  O   LIG d   1       4.331  -8.519  -5.671  0.00  0.00    -0.265 OA
ATOM      4  C   LIG d   1       6.266  -8.859  -4.410  0.00  0.00     0.095 A 
ATOM      5  C   LIG d   1       7.564  -8.370  -4.124  0.00  0.00     0.011 A 
ATOM      6  C   LIG d   1       8.364  -9.033  -3.195  0.00  0.00    -0.049 A 
ATOM      7  C   LIG d   1       7.886 -10.161  -2.562  0.00  0.00    -0.016 A 
ATOM      8  C   LIG d   1       6.612 -10.646  -2.837  0.00  0.00     0.162 A 
ATOM      9  C   LIG d   1       5.797 -10.002  -3.759  0.00  0.00     0.174 A 
ATOM     10  C   LIG d   1       8.027  -7.171  -4.823  0.00  0.00     0.056 A 
ATOM     11  N   LIG d   1       7.255  -6.582  -5.687  0.00  0.00    -0.176 NA
ATOM     12  H   LIG d   1       9.355  -8.666  -2.972  0.00  0.00     0.062 H 
ATOM     13  H   LIG d   1       8.508 -10.673  -1.842  0.00  0.00     0.066 H 
ATOM     14  H   LIG d   1       9.013  -6.776  -4.625  0.00  0.00     0.085 H 
ENDROOT
BRANCH   1  15
ATOM     15  C   LIG d   1       5.164  -6.312  -6.967  0.00  0.00     0.122 C 
ATOM     16  H   LIG d   1       4.366  -6.967  -7.343  0.00  0.00     0.061 H 
ATOM     17  H   LIG d   1       5.805  -5.996  -7.804  0.00  0.00     0.061 H 
BRANCH  15  18
ATOM     18  C   LIG d   1       4.553  -5.097  -6.316  0.00  0.00     0.239 C 
ATOM     19  N   LIG d   1       5.339  -4.071  -5.932  0.00  0.00    -0.284 N 
ATOM     20  H   LIG d   1       6.413  -4.082  -6.172  0.00  0.00     0.155 HD
ATOM     21  O   LIG d   1       3.355  -5.043  -6.138  0.00  0.00    -0.273 OA
BRANCH  19  22
ATOM     22  C   LIG d   1       4.788  -2.993  -5.231  0.00  0.00     0.037 A 
ATOM     23  C   LIG d   1       4.540  -3.105  -3.868  0.00  0.00    -0.040 A 
ATOM     24  C   LIG d   1       4.002  -2.037  -3.174  0.00  0.00    -0.057 A 
ATOM     25  H   LIG d   1       4.771  -4.024  -3.351  0.00  0.00     0.064 H 
ATOM     26  C   LIG d   1       3.705  -0.860  -3.833  0.00  0.00    -0.020 A 
ATOM     27  H   LIG d   1       3.813  -2.125  -2.115  0.00  0.00     0.062 H 
ATOM     28  C   LIG d   1       3.947  -0.745  -5.195  0.00  0.00     0.122 A 
ATOM     29  H   LIG d   1       3.285  -0.028  -3.289  0.00  0.00     0.065 H 
ATOM     30  C   LIG d   1       4.486  -1.814  -5.896  0.00  0.00     0.001 A 
ATOM     31  H   LIG d   1       4.674  -1.725  -6.955  0.00  0.00     0.067 H 
BRANCH  28  32
ATOM     32  O   LIG d   1       3.655   0.414  -5.842  0.00  0.00    -0.495 OA
BRANCH  32  33
ATOM     33  C   LIG d   1       2.977   0.303  -7.096  0.00  0.00     0.079 C 
ATOM     34  H   LIG d   1       3.033  -0.736  -7.452  0.00  0.00     0.066 H 
ATOM     35  H   LIG d   1       3.454   0.969  -7.830  0.00  0.00     0.066 H 
ATOM     36  H   LIG d   1       1.924   0.591  -6.969  0.00  0.00     0.066 H 
ENDBRANCH  32  33
ENDBRANCH  28  32
ENDBRANCH  19  22
ENDBRANCH  15  18
ENDBRANCH   1  15
BRANCH   9  37
ATOM     37  O   LIG d   1       4.553 -10.480  -4.025  0.00  0.00    -0.491 OA
BRANCH  37  38
ATOM     38  C   LIG d   1       3.535 -10.207  -3.061  0.00  0.00     0.079 C 
ATOM     39  H   LIG d   1       3.550 -10.986  -2.282  0.00  0.00     0.066 H 
ATOM     40  H   LIG d   1       2.552 -10.204  -3.555  0.00  0.00     0.066 H 
ATOM     41  H   LIG d   1       3.718  -9.226  -2.600  0.00  0.00     0.066 H 
ENDBRANCH  37  38
ENDBRANCH   9  37
BRANCH   8  42
ATOM     42  O   LIG d   1       6.163 -11.759  -2.200  0.00  0.00    -0.491 OA
BRANCH  42  43
ATOM     43  C   LIG d   1       6.350 -11.817  -0.784  0.00  0.00     0.079 C 
ATOM     44  H   LIG d   1       6.251 -12.858  -0.443  0.00  0.00     0.066 H 
ATOM     45  H   LIG d   1       5.591 -11.195  -0.288  0.00  0.00     0.066 H 
ATOM     46  H   LIG d   1       7.353 -11.443  -0.531  0.00  0.00     0.066 H 
ENDBRANCH  42  43
ENDBRANCH   8  42
TORSDOF 9
ENDMDL
MODEL 6
REMARK VINA RESULT:      -5.7      2.244      3.346
REMARK  9 active torsions:
REMARK  status: ('A' for Active; 'I' for Inactive)
REMARK    1  A    between atoms: C_1  and  O_2 
REMARK    2  A    between atoms: O_2  and  C_3 
REMARK    3  A    between atoms: C_7  and  N_9 
REMARK       I    between atoms: N_9  and  C_10 
REMARK    4  A    between atoms: C_10  and  C_12 
REMARK    5  A    between atoms: C_12  and  N_13 
REMARK    6  A    between atoms: C_20  and  O_24 
REMARK    7  A    between atoms: C_21  and  O_22 
REMARK    8  A    between atoms: O_22  and  C_23 
REMARK    9  A    between atoms: O_24  and  C_25 
ROOT
ATOM      1  N   LIG d   1       9.643   2.273  -4.833  0.00  0.00    -0.220 N 
ATOM      2  C   LIG d   1       9.788   3.015  -5.950  0.00  0.00     0.279 A 
ATOM      3  O   LIG d   1       9.952   2.480  -7.032  0.00  0.00    -0.265 OA
ATOM      4  C   LIG d   1       9.742   4.476  -5.839  0.00  0.00     0.095 A 
ATOM      5  C   LIG d   1       9.549   5.045  -4.557  0.00  0.00     0.011 A 
ATOM      6  C   LIG d   1       9.500   6.431  -4.416  0.00  0.00    -0.049 A 
ATOM      7  C   LIG d   1       9.641   7.238  -5.525  0.00  0.00    -0.016 A 
ATOM      8  C   LIG d   1       9.832   6.685  -6.787  0.00  0.00     0.162 A 
ATOM      9  C   LIG d   1       9.884   5.307  -6.953  0.00  0.00     0.174 A 
ATOM     10  C   LIG d   1       9.403   4.148  -3.411  0.00  0.00     0.056 A 
ATOM     11  N   LIG d   1       9.448   2.860  -3.582  0.00  0.00    -0.176 NA
ATOM     12  H   LIG d   1       9.352   6.872  -3.441  0.00  0.00     0.062 H 
ATOM     13  H   LIG d   1       9.603   8.311  -5.413  0.00  0.00     0.066 H 
ATOM     14  H   LIG d   1       9.253   4.555  -2.421  0.00  0.00     0.085 H 
ENDROOT
BRANCH   1  15
ATOM     15  C   LIG d   1       9.687   0.813  -4.935  0.00  0.00     0.122 C 
ATOM     16  H   LIG d   1      10.296   0.407  -4.115  0.00  0.00     0.061 H 
ATOM     17  H   LIG d   1      10.133   0.527  -5.900  0.00  0.00     0.061 H 
BRANCH  15  18
ATOM     18  C   LIG d   1       8.288   0.260  -4.846  0.00  0.00     0.239 C 
ATOM     19  N   LIG d   1       7.712   0.076  -3.642  0.00  0.00    -0.284 N 
ATOM     20  H   LIG d   1       8.228   0.410  -2.729  0.00  0.00     0.155 HD
ATOM     21  O   LIG d   1       7.681  -0.020  -5.858  0.00  0.00    -0.273 OA
BRANCH  19  22
ATOM     22  C   LIG d   1       6.458  -0.538  -3.553  0.00  0.00     0.037 A 
ATOM     23  C   LIG d   1       6.368  -1.919  -3.424  0.00  0.00    -0.040 A 
ATOM     24  C   LIG d   1       5.130  -2.525  -3.329  0.00  0.00    -0.057 A 
ATOM     25  H   LIG d   1       7.266  -2.517  -3.393  0.00  0.00     0.064 H 
ATOM     26  C   LIG d   1       3.979  -1.762  -3.368  0.00  0.00    -0.020 A 
ATOM     27  H   LIG d   1       5.062  -3.598  -3.225  0.00  0.00     0.062 H 
ATOM     28  C   LIG d   1       4.063  -0.383  -3.502  0.00  0.00     0.122 A 
ATOM     29  H   LIG d   1       3.013  -2.238  -3.294  0.00  0.00     0.065 H 
ATOM     30  C   LIG d   1       5.303   0.229  -3.597  0.00  0.00     0.001 A 
ATOM     31  H   LIG d   1       5.370   1.303  -3.701  0.00  0.00     0.067 H 
BRANCH  28  32
ATOM     32  O   LIG d   1       2.930   0.367  -3.540  0.00  0.00    -0.495 OA
BRANCH  32  33
ATOM     33  C   LIG d   1       2.369   0.629  -4.828  0.00  0.00     0.079 C 
ATOM     34  H   LIG d   1       2.127  -0.324  -5.322  0.00  0.00     0.066 H 
ATOM     35  H   LIG d   1       3.095   1.185  -5.438  0.00  0.00     0.066 H 
ATOM     36  H   LIG d   1       1.452   1.226  -4.713  0.00  0.00     0.066 H 
ENDBRANCH  32  33
ENDBRANCH  28  32
ENDBRANCH  19  22
ENDBRANCH  15  18
ENDBRANCH   1  15
BRANCH   9  37
ATOM     37  O   LIG d   1      10.071   4.772  -8.187  0.00  0.00    -0.491 OA
BRANCH  37  38
ATOM     38  C   LIG d   1       8.958   4.804  -9.083  0.00  0.00     0.079 C 
ATOM     39  H   LIG d   1       8.472   3.816  -9.099  0.00  0.00     0.066 H 
ATOM     40  H   LIG d   1       9.308   5.055 -10.095  0.00  0.00     0.066 H 
ATOM     41  H   LIG d   1       8.236   5.562  -8.745  0.00  0.00     0.066 H 
ENDBRANCH  37  38
ENDBRANCH   9  37
BRANCH   8  42
ATOM     42  O   LIG d   1       9.969   7.501  -7.866  0.00  0.00    -0.491 OA
BRANCH  42  43
ATOM     43  C   LIG d   1       8.913   8.432  -8.114  0.00  0.00     0.079 C 
ATOM     44  H   LIG d   1       8.923   9.213  -7.340  0.00  0.00     0.066 H 
ATOM     45  H   LIG d   1       7.948   7.906  -8.091  0.00  0.00     0.066 H 
ATOM     46  H   LIG d   1       9.056   8.894  -9.102  0.00  0.00     0.066 H 
ENDBRANCH  42  43
ENDBRANCH   8  42
TORSDOF 9
ENDMDL
MODEL 7
REMARK VINA RESULT:      -5.6      1.842      2.996
REMARK  9 active torsions:
REMARK  status: ('A' for Active; 'I' for Inactive)
REMARK    1  A    between atoms: C_1  and  O_2 
REMARK    2  A    between atoms: O_2  and  C_3 
REMARK    3  A    between atoms: C_7  and  N_9 
REMARK       I    between atoms: N_9  and  C_10 
REMARK    4  A    between atoms: C_10  and  C_12 
REMARK    5  A    between atoms: C_12  and  N_13 
REMARK    6  A    between atoms: C_20  and  O_24 
REMARK    7  A    between atoms: C_21  and  O_22 
REMARK    8  A    between atoms: O_22  and  C_23 
REMARK    9  A    between atoms: O_24  and  C_25 
ROOT
ATOM      1  N   LIG d   1       9.662   3.474  -4.926  0.00  0.00    -0.220 N 
ATOM      2  C   LIG d   1       9.805   4.670  -5.533  0.00  0.00     0.279 A 
ATOM      3  O   LIG d   1       9.814   4.752  -6.748  0.00  0.00    -0.265 OA
ATOM      4  C   LIG d   1       9.948   5.870  -4.703  0.00  0.00     0.095 A 
ATOM      5  C   LIG d   1       9.931   5.718  -3.296  0.00  0.00     0.011 A 
ATOM      6  C   LIG d   1      10.064   6.839  -2.477  0.00  0.00    -0.049 A 
ATOM      7  C   LIG d   1      10.212   8.086  -3.044  0.00  0.00    -0.016 A 
ATOM      8  C   LIG d   1      10.231   8.243  -4.426  0.00  0.00     0.162 A 
ATOM      9  C   LIG d   1      10.099   7.141  -5.262  0.00  0.00     0.174 A 
ATOM     10  C   LIG d   1       9.770   4.374  -2.741  0.00  0.00     0.056 A 
ATOM     11  N   LIG d   1       9.643   3.353  -3.536  0.00  0.00    -0.176 NA
ATOM     12  H   LIG d   1      10.052   6.730  -1.403  0.00  0.00     0.062 H 
ATOM     13  H   LIG d   1      10.315   8.953  -2.407  0.00  0.00     0.066 H 
ATOM     14  H   LIG d   1       9.752   4.229  -1.671  0.00  0.00     0.085 H 
ENDROOT
BRANCH   1  15
ATOM     15  C   LIG d   1       9.518   2.270  -5.748  0.00  0.00     0.122 C 
ATOM     16  H   LIG d   1      10.424   1.654  -5.656  0.00  0.00     0.061 H 
ATOM     17  H   LIG d   1       9.376   2.559  -6.800  0.00  0.00     0.061 H 
BRANCH  15  18
ATOM     18  C   LIG d   1       8.323   1.480  -5.280  0.00  0.00     0.239 C 
ATOM     19  N   LIG d   1       8.384   0.786  -4.127  0.00  0.00    -0.284 N 
ATOM     20  H   LIG d   1       9.274   0.864  -3.484  0.00  0.00     0.155 HD
ATOM     21  O   LIG d   1       7.306   1.471  -5.940  0.00  0.00    -0.273 OA
BRANCH  19  22
ATOM     22  C   LIG d   1       7.315  -0.034  -3.746  0.00  0.00     0.037 A 
ATOM     23  C   LIG d   1       7.304  -1.375  -4.110  0.00  0.00    -0.040 A 
ATOM     24  C   LIG d   1       6.252  -2.186  -3.728  0.00  0.00    -0.057 A 
ATOM     25  H   LIG d   1       8.120  -1.784  -4.686  0.00  0.00     0.064 H 
ATOM     26  C   LIG d   1       5.207  -1.665  -2.990  0.00  0.00    -0.020 A 
ATOM     27  H   LIG d   1       6.247  -3.229  -4.009  0.00  0.00     0.062 H 
ATOM     28  C   LIG d   1       5.210  -0.325  -2.629  0.00  0.00     0.122 A 
ATOM     29  H   LIG d   1       4.386  -2.300  -2.694  0.00  0.00     0.065 H 
ATOM     30  C   LIG d   1       6.264   0.493  -3.010  0.00  0.00     0.001 A 
ATOM     31  H   LIG d   1       6.268   1.536  -2.729  0.00  0.00     0.067 H 
BRANCH  28  32
ATOM     32  O   LIG d   1       4.182   0.187  -1.903  0.00  0.00    -0.495 OA
BRANCH  32  33
ATOM     33  C   LIG d   1       3.573   1.383  -2.394  0.00  0.00     0.079 C 
ATOM     34  H   LIG d   1       3.419   1.296  -3.480  0.00  0.00     0.066 H 
ATOM     35  H   LIG d   1       4.227   2.240  -2.184  0.00  0.00     0.066 H 
ATOM     36  H   LIG d   1       2.603   1.530  -1.897  0.00  0.00     0.066 H 
ENDBRANCH  32  33
ENDBRANCH  28  32
ENDBRANCH  19  22
ENDBRANCH  15  18
ENDBRANCH   1  15
BRANCH   9  37
ATOM     37  O   LIG d   1      10.119   7.299  -6.611  0.00  0.00    -0.491 OA
BRANCH  37  38
ATOM     38  C   LIG d   1       9.057   8.061  -7.189  0.00  0.00     0.079 C 
ATOM     39  H   LIG d   1       9.465   8.985  -7.627  0.00  0.00     0.066 H 
ATOM     40  H   LIG d   1       8.323   8.318  -6.412  0.00  0.00     0.066 H 
ATOM     41  H   LIG d   1       8.567   7.468  -7.976  0.00  0.00     0.066 H 
ENDBRANCH  37  38
ENDBRANCH   9  37
BRANCH   8  42
ATOM     42  O   LIG d   1      10.379   9.484  -4.961  0.00  0.00    -0.491 OA
BRANCH  42  43
ATOM     43  C   LIG d   1      10.306  10.592  -4.062  0.00  0.00     0.079 C 
ATOM     44  H   LIG d   1      10.191  10.222  -3.033  0.00  0.00     0.066 H 
ATOM     45  H   LIG d   1       9.442  11.221  -4.324  0.00  0.00     0.066 H 
ATOM     46  H   LIG d   1      11.228  11.186  -4.137  0.00  0.00     0.066 H 
ENDBRANCH  42  43
ENDBRANCH   8  42
TORSDOF 9
ENDMDL
MODEL 8
REMARK VINA RESULT:      -5.5      6.592      9.965
REMARK  9 active torsions:
REMARK  status: ('A' for Active; 'I' for Inactive)
REMARK    1  A    between atoms: C_1  and  O_2 
REMARK    2  A    between atoms: O_2  and  C_3 
REMARK    3  A    between atoms: C_7  and  N_9 
REMARK       I    between atoms: N_9  and  C_10 
REMARK    4  A    between atoms: C_10  and  C_12 
REMARK    5  A    between atoms: C_12  and  N_13 
REMARK    6  A    between atoms: C_20  and  O_24 
REMARK    7  A    between atoms: C_21  and  O_22 
REMARK    8  A    between atoms: O_22  and  C_23 
REMARK    9  A    between atoms: O_24  and  C_25 
ROOT
ATOM      1  N   LIG d   1       3.234   0.663  -9.171  0.00  0.00    -0.220 N 
ATOM      2  C   LIG d   1       2.488  -0.148  -9.950  0.00  0.00     0.279 A 
ATOM      3  O   LIG d   1       1.375  -0.493  -9.599  0.00  0.00    -0.265 OA
ATOM      4  C   LIG d   1       3.043  -0.604 -11.229  0.00  0.00     0.095 A 
ATOM      5  C   LIG d   1       4.342  -0.172 -11.588  0.00  0.00     0.011 A 
ATOM      6  C   LIG d   1       4.899  -0.587 -12.797  0.00  0.00    -0.049 A 
ATOM      7  C   LIG d   1       4.181  -1.415 -13.633  0.00  0.00    -0.016 A 
ATOM      8  C   LIG d   1       2.905  -1.844 -13.286  0.00  0.00     0.162 A 
ATOM      9  C   LIG d   1       2.328  -1.443 -12.087  0.00  0.00     0.174 A 
ATOM     10  C   LIG d   1       5.064   0.707 -10.669  0.00  0.00     0.056 A 
ATOM     11  N   LIG d   1       4.510   1.078  -9.553  0.00  0.00    -0.176 NA
ATOM     12  H   LIG d   1       5.890  -0.261 -13.078  0.00  0.00     0.062 H 
ATOM     13  H   LIG d   1       4.615  -1.735 -14.569  0.00  0.00     0.066 H 
ATOM     14  H   LIG d   1       6.057   1.053 -10.918  0.00  0.00     0.085 H 
ENDROOT
BRANCH   1  15
ATOM     15  C   LIG d   1       2.687   1.123  -7.893  0.00  0.00     0.122 C 
ATOM     16  H   LIG d   1       1.589   1.097  -7.934  0.00  0.00     0.061 H 
ATOM     17  H   LIG d   1       3.023   2.153  -7.701  0.00  0.00     0.061 H 
BRANCH  15  18
ATOM     18  C   LIG d   1       3.171   0.222  -6.785  0.00  0.00     0.239 C 
ATOM     19  N   LIG d   1       3.121   0.641  -5.506  0.00  0.00    -0.284 N 
ATOM     20  H   LIG d   1       2.649   1.604  -5.261  0.00  0.00     0.155 HD
ATOM     21  O   LIG d   1       3.605  -0.880  -7.046  0.00  0.00    -0.273 OA
BRANCH  19  22
ATOM     22  C   LIG d   1       3.670  -0.148  -4.489  0.00  0.00     0.037 A 
ATOM     23  C   LIG d   1       2.836  -0.823  -3.606  0.00  0.00    -0.040 A 
ATOM     24  C   LIG d   1       3.378  -1.608  -2.607  0.00  0.00    -0.057 A 
ATOM     25  H   LIG d   1       1.764  -0.737  -3.705  0.00  0.00     0.064 H 
ATOM     26  C   LIG d   1       4.748  -1.719  -2.478  0.00  0.00    -0.020 A 
ATOM     27  H   LIG d   1       2.728  -2.134  -1.923  0.00  0.00     0.062 H 
ATOM     28  C   LIG d   1       5.586  -1.043  -3.354  0.00  0.00     0.122 A 
ATOM     29  H   LIG d   1       5.169  -2.333  -1.696  0.00  0.00     0.065 H 
ATOM     30  C   LIG d   1       5.047  -0.255  -4.359  0.00  0.00     0.001 A 
ATOM     31  H   LIG d   1       5.698   0.272  -5.041  0.00  0.00     0.067 H 
BRANCH  28  32
ATOM     32  O   LIG d   1       6.935  -1.154  -3.228  0.00  0.00    -0.495 OA
BRANCH  32  33
ATOM     33  C   LIG d   1       7.637  -1.790  -4.298  0.00  0.00     0.079 C 
ATOM     34  H   LIG d   1       8.569  -1.241  -4.502  0.00  0.00     0.066 H 
ATOM     35  H   LIG d   1       7.007  -1.791  -5.199  0.00  0.00     0.066 H 
ATOM     36  H   LIG d   1       7.876  -2.825  -4.016  0.00  0.00     0.066 H 
ENDBRANCH  32  33
ENDBRANCH  28  32
ENDBRANCH  19  22
ENDBRANCH  15  18
ENDBRANCH   1  15
BRANCH   9  37
ATOM     37  O   LIG d   1       1.081  -1.865 -11.752  0.00  0.00    -0.491 OA
BRANCH  37  38
ATOM     38  C   LIG d   1      -0.005  -1.358 -12.530  0.00  0.00     0.079 C 
ATOM     39  H   LIG d   1       0.166  -1.588 -13.592  0.00  0.00     0.066 H 
ATOM     40  H   LIG d   1      -0.074  -0.268 -12.398  0.00  0.00     0.066 H 
ATOM     41  H   LIG d   1      -0.943  -1.828 -12.200  0.00  0.00     0.066 H 
ENDBRANCH  37  38
ENDBRANCH   9  37
BRANCH   8  42
ATOM     42  O   LIG d   1       2.216  -2.660 -14.127  0.00  0.00    -0.491 OA
BRANCH  42  43
ATOM     43  C   LIG d   1       2.893  -3.827 -14.598  0.00  0.00     0.079 C 
ATOM     44  H   LIG d   1       2.186  -4.463 -15.151  0.00  0.00     0.066 H 
ATOM     45  H   LIG d   1       3.298  -4.386 -13.743  0.00  0.00     0.066 H 
ATOM     46  H   LIG d   1       3.716  -3.529 -15.265  0.00  0.00     0.066 H 
ENDBRANCH  42  43
ENDBRANCH   8  42
TORSDOF 9
ENDMDL
MODEL 9
REMARK VINA RESULT:      -5.3      1.662      1.929
REMARK  9 active torsions:
REMARK  status: ('A' for Active; 'I' for Inactive)
REMARK    1  A    between atoms: C_1  and  O_2 
REMARK    2  A    between atoms: O_2  and  C_3 
REMARK    3  A    between atoms: C_7  and  N_9 
REMARK       I    between atoms: N_9  and  C_10 
REMARK    4  A    between atoms: C_10  and  C_12 
REMARK    5  A    between atoms: C_12  and  N_13 
REMARK    6  A    between atoms: C_20  and  O_24 
REMARK    7  A    between atoms: C_21  and  O_22 
REMARK    8  A    between atoms: O_22  and  C_23 
REMARK    9  A    between atoms: O_24  and  C_25 
ROOT
ATOM      1  N   LIG d   1       9.743   3.233  -4.496  0.00  0.00    -0.220 N 
ATOM      2  C   LIG d   1       9.914   4.360  -3.775  0.00  0.00     0.279 A 
ATOM      3  O   LIG d   1      10.070   4.306  -2.568  0.00  0.00    -0.265 OA
ATOM      4  C   LIG d   1       9.911   5.651  -4.470  0.00  0.00     0.095 A 
ATOM      5  C   LIG d   1       9.726   5.656  -5.873  0.00  0.00     0.011 A 
ATOM      6  C   LIG d   1       9.717   6.866  -6.566  0.00  0.00    -0.049 A 
ATOM      7  C   LIG d   1       9.890   8.049  -5.879  0.00  0.00    -0.016 A 
ATOM      8  C   LIG d   1      10.071   8.051  -4.500  0.00  0.00     0.162 A 
ATOM      9  C   LIG d   1      10.084   6.858  -3.788  0.00  0.00     0.174 A 
ATOM     10  C   LIG d   1       9.548   4.375  -6.558  0.00  0.00     0.056 A 
ATOM     11  N   LIG d   1       9.567   3.266  -5.880  0.00  0.00    -0.176 NA
ATOM     12  H   LIG d   1       9.577   6.878  -7.636  0.00  0.00     0.062 H 
ATOM     13  H   LIG d   1       9.883   8.985  -6.417  0.00  0.00     0.066 H 
ATOM     14  H   LIG d   1       9.406   4.350  -7.629  0.00  0.00     0.085 H 
ENDROOT
BRANCH   1  15
ATOM     15  C   LIG d   1       9.744   1.939  -3.809  0.00  0.00     0.122 C 
ATOM     16  H   LIG d   1      10.106   2.072  -2.780  0.00  0.00     0.061 H 
ATOM     17  H   LIG d   1      10.406   1.242  -4.344  0.00  0.00     0.061 H 
BRANCH  15  18
ATOM     18  C   LIG d   1       8.344   1.382  -3.782  0.00  0.00     0.239 C 
ATOM     19  N   LIG d   1       8.130   0.084  -4.071  0.00  0.00    -0.284 N 
ATOM     20  H   LIG d   1       8.983  -0.590  -4.242  0.00  0.00     0.155 HD
ATOM     21  O   LIG d   1       7.410   2.103  -3.500  0.00  0.00    -0.273 OA
BRANCH  19  22
ATOM     22  C   LIG d   1       6.822  -0.408  -4.153  0.00  0.00     0.037 A 
ATOM     23  C   LIG d   1       6.272  -1.100  -3.081  0.00  0.00    -0.040 A 
ATOM     24  C   LIG d   1       4.978  -1.581  -3.160  0.00  0.00    -0.057 A 
ATOM     25  H   LIG d   1       6.853  -1.258  -2.185  0.00  0.00     0.064 H 
ATOM     26  C   LIG d   1       4.232  -1.379  -4.305  0.00  0.00    -0.020 A 
ATOM     27  H   LIG d   1       4.551  -2.115  -2.325  0.00  0.00     0.062 H 
ATOM     28  C   LIG d   1       4.779  -0.694  -5.380  0.00  0.00     0.122 A 
ATOM     29  H   LIG d   1       3.222  -1.756  -4.363  0.00  0.00     0.065 H 
ATOM     30  C   LIG d   1       6.077  -0.210  -5.306  0.00  0.00     0.001 A 
ATOM     31  H   LIG d   1       6.503   0.324  -6.142  0.00  0.00     0.067 H 
BRANCH  28  32
ATOM     32  O   LIG d   1       4.044  -0.496  -6.506  0.00  0.00    -0.495 OA
BRANCH  32  33
ATOM     33  C   LIG d   1       4.764  -0.304  -7.726  0.00  0.00     0.079 C 
ATOM     34  H   LIG d   1       4.329  -0.939  -8.511  0.00  0.00     0.066 H 
ATOM     35  H   LIG d   1       5.818  -0.577  -7.576  0.00  0.00     0.066 H 
ATOM     36  H   LIG d   1       4.697   0.751  -8.028  0.00  0.00     0.066 H 
ENDBRANCH  32  33
ENDBRANCH  28  32
ENDBRANCH  19  22
ENDBRANCH  15  18
ENDBRANCH   1  15
BRANCH   9  37
ATOM     37  O   LIG d   1      10.261   6.865  -2.442  0.00  0.00    -0.491 OA
BRANCH  37  38
ATOM     38  C   LIG d   1       9.181   7.361  -1.648  0.00  0.00     0.079 C 
ATOM     39  H   LIG d   1       9.474   7.358  -0.587  0.00  0.00     0.066 H 
ATOM     40  H   LIG d   1       8.299   6.719  -1.786  0.00  0.00     0.066 H 
ATOM     41  H   LIG d   1       8.941   8.389  -1.958  0.00  0.00     0.066 H 
ENDBRANCH  37  38
ENDBRANCH   9  37
BRANCH   8  42
ATOM     42  O   LIG d   1      10.239   9.230  -3.844  0.00  0.00    -0.491 OA
BRANCH  42  43
ATOM     43  C   LIG d   1       9.518  10.358  -4.342  0.00  0.00     0.079 C 
ATOM     44  H   LIG d   1       8.785  10.023  -5.091  0.00  0.00     0.066 H 
ATOM     45  H   LIG d   1      10.220  11.066  -4.807  0.00  0.00     0.066 H 
ATOM     46  H   LIG d   1       8.993  10.854  -3.513  0.00  0.00     0.066 H 
ENDBRANCH  42  43
ENDBRANCH   8  42
TORSDOF 9
ENDMDL
MODEL 10
REMARK VINA RESULT:      -5.1      1.805      2.680
REMARK  9 active torsions:
REMARK  status: ('A' for Active; 'I' for Inactive)
REMARK    1  A    between atoms: C_1  and  O_2 
REMARK    2  A    between atoms: O_2  and  C_3 
REMARK    3  A    between atoms: C_7  and  N_9 
REMARK       I    between atoms: N_9  and  C_10 
REMARK    4  A    between atoms: C_10  and  C_12 
REMARK    5  A    between atoms: C_12  and  N_13 
REMARK    6  A    between atoms: C_20  and  O_24 
REMARK    7  A    between atoms: C_21  and  O_22 
REMARK    8  A    between atoms: O_22  and  C_23 
REMARK    9  A    between atoms: O_24  and  C_25 
ROOT
ATOM      1  N   LIG d   1      10.501   4.610  -4.130  0.00  0.00    -0.220 N 
ATOM      2  C   LIG d   1      10.321   5.172  -2.918  0.00  0.00     0.279 A 
ATOM      3  O   LIG d   1      10.256   4.482  -1.917  0.00  0.00    -0.265 OA
ATOM      4  C   LIG d   1      10.204   6.631  -2.827  0.00  0.00     0.095 A 
ATOM      5  C   LIG d   1      10.286   7.386  -4.022  0.00  0.00     0.011 A 
ATOM      6  C   LIG d   1      10.180   8.776  -3.971  0.00  0.00    -0.049 A 
ATOM      7  C   LIG d   1       9.996   9.404  -2.758  0.00  0.00    -0.016 A 
ATOM      8  C   LIG d   1       9.913   8.668  -1.580  0.00  0.00     0.162 A 
ATOM      9  C   LIG d   1      10.017   7.283  -1.605  0.00  0.00     0.174 A 
ATOM     10  C   LIG d   1      10.484   6.675  -5.284  0.00  0.00     0.056 A 
ATOM     11  N   LIG d   1      10.584   5.378  -5.292  0.00  0.00    -0.176 NA
ATOM     12  H   LIG d   1      10.242   9.358  -4.878  0.00  0.00     0.062 H 
ATOM     13  H   LIG d   1       9.913  10.480  -2.721  0.00  0.00     0.066 H 
ATOM     14  H   LIG d   1      10.551   7.226  -6.211  0.00  0.00     0.085 H 
ENDROOT
BRANCH   1  15
ATOM     15  C   LIG d   1      10.619   3.153  -4.230  0.00  0.00     0.122 C 
ATOM     16  H   LIG d   1      11.074   2.759  -3.311  0.00  0.00     0.061 H 
ATOM     17  H   LIG d   1      11.250   2.895  -5.093  0.00  0.00     0.061 H 
BRANCH  15  18
ATOM     18  C   LIG d   1       9.249   2.550  -4.412  0.00  0.00     0.239 C 
ATOM     19  N   LIG d   1       8.931   1.400  -3.786  0.00  0.00    -0.284 N 
ATOM     20  H   LIG d   1       9.638   0.947  -3.074  0.00  0.00     0.155 HD
ATOM     21  O   LIG d   1       8.434   3.100  -5.121  0.00  0.00    -0.273 OA
BRANCH  19  22
ATOM     22  C   LIG d   1       7.701   0.782  -4.039  0.00  0.00     0.037 A 
ATOM     23  C   LIG d   1       7.575  -0.104  -5.102  0.00  0.00    -0.040 A 
ATOM     24  C   LIG d   1       6.362  -0.719  -5.348  0.00  0.00    -0.057 A 
ATOM     25  H   LIG d   1       8.425  -0.315  -5.732  0.00  0.00     0.064 H 
ATOM     26  C   LIG d   1       5.272  -0.450  -4.543  0.00  0.00    -0.020 A 
ATOM     27  H   LIG d   1       6.266  -1.410  -6.173  0.00  0.00     0.062 H 
ATOM     28  C   LIG d   1       5.392   0.438  -3.483  0.00  0.00     0.122 A 
ATOM     29  H   LIG d   1       4.326  -0.932  -4.738  0.00  0.00     0.065 H 
ATOM     30  C   LIG d   1       6.607   1.057  -3.232  0.00  0.00     0.001 A 
ATOM     31  H   LIG d   1       6.701   1.748  -2.408  0.00  0.00     0.067 H 
BRANCH  28  32
ATOM     32  O   LIG d   1       4.319   0.700  -2.691  0.00  0.00    -0.495 OA
BRANCH  32  33
ATOM     33  C   LIG d   1       3.123  -0.037  -2.954  0.00  0.00     0.079 C 
ATOM     34  H   LIG d   1       3.333  -0.824  -3.694  0.00  0.00     0.066 H 
ATOM     35  H   LIG d   1       2.353   0.641  -3.348  0.00  0.00     0.066 H 
ATOM     36  H   LIG d   1       2.765  -0.497  -2.022  0.00  0.00     0.066 H 
ENDBRANCH  32  33
ENDBRANCH  28  32
ENDBRANCH  19  22
ENDBRANCH  15  18
ENDBRANCH   1  15
BRANCH   9  37
ATOM     37  O   LIG d   1       9.936   6.569  -0.453  0.00  0.00    -0.491 OA
BRANCH  37  38
ATOM     38  C   LIG d   1      11.061   6.627   0.426  0.00  0.00     0.079 C 
ATOM     39  H   LIG d   1      11.532   5.634   0.484  0.00  0.00     0.066 H 
ATOM     40  H   LIG d   1      10.728   6.933   1.429  0.00  0.00     0.066 H 
ATOM     41  H   LIG d   1      11.790   7.356   0.042  0.00  0.00     0.066 H 
ENDBRANCH  37  38
ENDBRANCH   9  37
BRANCH   8  42
ATOM     42  O   LIG d   1       9.731   9.310  -0.396  0.00  0.00    -0.491 OA
BRANCH  42  43
ATOM     43  C   LIG d   1      10.486  10.505  -0.182  0.00  0.00     0.079 C 
ATOM     44  H   LIG d   1      11.219  10.337   0.621  0.00  0.00     0.066 H 
ATOM     45  H   LIG d   1       9.807  11.321   0.106  0.00  0.00     0.066 H 
ATOM     46  H   LIG d   1      11.014  10.776  -1.108  0.00  0.00     0.066 H 
ENDBRANCH  42  43
ENDBRANCH   8  42
TORSDOF 9
ENDMDL
