MODEL 1
REMARK VINA RESULT:      -6.9      0.000      0.000
REMARK  4 active torsions:
REMARK  status: ('A' for Active; 'I' for Inactive)
REMARK    1  A    between atoms: C_1  and  C_2 
REMARK    2  A    between atoms: C_7  and  O_8 
REMARK    3  A    between atoms: C_9  and  C_14 
REMARK    4  A    between atoms: C_14  and  N_42 
ROOT
ATOM      1  C   LIG d   1       2.771   0.105  -6.698  0.00  0.00    -0.005 C 
ATOM      2  H   LIG d   1       2.238  -0.839  -6.799  0.00  0.00     0.087 H 
ATOM      3  H   LIG d   1       2.071   0.888  -6.403  0.00  0.00     0.087 H 
ENDROOT
BRANCH   1   4
ATOM      4  C   LIG d   1       3.404   0.469  -8.016  0.00  0.00     0.015 A 
ATOM      5  C   LIG d   1       2.956  -0.158  -9.264  0.00  0.00     0.029 A 
ATOM      6  C   LIG d   1       3.571   0.215 -10.473  0.00  0.00     0.140 A 
ATOM      7  C   LIG d   1       1.933  -1.109  -9.265  0.00  0.00    -0.009 A 
ATOM      8  C   LIG d   1       3.153  -0.368 -11.662  0.00  0.00    -0.012 A 
ATOM      9  O   LIG d   1       4.564   1.131 -10.467  0.00  0.00    -0.422 OA
ATOM     10  C   LIG d   1       2.150  -1.313 -11.651  0.00  0.00    -0.005 A 
ATOM     11  H   LIG d   1       3.622  -0.090 -12.594  0.00  0.00     0.066 H 
ATOM     12  C   LIG d   1       1.536  -1.682 -10.458  0.00  0.00     0.120 A 
ATOM     13  C   LIG d   1       4.982   1.705  -9.328  0.00  0.00     0.338 A 
ATOM     14  C   LIG d   1       4.406   1.381  -8.080  0.00  0.00     0.032 A 
ATOM     15  O   LIG d   1       5.880   2.526  -9.372  0.00  0.00    -0.245 OA
ATOM     16  H   LIG d   1       4.763   1.859  -7.180  0.00  0.00     0.069 H 
ATOM     17  H   LIG d   1       1.455  -1.395  -8.340  0.00  0.00     0.066 H 
BRANCH  10  18
ATOM     18  C   LIG d   1       1.706  -1.946 -12.946  0.00  0.00    -0.036 C 
ATOM     19  H   LIG d   1       2.319  -2.823 -13.150  0.00  0.00     0.028 H 
ATOM     20  H   LIG d   1       0.660  -2.243 -12.865  0.00  0.00     0.028 H 
ATOM     21  H   LIG d   1       1.817  -1.228 -13.758  0.00  0.00     0.028 H 
ENDBRANCH  10  18
BRANCH  12  22
ATOM     22  O   LIG d   1       0.540  -2.609 -10.466  0.00  0.00    -0.506 OA
ATOM     23  H   LIG d   1       0.849  -3.520 -10.372  0.00  0.00     0.292 HD
ENDBRANCH  12  22
ENDBRANCH   1   4
BRANCH   1  24
ATOM     24  N   LIG d   1       3.838   0.020  -5.687  0.00  0.00     0.238 N 
ATOM     25  C   LIG d   1       4.396  -1.375  -5.661  0.00  0.00    -0.032 C 
ATOM     26  C   LIG d   1       5.258  -1.634  -4.455  0.00  0.00    -0.013 C 
ATOM     27  H   LIG d   1       3.589  -2.109  -5.682  0.00  0.00     0.081 H 
ATOM     28  H   LIG d   1       5.003  -1.495  -6.559  0.00  0.00     0.081 H 
ATOM     29  C   LIG d   1       4.392  -2.313  -3.372  0.00  0.00    -0.048 C 
ATOM     30  H   LIG d   1       5.649  -0.691  -4.072  0.00  0.00     0.032 H 
ATOM     31  H   LIG d   1       6.083  -2.290  -4.729  0.00  0.00     0.032 H 
ATOM     32  C   LIG d   1       3.550  -1.357  -2.663  0.00  0.00    -0.048 C 
ATOM     33  H   LIG d   1       5.047  -2.808  -2.656  0.00  0.00     0.027 H 
ATOM     34  H   LIG d   1       3.758  -3.061  -3.847  0.00  0.00     0.027 H 
ATOM     35  C   LIG d   1       2.558  -0.643  -3.606  0.00  0.00    -0.013 C 
ATOM     36  H   LIG d   1       2.988  -1.885  -1.893  0.00  0.00     0.027 H 
ATOM     37  H   LIG d   1       4.185  -0.610  -2.188  0.00  0.00     0.027 H 
ATOM     38  C   LIG d   1       3.298   0.435  -4.348  0.00  0.00    -0.032 C 
ATOM     39  H   LIG d   1       2.146  -1.360  -4.315  0.00  0.00     0.032 H 
ATOM     40  H   LIG d   1       1.753  -0.198  -3.021  0.00  0.00     0.032 H 
ATOM     41  H   LIG d   1       2.627   1.280  -4.503  0.00  0.00     0.081 H 
ATOM     42  H   LIG d   1       4.142   0.765  -3.742  0.00  0.00     0.081 H 
ATOM     43  H   LIG d   1       4.593   0.666  -5.947  0.00  0.00     0.204 HD
ENDBRANCH   1  24
TORSDOF 4
ENDMDL
MODEL 2
REMARK VINA RESULT:      -6.5      2.482      4.198
REMARK  4 active torsions:
REMARK  status: ('A' for Active; 'I' for Inactive)
REMARK    1  A    between atoms: C_1  and  C_2 
REMARK    2  A    between atoms: C_7  and  O_8 
REMARK    3  A    between atoms: C_9  and  C_14 
REMARK    4  A    between atoms: C_14  and  N_42 
ROOT
ATOM      1  C   LIG d   1       5.472  -1.579  -5.401  0.00  0.00    -0.005 C 
ATOM      2  H   LIG d   1       5.473  -0.592  -5.862  0.00  0.00     0.087 H 
ATOM      3  H   LIG d   1       6.500  -1.904  -5.236  0.00  0.00     0.087 H 
ENDROOT
BRANCH   1   4
ATOM      4  C   LIG d   1       4.775  -2.558  -6.311  0.00  0.00     0.015 A 
ATOM      5  C   LIG d   1       4.265  -2.138  -7.620  0.00  0.00     0.029 A 
ATOM      6  C   LIG d   1       3.627  -3.086  -8.439  0.00  0.00     0.140 A 
ATOM      7  C   LIG d   1       4.410  -0.819  -8.059  0.00  0.00    -0.009 A 
ATOM      8  C   LIG d   1       3.143  -2.701  -9.683  0.00  0.00    -0.012 A 
ATOM      9  O   LIG d   1       3.484  -4.359  -8.008  0.00  0.00    -0.422 OA
ATOM     10  C   LIG d   1       3.281  -1.396 -10.103  0.00  0.00    -0.005 A 
ATOM     11  H   LIG d   1       2.648  -3.422 -10.316  0.00  0.00     0.066 H 
ATOM     12  C   LIG d   1       3.917  -0.455  -9.297  0.00  0.00     0.120 A 
ATOM     13  C   LIG d   1       3.944  -4.749  -6.810  0.00  0.00     0.338 A 
ATOM     14  C   LIG d   1       4.600  -3.851  -5.939  0.00  0.00     0.032 A 
ATOM     15  O   LIG d   1       3.793  -5.906  -6.463  0.00  0.00    -0.245 OA
ATOM     16  H   LIG d   1       4.959  -4.193  -4.980  0.00  0.00     0.069 H 
ATOM     17  H   LIG d   1       4.904  -0.089  -7.435  0.00  0.00     0.066 H 
BRANCH  10  18
ATOM     18  C   LIG d   1       2.748  -0.984 -11.451  0.00  0.00    -0.036 C 
ATOM     19  H   LIG d   1       2.056  -0.152 -11.330  0.00  0.00     0.028 H 
ATOM     20  H   LIG d   1       3.577  -0.679 -12.091  0.00  0.00     0.028 H 
ATOM     21  H   LIG d   1       2.228  -1.826 -11.909  0.00  0.00     0.028 H 
ENDBRANCH  10  18
BRANCH  12  22
ATOM     22  O   LIG d   1       4.054   0.827  -9.730  0.00  0.00    -0.506 OA
ATOM     23  H   LIG d   1       3.628   1.482  -9.162  0.00  0.00     0.292 HD
ENDBRANCH  12  22
ENDBRANCH   1   4
BRANCH   1  24
ATOM     24  N   LIG d   1       4.765  -1.574  -4.110  0.00  0.00     0.238 N 
ATOM     25  C   LIG d   1       3.531  -0.724  -4.215  0.00  0.00    -0.032 C 
ATOM     26  C   LIG d   1       2.927  -0.406  -2.873  0.00  0.00    -0.013 C 
ATOM     27  H   LIG d   1       3.753   0.210  -4.732  0.00  0.00     0.081 H 
ATOM     28  H   LIG d   1       2.804  -1.285  -4.803  0.00  0.00     0.081 H 
ATOM     29  C   LIG d   1       3.441   0.977  -2.421  0.00  0.00    -0.048 C 
ATOM     30  H   LIG d   1       3.226  -1.163  -2.147  0.00  0.00     0.032 H 
ATOM     31  H   LIG d   1       1.841  -0.385  -2.957  0.00  0.00     0.032 H 
ATOM     32  C   LIG d   1       4.796   0.911  -1.885  0.00  0.00    -0.048 C 
ATOM     33  H   LIG d   1       2.774   1.368  -1.653  0.00  0.00     0.027 H 
ATOM     34  H   LIG d   1       3.431   1.653  -3.276  0.00  0.00     0.027 H 
ATOM     35  C   LIG d   1       5.813   0.408  -2.930  0.00  0.00    -0.013 C 
ATOM     36  H   LIG d   1       5.093   1.906  -1.553  0.00  0.00     0.027 H 
ATOM     37  H   LIG d   1       4.805   0.236  -1.030  0.00  0.00     0.027 H 
ATOM     38  C   LIG d   1       5.692  -1.088  -3.031  0.00  0.00    -0.032 C 
ATOM     39  H   LIG d   1       5.598   0.858  -3.898  0.00  0.00     0.032 H 
ATOM     40  H   LIG d   1       6.822   0.673  -2.616  0.00  0.00     0.032 H 
ATOM     41  H   LIG d   1       6.680  -1.509  -3.220  0.00  0.00     0.081 H 
ATOM     42  H   LIG d   1       5.322  -1.476  -2.082  0.00  0.00     0.081 H 
ATOM     43  H   LIG d   1       4.480  -2.534  -3.884  0.00  0.00     0.204 HD
ENDBRANCH   1  24
TORSDOF 4
ENDMDL
MODEL 3
REMARK VINA RESULT:      -6.4      5.030      7.829
REMARK  4 active torsions:
REMARK  status: ('A' for Active; 'I' for Inactive)
REMARK    1  A    between atoms: C_1  and  C_2 
REMARK    2  A    between atoms: C_7  and  O_8 
REMARK    3  A    between atoms: C_9  and  C_14 
REMARK    4  A    between atoms: C_14  and  N_42 
ROOT
ATOM      1  C   LIG d   1       7.573   0.048  -4.685  0.00  0.00    -0.005 C 
ATOM      2  H   LIG d   1       8.139  -0.001  -3.755  0.00  0.00     0.087 H 
ATOM      3  H   LIG d   1       7.648  -0.906  -5.207  0.00  0.00     0.087 H 
ENDROOT
BRANCH   1   4
ATOM      4  C   LIG d   1       8.132   1.143  -5.557  0.00  0.00     0.015 A 
ATOM      5  C   LIG d   1       9.089   2.117  -5.023  0.00  0.00     0.029 A 
ATOM      6  C   LIG d   1       9.590   3.118  -5.873  0.00  0.00     0.140 A 
ATOM      7  C   LIG d   1       9.507   2.058  -3.690  0.00  0.00    -0.009 A 
ATOM      8  C   LIG d   1      10.500   4.044  -5.380  0.00  0.00    -0.012 A 
ATOM      9  O   LIG d   1       9.178   3.175  -7.159  0.00  0.00    -0.422 OA
ATOM     10  C   LIG d   1      10.899   3.984  -4.062  0.00  0.00    -0.005 A 
ATOM     11  H   LIG d   1      10.886   4.818  -6.025  0.00  0.00     0.066 H 
ATOM     12  C   LIG d   1      10.409   2.992  -3.217  0.00  0.00     0.120 A 
ATOM     13  C   LIG d   1       8.299   2.290  -7.653  0.00  0.00     0.338 A 
ATOM     14  C   LIG d   1       7.760   1.256  -6.857  0.00  0.00     0.032 A 
ATOM     15  O   LIG d   1       7.957   2.380  -8.819  0.00  0.00    -0.245 OA
ATOM     16  H   LIG d   1       7.054   0.558  -7.282  0.00  0.00     0.069 H 
ATOM     17  H   LIG d   1       9.129   1.288  -3.035  0.00  0.00     0.066 H 
BRANCH  10  18
ATOM     18  C   LIG d   1      11.882   4.996  -3.532  0.00  0.00    -0.036 C 
ATOM     19  H   LIG d   1      12.171   4.725  -2.518  0.00  0.00     0.028 H 
ATOM     20  H   LIG d   1      12.766   5.012  -4.171  0.00  0.00     0.028 H 
ATOM     21  H   LIG d   1      11.420   5.983  -3.527  0.00  0.00     0.028 H 
ENDBRANCH  10  18
BRANCH  12  22
ATOM     22  O   LIG d   1      10.820   2.940  -1.922  0.00  0.00    -0.506 OA
ATOM     23  H   LIG d   1      11.450   2.231  -1.737  0.00  0.00     0.292 HD
ENDBRANCH  12  22
ENDBRANCH   1   4
BRANCH   1  24
ATOM     24  N   LIG d   1       6.151   0.342  -4.439  0.00  0.00     0.238 N 
ATOM     25  C   LIG d   1       6.018   1.190  -3.207  0.00  0.00    -0.032 C 
ATOM     26  C   LIG d   1       4.601   1.270  -2.705  0.00  0.00    -0.013 C 
ATOM     27  H   LIG d   1       6.653   0.805  -2.408  0.00  0.00     0.081 H 
ATOM     28  H   LIG d   1       6.355   2.193  -3.469  0.00  0.00     0.081 H 
ATOM     29  C   LIG d   1       4.414   0.212  -1.598  0.00  0.00    -0.048 C 
ATOM     30  H   LIG d   1       3.910   1.069  -3.524  0.00  0.00     0.032 H 
ATOM     31  H   LIG d   1       4.413   2.264  -2.300  0.00  0.00     0.032 H 
ATOM     32  C   LIG d   1       4.229  -1.127  -2.143  0.00  0.00    -0.048 C 
ATOM     33  H   LIG d   1       3.541   0.475  -1.002  0.00  0.00     0.027 H 
ATOM     34  H   LIG d   1       5.294   0.215  -0.955  0.00  0.00     0.027 H 
ATOM     35  C   LIG d   1       5.448  -1.595  -2.967  0.00  0.00    -0.013 C 
ATOM     36  H   LIG d   1       4.070  -1.825  -1.321  0.00  0.00     0.027 H 
ATOM     37  H   LIG d   1       3.348  -1.130  -2.784  0.00  0.00     0.027 H 
ATOM     38  C   LIG d   1       5.385  -0.945  -4.322  0.00  0.00    -0.032 C 
ATOM     39  H   LIG d   1       6.366  -1.300  -2.462  0.00  0.00     0.032 H 
ATOM     40  H   LIG d   1       5.420  -2.678  -3.079  0.00  0.00     0.032 H 
ATOM     41  H   LIG d   1       5.777  -1.640  -5.064  0.00  0.00     0.081 H 
ATOM     42  H   LIG d   1       4.343  -0.730  -4.561  0.00  0.00     0.081 H 
ATOM     43  H   LIG d   1       5.779   0.870  -5.238  0.00  0.00     0.204 HD
ENDBRANCH   1  24
TORSDOF 4
ENDMDL
MODEL 4
REMARK VINA RESULT:      -6.3      5.224      7.516
REMARK  4 active torsions:
REMARK  status: ('A' for Active; 'I' for Inactive)
REMARK    1  A    between atoms: C_1  and  C_2 
REMARK    2  A    between atoms: C_7  and  O_8 
REMARK    3  A    between atoms: C_9  and  C_14 
REMARK    4  A    between atoms: C_14  and  N_42 
ROOT
ATOM      1  C   LIG d   1       5.376  -1.854  -5.093  0.00  0.00    -0.005 C 
ATOM      2  H   LIG d   1       4.930  -1.428  -5.992  0.00  0.00     0.087 H 
ATOM      3  H   LIG d   1       6.332  -1.368  -4.898  0.00  0.00     0.087 H 
ENDROOT
BRANCH   1   4
ATOM      4  C   LIG d   1       5.595  -3.331  -5.292  0.00  0.00     0.015 A 
ATOM      5  C   LIG d   1       6.885  -3.951  -4.973  0.00  0.00     0.029 A 
ATOM      6  C   LIG d   1       7.043  -5.334  -5.167  0.00  0.00     0.140 A 
ATOM      7  C   LIG d   1       7.946  -3.189  -4.478  0.00  0.00    -0.009 A 
ATOM      8  C   LIG d   1       8.259  -5.933  -4.865  0.00  0.00    -0.012 A 
ATOM      9  O   LIG d   1       6.016  -6.067  -5.652  0.00  0.00    -0.422 OA
ATOM     10  C   LIG d   1       9.304  -5.172  -4.388  0.00  0.00    -0.005 A 
ATOM     11  H   LIG d   1       8.390  -6.995  -5.016  0.00  0.00     0.066 H 
ATOM     12  C   LIG d   1       9.150  -3.803  -4.189  0.00  0.00     0.120 A 
ATOM     13  C   LIG d   1       4.835  -5.506  -5.950  0.00  0.00     0.338 A 
ATOM     14  C   LIG d   1       4.605  -4.124  -5.774  0.00  0.00     0.032 A 
ATOM     15  O   LIG d   1       3.937  -6.206  -6.384  0.00  0.00    -0.245 OA
ATOM     16  H   LIG d   1       3.644  -3.699  -6.023  0.00  0.00     0.069 H 
ATOM     17  H   LIG d   1       7.827  -2.127  -4.322  0.00  0.00     0.066 H 
BRANCH  10  18
ATOM     18  C   LIG d   1      10.622  -5.829  -4.068  0.00  0.00    -0.036 C 
ATOM     19  H   LIG d   1      11.415  -5.348  -4.639  0.00  0.00     0.028 H 
ATOM     20  H   LIG d   1      10.829  -5.728  -3.002  0.00  0.00     0.028 H 
ATOM     21  H   LIG d   1      10.575  -6.885  -4.329  0.00  0.00     0.028 H 
ENDBRANCH  10  18
BRANCH  12  22
ATOM     22  O   LIG d   1      10.187  -3.067  -3.707  0.00  0.00    -0.506 OA
ATOM     23  H   LIG d   1      11.057  -3.378  -3.992  0.00  0.00     0.292 HD
ENDBRANCH  12  22
ENDBRANCH   1   4
BRANCH   1  24
ATOM     24  N   LIG d   1       4.506  -1.674  -3.920  0.00  0.00     0.238 N 
ATOM     25  C   LIG d   1       3.461  -0.638  -4.222  0.00  0.00    -0.032 C 
ATOM     26  C   LIG d   1       2.738  -0.165  -2.989  0.00  0.00    -0.013 C 
ATOM     27  H   LIG d   1       3.910   0.223  -4.718  0.00  0.00     0.081 H 
ATOM     28  H   LIG d   1       2.739  -1.096  -4.898  0.00  0.00     0.081 H 
ATOM     29  C   LIG d   1       3.410   1.133  -2.494  0.00  0.00    -0.048 C 
ATOM     30  H   LIG d   1       2.797  -0.928  -2.212  0.00  0.00     0.032 H 
ATOM     31  H   LIG d   1       1.693   0.032  -3.232  0.00  0.00     0.032 H 
ATOM     32  C   LIG d   1       4.644   0.867  -1.764  0.00  0.00    -0.048 C 
ATOM     33  H   LIG d   1       2.718   1.662  -1.840  0.00  0.00     0.027 H 
ATOM     34  H   LIG d   1       3.636   1.763  -3.354  0.00  0.00     0.027 H 
ATOM     35  C   LIG d   1       5.698   0.156  -2.639  0.00  0.00    -0.013 C 
ATOM     36  H   LIG d   1       5.057   1.812  -1.412  0.00  0.00     0.027 H 
ATOM     37  H   LIG d   1       4.418   0.238  -0.904  0.00  0.00     0.027 H 
ATOM     38  C   LIG d   1       5.340  -1.302  -2.727  0.00  0.00    -0.032 C 
ATOM     39  H   LIG d   1       5.701   0.593  -3.637  0.00  0.00     0.032 H 
ATOM     40  H   LIG d   1       6.683   0.264  -2.186  0.00  0.00     0.032 H 
ATOM     41  H   LIG d   1       6.258  -1.888  -2.761  0.00  0.00     0.081 H 
ATOM     42  H   LIG d   1       4.779  -1.581  -1.835  0.00  0.00     0.081 H 
ATOM     43  H   LIG d   1       4.032  -2.563  -3.720  0.00  0.00     0.204 HD
ENDBRANCH   1  24
TORSDOF 4
ENDMDL
MODEL 5
REMARK VINA RESULT:      -6.2      5.120      6.358
REMARK  4 active torsions:
REMARK  status: ('A' for Active; 'I' for Inactive)
REMARK    1  A    between atoms: C_1  and  C_2 
REMARK    2  A    between atoms: C_7  and  O_8 
REMARK    3  A    between atoms: C_9  and  C_14 
REMARK    4  A    between atoms: C_14  and  N_42 
ROOT
ATOM      1  C   LIG d   1       6.139  -1.928  -4.821  0.00  0.00    -0.005 C 
ATOM      2  H   LIG d   1       5.489  -1.810  -5.688  0.00  0.00     0.087 H 
ATOM      3  H   LIG d   1       6.904  -1.150  -4.832  0.00  0.00     0.087 H 
ENDROOT
BRANCH   1   4
ATOM      4  C   LIG d   1       6.798  -3.282  -4.867  0.00  0.00     0.015 A 
ATOM      5  C   LIG d   1       6.137  -4.420  -5.515  0.00  0.00     0.029 A 
ATOM      6  C   LIG d   1       6.791  -5.664  -5.540  0.00  0.00     0.140 A 
ATOM      7  C   LIG d   1       4.878  -4.280  -6.104  0.00  0.00    -0.009 A 
ATOM      8  C   LIG d   1       6.177  -6.748  -6.154  0.00  0.00    -0.012 A 
ATOM      9  O   LIG d   1       8.006  -5.796  -4.964  0.00  0.00    -0.422 OA
ATOM     10  C   LIG d   1       4.931  -6.603  -6.723  0.00  0.00    -0.005 A 
ATOM     11  H   LIG d   1       6.671  -7.708  -6.174  0.00  0.00     0.066 H 
ATOM     12  C   LIG d   1       4.282  -5.372  -6.704  0.00  0.00     0.120 A 
ATOM     13  C   LIG d   1       8.615  -4.761  -4.365  0.00  0.00     0.338 A 
ATOM     14  C   LIG d   1       8.018  -3.482  -4.308  0.00  0.00     0.032 A 
ATOM     15  O   LIG d   1       9.710  -4.927  -3.859  0.00  0.00    -0.245 OA
ATOM     16  H   LIG d   1       8.531  -2.667  -3.819  0.00  0.00     0.069 H 
ATOM     17  H   LIG d   1       4.374  -3.325  -6.091  0.00  0.00     0.066 H 
BRANCH  10  18
ATOM     18  C   LIG d   1       4.268  -7.786  -7.382  0.00  0.00    -0.036 C 
ATOM     19  H   LIG d   1       4.150  -8.588  -6.655  0.00  0.00     0.028 H 
ATOM     20  H   LIG d   1       3.289  -7.490  -7.760  0.00  0.00     0.028 H 
ATOM     21  H   LIG d   1       4.886  -8.134  -8.210  0.00  0.00     0.028 H 
ENDBRANCH  10  18
BRANCH  12  22
ATOM     22  O   LIG d   1       3.056  -5.243  -7.280  0.00  0.00    -0.506 OA
ATOM     23  H   LIG d   1       2.466  -4.634  -6.817  0.00  0.00     0.292 HD
ENDBRANCH  12  22
ENDBRANCH   1   4
BRANCH   1  24
ATOM     24  N   LIG d   1       5.385  -1.830  -3.561  0.00  0.00     0.238 N 
ATOM     25  C   LIG d   1       3.957  -1.467  -3.855  0.00  0.00    -0.032 C 
ATOM     26  C   LIG d   1       3.200  -1.038  -2.627  0.00  0.00    -0.013 C 
ATOM     27  H   LIG d   1       3.911  -0.667  -4.594  0.00  0.00     0.081 H 
ATOM     28  H   LIG d   1       3.479  -2.355  -4.270  0.00  0.00     0.081 H 
ATOM     29  C   LIG d   1       3.230   0.502  -2.547  0.00  0.00    -0.048 C 
ATOM     30  H   LIG d   1       3.672  -1.460  -1.738  0.00  0.00     0.032 H 
ATOM     31  H   LIG d   1       2.168  -1.383  -2.694  0.00  0.00     0.032 H 
ATOM     32  C   LIG d   1       4.501   1.001  -2.035  0.00  0.00    -0.048 C 
ATOM     33  H   LIG d   1       2.427   0.838  -1.891  0.00  0.00     0.027 H 
ATOM     34  H   LIG d   1       3.065   0.910  -3.544  0.00  0.00     0.027 H 
ATOM     35  C   LIG d   1       5.689   0.605  -2.937  0.00  0.00    -0.013 C 
ATOM     36  H   LIG d   1       4.454   2.088  -1.970  0.00  0.00     0.027 H 
ATOM     37  H   LIG d   1       4.664   0.594  -1.038  0.00  0.00     0.027 H 
ATOM     38  C   LIG d   1       6.045  -0.829  -2.655  0.00  0.00    -0.032 C 
ATOM     39  H   LIG d   1       5.406   0.714  -3.984  0.00  0.00     0.032 H 
ATOM     40  H   LIG d   1       6.544   1.244  -2.718  0.00  0.00     0.032 H 
ATOM     41  H   LIG d   1       7.124  -0.948  -2.749  0.00  0.00     0.081 H 
ATOM     42  H   LIG d   1       5.753  -1.069  -1.633  0.00  0.00     0.081 H 
ATOM     43  H   LIG d   1       5.397  -2.746  -3.095  0.00  0.00     0.204 HD
ENDBRANCH   1  24
TORSDOF 4
ENDMDL
MODEL 6
REMARK VINA RESULT:      -6.1      2.346      2.821
REMARK  4 active torsions:
REMARK  status: ('A' for Active; 'I' for Inactive)
REMARK    1  A    between atoms: C_1  and  C_2 
REMARK    2  A    between atoms: C_7  and  O_8 
REMARK    3  A    between atoms: C_9  and  C_14 
REMARK    4  A    between atoms: C_14  and  N_42 
ROOT
ATOM      1  C   LIG d   1       5.872  -0.999  -5.828  0.00  0.00    -0.005 C 
ATOM      2  H   LIG d   1       6.959  -1.015  -5.763  0.00  0.00     0.087 H 
ATOM      3  H   LIG d   1       5.471  -1.938  -5.445  0.00  0.00     0.087 H 
ENDROOT
BRANCH   1   4
ATOM      4  C   LIG d   1       5.457  -0.826  -7.266  0.00  0.00     0.015 A 
ATOM      5  C   LIG d   1       4.703  -1.872  -7.964  0.00  0.00     0.029 A 
ATOM      6  C   LIG d   1       4.331  -1.667  -9.304  0.00  0.00     0.140 A 
ATOM      7  C   LIG d   1       4.350  -3.059  -7.315  0.00  0.00    -0.009 A 
ATOM      8  C   LIG d   1       3.614  -2.649  -9.974  0.00  0.00    -0.012 A 
ATOM      9  O   LIG d   1       4.680  -0.521  -9.930  0.00  0.00    -0.422 OA
ATOM     10  C   LIG d   1       3.279  -3.820  -9.329  0.00  0.00    -0.005 A 
ATOM     11  H   LIG d   1       3.328  -2.500 -11.005  0.00  0.00     0.066 H 
ATOM     12  C   LIG d   1       3.641  -4.026  -8.001  0.00  0.00     0.120 A 
ATOM     13  C   LIG d   1       5.374   0.439  -9.299  0.00  0.00     0.338 A 
ATOM     14  C   LIG d   1       5.774   0.301  -7.952  0.00  0.00     0.032 A 
ATOM     15  O   LIG d   1       5.665   1.455  -9.903  0.00  0.00    -0.245 OA
ATOM     16  H   LIG d   1       6.333   1.090  -7.470  0.00  0.00     0.069 H 
ATOM     17  H   LIG d   1       4.629  -3.219  -6.284  0.00  0.00     0.066 H 
BRANCH  10  18
ATOM     18  C   LIG d   1       2.505  -4.884 -10.065  0.00  0.00    -0.036 C 
ATOM     19  H   LIG d   1       2.829  -4.915 -11.104  0.00  0.00     0.028 H 
ATOM     20  H   LIG d   1       2.685  -5.852  -9.598  0.00  0.00     0.028 H 
ATOM     21  H   LIG d   1       1.441  -4.653 -10.024  0.00  0.00     0.028 H 
ENDBRANCH  10  18
BRANCH  12  22
ATOM     22  O   LIG d   1       3.294  -5.183  -7.375  0.00  0.00    -0.506 OA
ATOM     23  H   LIG d   1       3.450  -5.978  -7.903  0.00  0.00     0.292 HD
ENDBRANCH  12  22
ENDBRANCH   1   4
BRANCH   1  24
ATOM     24  N   LIG d   1       5.298   0.112  -5.051  0.00  0.00     0.238 N 
ATOM     25  C   LIG d   1       6.046   0.259  -3.756  0.00  0.00    -0.032 C 
ATOM     26  C   LIG d   1       5.336   1.148  -2.771  0.00  0.00    -0.013 C 
ATOM     27  H   LIG d   1       6.209  -0.717  -3.296  0.00  0.00     0.081 H 
ATOM     28  H   LIG d   1       7.015   0.701  -3.993  0.00  0.00     0.081 H 
ATOM     29  C   LIG d   1       4.514   0.260  -1.814  0.00  0.00    -0.048 C 
ATOM     30  H   LIG d   1       4.669   1.828  -3.304  0.00  0.00     0.032 H 
ATOM     31  H   LIG d   1       6.068   1.721  -2.202  0.00  0.00     0.032 H 
ATOM     32  C   LIG d   1       3.269  -0.196  -2.422  0.00  0.00    -0.048 C 
ATOM     33  H   LIG d   1       4.281   0.830  -0.915  0.00  0.00     0.027 H 
ATOM     34  H   LIG d   1       5.112  -0.608  -1.539  0.00  0.00     0.027 H 
ATOM     35  C   LIG d   1       3.514  -1.052  -3.682  0.00  0.00    -0.013 C 
ATOM     36  H   LIG d   1       2.716  -0.789  -1.693  0.00  0.00     0.027 H 
ATOM     37  H   LIG d   1       2.671   0.673  -2.696  0.00  0.00     0.027 H 
ATOM     38  C   LIG d   1       3.832  -0.133  -4.829  0.00  0.00    -0.032 C 
ATOM     39  H   LIG d   1       4.351  -1.727  -3.510  0.00  0.00     0.032 H 
ATOM     40  H   LIG d   1       2.618  -1.628  -3.913  0.00  0.00     0.032 H 
ATOM     41  H   LIG d   1       3.419  -0.555  -5.744  0.00  0.00     0.081 H 
ATOM     42  H   LIG d   1       3.362   0.834  -4.646  0.00  0.00     0.081 H 
ATOM     43  H   LIG d   1       5.405   0.981  -5.587  0.00  0.00     0.204 HD
ENDBRANCH   1  24
TORSDOF 4
ENDMDL
MODEL 7
REMARK VINA RESULT:      -6.1      2.969      7.115
REMARK  4 active torsions:
REMARK  status: ('A' for Active; 'I' for Inactive)
REMARK    1  A    between atoms: C_1  and  C_2 
REMARK    2  A    between atoms: C_7  and  O_8 
REMARK    3  A    between atoms: C_9  and  C_14 
REMARK    4  A    between atoms: C_14  and  N_42 
ROOT
ATOM      1  C   LIG d   1       5.497  -1.709  -8.069  0.00  0.00    -0.005 C 
ATOM      2  H   LIG d   1       6.237  -2.248  -8.660  0.00  0.00     0.087 H 
ATOM      3  H   LIG d   1       5.940  -0.789  -7.685  0.00  0.00     0.087 H 
ENDROOT
BRANCH   1   4
ATOM      4  C   LIG d   1       5.050  -2.570  -6.916  0.00  0.00     0.015 A 
ATOM      5  C   LIG d   1       4.925  -2.013  -5.565  0.00  0.00     0.029 A 
ATOM      6  C   LIG d   1       4.499  -2.850  -4.519  0.00  0.00     0.140 A 
ATOM      7  C   LIG d   1       5.218  -0.670  -5.310  0.00  0.00    -0.009 A 
ATOM      8  C   LIG d   1       4.372  -2.334  -3.236  0.00  0.00    -0.012 A 
ATOM      9  O   LIG d   1       4.222  -4.150  -4.769  0.00  0.00    -0.422 OA
ATOM     10  C   LIG d   1       4.673  -1.012  -2.992  0.00  0.00    -0.005 A 
ATOM     11  H   LIG d   1       4.050  -2.972  -2.427  0.00  0.00     0.066 H 
ATOM     12  C   LIG d   1       5.091  -0.177  -4.026  0.00  0.00     0.120 A 
ATOM     13  C   LIG d   1       4.340  -4.667  -6.001  0.00  0.00     0.338 A 
ATOM     14  C   LIG d   1       4.757  -3.881  -7.098  0.00  0.00     0.032 A 
ATOM     15  O   LIG d   1       4.079  -5.843  -6.179  0.00  0.00    -0.245 OA
ATOM     16  H   LIG d   1       4.843  -4.325  -8.079  0.00  0.00     0.069 H 
ATOM     17  H   LIG d   1       5.540  -0.022  -6.111  0.00  0.00     0.066 H 
BRANCH  10  18
ATOM     18  C   LIG d   1       4.539  -0.460  -1.596  0.00  0.00    -0.036 C 
ATOM     19  H   LIG d   1       3.758   0.299  -1.579  0.00  0.00     0.028 H 
ATOM     20  H   LIG d   1       4.278  -1.267  -0.910  0.00  0.00     0.028 H 
ATOM     21  H   LIG d   1       5.485  -0.015  -1.289  0.00  0.00     0.028 H 
ENDBRANCH  10  18
BRANCH  12  22
ATOM     22  O   LIG d   1       5.374   1.128  -3.770  0.00  0.00    -0.506 OA
ATOM     23  H   LIG d   1       5.564   1.316  -2.841  0.00  0.00     0.292 HD
ENDBRANCH  12  22
ENDBRANCH   1   4
BRANCH   1  24
ATOM     24  N   LIG d   1       4.311  -1.365  -8.869  0.00  0.00     0.238 N 
ATOM     25  C   LIG d   1       4.640  -1.476 -10.331  0.00  0.00    -0.032 C 
ATOM     26  C   LIG d   1       3.596  -0.843 -11.211  0.00  0.00    -0.013 C 
ATOM     27  H   LIG d   1       5.605  -1.015 -10.541  0.00  0.00     0.081 H 
ATOM     28  H   LIG d   1       4.700  -2.539 -10.566  0.00  0.00     0.081 H 
ATOM     29  C   LIG d   1       4.051   0.591 -11.556  0.00  0.00    -0.048 C 
ATOM     30  H   LIG d   1       2.642  -0.808 -10.685  0.00  0.00     0.032 H 
ATOM     31  H   LIG d   1       3.490  -1.424 -12.127  0.00  0.00     0.032 H 
ATOM     32  C   LIG d   1       3.806   1.522 -10.461  0.00  0.00    -0.048 C 
ATOM     33  H   LIG d   1       3.510   0.931 -12.438  0.00  0.00     0.027 H 
ATOM     34  H   LIG d   1       5.118   0.578 -11.778  0.00  0.00     0.027 H 
ATOM     35  C   LIG d   1       4.576   1.134  -9.181  0.00  0.00    -0.013 C 
ATOM     36  H   LIG d   1       4.115   2.521 -10.770  0.00  0.00     0.027 H 
ATOM     37  H   LIG d   1       2.739   1.535 -10.240  0.00  0.00     0.027 H 
ATOM     38  C   LIG d   1       3.838   0.013  -8.502  0.00  0.00    -0.032 C 
ATOM     39  H   LIG d   1       5.581   0.805  -9.444  0.00  0.00     0.032 H 
ATOM     40  H   LIG d   1       4.632   1.993  -8.513  0.00  0.00     0.032 H 
ATOM     41  H   LIG d   1       3.940   0.128  -7.423  0.00  0.00     0.081 H 
ATOM     42  H   LIG d   1       2.782   0.079  -8.763  0.00  0.00     0.081 H 
ATOM     43  H   LIG d   1       3.561  -2.033  -8.654  0.00  0.00     0.204 HD
ENDBRANCH   1  24
TORSDOF 4
ENDMDL
MODEL 8
REMARK VINA RESULT:      -6.0      3.685      5.025
REMARK  4 active torsions:
REMARK  status: ('A' for Active; 'I' for Inactive)
REMARK    1  A    between atoms: C_1  and  C_2 
REMARK    2  A    between atoms: C_7  and  O_8 
REMARK    3  A    between atoms: C_9  and  C_14 
REMARK    4  A    between atoms: C_14  and  N_42 
ROOT
ATOM      1  C   LIG d   1       4.944  -1.907  -5.828  0.00  0.00    -0.005 C 
ATOM      2  H   LIG d   1       5.401  -0.968  -6.140  0.00  0.00     0.087 H 
ATOM      3  H   LIG d   1       5.707  -2.556  -5.396  0.00  0.00     0.087 H 
ENDROOT
BRANCH   1   4
ATOM      4  C   LIG d   1       4.325  -2.585  -7.022  0.00  0.00     0.015 A 
ATOM      5  C   LIG d   1       4.326  -4.047  -7.142  0.00  0.00     0.029 A 
ATOM      6  C   LIG d   1       3.732  -4.639  -8.271  0.00  0.00     0.140 A 
ATOM      7  C   LIG d   1       4.901  -4.850  -6.153  0.00  0.00    -0.009 A 
ATOM      8  C   LIG d   1       3.723  -6.022  -8.394  0.00  0.00    -0.012 A 
ATOM      9  O   LIG d   1       3.182  -3.859  -9.228  0.00  0.00    -0.422 OA
ATOM     10  C   LIG d   1       4.302  -6.805  -7.419  0.00  0.00    -0.005 A 
ATOM     11  H   LIG d   1       3.272  -6.484  -9.259  0.00  0.00     0.066 H 
ATOM     12  C   LIG d   1       4.887  -6.224  -6.297  0.00  0.00     0.120 A 
ATOM     13  C   LIG d   1       3.182  -2.521  -9.127  0.00  0.00     0.338 A 
ATOM     14  C   LIG d   1       3.756  -1.861  -8.018  0.00  0.00     0.032 A 
ATOM     15  O   LIG d   1       2.674  -1.859 -10.014  0.00  0.00    -0.245 OA
ATOM     16  H   LIG d   1       3.742  -0.783  -7.964  0.00  0.00     0.069 H 
ATOM     17  H   LIG d   1       5.354  -4.400  -5.283  0.00  0.00     0.066 H 
BRANCH  10  18
ATOM     18  C   LIG d   1       4.293  -8.306  -7.562  0.00  0.00    -0.036 C 
ATOM     19  H   LIG d   1       3.969  -8.758  -6.626  0.00  0.00     0.028 H 
ATOM     20  H   LIG d   1       3.607  -8.590  -8.360  0.00  0.00     0.028 H 
ATOM     21  H   LIG d   1       5.297  -8.653  -7.806  0.00  0.00     0.028 H 
ENDBRANCH  10  18
BRANCH  12  22
ATOM     22  O   LIG d   1       5.445  -7.011  -5.339  0.00  0.00    -0.506 OA
ATOM     23  H   LIG d   1       5.934  -6.522  -4.664  0.00  0.00     0.292 HD
ENDBRANCH  12  22
ENDBRANCH   1   4
BRANCH   1  24
ATOM     24  N   LIG d   1       3.887  -1.689  -4.828  0.00  0.00     0.238 N 
ATOM     25  C   LIG d   1       3.620  -0.217  -4.689  0.00  0.00    -0.032 C 
ATOM     26  C   LIG d   1       2.793   0.112  -3.475  0.00  0.00    -0.013 C 
ATOM     27  H   LIG d   1       4.558   0.337  -4.637  0.00  0.00     0.081 H 
ATOM     28  H   LIG d   1       3.076   0.096  -5.580  0.00  0.00     0.081 H 
ATOM     29  C   LIG d   1       3.745   0.511  -2.328  0.00  0.00    -0.048 C 
ATOM     30  H   LIG d   1       2.209  -0.761  -3.180  0.00  0.00     0.032 H 
ATOM     31  H   LIG d   1       2.124   0.942  -3.703  0.00  0.00     0.032 H 
ATOM     32  C   LIG d   1       4.357  -0.650  -1.693  0.00  0.00    -0.048 C 
ATOM     33  H   LIG d   1       3.182   1.069  -1.580  0.00  0.00     0.027 H 
ATOM     34  H   LIG d   1       4.531   1.151  -2.729  0.00  0.00     0.027 H 
ATOM     35  C   LIG d   1       5.212  -1.471  -2.681  0.00  0.00    -0.013 C 
ATOM     36  H   LIG d   1       4.990  -0.312  -0.873  0.00  0.00     0.027 H 
ATOM     37  H   LIG d   1       3.571  -1.289  -1.292  0.00  0.00     0.027 H 
ATOM     38  C   LIG d   1       4.293  -2.313  -3.522  0.00  0.00    -0.032 C 
ATOM     39  H   LIG d   1       5.781  -0.798  -3.321  0.00  0.00     0.032 H 
ATOM     40  H   LIG d   1       5.894  -2.116  -2.126  0.00  0.00     0.032 H 
ATOM     41  H   LIG d   1       4.785  -3.261  -3.740  0.00  0.00     0.081 H 
ATOM     42  H   LIG d   1       3.383  -2.513  -2.957  0.00  0.00     0.081 H 
ATOM     43  H   LIG d   1       3.025  -2.146  -5.151  0.00  0.00     0.204 HD
ENDBRANCH   1  24
TORSDOF 4
ENDMDL
MODEL 9
REMARK VINA RESULT:      -5.9      1.817      2.521
REMARK  4 active torsions:
REMARK  status: ('A' for Active; 'I' for Inactive)
REMARK    1  A    between atoms: C_1  and  C_2 
REMARK    2  A    between atoms: C_7  and  O_8 
REMARK    3  A    between atoms: C_9  and  C_14 
REMARK    4  A    between atoms: C_14  and  N_42 
ROOT
ATOM      1  C   LIG d   1       6.328  -0.644  -5.874  0.00  0.00    -0.005 C 
ATOM      2  H   LIG d   1       7.314  -0.737  -5.419  0.00  0.00     0.087 H 
ATOM      3  H   LIG d   1       5.950  -1.635  -6.127  0.00  0.00     0.087 H 
ENDROOT
BRANCH   1   4
ATOM      4  C   LIG d   1       6.428   0.190  -7.125  0.00  0.00     0.015 A 
ATOM      5  C   LIG d   1       5.506  -0.020  -8.246  0.00  0.00     0.029 A 
ATOM      6  C   LIG d   1       5.631   0.785  -9.392  0.00  0.00     0.140 A 
ATOM      7  C   LIG d   1       4.511  -1.000  -8.185  0.00  0.00    -0.009 A 
ATOM      8  C   LIG d   1       4.762   0.598 -10.458  0.00  0.00    -0.012 A 
ATOM      9  O   LIG d   1       6.598   1.727  -9.449  0.00  0.00    -0.422 OA
ATOM     10  C   LIG d   1       3.790  -0.377 -10.393  0.00  0.00    -0.005 A 
ATOM     11  H   LIG d   1       4.854   1.209 -11.344  0.00  0.00     0.066 H 
ATOM     12  C   LIG d   1       3.659  -1.174  -9.259  0.00  0.00     0.120 A 
ATOM     13  C   LIG d   1       7.448   1.921  -8.429  0.00  0.00     0.338 A 
ATOM     14  C   LIG d   1       7.376   1.153  -7.246  0.00  0.00     0.032 A 
ATOM     15  O   LIG d   1       8.304   2.782  -8.525  0.00  0.00    -0.245 OA
ATOM     16  H   LIG d   1       8.074   1.331  -6.442  0.00  0.00     0.069 H 
ATOM     17  H   LIG d   1       4.408  -1.617  -7.305  0.00  0.00     0.066 H 
BRANCH  10  18
ATOM     18  C   LIG d   1       2.854  -0.578 -11.558  0.00  0.00    -0.036 C 
ATOM     19  H   LIG d   1       3.194  -1.422 -12.156  0.00  0.00     0.028 H 
ATOM     20  H   LIG d   1       1.849  -0.777 -11.185  0.00  0.00     0.028 H 
ATOM     21  H   LIG d   1       2.840   0.322 -12.173  0.00  0.00     0.028 H 
ENDBRANCH  10  18
BRANCH  12  22
ATOM     22  O   LIG d   1       2.689  -2.125  -9.207  0.00  0.00    -0.506 OA
ATOM     23  H   LIG d   1       1.804  -1.776  -9.036  0.00  0.00     0.292 HD
ENDBRANCH  12  22
ENDBRANCH   1   4
BRANCH   1  24
ATOM     24  N   LIG d   1       5.372   0.009  -4.965  0.00  0.00     0.238 N 
ATOM     25  C   LIG d   1       5.991   0.157  -3.605  0.00  0.00    -0.032 C 
ATOM     26  C   LIG d   1       4.986   0.517  -2.544  0.00  0.00    -0.013 C 
ATOM     27  H   LIG d   1       6.496  -0.765  -3.313  0.00  0.00     0.081 H 
ATOM     28  H   LIG d   1       6.730   0.955  -3.673  0.00  0.00     0.081 H 
ATOM     29  C   LIG d   1       4.536  -0.778  -1.836  0.00  0.00    -0.048 C 
ATOM     30  H   LIG d   1       4.123   1.002  -3.004  0.00  0.00     0.032 H 
ATOM     31  H   LIG d   1       5.444   1.191  -1.820  0.00  0.00     0.032 H 
ATOM     32  C   LIG d   1       3.558  -1.522  -2.622  0.00  0.00    -0.048 C 
ATOM     33  H   LIG d   1       4.094  -0.519  -0.874  0.00  0.00     0.027 H 
ATOM     34  H   LIG d   1       5.408  -1.408  -1.667  0.00  0.00     0.027 H 
ATOM     35  C   LIG d   1       4.123  -1.966  -3.987  0.00  0.00    -0.013 C 
ATOM     36  H   LIG d   1       3.253  -2.406  -2.061  0.00  0.00     0.027 H 
ATOM     37  H   LIG d   1       2.686  -0.891  -2.789  0.00  0.00     0.027 H 
ATOM     38  C   LIG d   1       4.097  -0.786  -4.920  0.00  0.00    -0.032 C 
ATOM     39  H   LIG d   1       5.148  -2.313  -3.864  0.00  0.00     0.032 H 
ATOM     40  H   LIG d   1       3.509  -2.768  -4.394  0.00  0.00     0.032 H 
ATOM     41  H   LIG d   1       3.884  -1.140  -5.929  0.00  0.00     0.081 H 
ATOM     42  H   LIG d   1       3.300  -0.111  -4.611  0.00  0.00     0.081 H 
ATOM     43  H   LIG d   1       5.157   0.946  -5.327  0.00  0.00     0.204 HD
ENDBRANCH   1  24
TORSDOF 4
ENDMDL
