MODEL 1
REMARK VINA RESULT:      -7.0      0.000      0.000
REMARK  8 active torsions:
REMARK  status: ('A' for Active; 'I' for Inactive)
REMARK    1  A    between atoms: C_1  and  C_2 
REMARK    2  A    between atoms: C_17  and  C_20 
REMARK    3  A    between atoms: C_20  and  C_21 
REMARK    4  A    between atoms: C_21  and  S_22 
REMARK    5  A    between atoms: S_22  and  C_23 
REMARK    6  A    between atoms: N_26  and  C_29 
REMARK    7  A    between atoms: C_29  and  C_30 
REMARK    8  A    between atoms: C_30  and  C_31 
ROOT
ATOM      1  C   LIG d   1       5.298  -7.527  -9.077  0.00  0.00    -0.049 A 
ATOM      2  C   LIG d   1       5.202  -6.158  -8.908  0.00  0.00    -0.051 A 
ATOM      3  C   LIG d   1       4.940  -5.632  -7.662  0.00  0.00     0.005 A 
ATOM      4  C   LIG d   1       4.770  -6.468  -6.563  0.00  0.00     0.057 A 
ATOM      5  C   LIG d   1       4.867  -7.847  -6.741  0.00  0.00     0.063 A 
ATOM      6  C   LIG d   1       5.124  -8.368  -7.994  0.00  0.00    -0.039 A 
ATOM      7 CL   LIG d   1       4.657  -8.912  -5.387  0.00  0.00    -0.082 Cl
ATOM      8  N   LIG d   1       4.519  -5.711  -5.415  0.00  0.00    -0.282 N 
ATOM      9  C   LIG d   1       4.509  -4.389  -5.671  0.00  0.00     0.243 A 
ATOM     10  O   LIG d   1       4.322  -3.498  -4.870  0.00  0.00    -0.273 OA
ATOM     11  C   LIG d   1       4.776  -4.233  -7.144  0.00  0.00     0.136 A 
ATOM     12  C   LIG d   1       6.027  -3.386  -7.400  0.00  0.00     0.080 A 
ATOM     13  H   LIG d   1       6.641  -3.783  -8.209  0.00  0.00     0.043 H 
ATOM     14  C   LIG d   1       5.481  -1.961  -7.703  0.00  0.00     0.065 A 
ATOM     15  H   LIG d   1       5.802  -1.582  -8.673  0.00  0.00     0.042 H 
ATOM     16  C   LIG d   1       3.948  -2.095  -7.594  0.00  0.00     0.021 C 
ATOM     17  H   LIG d   1       3.612  -1.811  -6.596  0.00  0.00     0.047 H 
ATOM     18  N   LIG d   1       3.667  -3.531  -7.817  0.00  0.00    -0.295 N 
ATOM     19  C   LIG d   1       6.006  -1.136  -6.551  0.00  0.00     0.227 A 
ATOM     20  O   LIG d   1       5.813   0.051  -6.394  0.00  0.00    -0.275 OA
ATOM     21  N   LIG d   1       6.717  -1.917  -5.730  0.00  0.00    -0.241 N 
ATOM     22  C   LIG d   1       6.802  -3.212  -6.114  0.00  0.00     0.228 A 
ATOM     23  O   LIG d   1       7.395  -4.093  -5.529  0.00  0.00    -0.275 OA
ATOM     24  H   LIG d   1       5.333  -5.499  -9.754  0.00  0.00     0.062 H 
ATOM     25  H   LIG d   1       5.194  -9.438  -8.126  0.00  0.00     0.064 H 
ATOM     26  H   LIG d   1       4.369  -6.094  -4.537  0.00  0.00     0.155 HD
ATOM     27  H   LIG d   1       3.655  -3.738  -8.805  0.00  0.00     0.123 HD
ENDROOT
BRANCH  16  28
ATOM     28  C   LIG d   1       3.260  -1.229  -8.652  0.00  0.00    -0.028 C 
ATOM     29  H   LIG d   1       4.007  -0.844  -9.347  0.00  0.00     0.029 H 
ATOM     30  H   LIG d   1       2.533  -1.831  -9.196  0.00  0.00     0.029 H 
BRANCH  28  31
ATOM     31  C   LIG d   1       2.547  -0.060  -7.970  0.00  0.00    -0.005 C 
ATOM     32  H   LIG d   1       1.470  -0.169  -8.095  0.00  0.00     0.038 H 
ATOM     33  H   LIG d   1       2.791  -0.056  -6.907  0.00  0.00     0.038 H 
BRANCH  31  34
ATOM     34  S   LIG d   1       3.089   1.500  -8.721  0.00  0.00    -0.164 SA
BRANCH  34  35
ATOM     35  C   LIG d   1       4.515   1.025  -9.737  0.00  0.00    -0.018 C 
ATOM     36  H   LIG d   1       5.245   1.835  -9.741  0.00  0.00     0.034 H 
ATOM     37  H   LIG d   1       4.972   0.125  -9.325  0.00  0.00     0.034 H 
ATOM     38  H   LIG d   1       4.185   0.828 -10.757  0.00  0.00     0.034 H 
ENDBRANCH  34  35
ENDBRANCH  31  34
ENDBRANCH  28  31
ENDBRANCH  16  28
BRANCH   1  39
ATOM     39  C   LIG d   1       5.585  -8.102 -10.441  0.00  0.00    -0.040 C 
ATOM     40  H   LIG d   1       4.829  -8.847 -10.687  0.00  0.00     0.028 H 
ATOM     41  H   LIG d   1       5.564  -7.304 -11.183  0.00  0.00     0.028 H 
ATOM     42  H   LIG d   1       6.570  -8.570 -10.437  0.00  0.00     0.028 H 
ENDBRANCH   1  39
BRANCH  21  43
ATOM     43  C   LIG d   1       7.362  -1.413  -4.516  0.00  0.00     0.026 C 
ATOM     44  H   LIG d   1       8.374  -1.811  -4.448  0.00  0.00     0.047 H 
ATOM     45  H   LIG d   1       7.403  -0.324  -4.552  0.00  0.00     0.047 H 
BRANCH  43  46
ATOM     46  C   LIG d   1       6.558  -1.853  -3.291  0.00  0.00    -0.011 C 
ATOM     47  H   LIG d   1       6.046  -2.791  -3.510  0.00  0.00     0.033 H 
ATOM     48  H   LIG d   1       7.230  -1.996  -2.446  0.00  0.00     0.033 H 
BRANCH  46  49
ATOM     49  C   LIG d   1       5.540  -0.794  -2.951  0.00  0.00    -0.046 A 
ATOM     50  C   LIG d   1       5.904   0.540  -2.953  0.00  0.00    -0.059 A 
ATOM     51  C   LIG d   1       4.969   1.510  -2.645  0.00  0.00    -0.061 A 
ATOM     52  H   LIG d   1       6.916   0.823  -3.198  0.00  0.00     0.062 H 
ATOM     53  C   LIG d   1       3.674   1.147  -2.325  0.00  0.00    -0.062 A 
ATOM     54  H   LIG d   1       5.251   2.552  -2.649  0.00  0.00     0.062 H 
ATOM     55  C   LIG d   1       3.312  -0.187  -2.319  0.00  0.00    -0.061 A 
ATOM     56  H   LIG d   1       2.944   1.905  -2.083  0.00  0.00     0.062 H 
ATOM     57  C   LIG d   1       4.246  -1.158  -2.633  0.00  0.00    -0.059 A 
ATOM     58  H   LIG d   1       2.300  -0.471  -2.071  0.00  0.00     0.062 H 
ATOM     59  H   LIG d   1       3.963  -2.201  -2.627  0.00  0.00     0.062 H 
ENDBRANCH  46  49
ENDBRANCH  43  46
ENDBRANCH  21  43
TORSDOF 8
ENDMDL
MODEL 2
REMARK VINA RESULT:      -6.9      6.532     10.153
REMARK  8 active torsions:
REMARK  status: ('A' for Active; 'I' for Inactive)
REMARK    1  A    between atoms: C_1  and  C_2 
REMARK    2  A    between atoms: C_17  and  C_20 
REMARK    3  A    between atoms: C_20  and  C_21 
REMARK    4  A    between atoms: C_21  and  S_22 
REMARK    5  A    between atoms: S_22  and  C_23 
REMARK    6  A    between atoms: N_26  and  C_29 
REMARK    7  A    between atoms: C_29  and  C_30 
REMARK    8  A    between atoms: C_30  and  C_31 
ROOT
ATOM      1  C   LIG d   1      10.261   7.579  -2.636  0.00  0.00    -0.049 A 
ATOM      2  C   LIG d   1      10.327   6.622  -3.634  0.00  0.00    -0.051 A 
ATOM      3  C   LIG d   1      10.635   5.317  -3.320  0.00  0.00     0.005 A 
ATOM      4  C   LIG d   1      10.883   4.945  -2.002  0.00  0.00     0.057 A 
ATOM      5  C   LIG d   1      10.816   5.915  -1.002  0.00  0.00     0.063 A 
ATOM      6  C   LIG d   1      10.512   7.223  -1.325  0.00  0.00    -0.039 A 
ATOM      7 CL   LIG d   1      11.122   5.479   0.649  0.00  0.00    -0.082 Cl
ATOM      8  N   LIG d   1      11.169   3.580  -1.930  0.00  0.00    -0.282 N 
ATOM      9  C   LIG d   1      11.129   2.989  -3.140  0.00  0.00     0.243 A 
ATOM     10  O   LIG d   1      11.331   1.817  -3.381  0.00  0.00    -0.273 OA
ATOM     11  C   LIG d   1      10.786   4.065  -4.134  0.00  0.00     0.136 A 
ATOM     12  C   LIG d   1       9.499   3.732  -4.899  0.00  0.00     0.080 A 
ATOM     13  H   LIG d   1       8.857   4.603  -5.035  0.00  0.00     0.043 H 
ATOM     14  C   LIG d   1       9.989   3.130  -6.247  0.00  0.00     0.065 A 
ATOM     15  H   LIG d   1       9.611   3.669  -7.115  0.00  0.00     0.042 H 
ATOM     16  C   LIG d   1      11.530   3.158  -6.154  0.00  0.00     0.021 C 
ATOM     17  H   LIG d   1      11.906   2.197  -5.801  0.00  0.00     0.047 H 
ATOM     18  N   LIG d   1      11.839   4.206  -5.156  0.00  0.00    -0.295 N 
ATOM     19  C   LIG d   1       9.500   1.701  -6.187  0.00  0.00     0.227 A 
ATOM     20  O   LIG d   1       9.667   0.866  -7.051  0.00  0.00    -0.275 OA
ATOM     21  N   LIG d   1       8.852   1.499  -5.034  0.00  0.00    -0.241 N 
ATOM     22  C   LIG d   1       8.785   2.583  -4.226  0.00  0.00     0.228 A 
ATOM     23  O   LIG d   1       8.247   2.632  -3.141  0.00  0.00    -0.275 OA
ATOM     24  H   LIG d   1      10.135   6.898  -4.660  0.00  0.00     0.062 H 
ATOM     25  H   LIG d   1      10.465   7.971  -0.546  0.00  0.00     0.064 H 
ATOM     26  H   LIG d   1      11.373   3.111  -1.106  0.00  0.00     0.155 HD
ATOM     27  H   LIG d   1      11.808   5.120  -5.584  0.00  0.00     0.123 HD
ENDROOT
BRANCH  16  28
ATOM     28  C   LIG d   1      12.140   3.497  -7.516  0.00  0.00    -0.028 C 
ATOM     29  H   LIG d   1      12.994   4.160  -7.377  0.00  0.00     0.029 H 
ATOM     30  H   LIG d   1      12.468   2.580  -8.005  0.00  0.00     0.029 H 
BRANCH  28  31
ATOM     31  C   LIG d   1      11.091   4.192  -8.387  0.00  0.00    -0.005 C 
ATOM     32  H   LIG d   1      11.135   3.788  -9.398  0.00  0.00     0.038 H 
ATOM     33  H   LIG d   1      10.099   4.018  -7.969  0.00  0.00     0.038 H 
BRANCH  31  34
ATOM     34  S   LIG d   1      11.426   5.973  -8.431  0.00  0.00    -0.164 SA
BRANCH  34  35
ATOM     35  C   LIG d   1      10.125   6.690  -7.389  0.00  0.00    -0.018 C 
ATOM     36  H   LIG d   1      10.003   6.084  -6.492  0.00  0.00     0.034 H 
ATOM     37  H   LIG d   1      10.403   7.706  -7.108  0.00  0.00     0.034 H 
ATOM     38  H   LIG d   1       9.187   6.711  -7.944  0.00  0.00     0.034 H 
ENDBRANCH  34  35
ENDBRANCH  31  34
ENDBRANCH  28  31
ENDBRANCH  16  28
BRANCH   1  39
ATOM     39  C   LIG d   1       9.923   9.007  -2.981  0.00  0.00    -0.040 C 
ATOM     40  H   LIG d   1      10.842   9.581  -3.090  0.00  0.00     0.028 H 
ATOM     41  H   LIG d   1       9.364   9.032  -3.916  0.00  0.00     0.028 H 
ATOM     42  H   LIG d   1       9.317   9.438  -2.184  0.00  0.00     0.028 H 
ENDBRANCH   1  39
BRANCH  21  43
ATOM     43  C   LIG d   1       8.254   0.211  -4.675  0.00  0.00     0.026 C 
ATOM     44  H   LIG d   1       8.787  -0.592  -5.184  0.00  0.00     0.047 H 
ATOM     45  H   LIG d   1       8.323   0.067  -3.596  0.00  0.00     0.047 H 
BRANCH  43  46
ATOM     46  C   LIG d   1       6.784   0.196  -5.098  0.00  0.00    -0.011 C 
ATOM     47  H   LIG d   1       6.506   1.179  -5.482  0.00  0.00     0.033 H 
ATOM     48  H   LIG d   1       6.637  -0.551  -5.877  0.00  0.00     0.033 H 
BRANCH  46  49
ATOM     49  C   LIG d   1       5.922  -0.140  -3.909  0.00  0.00    -0.046 A 
ATOM     50  C   LIG d   1       5.508   0.862  -3.050  0.00  0.00    -0.059 A 
ATOM     51  C   LIG d   1       4.714   0.553  -1.961  0.00  0.00    -0.061 A 
ATOM     52  H   LIG d   1       5.803   1.884  -3.231  0.00  0.00     0.062 H 
ATOM     53  C   LIG d   1       4.341  -0.757  -1.726  0.00  0.00    -0.062 A 
ATOM     54  H   LIG d   1       4.388   1.335  -1.292  0.00  0.00     0.062 H 
ATOM     55  C   LIG d   1       4.758  -1.758  -2.583  0.00  0.00    -0.061 A 
ATOM     56  H   LIG d   1       3.722  -0.998  -0.875  0.00  0.00     0.062 H 
ATOM     57  C   LIG d   1       5.548  -1.450  -3.675  0.00  0.00    -0.059 A 
ATOM     58  H   LIG d   1       4.466  -2.782  -2.400  0.00  0.00     0.062 H 
ATOM     59  H   LIG d   1       5.875  -2.233  -4.344  0.00  0.00     0.062 H 
ENDBRANCH  46  49
ENDBRANCH  43  46
ENDBRANCH  21  43
TORSDOF 8
ENDMDL
MODEL 3
REMARK VINA RESULT:      -6.6      3.700      5.147
REMARK  8 active torsions:
REMARK  status: ('A' for Active; 'I' for Inactive)
REMARK    1  A    between atoms: C_1  and  C_2 
REMARK    2  A    between atoms: C_17  and  C_20 
REMARK    3  A    between atoms: C_20  and  C_21 
REMARK    4  A    between atoms: C_21  and  S_22 
REMARK    5  A    between atoms: S_22  and  C_23 
REMARK    6  A    between atoms: N_26  and  C_29 
REMARK    7  A    between atoms: C_29  and  C_30 
REMARK    8  A    between atoms: C_30  and  C_31 
ROOT
ATOM      1  C   LIG d   1       4.546  -0.481 -11.884  0.00  0.00    -0.049 A 
ATOM      2  C   LIG d   1       5.444  -0.280 -10.851  0.00  0.00    -0.051 A 
ATOM      3  C   LIG d   1       4.996  -0.198  -9.552  0.00  0.00     0.005 A 
ATOM      4  C   LIG d   1       3.640  -0.316  -9.262  0.00  0.00     0.057 A 
ATOM      5  C   LIG d   1       2.741  -0.517 -10.307  0.00  0.00     0.063 A 
ATOM      6  C   LIG d   1       3.196  -0.592 -11.609  0.00  0.00    -0.039 A 
ATOM      7 CL   LIG d   1       1.044  -0.665  -9.974  0.00  0.00    -0.082 Cl
ATOM      8  N   LIG d   1       3.429  -0.203  -7.885  0.00  0.00    -0.282 N 
ATOM      9  C   LIG d   1       4.578  -0.014  -7.209  0.00  0.00     0.243 A 
ATOM     10  O   LIG d   1       4.700   0.113  -6.009  0.00  0.00    -0.273 OA
ATOM     11  C   LIG d   1       5.681   0.009  -8.232  0.00  0.00     0.136 A 
ATOM     12  C   LIG d   1       6.722  -1.083  -7.959  0.00  0.00     0.080 A 
ATOM     13  H   LIG d   1       7.058  -1.577  -8.872  0.00  0.00     0.043 H 
ATOM     14  C   LIG d   1       7.873  -0.351  -7.213  0.00  0.00     0.065 A 
ATOM     15  H   LIG d   1       8.835  -0.450  -7.716  0.00  0.00     0.042 H 
ATOM     16  C   LIG d   1       7.405   1.116  -7.108  0.00  0.00     0.021 C 
ATOM     17  H   LIG d   1       6.919   1.291  -6.147  0.00  0.00     0.047 H 
ATOM     18  N   LIG d   1       6.417   1.287  -8.197  0.00  0.00    -0.295 N 
ATOM     19  C   LIG d   1       7.861  -0.991  -5.844  0.00  0.00     0.227 A 
ATOM     20  O   LIG d   1       8.612  -0.711  -4.933  0.00  0.00    -0.275 OA
ATOM     21  N   LIG d   1       6.895  -1.915  -5.792  0.00  0.00    -0.241 N 
ATOM     22  C   LIG d   1       6.187  -2.058  -6.936  0.00  0.00     0.228 A 
ATOM     23  O   LIG d   1       5.272  -2.832  -7.117  0.00  0.00    -0.275 OA
ATOM     24  H   LIG d   1       6.499  -0.188 -11.064  0.00  0.00     0.062 H 
ATOM     25  H   LIG d   1       2.494  -0.744 -12.416  0.00  0.00     0.064 H 
ATOM     26  H   LIG d   1       2.556  -0.255  -7.465  0.00  0.00     0.155 HD
ATOM     27  H   LIG d   1       6.887   1.457  -9.074  0.00  0.00     0.123 HD
ENDROOT
BRANCH  16  28
ATOM     28  C   LIG d   1       8.590   2.068  -7.284  0.00  0.00    -0.028 C 
ATOM     29  H   LIG d   1       8.228   3.039  -7.622  0.00  0.00     0.029 H 
ATOM     30  H   LIG d   1       9.106   2.185  -6.331  0.00  0.00     0.029 H 
BRANCH  28  31
ATOM     31  C   LIG d   1       9.556   1.494  -8.321  0.00  0.00    -0.005 C 
ATOM     32  H   LIG d   1      10.537   1.358  -7.866  0.00  0.00     0.038 H 
ATOM     33  H   LIG d   1       9.183   0.532  -8.674  0.00  0.00     0.038 H 
BRANCH  31  34
ATOM     34  S   LIG d   1       9.692   2.640  -9.721  0.00  0.00    -0.164 SA
BRANCH  34  35
ATOM     35  C   LIG d   1       8.829   4.131  -9.152  0.00  0.00    -0.018 C 
ATOM     36  H   LIG d   1       8.840   4.881  -9.942  0.00  0.00     0.034 H 
ATOM     37  H   LIG d   1       7.798   3.881  -8.900  0.00  0.00     0.034 H 
ATOM     38  H   LIG d   1       9.332   4.527  -8.269  0.00  0.00     0.034 H 
ENDBRANCH  34  35
ENDBRANCH  31  34
ENDBRANCH  28  31
ENDBRANCH  16  28
BRANCH   1  39
ATOM     39  C   LIG d   1       5.037  -0.571 -13.306  0.00  0.00    -0.040 C 
ATOM     40  H   LIG d   1       6.107  -0.367 -13.334  0.00  0.00     0.028 H 
ATOM     41  H   LIG d   1       4.848  -1.572 -13.693  0.00  0.00     0.028 H 
ATOM     42  H   LIG d   1       4.511   0.162 -13.918  0.00  0.00     0.028 H 
ENDBRANCH   1  39
BRANCH  21  43
ATOM     43  C   LIG d   1       6.628  -2.716  -4.595  0.00  0.00     0.026 C 
ATOM     44  H   LIG d   1       5.607  -3.097  -4.632  0.00  0.00     0.047 H 
ATOM     45  H   LIG d   1       7.326  -3.552  -4.554  0.00  0.00     0.047 H 
BRANCH  43  46
ATOM     46  C   LIG d   1       6.801  -1.845  -3.349  0.00  0.00    -0.011 C 
ATOM     47  H   LIG d   1       7.094  -2.471  -2.505  0.00  0.00     0.033 H 
ATOM     48  H   LIG d   1       7.573  -1.098  -3.532  0.00  0.00     0.033 H 
BRANCH  46  49
ATOM     49  C   LIG d   1       5.499  -1.155  -3.033  0.00  0.00    -0.046 A 
ATOM     50  C   LIG d   1       4.304  -1.836  -3.173  0.00  0.00    -0.059 A 
ATOM     51  C   LIG d   1       3.110  -1.204  -2.880  0.00  0.00    -0.061 A 
ATOM     52  H   LIG d   1       4.303  -2.862  -3.509  0.00  0.00     0.062 H 
ATOM     53  C   LIG d   1       3.111   0.112  -2.455  0.00  0.00    -0.062 A 
ATOM     54  H   LIG d   1       2.177  -1.736  -2.985  0.00  0.00     0.062 H 
ATOM     55  C   LIG d   1       4.305   0.794  -2.318  0.00  0.00    -0.061 A 
ATOM     56  H   LIG d   1       2.179   0.606  -2.226  0.00  0.00     0.062 H 
ATOM     57  C   LIG d   1       5.500   0.160  -2.608  0.00  0.00    -0.059 A 
ATOM     58  H   LIG d   1       4.306   1.821  -1.986  0.00  0.00     0.062 H 
ATOM     59  H   LIG d   1       6.434   0.694  -2.503  0.00  0.00     0.062 H 
ENDBRANCH  46  49
ENDBRANCH  43  46
ENDBRANCH  21  43
TORSDOF 8
ENDMDL
MODEL 4
REMARK VINA RESULT:      -6.6      3.861      5.821
REMARK  8 active torsions:
REMARK  status: ('A' for Active; 'I' for Inactive)
REMARK    1  A    between atoms: C_1  and  C_2 
REMARK    2  A    between atoms: C_17  and  C_20 
REMARK    3  A    between atoms: C_20  and  C_21 
REMARK    4  A    between atoms: C_21  and  S_22 
REMARK    5  A    between atoms: S_22  and  C_23 
REMARK    6  A    between atoms: N_26  and  C_29 
REMARK    7  A    between atoms: C_29  and  C_30 
REMARK    8  A    between atoms: C_30  and  C_31 
ROOT
ATOM      1  C   LIG d   1       4.611  -0.134 -11.441  0.00  0.00    -0.049 A 
ATOM      2  C   LIG d   1       5.539  -0.825 -10.681  0.00  0.00    -0.051 A 
ATOM      3  C   LIG d   1       5.879  -0.371  -9.426  0.00  0.00     0.005 A 
ATOM      4  C   LIG d   1       5.298   0.782  -8.908  0.00  0.00     0.057 A 
ATOM      5  C   LIG d   1       4.365   1.473  -9.679  0.00  0.00     0.063 A 
ATOM      6  C   LIG d   1       4.032   1.016 -10.939  0.00  0.00    -0.039 A 
ATOM      7 CL   LIG d   1       3.626   2.915  -9.057  0.00  0.00    -0.082 Cl
ATOM      8  N   LIG d   1       5.794   1.040  -7.628  0.00  0.00    -0.282 N 
ATOM      9  C   LIG d   1       6.692   0.116  -7.236  0.00  0.00     0.243 A 
ATOM     10  O   LIG d   1       7.282   0.082  -6.176  0.00  0.00    -0.273 OA
ATOM     11  C   LIG d   1       6.822  -0.867  -8.368  0.00  0.00     0.136 A 
ATOM     12  C   LIG d   1       6.470  -2.290  -7.920  0.00  0.00     0.080 A 
ATOM     13  H   LIG d   1       5.880  -2.827  -8.663  0.00  0.00     0.043 H 
ATOM     14  C   LIG d   1       7.843  -2.964  -7.639  0.00  0.00     0.065 A 
ATOM     15  H   LIG d   1       7.998  -3.870  -8.225  0.00  0.00     0.042 H 
ATOM     16  C   LIG d   1       8.889  -1.871  -7.946  0.00  0.00     0.021 C 
ATOM     17  H   LIG d   1       9.168  -1.346  -7.031  0.00  0.00     0.047 H 
ATOM     18  N   LIG d   1       8.209  -0.931  -8.865  0.00  0.00    -0.295 N 
ATOM     19  C   LIG d   1       7.802  -3.230  -6.152  0.00  0.00     0.227 A 
ATOM     20  O   LIG d   1       8.686  -3.754  -5.509  0.00  0.00    -0.275 OA
ATOM     21  N   LIG d   1       6.638  -2.797  -5.654  0.00  0.00    -0.241 N 
ATOM     22  C   LIG d   1       5.801  -2.250  -6.565  0.00  0.00     0.228 A 
ATOM     23  O   LIG d   1       4.699  -1.797  -6.341  0.00  0.00    -0.275 OA
ATOM     24  H   LIG d   1       5.996  -1.722 -11.073  0.00  0.00     0.062 H 
ATOM     25  H   LIG d   1       3.311   1.559 -11.534  0.00  0.00     0.064 H 
ATOM     26  H   LIG d   1       5.523   1.796  -7.084  0.00  0.00     0.155 HD
ATOM     27  H   LIG d   1       8.238  -1.281  -9.811  0.00  0.00     0.123 HD
ENDROOT
BRANCH  16  28
ATOM     28  C   LIG d   1      10.126  -2.487  -8.603  0.00  0.00    -0.028 C 
ATOM     29  H   LIG d   1       9.948  -3.546  -8.791  0.00  0.00     0.029 H 
ATOM     30  H   LIG d   1      10.326  -1.979  -9.546  0.00  0.00     0.029 H 
BRANCH  28  31
ATOM     31  C   LIG d   1      11.331  -2.329  -7.673  0.00  0.00    -0.005 C 
ATOM     32  H   LIG d   1      11.525  -3.275  -7.168  0.00  0.00     0.038 H 
ATOM     33  H   LIG d   1      12.206  -2.043  -8.258  0.00  0.00     0.038 H 
BRANCH  31  34
ATOM     34  S   LIG d   1      10.980  -1.045  -6.442  0.00  0.00    -0.164 SA
BRANCH  34  35
ATOM     35  C   LIG d   1      11.996   0.361  -6.973  0.00  0.00    -0.018 C 
ATOM     36  H   LIG d   1      11.935   0.465  -8.057  0.00  0.00     0.034 H 
ATOM     37  H   LIG d   1      11.631   1.273  -6.500  0.00  0.00     0.034 H 
ATOM     38  H   LIG d   1      13.033   0.191  -6.682  0.00  0.00     0.034 H 
ENDBRANCH  34  35
ENDBRANCH  31  34
ENDBRANCH  28  31
ENDBRANCH  16  28
BRANCH   1  39
ATOM     39  C   LIG d   1       4.238  -0.631 -12.814  0.00  0.00    -0.040 C 
ATOM     40  H   LIG d   1       4.024   0.218 -13.462  0.00  0.00     0.028 H 
ATOM     41  H   LIG d   1       5.066  -1.206 -13.229  0.00  0.00     0.028 H 
ATOM     42  H   LIG d   1       3.355  -1.266 -12.742  0.00  0.00     0.028 H 
ENDBRANCH   1  39
BRANCH  21  43
ATOM     43  C   LIG d   1       6.291  -2.912  -4.235  0.00  0.00     0.026 C 
ATOM     44  H   LIG d   1       5.207  -2.927  -4.126  0.00  0.00     0.047 H 
ATOM     45  H   LIG d   1       6.709  -3.835  -3.833  0.00  0.00     0.047 H 
BRANCH  43  46
ATOM     46  C   LIG d   1       6.864  -1.717  -3.472  0.00  0.00    -0.011 C 
ATOM     47  H   LIG d   1       7.387  -2.070  -2.581  0.00  0.00     0.033 H 
ATOM     48  H   LIG d   1       7.561  -1.177  -4.111  0.00  0.00     0.033 H 
BRANCH  46  49
ATOM     49  C   LIG d   1       5.742  -0.797  -3.062  0.00  0.00    -0.046 A 
ATOM     50  C   LIG d   1       4.518  -1.323  -2.691  0.00  0.00    -0.059 A 
ATOM     51  C   LIG d   1       3.491  -0.480  -2.312  0.00  0.00    -0.061 A 
ATOM     52  H   LIG d   1       4.366  -2.392  -2.695  0.00  0.00     0.062 H 
ATOM     53  C   LIG d   1       3.684   0.889  -2.312  0.00  0.00    -0.062 A 
ATOM     54  H   LIG d   1       2.536  -0.889  -2.019  0.00  0.00     0.062 H 
ATOM     55  C   LIG d   1       4.906   1.415  -2.687  0.00  0.00    -0.061 A 
ATOM     56  H   LIG d   1       2.881   1.548  -2.017  0.00  0.00     0.062 H 
ATOM     57  C   LIG d   1       5.936   0.571  -3.062  0.00  0.00    -0.059 A 
ATOM     58  H   LIG d   1       5.058   2.484  -2.686  0.00  0.00     0.062 H 
ATOM     59  H   LIG d   1       6.891   0.981  -3.356  0.00  0.00     0.062 H 
ENDBRANCH  46  49
ENDBRANCH  43  46
ENDBRANCH  21  43
TORSDOF 8
ENDMDL
MODEL 5
REMARK VINA RESULT:      -6.6      2.985      6.167
REMARK  8 active torsions:
REMARK  status: ('A' for Active; 'I' for Inactive)
REMARK    1  A    between atoms: C_1  and  C_2 
REMARK    2  A    between atoms: C_17  and  C_20 
REMARK    3  A    between atoms: C_20  and  C_21 
REMARK    4  A    between atoms: C_21  and  S_22 
REMARK    5  A    between atoms: S_22  and  C_23 
REMARK    6  A    between atoms: N_26  and  C_29 
REMARK    7  A    between atoms: C_29  and  C_30 
REMARK    8  A    between atoms: C_30  and  C_31 
ROOT
ATOM      1  C   LIG d   1       3.040   0.662  -8.685  0.00  0.00    -0.049 A 
ATOM      2  C   LIG d   1       3.703   0.208  -7.559  0.00  0.00    -0.051 A 
ATOM      3  C   LIG d   1       3.911  -1.141  -7.376  0.00  0.00     0.005 A 
ATOM      4  C   LIG d   1       3.459  -2.061  -8.318  0.00  0.00     0.057 A 
ATOM      5  C   LIG d   1       2.791  -1.596  -9.449  0.00  0.00     0.063 A 
ATOM      6  C   LIG d   1       2.580  -0.242  -9.623  0.00  0.00    -0.039 A 
ATOM      7 CL   LIG d   1       2.215  -2.722 -10.638  0.00  0.00    -0.082 Cl
ATOM      8  N   LIG d   1       3.786  -3.360  -7.920  0.00  0.00    -0.282 N 
ATOM      9  C   LIG d   1       4.446  -3.380  -6.746  0.00  0.00     0.243 A 
ATOM     10  O   LIG d   1       4.857  -4.361  -6.163  0.00  0.00    -0.273 OA
ATOM     11  C   LIG d   1       4.575  -1.949  -6.299  0.00  0.00     0.136 A 
ATOM     12  C   LIG d   1       6.044  -1.548  -6.118  0.00  0.00     0.080 A 
ATOM     13  H   LIG d   1       6.253  -0.546  -6.494  0.00  0.00     0.043 H 
ATOM     14  C   LIG d   1       6.302  -1.683  -4.590  0.00  0.00     0.065 A 
ATOM     15  H   LIG d   1       6.654  -0.757  -4.137  0.00  0.00     0.042 H 
ATOM     16  C   LIG d   1       4.955  -2.157  -4.003  0.00  0.00     0.021 C 
ATOM     17  H   LIG d   1       4.944  -3.244  -3.910  0.00  0.00     0.047 H 
ATOM     18  N   LIG d   1       3.934  -1.737  -4.988  0.00  0.00    -0.295 N 
ATOM     19  C   LIG d   1       7.318  -2.799  -4.506  0.00  0.00     0.227 A 
ATOM     20  O   LIG d   1       7.801  -3.230  -3.482  0.00  0.00    -0.275 OA
ATOM     21  N   LIG d   1       7.601  -3.237  -5.738  0.00  0.00    -0.241 N 
ATOM     22  C   LIG d   1       6.942  -2.597  -6.732  0.00  0.00     0.228 A 
ATOM     23  O   LIG d   1       7.045  -2.824  -7.918  0.00  0.00    -0.275 OA
ATOM     24  H   LIG d   1       4.060   0.913  -6.822  0.00  0.00     0.062 H 
ATOM     25  H   LIG d   1       2.057   0.111 -10.500  0.00  0.00     0.064 H 
ATOM     26  H   LIG d   1       3.565  -4.154  -8.430  0.00  0.00     0.155 HD
ATOM     27  H   LIG d   1       3.695  -0.765  -4.856  0.00  0.00     0.123 HD
ENDROOT
BRANCH  16  28
ATOM     28  C   LIG d   1       4.708  -1.506  -2.641  0.00  0.00    -0.028 C 
ATOM     29  H   LIG d   1       4.728  -2.270  -1.864  0.00  0.00     0.029 H 
ATOM     30  H   LIG d   1       5.486  -0.769  -2.445  0.00  0.00     0.029 H 
BRANCH  28  31
ATOM     31  C   LIG d   1       3.342  -0.817  -2.644  0.00  0.00    -0.005 C 
ATOM     32  H   LIG d   1       2.813  -1.065  -3.564  0.00  0.00     0.038 H 
ATOM     33  H   LIG d   1       2.761  -1.161  -1.787  0.00  0.00     0.038 H 
BRANCH  31  34
ATOM     34  S   LIG d   1       3.569   0.979  -2.541  0.00  0.00    -0.164 SA
BRANCH  34  35
ATOM     35  C   LIG d   1       5.370   1.196  -2.577  0.00  0.00    -0.018 C 
ATOM     36  H   LIG d   1       5.771   0.762  -3.493  0.00  0.00     0.034 H 
ATOM     37  H   LIG d   1       5.609   2.259  -2.543  0.00  0.00     0.034 H 
ATOM     38  H   LIG d   1       5.813   0.697  -1.714  0.00  0.00     0.034 H 
ENDBRANCH  34  35
ENDBRANCH  31  34
ENDBRANCH  28  31
ENDBRANCH  16  28
BRANCH   1  39
ATOM     39  C   LIG d   1       2.813   2.139  -8.884  0.00  0.00    -0.040 C 
ATOM     40  H   LIG d   1       2.099   2.500  -8.144  0.00  0.00     0.028 H 
ATOM     41  H   LIG d   1       3.757   2.670  -8.767  0.00  0.00     0.028 H 
ATOM     42  H   LIG d   1       2.419   2.313  -9.885  0.00  0.00     0.028 H 
ENDBRANCH   1  39
BRANCH  21  43
ATOM     43  C   LIG d   1       8.557  -4.317  -5.995  0.00  0.00     0.026 C 
ATOM     44  H   LIG d   1       9.104  -4.108  -6.914  0.00  0.00     0.047 H 
ATOM     45  H   LIG d   1       9.257  -4.389  -5.163  0.00  0.00     0.047 H 
BRANCH  43  46
ATOM     46  C   LIG d   1       7.802  -5.640  -6.142  0.00  0.00    -0.011 C 
ATOM     47  H   LIG d   1       6.728  -5.448  -6.146  0.00  0.00     0.033 H 
ATOM     48  H   LIG d   1       8.088  -6.121  -7.076  0.00  0.00     0.033 H 
BRANCH  46  49
ATOM     49  C   LIG d   1       8.145  -6.545  -4.985  0.00  0.00    -0.046 A 
ATOM     50  C   LIG d   1       7.494  -7.755  -4.839  0.00  0.00    -0.059 A 
ATOM     51  C   LIG d   1       7.811  -8.586  -3.781  0.00  0.00    -0.061 A 
ATOM     52  H   LIG d   1       6.740  -8.053  -5.552  0.00  0.00     0.062 H 
ATOM     53  C   LIG d   1       8.773  -8.203  -2.865  0.00  0.00    -0.062 A 
ATOM     54  H   LIG d   1       7.306  -9.533  -3.668  0.00  0.00     0.062 H 
ATOM     55  C   LIG d   1       9.421  -6.990  -3.009  0.00  0.00    -0.061 A 
ATOM     56  H   LIG d   1       9.020  -8.851  -2.037  0.00  0.00     0.062 H 
ATOM     57  C   LIG d   1       9.107  -6.161  -4.070  0.00  0.00    -0.059 A 
ATOM     58  H   LIG d   1      10.172  -6.691  -2.294  0.00  0.00     0.062 H 
ATOM     59  H   LIG d   1       9.612  -5.213  -4.183  0.00  0.00     0.062 H 
ENDBRANCH  46  49
ENDBRANCH  43  46
ENDBRANCH  21  43
TORSDOF 8
ENDMDL
MODEL 6
REMARK VINA RESULT:      -6.5      4.069      6.740
REMARK  8 active torsions:
REMARK  status: ('A' for Active; 'I' for Inactive)
REMARK    1  A    between atoms: C_1  and  C_2 
REMARK    2  A    between atoms: C_17  and  C_20 
REMARK    3  A    between atoms: C_20  and  C_21 
REMARK    4  A    between atoms: C_21  and  S_22 
REMARK    5  A    between atoms: S_22  and  C_23 
REMARK    6  A    between atoms: N_26  and  C_29 
REMARK    7  A    between atoms: C_29  and  C_30 
REMARK    8  A    between atoms: C_30  and  C_31 
ROOT
ATOM      1  C   LIG d   1      10.006   3.845  -5.283  0.00  0.00    -0.049 A 
ATOM      2  C   LIG d   1       9.116   2.962  -5.868  0.00  0.00    -0.051 A 
ATOM      3  C   LIG d   1       9.284   1.605  -5.708  0.00  0.00     0.005 A 
ATOM      4  C   LIG d   1      10.346   1.106  -4.959  0.00  0.00     0.057 A 
ATOM      5  C   LIG d   1      11.240   2.002  -4.374  0.00  0.00     0.063 A 
ATOM      6  C   LIG d   1      11.069   3.362  -4.543  0.00  0.00    -0.039 A 
ATOM      7 CL   LIG d   1      12.574   1.407  -3.437  0.00  0.00    -0.082 Cl
ATOM      8  N   LIG d   1      10.308  -0.291  -4.936  0.00  0.00    -0.282 N 
ATOM      9  C   LIG d   1       9.266  -0.781  -5.635  0.00  0.00     0.243 A 
ATOM     10  O   LIG d   1       8.981  -1.951  -5.785  0.00  0.00    -0.273 OA
ATOM     11  C   LIG d   1       8.524   0.404  -6.192  0.00  0.00     0.136 A 
ATOM     12  C   LIG d   1       7.067   0.428  -5.716  0.00  0.00     0.080 A 
ATOM     13  H   LIG d   1       6.731   1.432  -5.454  0.00  0.00     0.043 H 
ATOM     14  C   LIG d   1       6.260  -0.189  -6.893  0.00  0.00     0.065 A 
ATOM     15  H   LIG d   1       5.482   0.476  -7.267  0.00  0.00     0.042 H 
ATOM     16  C   LIG d   1       7.319  -0.528  -7.963  0.00  0.00     0.021 C 
ATOM     17  H   LIG d   1       7.629  -1.570  -7.872  0.00  0.00     0.047 H 
ATOM     18  N   LIG d   1       8.468   0.356  -7.665  0.00  0.00    -0.295 N 
ATOM     19  C   LIG d   1       5.704  -1.465  -6.301  0.00  0.00     0.227 A 
ATOM     20  O   LIG d   1       5.003  -2.261  -6.887  0.00  0.00    -0.275 OA
ATOM     21  N   LIG d   1       6.106  -1.578  -5.030  0.00  0.00    -0.241 N 
ATOM     22  C   LIG d   1       6.879  -0.560  -4.588  0.00  0.00     0.228 A 
ATOM     23  O   LIG d   1       7.351  -0.452  -3.476  0.00  0.00    -0.275 OA
ATOM     24  H   LIG d   1       8.287   3.337  -6.450  0.00  0.00     0.062 H 
ATOM     25  H   LIG d   1      11.767   4.051  -4.091  0.00  0.00     0.064 H 
ATOM     26  H   LIG d   1      10.956  -0.842  -4.472  0.00  0.00     0.155 HD
ATOM     27  H   LIG d   1       8.314   1.275  -8.051  0.00  0.00     0.123 HD
ENDROOT
BRANCH  16  28
ATOM     28  C   LIG d   1       6.766  -0.260  -9.364  0.00  0.00    -0.028 C 
ATOM     29  H   LIG d   1       7.591  -0.190 -10.073  0.00  0.00     0.029 H 
ATOM     30  H   LIG d   1       6.105  -1.075  -9.655  0.00  0.00     0.029 H 
BRANCH  28  31
ATOM     31  C   LIG d   1       5.984   1.055  -9.362  0.00  0.00    -0.005 C 
ATOM     32  H   LIG d   1       5.695   1.303  -8.341  0.00  0.00     0.038 H 
ATOM     33  H   LIG d   1       6.612   1.851  -9.765  0.00  0.00     0.038 H 
BRANCH  31  34
ATOM     34  S   LIG d   1       4.499   0.878 -10.387  0.00  0.00    -0.164 SA
BRANCH  34  35
ATOM     35  C   LIG d   1       3.567  -0.454  -9.581  0.00  0.00    -0.018 C 
ATOM     36  H   LIG d   1       3.029  -0.053  -8.722  0.00  0.00     0.034 H 
ATOM     37  H   LIG d   1       2.856  -0.880 -10.289  0.00  0.00     0.034 H 
ATOM     38  H   LIG d   1       4.257  -1.230  -9.248  0.00  0.00     0.034 H 
ENDBRANCH  34  35
ENDBRANCH  31  34
ENDBRANCH  28  31
ENDBRANCH  16  28
BRANCH   1  39
ATOM     39  C   LIG d   1       9.821   5.331  -5.458  0.00  0.00    -0.040 C 
ATOM     40  H   LIG d   1       9.954   5.829  -4.499  0.00  0.00     0.028 H 
ATOM     41  H   LIG d   1      10.557   5.707  -6.168  0.00  0.00     0.028 H 
ATOM     42  H   LIG d   1       8.817   5.529  -5.836  0.00  0.00     0.028 H 
ENDBRANCH   1  39
BRANCH  21  43
ATOM     43  C   LIG d   1       5.731  -2.710  -4.178  0.00  0.00     0.026 C 
ATOM     44  H   LIG d   1       5.855  -3.639  -4.733  0.00  0.00     0.047 H 
ATOM     45  H   LIG d   1       6.369  -2.726  -3.294  0.00  0.00     0.047 H 
BRANCH  43  46
ATOM     46  C   LIG d   1       4.270  -2.562  -3.749  0.00  0.00    -0.011 C 
ATOM     47  H   LIG d   1       3.619  -2.762  -4.601  0.00  0.00     0.033 H 
ATOM     48  H   LIG d   1       4.052  -3.271  -2.952  0.00  0.00     0.033 H 
BRANCH  46  49
ATOM     49  C   LIG d   1       4.031  -1.159  -3.253  0.00  0.00    -0.046 A 
ATOM     50  C   LIG d   1       3.335  -0.258  -4.038  0.00  0.00    -0.059 A 
ATOM     51  C   LIG d   1       3.112   1.027  -3.581  0.00  0.00    -0.061 A 
ATOM     52  H   LIG d   1       2.962  -0.560  -5.005  0.00  0.00     0.062 H 
ATOM     53  C   LIG d   1       3.594   1.415  -2.344  0.00  0.00    -0.062 A 
ATOM     54  H   LIG d   1       2.566   1.730  -4.191  0.00  0.00     0.062 H 
ATOM     55  C   LIG d   1       4.293   0.516  -1.562  0.00  0.00    -0.061 A 
ATOM     56  H   LIG d   1       3.421   2.419  -1.988  0.00  0.00     0.062 H 
ATOM     57  C   LIG d   1       4.512  -0.772  -2.017  0.00  0.00    -0.059 A 
ATOM     58  H   LIG d   1       4.668   0.817  -0.596  0.00  0.00     0.062 H 
ATOM     59  H   LIG d   1       5.060  -1.475  -1.406  0.00  0.00     0.062 H 
ENDBRANCH  46  49
ENDBRANCH  43  46
ENDBRANCH  21  43
TORSDOF 8
ENDMDL
MODEL 7
REMARK VINA RESULT:      -6.5      3.939      5.447
REMARK  8 active torsions:
REMARK  status: ('A' for Active; 'I' for Inactive)
REMARK    1  A    between atoms: C_1  and  C_2 
REMARK    2  A    between atoms: C_17  and  C_20 
REMARK    3  A    between atoms: C_20  and  C_21 
REMARK    4  A    between atoms: C_21  and  S_22 
REMARK    5  A    between atoms: S_22  and  C_23 
REMARK    6  A    between atoms: N_26  and  C_29 
REMARK    7  A    between atoms: C_29  and  C_30 
REMARK    8  A    between atoms: C_30  and  C_31 
ROOT
ATOM      1  C   LIG d   1       4.137  -1.378 -13.620  0.00  0.00    -0.049 A 
ATOM      2  C   LIG d   1       4.736  -0.852 -12.489  0.00  0.00    -0.051 A 
ATOM      3  C   LIG d   1       3.983  -0.591 -11.366  0.00  0.00     0.005 A 
ATOM      4  C   LIG d   1       2.616  -0.853 -11.354  0.00  0.00     0.057 A 
ATOM      5  C   LIG d   1       2.019  -1.382 -12.498  0.00  0.00     0.063 A 
ATOM      6  C   LIG d   1       2.779  -1.635 -13.623  0.00  0.00    -0.039 A 
ATOM      7 CL   LIG d   1       0.316  -1.716 -12.510  0.00  0.00    -0.082 Cl
ATOM      8  N   LIG d   1       2.069  -0.513 -10.114  0.00  0.00    -0.282 N 
ATOM      9  C   LIG d   1       2.998  -0.029  -9.267  0.00  0.00     0.243 A 
ATOM     10  O   LIG d   1       2.814   0.341  -8.126  0.00  0.00    -0.273 OA
ATOM     11  C   LIG d   1       4.306  -0.037 -10.009  0.00  0.00     0.136 A 
ATOM     12  C   LIG d   1       5.356  -0.889  -9.287  0.00  0.00     0.080 A 
ATOM     13  H   LIG d   1       5.950  -1.492  -9.976  0.00  0.00     0.043 H 
ATOM     14  C   LIG d   1       6.214   0.135  -8.492  0.00  0.00     0.065 A 
ATOM     15  H   LIG d   1       7.273   0.087  -8.743  0.00  0.00     0.042 H 
ATOM     16  C   LIG d   1       5.587   1.509  -8.814  0.00  0.00     0.021 C 
ATOM     17  H   LIG d   1       4.870   1.789  -8.042  0.00  0.00     0.047 H 
ATOM     18  N   LIG d   1       4.879   1.319 -10.100  0.00  0.00    -0.295 N 
ATOM     19  C   LIG d   1       5.938  -0.227  -7.050  0.00  0.00     0.227 A 
ATOM     20  O   LIG d   1       6.416   0.331  -6.085  0.00  0.00    -0.275 OA
ATOM     21  N   LIG d   1       5.087  -1.257  -7.004  0.00  0.00    -0.241 N 
ATOM     22  C   LIG d   1       4.693  -1.720  -8.213  0.00  0.00     0.228 A 
ATOM     23  O   LIG d   1       3.932  -2.643  -8.411  0.00  0.00    -0.275 OA
ATOM     24  H   LIG d   1       5.796  -0.645 -12.486  0.00  0.00     0.062 H 
ATOM     25  H   LIG d   1       2.310  -2.041 -14.507  0.00  0.00     0.064 H 
ATOM     26  H   LIG d   1       1.132  -0.614  -9.890  0.00  0.00     0.155 HD
ATOM     27  H   LIG d   1       5.525   1.388 -10.871  0.00  0.00     0.123 HD
ENDROOT
BRANCH  16  28
ATOM     28  C   LIG d   1       6.677   2.576  -8.938  0.00  0.00    -0.028 C 
ATOM     29  H   LIG d   1       6.443   3.239  -9.771  0.00  0.00     0.029 H 
ATOM     30  H   LIG d   1       6.723   3.155  -8.016  0.00  0.00     0.029 H 
BRANCH  28  31
ATOM     31  C   LIG d   1       8.027   1.902  -9.186  0.00  0.00    -0.005 C 
ATOM     32  H   LIG d   1       8.012   0.895  -8.768  0.00  0.00     0.038 H 
ATOM     33  H   LIG d   1       8.213   1.846 -10.259  0.00  0.00     0.038 H 
BRANCH  31  34
ATOM     34  S   LIG d   1       9.341   2.868  -8.393  0.00  0.00    -0.164 SA
BRANCH  34  35
ATOM     35  C   LIG d   1       9.144   2.508  -6.626  0.00  0.00    -0.018 C 
ATOM     36  H   LIG d   1      10.049   2.799  -6.092  0.00  0.00     0.034 H 
ATOM     37  H   LIG d   1       8.294   3.067  -6.234  0.00  0.00     0.034 H 
ATOM     38  H   LIG d   1       8.969   1.440  -6.490  0.00  0.00     0.034 H 
ENDBRANCH  34  35
ENDBRANCH  31  34
ENDBRANCH  28  31
ENDBRANCH  16  28
BRANCH   1  39
ATOM     39  C   LIG d   1       4.962  -1.662 -14.849  0.00  0.00    -0.040 C 
ATOM     40  H   LIG d   1       4.305  -1.767 -15.712  0.00  0.00     0.028 H 
ATOM     41  H   LIG d   1       5.657  -0.840 -15.018  0.00  0.00     0.028 H 
ATOM     42  H   LIG d   1       5.522  -2.587 -14.703  0.00  0.00     0.028 H 
ENDBRANCH   1  39
BRANCH  21  43
ATOM     43  C   LIG d   1       4.622  -1.847  -5.746  0.00  0.00     0.026 C 
ATOM     44  H   LIG d   1       4.341  -2.886  -5.913  0.00  0.00     0.047 H 
ATOM     45  H   LIG d   1       5.422  -1.800  -5.006  0.00  0.00     0.047 H 
BRANCH  43  46
ATOM     46  C   LIG d   1       3.409  -1.067  -5.235  0.00  0.00    -0.011 C 
ATOM     47  H   LIG d   1       3.129  -0.309  -5.969  0.00  0.00     0.033 H 
ATOM     48  H   LIG d   1       2.575  -1.750  -5.083  0.00  0.00     0.033 H 
BRANCH  46  49
ATOM     49  C   LIG d   1       3.756  -0.397  -3.930  0.00  0.00    -0.046 A 
ATOM     50  C   LIG d   1       4.343  -1.126  -2.913  0.00  0.00    -0.059 A 
ATOM     51  C   LIG d   1       4.664  -0.511  -1.718  0.00  0.00    -0.061 A 
ATOM     52  H   LIG d   1       4.554  -2.176  -3.054  0.00  0.00     0.062 H 
ATOM     53  C   LIG d   1       4.390   0.832  -1.536  0.00  0.00    -0.062 A 
ATOM     54  H   LIG d   1       5.126  -1.079  -0.925  0.00  0.00     0.062 H 
ATOM     55  C   LIG d   1       3.799   1.560  -2.551  0.00  0.00    -0.061 A 
ATOM     56  H   LIG d   1       4.639   1.312  -0.602  0.00  0.00     0.062 H 
ATOM     57  C   LIG d   1       3.482   0.946  -3.749  0.00  0.00    -0.059 A 
ATOM     58  H   LIG d   1       3.585   2.609  -2.410  0.00  0.00     0.062 H 
ATOM     59  H   LIG d   1       3.019   1.515  -4.542  0.00  0.00     0.062 H 
ENDBRANCH  46  49
ENDBRANCH  43  46
ENDBRANCH  21  43
TORSDOF 8
ENDMDL
MODEL 8
REMARK VINA RESULT:      -6.4      6.086      9.439
REMARK  8 active torsions:
REMARK  status: ('A' for Active; 'I' for Inactive)
REMARK    1  A    between atoms: C_1  and  C_2 
REMARK    2  A    between atoms: C_17  and  C_20 
REMARK    3  A    between atoms: C_20  and  C_21 
REMARK    4  A    between atoms: C_21  and  S_22 
REMARK    5  A    between atoms: S_22  and  C_23 
REMARK    6  A    between atoms: N_26  and  C_29 
REMARK    7  A    between atoms: C_29  and  C_30 
REMARK    8  A    between atoms: C_30  and  C_31 
ROOT
ATOM      1  C   LIG d   1       9.526   7.275  -5.167  0.00  0.00    -0.049 A 
ATOM      2  C   LIG d   1       9.720   6.050  -5.780  0.00  0.00    -0.051 A 
ATOM      3  C   LIG d   1      10.015   4.938  -5.022  0.00  0.00     0.005 A 
ATOM      4  C   LIG d   1      10.120   5.032  -3.638  0.00  0.00     0.057 A 
ATOM      5  C   LIG d   1       9.924   6.270  -3.028  0.00  0.00     0.063 A 
ATOM      6  C   LIG d   1       9.635   7.382  -3.794  0.00  0.00    -0.039 A 
ATOM      7 CL   LIG d   1      10.052   6.415  -1.303  0.00  0.00    -0.082 Cl
ATOM      8  N   LIG d   1      10.421   3.782  -3.090  0.00  0.00    -0.282 N 
ATOM      9  C   LIG d   1      10.528   2.827  -4.034  0.00  0.00     0.243 A 
ATOM     10  O   LIG d   1      10.776   1.653  -3.852  0.00  0.00    -0.273 OA
ATOM     11  C   LIG d   1      10.278   3.499  -5.357  0.00  0.00     0.136 A 
ATOM     12  C   LIG d   1       9.092   2.864  -6.093  0.00  0.00     0.080 A 
ATOM     13  H   LIG d   1       8.453   3.607  -6.573  0.00  0.00     0.043 H 
ATOM     14  C   LIG d   1       9.740   1.882  -7.109  0.00  0.00     0.065 A 
ATOM     15  H   LIG d   1       9.451   2.087  -8.140  0.00  0.00     0.042 H 
ATOM     16  C   LIG d   1      11.260   2.022  -6.879  0.00  0.00     0.021 C 
ATOM     17  H   LIG d   1      11.611   1.252  -6.191  0.00  0.00     0.047 H 
ATOM     18  N   LIG d   1      11.437   3.354  -6.258  0.00  0.00    -0.295 N 
ATOM     19  C   LIG d   1       9.273   0.527  -6.629  0.00  0.00     0.227 A 
ATOM     20  O   LIG d   1       9.551  -0.534  -7.146  0.00  0.00    -0.275 OA
ATOM     21  N   LIG d   1       8.504   0.679  -5.545  0.00  0.00    -0.241 N 
ATOM     22  C   LIG d   1       8.327   1.962  -5.152  0.00  0.00     0.228 A 
ATOM     23  O   LIG d   1       7.670   2.334  -4.204  0.00  0.00    -0.275 OA
ATOM     24  H   LIG d   1       9.639   5.964  -6.853  0.00  0.00     0.062 H 
ATOM     25  H   LIG d   1       9.488   8.340  -3.315  0.00  0.00     0.064 H 
ATOM     26  H   LIG d   1      10.540   3.621  -2.142  0.00  0.00     0.155 HD
ATOM     27  H   LIG d   1      11.437   4.074  -6.965  0.00  0.00     0.123 HD
ENDROOT
BRANCH  16  28
ATOM     28  C   LIG d   1      12.012   1.929  -8.208  0.00  0.00    -0.028 C 
ATOM     29  H   LIG d   1      12.861   2.613  -8.193  0.00  0.00     0.029 H 
ATOM     30  H   LIG d   1      12.369   0.910  -8.352  0.00  0.00     0.029 H 
BRANCH  28  31
ATOM     31  C   LIG d   1      11.073   2.309  -9.354  0.00  0.00    -0.005 C 
ATOM     32  H   LIG d   1      11.235   1.633 -10.194  0.00  0.00     0.038 H 
ATOM     33  H   LIG d   1      10.038   2.228  -9.018  0.00  0.00     0.038 H 
BRANCH  31  34
ATOM     34  S   LIG d   1      11.409   4.013  -9.874  0.00  0.00    -0.164 SA
BRANCH  34  35
ATOM     35  C   LIG d   1       9.936   4.931  -9.346  0.00  0.00    -0.018 C 
ATOM     36  H   LIG d   1      10.089   5.996  -9.521  0.00  0.00     0.034 H 
ATOM     37  H   LIG d   1       9.071   4.589  -9.914  0.00  0.00     0.034 H 
ATOM     38  H   LIG d   1       9.762   4.759  -8.283  0.00  0.00     0.034 H 
ENDBRANCH  34  35
ENDBRANCH  31  34
ENDBRANCH  28  31
ENDBRANCH  16  28
BRANCH   1  39
ATOM     39  C   LIG d   1       9.203   8.491  -5.997  0.00  0.00    -0.040 C 
ATOM     40  H   LIG d   1       8.182   8.812  -5.790  0.00  0.00     0.028 H 
ATOM     41  H   LIG d   1       9.894   9.296  -5.746  0.00  0.00     0.028 H 
ATOM     42  H   LIG d   1       9.299   8.245  -7.054  0.00  0.00     0.028 H 
ENDBRANCH   1  39
BRANCH  21  43
ATOM     43  C   LIG d   1       7.893  -0.451  -4.841  0.00  0.00     0.026 C 
ATOM     44  H   LIG d   1       8.462  -1.357  -5.045  0.00  0.00     0.047 H 
ATOM     45  H   LIG d   1       7.894  -0.254  -3.768  0.00  0.00     0.047 H 
BRANCH  43  46
ATOM     46  C   LIG d   1       6.453  -0.633  -5.324  0.00  0.00    -0.011 C 
ATOM     47  H   LIG d   1       6.096   0.300  -5.763  0.00  0.00     0.033 H 
ATOM     48  H   LIG d   1       6.417  -1.423  -6.073  0.00  0.00     0.033 H 
BRANCH  46  49
ATOM     49  C   LIG d   1       5.575  -1.006  -4.157  0.00  0.00    -0.046 A 
ATOM     50  C   LIG d   1       5.445  -0.142  -3.086  0.00  0.00    -0.059 A 
ATOM     51  C   LIG d   1       4.636  -0.483  -2.018  0.00  0.00    -0.061 A 
ATOM     52  H   LIG d   1       5.972   0.800  -3.085  0.00  0.00     0.062 H 
ATOM     53  C   LIG d   1       3.965  -1.692  -2.017  0.00  0.00    -0.062 A 
ATOM     54  H   LIG d   1       4.532   0.192  -1.183  0.00  0.00     0.062 H 
ATOM     55  C   LIG d   1       4.098  -2.557  -3.086  0.00  0.00    -0.061 A 
ATOM     56  H   LIG d   1       3.334  -1.959  -1.182  0.00  0.00     0.062 H 
ATOM     57  C   LIG d   1       4.903  -2.214  -4.157  0.00  0.00    -0.059 A 
ATOM     58  H   LIG d   1       3.573  -3.501  -3.086  0.00  0.00     0.062 H 
ATOM     59  H   LIG d   1       5.008  -2.891  -4.992  0.00  0.00     0.062 H 
ENDBRANCH  46  49
ENDBRANCH  43  46
ENDBRANCH  21  43
TORSDOF 8
ENDMDL
MODEL 9
REMARK VINA RESULT:      -6.3      5.459      8.837
REMARK  8 active torsions:
REMARK  status: ('A' for Active; 'I' for Inactive)
REMARK    1  A    between atoms: C_1  and  C_2 
REMARK    2  A    between atoms: C_17  and  C_20 
REMARK    3  A    between atoms: C_20  and  C_21 
REMARK    4  A    between atoms: C_21  and  S_22 
REMARK    5  A    between atoms: S_22  and  C_23 
REMARK    6  A    between atoms: N_26  and  C_29 
REMARK    7  A    between atoms: C_29  and  C_30 
REMARK    8  A    between atoms: C_30  and  C_31 
ROOT
ATOM      1  C   LIG d   1       5.355   0.420  -2.732  0.00  0.00    -0.049 A 
ATOM      2  C   LIG d   1       6.384   1.262  -3.116  0.00  0.00    -0.051 A 
ATOM      3  C   LIG d   1       7.455   0.765  -3.825  0.00  0.00     0.005 A 
ATOM      4  C   LIG d   1       7.516  -0.584  -4.163  0.00  0.00     0.057 A 
ATOM      5  C   LIG d   1       6.476  -1.426  -3.772  0.00  0.00     0.063 A 
ATOM      6  C   LIG d   1       5.408  -0.923  -3.056  0.00  0.00    -0.039 A 
ATOM      7 CL   LIG d   1       6.528  -3.112  -4.179  0.00  0.00    -0.082 Cl
ATOM      8  N   LIG d   1       8.686  -0.850  -4.879  0.00  0.00    -0.282 N 
ATOM      9  C   LIG d   1       9.436   0.254  -5.053  0.00  0.00     0.243 A 
ATOM     10  O   LIG d   1      10.498   0.324  -5.638  0.00  0.00    -0.273 OA
ATOM     11  C   LIG d   1       8.704   1.384  -4.382  0.00  0.00     0.136 A 
ATOM     12  C   LIG d   1       8.382   2.510  -5.372  0.00  0.00     0.080 A 
ATOM     13  H   LIG d   1       7.382   2.919  -5.228  0.00  0.00     0.043 H 
ATOM     14  C   LIG d   1       9.502   3.564  -5.144  0.00  0.00     0.065 A 
ATOM     15  H   LIG d   1       9.112   4.547  -4.881  0.00  0.00     0.042 H 
ATOM     16  C   LIG d   1      10.392   2.962  -4.037  0.00  0.00     0.021 C 
ATOM     17  H   LIG d   1      11.237   2.430  -4.477  0.00  0.00     0.047 H 
ATOM     18  N   LIG d   1       9.524   2.000  -3.322  0.00  0.00    -0.295 N 
ATOM     19  C   LIG d   1      10.250   3.565  -6.458  0.00  0.00     0.227 A 
ATOM     20  O   LIG d   1      11.213   4.257  -6.715  0.00  0.00    -0.275 OA
ATOM     21  N   LIG d   1       9.686   2.686  -7.293  0.00  0.00    -0.241 N 
ATOM     22  C   LIG d   1       8.615   2.032  -6.787  0.00  0.00     0.228 A 
ATOM     23  O   LIG d   1       7.950   1.198  -7.363  0.00  0.00    -0.275 OA
ATOM     24  H   LIG d   1       6.347   2.310  -2.861  0.00  0.00     0.062 H 
ATOM     25  H   LIG d   1       4.608  -1.581  -2.752  0.00  0.00     0.064 H 
ATOM     26  H   LIG d   1       8.929  -1.728  -5.212  0.00  0.00     0.155 HD
ATOM     27  H   LIG d   1       8.944   2.481  -2.651  0.00  0.00     0.123 HD
ENDROOT
BRANCH  16  28
ATOM     28  C   LIG d   1      10.889   4.060  -3.095  0.00  0.00    -0.028 C 
ATOM     29  H   LIG d   1      11.040   3.644  -2.099  0.00  0.00     0.029 H 
ATOM     30  H   LIG d   1      11.832   4.459  -3.468  0.00  0.00     0.029 H 
BRANCH  28  31
ATOM     31  C   LIG d   1       9.852   5.183  -3.027  0.00  0.00    -0.005 C 
ATOM     32  H   LIG d   1       9.384   5.304  -4.004  0.00  0.00     0.038 H 
ATOM     33  H   LIG d   1       9.090   4.929  -2.288  0.00  0.00     0.038 H 
BRANCH  31  34
ATOM     34  S   LIG d   1      10.666   6.731  -2.549  0.00  0.00    -0.164 SA
BRANCH  34  35
ATOM     35  C   LIG d   1       9.521   7.478  -1.356  0.00  0.00    -0.018 C 
ATOM     36  H   LIG d   1       8.732   8.006  -1.892  0.00  0.00     0.034 H 
ATOM     37  H   LIG d   1       9.081   6.697  -0.736  0.00  0.00     0.034 H 
ATOM     38  H   LIG d   1      10.064   8.181  -0.723  0.00  0.00     0.034 H 
ENDBRANCH  34  35
ENDBRANCH  31  34
ENDBRANCH  28  31
ENDBRANCH  16  28
BRANCH   1  39
ATOM     39  C   LIG d   1       4.184   0.964  -1.956  0.00  0.00    -0.040 C 
ATOM     40  H   LIG d   1       3.487   0.157  -1.735  0.00  0.00     0.028 H 
ATOM     41  H   LIG d   1       4.538   1.405  -1.024  0.00  0.00     0.028 H 
ATOM     42  H   LIG d   1       3.679   1.727  -2.550  0.00  0.00     0.028 H 
ENDBRANCH   1  39
BRANCH  21  43
ATOM     43  C   LIG d   1      10.180   2.452  -8.652  0.00  0.00     0.026 C 
ATOM     44  H   LIG d   1      11.190   2.851  -8.745  0.00  0.00     0.047 H 
ATOM     45  H   LIG d   1      10.192   1.381  -8.856  0.00  0.00     0.047 H 
BRANCH  43  46
ATOM     46  C   LIG d   1       9.262   3.152  -9.655  0.00  0.00    -0.011 C 
ATOM     47  H   LIG d   1       9.357   2.674 -10.631  0.00  0.00     0.033 H 
ATOM     48  H   LIG d   1       8.229   3.080  -9.316  0.00  0.00     0.033 H 
BRANCH  46  49
ATOM     49  C   LIG d   1       9.653   4.604  -9.767  0.00  0.00    -0.046 A 
ATOM     50  C   LIG d   1       8.783   5.589  -9.340  0.00  0.00    -0.059 A 
ATOM     51  C   LIG d   1       9.143   6.920  -9.439  0.00  0.00    -0.061 A 
ATOM     52  H   LIG d   1       7.823   5.319  -8.926  0.00  0.00     0.062 H 
ATOM     53  C   LIG d   1      10.370   7.265  -9.975  0.00  0.00    -0.062 A 
ATOM     54  H   LIG d   1       8.466   7.689  -9.103  0.00  0.00     0.062 H 
ATOM     55  C   LIG d   1      11.239   6.280 -10.406  0.00  0.00    -0.061 A 
ATOM     56  H   LIG d   1      10.652   8.305 -10.054  0.00  0.00     0.062 H 
ATOM     57  C   LIG d   1      10.880   4.949 -10.302  0.00  0.00    -0.059 A 
ATOM     58  H   LIG d   1      12.197   6.550 -10.823  0.00  0.00     0.062 H 
ATOM     59  H   LIG d   1      11.558   4.179 -10.640  0.00  0.00     0.062 H 
ENDBRANCH  46  49
ENDBRANCH  43  46
ENDBRANCH  21  43
TORSDOF 8
ENDMDL
