MODEL 1
REMARK VINA RESULT:      -7.7      0.000      0.000
REMARK  8 active torsions:
REMARK  status: ('A' for Active; 'I' for Inactive)
REMARK    1  A    between atoms: C_1  and  O_2 
REMARK    2  A    between atoms: O_2  and  C_3 
REMARK    3  A    between atoms: C_6  and  C_9 
REMARK       I    between atoms: C_9  and  N_11 
REMARK    4  A    between atoms: N_11  and  C_12 
REMARK    5  A    between atoms: C_27  and  C_28 
REMARK    6  A    between atoms: C_27  and  N_65 
REMARK    7  A    between atoms: C_28  and  C_29 
REMARK    8  A    between atoms: C_29  and  C_30 
ROOT
ATOM      1  C   LIG d   1       7.837   1.412  -4.582  0.00  0.00     0.099 A 
ATOM      2  C   LIG d   1       7.490   0.391  -3.739  0.00  0.00    -0.034 A 
ATOM      3  C   LIG d   1       7.012  -0.803  -4.288  0.00  0.00    -0.040 A 
ATOM      4  C   LIG d   1       6.911  -0.957  -5.633  0.00  0.00     0.030 A 
ATOM      5  N   LIG d   1       7.325   0.023  -6.475  0.00  0.00    -0.310 N 
ATOM      6  C   LIG d   1       7.722   1.219  -5.972  0.00  0.00     0.273 A 
ATOM      7  O   LIG d   1       7.984   2.135  -6.734  0.00  0.00    -0.266 OA
ATOM      8  C   LIG d   1       7.390  -0.139  -7.927  0.00  0.00     0.034 C 
ATOM      9  C   LIG d   1       6.570  -1.319  -8.417  0.00  0.00     0.018 C 
ATOM     10  H   LIG d   1       6.872  -1.547  -9.439  0.00  0.00     0.037 H 
ATOM     11  C   LIG d   1       6.866  -2.542  -7.544  0.00  0.00    -0.031 C 
ATOM     12  C   LIG d   1       6.318  -2.253  -6.142  0.00  0.00     0.040 C 
ATOM     13  H   LIG d   1       6.544  -3.077  -5.466  0.00  0.00     0.042 H 
ATOM     14  C   LIG d   1       4.798  -2.049  -6.258  0.00  0.00    -0.024 C 
ATOM     15  C   LIG d   1       5.080  -1.010  -8.429  0.00  0.00    -0.027 C 
ATOM     16  H   LIG d   1       7.585   0.507  -2.669  0.00  0.00     0.064 H 
ATOM     17  H   LIG d   1       6.719  -1.611  -3.634  0.00  0.00     0.064 H 
ATOM     18  H   LIG d   1       8.429  -0.286  -8.220  0.00  0.00     0.050 H 
ATOM     19  H   LIG d   1       7.017   0.770  -8.399  0.00  0.00     0.050 H 
ATOM     20  H   LIG d   1       7.942  -2.709  -7.494  0.00  0.00     0.028 H 
ATOM     21  H   LIG d   1       6.374  -3.421  -7.959  0.00  0.00     0.028 H 
ATOM     22  H   LIG d   1       4.367  -1.918  -5.266  0.00  0.00     0.082 H 
ATOM     23  H   LIG d   1       4.347  -2.914  -6.746  0.00  0.00     0.082 H 
ATOM     24  H   LIG d   1       4.549  -1.830  -8.915  0.00  0.00     0.082 H 
ATOM     25  H   LIG d   1       4.910  -0.093  -8.991  0.00  0.00     0.082 H 
ATOM     26  N   LIG d   1       4.577  -0.820  -7.053  0.00  0.00     0.236 N 
ATOM     27  H   LIG d   1       5.086  -0.044  -6.617  0.00  0.00     0.203 HD
ENDROOT
BRANCH  26  28
ATOM     28  C   LIG d   1       3.137  -0.491  -7.085  0.00  0.00    -0.032 C 
ATOM     29  H   LIG d   1       2.541  -1.352  -6.783  0.00  0.00     0.081 H 
ATOM     30  H   LIG d   1       2.862  -0.194  -8.096  0.00  0.00     0.081 H 
BRANCH  28  31
ATOM     31  C   LIG d   1       2.877   0.671  -6.123  0.00  0.00    -0.009 C 
ATOM     32  H   LIG d   1       2.339   1.462  -6.648  0.00  0.00     0.032 H 
ATOM     33  H   LIG d   1       3.827   1.059  -5.756  0.00  0.00     0.032 H 
BRANCH  31  34
ATOM     34  C   LIG d   1       2.037   0.178  -4.944  0.00  0.00    -0.023 C 
ATOM     35  H   LIG d   1       1.570  -0.772  -5.202  0.00  0.00     0.032 H 
ATOM     36  H   LIG d   1       1.266   0.913  -4.715  0.00  0.00     0.032 H 
BRANCH  34  37
ATOM     37  C   LIG d   1       2.924  -0.010  -3.739  0.00  0.00    -0.047 A 
ATOM     38  C   LIG d   1       3.456   1.091  -3.095  0.00  0.00    -0.059 A 
ATOM     39  C   LIG d   1       4.265   0.919  -1.987  0.00  0.00    -0.061 A 
ATOM     40  H   LIG d   1       3.237   2.085  -3.454  0.00  0.00     0.062 H 
ATOM     41  C   LIG d   1       4.550  -0.354  -1.529  0.00  0.00    -0.062 A 
ATOM     42  H   LIG d   1       4.677   1.779  -1.480  0.00  0.00     0.062 H 
ATOM     43  C   LIG d   1       4.017  -1.455  -2.174  0.00  0.00    -0.061 A 
ATOM     44  H   LIG d   1       5.184  -0.489  -0.666  0.00  0.00     0.062 H 
ATOM     45  C   LIG d   1       3.204  -1.283  -3.278  0.00  0.00    -0.059 A 
ATOM     46  H   LIG d   1       4.236  -2.450  -1.814  0.00  0.00     0.062 H 
ATOM     47  H   LIG d   1       2.788  -2.143  -3.782  0.00  0.00     0.062 H 
ENDBRANCH  34  37
ENDBRANCH  31  34
ENDBRANCH  28  31
ENDBRANCH  26  28
BRANCH   1  48
ATOM     48  N   LIG d   1       8.299   2.632  -4.070  0.00  0.00    -0.277 N 
ATOM     49  C   LIG d   1       9.585   2.758  -3.687  0.00  0.00     0.248 C 
ATOM     50  O   LIG d   1      10.364   1.843  -3.864  0.00  0.00    -0.270 OA
ATOM     51  H   LIG d   1       7.693   3.385  -3.993  0.00  0.00     0.155 HD
BRANCH  49  52
ATOM     52  C   LIG d   1      10.045   4.008  -3.052  0.00  0.00     0.037 A 
ATOM     53  C   LIG d   1      11.002   3.966  -2.034  0.00  0.00    -0.046 A 
ATOM     54  C   LIG d   1      11.429   5.135  -1.445  0.00  0.00    -0.019 A 
ATOM     55  H   LIG d   1      11.405   3.017  -1.711  0.00  0.00     0.063 H 
ATOM     56  C   LIG d   1      10.910   6.356  -1.860  0.00  0.00     0.120 A 
ATOM     57  H   LIG d   1      12.169   5.103  -0.658  0.00  0.00     0.065 H 
ATOM     58  C   LIG d   1       9.959   6.402  -2.872  0.00  0.00    -0.019 A 
ATOM     59  C   LIG d   1       9.530   5.239  -3.471  0.00  0.00    -0.046 A 
ATOM     60  H   LIG d   1       9.557   7.353  -3.192  0.00  0.00     0.065 H 
ATOM     61  H   LIG d   1       8.794   5.275  -4.261  0.00  0.00     0.063 H 
BRANCH  56  62
ATOM     62  O   LIG d   1      11.334   7.505  -1.276  0.00  0.00    -0.495 OA
BRANCH  62  63
ATOM     63  C   LIG d   1      10.395   8.198  -0.452  0.00  0.00     0.079 C 
ATOM     64  H   LIG d   1       9.528   8.484  -1.047  0.00  0.00     0.066 H 
ATOM     65  H   LIG d   1      10.077   7.547   0.364  0.00  0.00     0.066 H 
ATOM     66  H   LIG d   1      10.863   9.091  -0.039  0.00  0.00     0.066 H 
ENDBRANCH  62  63
ENDBRANCH  56  62
ENDBRANCH  49  52
ENDBRANCH   1  48
TORSDOF 8
ENDMDL
MODEL 2
REMARK VINA RESULT:      -7.1      1.477      2.237
REMARK  8 active torsions:
REMARK  status: ('A' for Active; 'I' for Inactive)
REMARK    1  A    between atoms: C_1  and  O_2 
REMARK    2  A    between atoms: O_2  and  C_3 
REMARK    3  A    between atoms: C_6  and  C_9 
REMARK       I    between atoms: C_9  and  N_11 
REMARK    4  A    between atoms: N_11  and  C_12 
REMARK    5  A    between atoms: C_27  and  C_28 
REMARK    6  A    between atoms: C_27  and  N_65 
REMARK    7  A    between atoms: C_28  and  C_29 
REMARK    8  A    between atoms: C_29  and  C_30 
ROOT
ATOM      1  C   LIG d   1       7.994   0.976  -6.842  0.00  0.00     0.099 A 
ATOM      2  C   LIG d   1       7.938  -0.297  -6.342  0.00  0.00    -0.034 A 
ATOM      3  C   LIG d   1       7.098  -1.228  -6.961  0.00  0.00    -0.040 A 
ATOM      4  C   LIG d   1       6.364  -0.883  -8.051  0.00  0.00     0.030 A 
ATOM      5  N   LIG d   1       6.475   0.354  -8.596  0.00  0.00    -0.310 N 
ATOM      6  C   LIG d   1       7.223   1.299  -7.975  0.00  0.00     0.273 A 
ATOM      7  O   LIG d   1       7.229   2.442  -8.403  0.00  0.00    -0.266 OA
ATOM      8  C   LIG d   1       5.836   0.738  -9.855  0.00  0.00     0.034 C 
ATOM      9  C   LIG d   1       4.726  -0.217 -10.257  0.00  0.00     0.018 C 
ATOM     10  H   LIG d   1       4.485  -0.041 -11.306  0.00  0.00     0.037 H 
ATOM     11  C   LIG d   1       5.217  -1.659 -10.112  0.00  0.00    -0.031 C 
ATOM     12  C   LIG d   1       5.428  -1.928  -8.618  0.00  0.00     0.040 C 
ATOM     13  H   LIG d   1       5.822  -2.931  -8.461  0.00  0.00     0.042 H 
ATOM     14  C   LIG d   1       4.072  -1.763  -7.910  0.00  0.00    -0.024 C 
ATOM     15  C   LIG d   1       3.460   0.009  -9.444  0.00  0.00    -0.027 C 
ATOM     16  H   LIG d   1       8.532  -0.577  -5.485  0.00  0.00     0.064 H 
ATOM     17  H   LIG d   1       7.030  -2.232  -6.568  0.00  0.00     0.064 H 
ATOM     18  H   LIG d   1       6.590   0.754 -10.643  0.00  0.00     0.050 H 
ATOM     19  H   LIG d   1       5.419   1.739  -9.747  0.00  0.00     0.050 H 
ATOM     20  H   LIG d   1       6.159  -1.785 -10.647  0.00  0.00     0.028 H 
ATOM     21  H   LIG d   1       4.471  -2.347 -10.509  0.00  0.00     0.028 H 
ATOM     22  H   LIG d   1       4.173  -2.024  -6.856  0.00  0.00     0.082 H 
ATOM     23  H   LIG d   1       3.330  -2.408  -8.380  0.00  0.00     0.082 H 
ATOM     24  H   LIG d   1       2.655  -0.598  -9.859  0.00  0.00     0.082 H 
ATOM     25  H   LIG d   1       3.180   1.060  -9.503  0.00  0.00     0.082 H 
ATOM     26  N   LIG d   1       3.683  -0.339  -8.026  0.00  0.00     0.236 N 
ATOM     27  H   LIG d   1       4.440   0.245  -7.655  0.00  0.00     0.203 HD
ENDROOT
BRANCH  26  28
ATOM     28  C   LIG d   1       2.455  -0.085  -7.246  0.00  0.00    -0.032 C 
ATOM     29  H   LIG d   1       2.010  -1.025  -6.916  0.00  0.00     0.081 H 
ATOM     30  H   LIG d   1       1.743   0.457  -7.867  0.00  0.00     0.081 H 
BRANCH  28  31
ATOM     31  C   LIG d   1       2.815   0.763  -6.024  0.00  0.00    -0.009 C 
ATOM     32  H   LIG d   1       2.578   1.809  -6.226  0.00  0.00     0.032 H 
ATOM     33  H   LIG d   1       3.880   0.666  -5.815  0.00  0.00     0.032 H 
BRANCH  31  34
ATOM     34  C   LIG d   1       2.012   0.282  -4.814  0.00  0.00    -0.023 C 
ATOM     35  H   LIG d   1       1.475  -0.630  -5.074  0.00  0.00     0.032 H 
ATOM     36  H   LIG d   1       1.299   1.054  -4.522  0.00  0.00     0.032 H 
BRANCH  34  37
ATOM     37  C   LIG d   1       2.949   0.004  -3.667  0.00  0.00    -0.047 A 
ATOM     38  C   LIG d   1       3.215  -1.300  -3.292  0.00  0.00    -0.059 A 
ATOM     39  C   LIG d   1       4.078  -1.555  -2.244  0.00  0.00    -0.061 A 
ATOM     40  H   LIG d   1       2.751  -2.119  -3.822  0.00  0.00     0.062 H 
ATOM     41  C   LIG d   1       4.668  -0.506  -1.562  0.00  0.00    -0.062 A 
ATOM     42  H   LIG d   1       4.289  -2.574  -1.954  0.00  0.00     0.062 H 
ATOM     43  C   LIG d   1       4.402   0.798  -1.937  0.00  0.00    -0.061 A 
ATOM     44  H   LIG d   1       5.340  -0.706  -0.740  0.00  0.00     0.062 H 
ATOM     45  C   LIG d   1       3.543   1.053  -2.989  0.00  0.00    -0.059 A 
ATOM     46  H   LIG d   1       4.866   1.617  -1.407  0.00  0.00     0.062 H 
ATOM     47  H   LIG d   1       3.335   2.071  -3.282  0.00  0.00     0.062 H 
ENDBRANCH  34  37
ENDBRANCH  31  34
ENDBRANCH  28  31
ENDBRANCH  26  28
BRANCH   1  48
ATOM     48  N   LIG d   1       8.807   1.943  -6.235  0.00  0.00    -0.277 N 
ATOM     49  C   LIG d   1       8.412   2.532  -5.089  0.00  0.00     0.248 C 
ATOM     50  O   LIG d   1       7.395   2.164  -4.536  0.00  0.00    -0.270 OA
ATOM     51  H   LIG d   1       9.653   2.188  -6.641  0.00  0.00     0.155 HD
BRANCH  49  52
ATOM     52  C   LIG d   1       9.217   3.623  -4.506  0.00  0.00     0.037 A 
ATOM     53  C   LIG d   1       9.543   4.742  -5.277  0.00  0.00    -0.046 A 
ATOM     54  C   LIG d   1      10.293   5.758  -4.729  0.00  0.00    -0.019 A 
ATOM     55  H   LIG d   1       9.207   4.809  -6.302  0.00  0.00     0.063 H 
ATOM     56  C   LIG d   1      10.727   5.673  -3.411  0.00  0.00     0.120 A 
ATOM     57  H   LIG d   1      10.547   6.623  -5.325  0.00  0.00     0.065 H 
ATOM     58  C   LIG d   1      10.404   4.562  -2.641  0.00  0.00    -0.019 A 
ATOM     59  C   LIG d   1       9.649   3.544  -3.179  0.00  0.00    -0.046 A 
ATOM     60  H   LIG d   1      10.743   4.498  -1.617  0.00  0.00     0.065 H 
ATOM     61  H   LIG d   1       9.395   2.682  -2.579  0.00  0.00     0.063 H 
BRANCH  56  62
ATOM     62  O   LIG d   1      11.467   6.676  -2.875  0.00  0.00    -0.495 OA
BRANCH  62  63
ATOM     63  C   LIG d   1      10.829   7.947  -2.733  0.00  0.00     0.079 C 
ATOM     64  H   LIG d   1       9.757   7.836  -2.895  0.00  0.00     0.066 H 
ATOM     65  H   LIG d   1      11.007   8.333  -1.729  0.00  0.00     0.066 H 
ATOM     66  H   LIG d   1      11.237   8.642  -3.466  0.00  0.00     0.066 H 
ENDBRANCH  62  63
ENDBRANCH  56  62
ENDBRANCH  49  52
ENDBRANCH   1  48
TORSDOF 8
ENDMDL
MODEL 3
REMARK VINA RESULT:      -7.1      6.347     11.693
REMARK  8 active torsions:
REMARK  status: ('A' for Active; 'I' for Inactive)
REMARK    1  A    between atoms: C_1  and  O_2 
REMARK    2  A    between atoms: O_2  and  C_3 
REMARK    3  A    between atoms: C_6  and  C_9 
REMARK       I    between atoms: C_9  and  N_11 
REMARK    4  A    between atoms: N_11  and  C_12 
REMARK    5  A    between atoms: C_27  and  C_28 
REMARK    6  A    between atoms: C_27  and  N_65 
REMARK    7  A    between atoms: C_28  and  C_29 
REMARK    8  A    between atoms: C_29  and  C_30 
ROOT
ATOM      1  C   LIG d   1       1.115  -3.034 -10.436  0.00  0.00     0.099 A 
ATOM      2  C   LIG d   1       0.676  -1.951 -11.147  0.00  0.00    -0.034 A 
ATOM      3  C   LIG d   1       1.539  -0.864 -11.322  0.00  0.00    -0.040 A 
ATOM      4  C   LIG d   1       2.797  -0.888 -10.813  0.00  0.00     0.030 A 
ATOM      5  N   LIG d   1       3.264  -1.990 -10.174  0.00  0.00    -0.310 N 
ATOM      6  C   LIG d   1       2.427  -3.028  -9.924  0.00  0.00     0.273 A 
ATOM      7  O   LIG d   1       2.817  -3.968  -9.250  0.00  0.00    -0.266 OA
ATOM      8  C   LIG d   1       4.653  -2.141  -9.742  0.00  0.00     0.034 C 
ATOM      9  C   LIG d   1       5.393  -0.816  -9.695  0.00  0.00     0.018 C 
ATOM     10  H   LIG d   1       6.462  -1.023  -9.637  0.00  0.00     0.037 H 
ATOM     11  C   LIG d   1       5.123  -0.037 -10.985  0.00  0.00    -0.031 C 
ATOM     12  C   LIG d   1       3.641   0.356 -10.986  0.00  0.00     0.040 C 
ATOM     13  H   LIG d   1       3.384   0.877 -11.907  0.00  0.00     0.042 H 
ATOM     14  C   LIG d   1       3.387   1.257  -9.766  0.00  0.00    -0.024 C 
ATOM     15  C   LIG d   1       5.010   0.006  -8.474  0.00  0.00    -0.027 C 
ATOM     16  H   LIG d   1      -0.320  -1.936 -11.567  0.00  0.00     0.064 H 
ATOM     17  H   LIG d   1       1.199   0.005 -11.867  0.00  0.00     0.064 H 
ATOM     18  H   LIG d   1       5.167  -2.808 -10.434  0.00  0.00     0.050 H 
ATOM     19  H   LIG d   1       4.666  -2.588  -8.748  0.00  0.00     0.050 H 
ATOM     20  H   LIG d   1       5.341  -0.663 -11.849  0.00  0.00     0.028 H 
ATOM     21  H   LIG d   1       5.742   0.860 -11.012  0.00  0.00     0.028 H 
ATOM     22  H   LIG d   1       2.358   1.616  -9.781  0.00  0.00     0.082 H 
ATOM     23  H   LIG d   1       4.074   2.103  -9.784  0.00  0.00     0.082 H 
ATOM     24  H   LIG d   1       5.664   0.877  -8.410  0.00  0.00     0.082 H 
ATOM     25  H   LIG d   1       5.139  -0.602  -7.579  0.00  0.00     0.082 H 
ATOM     26  N   LIG d   1       3.598   0.431  -8.555  0.00  0.00     0.236 N 
ATOM     27  H   LIG d   1       3.002  -0.401  -8.611  0.00  0.00     0.203 HD
ENDROOT
BRANCH  26  28
ATOM     28  C   LIG d   1       3.235   1.202  -7.348  0.00  0.00    -0.032 C 
ATOM     29  H   LIG d   1       2.406   1.878  -7.561  0.00  0.00     0.081 H 
ATOM     30  H   LIG d   1       4.099   1.777  -7.019  0.00  0.00     0.081 H 
BRANCH  28  31
ATOM     31  C   LIG d   1       2.822   0.223  -6.246  0.00  0.00    -0.009 C 
ATOM     32  H   LIG d   1       3.659  -0.438  -6.017  0.00  0.00     0.032 H 
ATOM     33  H   LIG d   1       1.973  -0.369  -6.585  0.00  0.00     0.032 H 
BRANCH  31  34
ATOM     34  C   LIG d   1       2.431   1.005  -4.991  0.00  0.00    -0.023 C 
ATOM     35  H   LIG d   1       1.354   0.932  -4.839  0.00  0.00     0.032 H 
ATOM     36  H   LIG d   1       2.711   2.051  -5.112  0.00  0.00     0.032 H 
BRANCH  34  37
ATOM     37  C   LIG d   1       3.147   0.429  -3.796  0.00  0.00    -0.047 A 
ATOM     38  C   LIG d   1       3.865   1.258  -2.955  0.00  0.00    -0.059 A 
ATOM     39  C   LIG d   1       4.517   0.731  -1.856  0.00  0.00    -0.061 A 
ATOM     40  H   LIG d   1       3.913   2.318  -3.154  0.00  0.00     0.062 H 
ATOM     41  C   LIG d   1       4.460  -0.628  -1.604  0.00  0.00    -0.062 A 
ATOM     42  H   LIG d   1       5.074   1.379  -1.197  0.00  0.00     0.062 H 
ATOM     43  C   LIG d   1       3.741  -1.457  -2.445  0.00  0.00    -0.061 A 
ATOM     44  H   LIG d   1       4.972  -1.040  -0.747  0.00  0.00     0.062 H 
ATOM     45  C   LIG d   1       3.084  -0.929  -3.541  0.00  0.00    -0.059 A 
ATOM     46  H   LIG d   1       3.693  -2.517  -2.246  0.00  0.00     0.062 H 
ATOM     47  H   LIG d   1       2.524  -1.577  -4.198  0.00  0.00     0.062 H 
ENDBRANCH  34  37
ENDBRANCH  31  34
ENDBRANCH  28  31
ENDBRANCH  26  28
BRANCH   1  48
ATOM     48  N   LIG d   1       0.273  -4.133 -10.220  0.00  0.00    -0.277 N 
ATOM     49  C   LIG d   1       0.117  -5.062 -11.185  0.00  0.00     0.248 C 
ATOM     50  O   LIG d   1       0.772  -4.993 -12.207  0.00  0.00    -0.270 OA
ATOM     51  H   LIG d   1      -0.197  -4.225  -9.377  0.00  0.00     0.155 HD
BRANCH  49  52
ATOM     52  C   LIG d   1      -0.848  -6.163 -10.999  0.00  0.00     0.037 A 
ATOM     53  C   LIG d   1      -1.377  -6.425  -9.732  0.00  0.00    -0.046 A 
ATOM     54  C   LIG d   1      -2.277  -7.452  -9.563  0.00  0.00    -0.019 A 
ATOM     55  H   LIG d   1      -1.079  -5.821  -8.887  0.00  0.00     0.063 H 
ATOM     56  C   LIG d   1      -2.661  -8.230 -10.650  0.00  0.00     0.120 A 
ATOM     57  H   LIG d   1      -2.686  -7.656  -8.584  0.00  0.00     0.065 H 
ATOM     58  C   LIG d   1      -2.137  -7.972 -11.911  0.00  0.00    -0.019 A 
ATOM     59  C   LIG d   1      -1.241  -6.943 -12.090  0.00  0.00    -0.046 A 
ATOM     60  H   LIG d   1      -2.437  -8.578 -12.754  0.00  0.00     0.065 H 
ATOM     61  H   LIG d   1      -0.837  -6.740 -13.072  0.00  0.00     0.063 H 
BRANCH  56  62
ATOM     62  O   LIG d   1      -3.548  -9.242 -10.479  0.00  0.00    -0.495 OA
BRANCH  62  63
ATOM     63  C   LIG d   1      -3.011 -10.531 -10.177  0.00  0.00     0.079 C 
ATOM     64  H   LIG d   1      -2.268 -10.801 -10.927  0.00  0.00     0.066 H 
ATOM     65  H   LIG d   1      -2.543 -10.508  -9.193  0.00  0.00     0.066 H 
ATOM     66  H   LIG d   1      -3.814 -11.268 -10.179  0.00  0.00     0.066 H 
ENDBRANCH  62  63
ENDBRANCH  56  62
ENDBRANCH  49  52
ENDBRANCH   1  48
TORSDOF 8
ENDMDL
MODEL 4
REMARK VINA RESULT:      -7.0      2.072      3.440
REMARK  8 active torsions:
REMARK  status: ('A' for Active; 'I' for Inactive)
REMARK    1  A    between atoms: C_1  and  O_2 
REMARK    2  A    between atoms: O_2  and  C_3 
REMARK    3  A    between atoms: C_6  and  C_9 
REMARK       I    between atoms: C_9  and  N_11 
REMARK    4  A    between atoms: N_11  and  C_12 
REMARK    5  A    between atoms: C_27  and  C_28 
REMARK    6  A    between atoms: C_27  and  N_65 
REMARK    7  A    between atoms: C_28  and  C_29 
REMARK    8  A    between atoms: C_29  and  C_30 
ROOT
ATOM      1  C   LIG d   1      10.376   2.343  -3.539  0.00  0.00     0.099 A 
ATOM      2  C   LIG d   1      11.491   1.604  -3.825  0.00  0.00    -0.034 A 
ATOM      3  C   LIG d   1      11.439   0.686  -4.879  0.00  0.00    -0.040 A 
ATOM      4  C   LIG d   1      10.309   0.543  -5.619  0.00  0.00     0.030 A 
ATOM      5  N   LIG d   1       9.228   1.328  -5.389  0.00  0.00    -0.310 N 
ATOM      6  C   LIG d   1       9.222   2.173  -4.328  0.00  0.00     0.273 A 
ATOM      7  O   LIG d   1       8.207   2.792  -4.056  0.00  0.00    -0.266 OA
ATOM      8  C   LIG d   1       8.042   1.334  -6.246  0.00  0.00     0.034 C 
ATOM      9  C   LIG d   1       7.966   0.109  -7.140  0.00  0.00     0.018 C 
ATOM     10  H   LIG d   1       7.233   0.302  -7.925  0.00  0.00     0.037 H 
ATOM     11  C   LIG d   1       9.327  -0.125  -7.800  0.00  0.00    -0.031 C 
ATOM     12  C   LIG d   1      10.313  -0.521  -6.695  0.00  0.00     0.040 C 
ATOM     13  H   LIG d   1      11.313  -0.657  -7.105  0.00  0.00     0.042 H 
ATOM     14  C   LIG d   1       9.811  -1.826  -6.054  0.00  0.00    -0.024 C 
ATOM     15  C   LIG d   1       7.514  -1.125  -6.374  0.00  0.00    -0.027 C 
ATOM     16  H   LIG d   1      12.395   1.727  -3.247  0.00  0.00     0.064 H 
ATOM     17  H   LIG d   1      12.306   0.083  -5.106  0.00  0.00     0.064 H 
ATOM     18  H   LIG d   1       8.064   2.226  -6.872  0.00  0.00     0.050 H 
ATOM     19  H   LIG d   1       7.153   1.368  -5.617  0.00  0.00     0.050 H 
ATOM     20  H   LIG d   1       9.665   0.789  -8.287  0.00  0.00     0.028 H 
ATOM     21  H   LIG d   1       9.250  -0.930  -8.531  0.00  0.00     0.028 H 
ATOM     22  H   LIG d   1      10.533  -2.175  -5.315  0.00  0.00     0.082 H 
ATOM     23  H   LIG d   1       9.673  -2.585  -6.823  0.00  0.00     0.082 H 
ATOM     24  H   LIG d   1       7.340  -1.940  -7.079  0.00  0.00     0.082 H 
ATOM     25  H   LIG d   1       6.583  -0.902  -5.853  0.00  0.00     0.082 H 
ATOM     26  N   LIG d   1       8.529  -1.520  -5.377  0.00  0.00     0.236 N 
ATOM     27  H   LIG d   1       8.674  -0.743  -4.724  0.00  0.00     0.203 HD
ENDROOT
BRANCH  26  28
ATOM     28  C   LIG d   1       8.062  -2.701  -4.622  0.00  0.00    -0.032 C 
ATOM     29  H   LIG d   1       8.905  -3.332  -4.339  0.00  0.00     0.081 H 
ATOM     30  H   LIG d   1       7.373  -3.271  -5.244  0.00  0.00     0.081 H 
BRANCH  28  31
ATOM     31  C   LIG d   1       7.337  -2.223  -3.362  0.00  0.00    -0.009 C 
ATOM     32  H   LIG d   1       7.585  -1.177  -3.175  0.00  0.00     0.032 H 
ATOM     33  H   LIG d   1       7.650  -2.828  -2.512  0.00  0.00     0.032 H 
BRANCH  31  34
ATOM     34  C   LIG d   1       5.827  -2.363  -3.558  0.00  0.00    -0.023 C 
ATOM     35  H   LIG d   1       5.455  -3.183  -2.944  0.00  0.00     0.032 H 
ATOM     36  H   LIG d   1       5.614  -2.569  -4.607  0.00  0.00     0.032 H 
BRANCH  34  37
ATOM     37  C   LIG d   1       5.146  -1.081  -3.152  0.00  0.00    -0.047 A 
ATOM     38  C   LIG d   1       3.790  -1.074  -2.882  0.00  0.00    -0.059 A 
ATOM     39  C   LIG d   1       3.167   0.100  -2.504  0.00  0.00    -0.061 A 
ATOM     40  H   LIG d   1       3.219  -1.987  -2.964  0.00  0.00     0.062 H 
ATOM     41  C   LIG d   1       3.897   1.270  -2.405  0.00  0.00    -0.062 A 
ATOM     42  H   LIG d   1       2.109   0.105  -2.289  0.00  0.00     0.062 H 
ATOM     43  C   LIG d   1       5.254   1.263  -2.674  0.00  0.00    -0.061 A 
ATOM     44  H   LIG d   1       3.410   2.189  -2.113  0.00  0.00     0.062 H 
ATOM     45  C   LIG d   1       5.878   0.088  -3.047  0.00  0.00    -0.059 A 
ATOM     46  H   LIG d   1       5.825   2.176  -2.592  0.00  0.00     0.062 H 
ATOM     47  H   LIG d   1       6.937   0.082  -3.257  0.00  0.00     0.062 H 
ENDBRANCH  34  37
ENDBRANCH  31  34
ENDBRANCH  28  31
ENDBRANCH  26  28
BRANCH   1  48
ATOM     48  N   LIG d   1      10.381   3.257  -2.477  0.00  0.00    -0.277 N 
ATOM     49  C   LIG d   1      10.748   4.536  -2.690  0.00  0.00     0.248 C 
ATOM     50  O   LIG d   1      10.992   4.919  -3.818  0.00  0.00    -0.270 OA
ATOM     51  H   LIG d   1      10.121   2.969  -1.588  0.00  0.00     0.155 HD
BRANCH  49  52
ATOM     52  C   LIG d   1      10.854   5.472  -1.554  0.00  0.00     0.037 A 
ATOM     53  C   LIG d   1      10.128   6.666  -1.559  0.00  0.00    -0.046 A 
ATOM     54  C   LIG d   1      10.230   7.536  -0.497  0.00  0.00    -0.019 A 
ATOM     55  H   LIG d   1       9.487   6.905  -2.396  0.00  0.00     0.063 H 
ATOM     56  C   LIG d   1      11.054   7.230   0.579  0.00  0.00     0.120 A 
ATOM     57  H   LIG d   1       9.668   8.459  -0.500  0.00  0.00     0.065 H 
ATOM     58  C   LIG d   1      11.779   6.044   0.588  0.00  0.00    -0.019 A 
ATOM     59  C   LIG d   1      11.678   5.165  -0.467  0.00  0.00    -0.046 A 
ATOM     60  H   LIG d   1      12.419   5.809   1.426  0.00  0.00     0.065 H 
ATOM     61  H   LIG d   1      12.238   4.241  -0.458  0.00  0.00     0.063 H 
BRANCH  56  62
ATOM     62  O   LIG d   1      11.152   8.091   1.624  0.00  0.00    -0.495 OA
BRANCH  62  63
ATOM     63  C   LIG d   1      11.533   9.434   1.323  0.00  0.00     0.079 C 
ATOM     64  H   LIG d   1      10.654  10.078   1.350  0.00  0.00     0.066 H 
ATOM     65  H   LIG d   1      12.259   9.780   2.060  0.00  0.00     0.066 H 
ATOM     66  H   LIG d   1      11.981   9.471   0.330  0.00  0.00     0.066 H 
ENDBRANCH  62  63
ENDBRANCH  56  62
ENDBRANCH  49  52
ENDBRANCH   1  48
TORSDOF 8
ENDMDL
MODEL 5
REMARK VINA RESULT:      -6.7      1.750      2.460
REMARK  8 active torsions:
REMARK  status: ('A' for Active; 'I' for Inactive)
REMARK    1  A    between atoms: C_1  and  O_2 
REMARK    2  A    between atoms: O_2  and  C_3 
REMARK    3  A    between atoms: C_6  and  C_9 
REMARK       I    between atoms: C_9  and  N_11 
REMARK    4  A    between atoms: N_11  and  C_12 
REMARK    5  A    between atoms: C_27  and  C_28 
REMARK    6  A    between atoms: C_27  and  N_65 
REMARK    7  A    between atoms: C_28  and  C_29 
REMARK    8  A    between atoms: C_29  and  C_30 
ROOT
ATOM      1  C   LIG d   1       8.615   0.478  -5.416  0.00  0.00     0.099 A 
ATOM      2  C   LIG d   1       9.595  -0.465  -5.258  0.00  0.00    -0.034 A 
ATOM      3  C   LIG d   1       9.501  -1.661  -5.976  0.00  0.00    -0.040 A 
ATOM      4  C   LIG d   1       8.467  -1.880  -6.829  0.00  0.00     0.030 A 
ATOM      5  N   LIG d   1       7.536  -0.918  -7.047  0.00  0.00    -0.310 N 
ATOM      6  C   LIG d   1       7.559   0.221  -6.311  0.00  0.00     0.273 A 
ATOM      7  O   LIG d   1       6.655   1.032  -6.428  0.00  0.00    -0.266 OA
ATOM      8  C   LIG d   1       6.491  -1.028  -8.066  0.00  0.00     0.034 C 
ATOM      9  C   LIG d   1       6.295  -2.455  -8.544  0.00  0.00     0.018 C 
ATOM     10  H   LIG d   1       5.718  -2.430  -9.470  0.00  0.00     0.037 H 
ATOM     11  C   LIG d   1       7.658  -3.083  -8.845  0.00  0.00    -0.031 C 
ATOM     12  C   LIG d   1       8.403  -3.228  -7.513  0.00  0.00     0.040 C 
ATOM     13  H   LIG d   1       9.402  -3.631  -7.675  0.00  0.00     0.042 H 
ATOM     14  C   LIG d   1       7.583  -4.163  -6.608  0.00  0.00    -0.024 C 
ATOM     15  C   LIG d   1       5.522  -3.291  -7.536  0.00  0.00    -0.027 C 
ATOM     16  H   LIG d   1      10.425  -0.287  -4.591  0.00  0.00     0.064 H 
ATOM     17  H   LIG d   1      10.258  -2.421  -5.848  0.00  0.00     0.064 H 
ATOM     18  H   LIG d   1       6.762  -0.404  -8.918  0.00  0.00     0.050 H 
ATOM     19  H   LIG d   1       5.553  -0.663  -7.648  0.00  0.00     0.050 H 
ATOM     20  H   LIG d   1       8.223  -2.438  -9.517  0.00  0.00     0.028 H 
ATOM     21  H   LIG d   1       7.522  -4.064  -9.300  0.00  0.00     0.028 H 
ATOM     22  H   LIG d   1       8.125  -4.348  -5.681  0.00  0.00     0.082 H 
ATOM     23  H   LIG d   1       7.400  -5.107  -7.123  0.00  0.00     0.082 H 
ATOM     24  H   LIG d   1       5.286  -4.260  -7.980  0.00  0.00     0.082 H 
ATOM     25  H   LIG d   1       4.593  -2.780  -7.284  0.00  0.00     0.082 H 
ATOM     26  N   LIG d   1       6.309  -3.475  -6.300  0.00  0.00     0.236 N 
ATOM     27  H   LIG d   1       6.517  -2.554  -5.897  0.00  0.00     0.203 HD
ENDROOT
BRANCH  26  28
ATOM     28  C   LIG d   1       5.533  -4.262  -5.320  0.00  0.00    -0.032 C 
ATOM     29  H   LIG d   1       6.186  -4.941  -4.771  0.00  0.00     0.081 H 
ATOM     30  H   LIG d   1       4.772  -4.836  -5.848  0.00  0.00     0.081 H 
BRANCH  28  31
ATOM     31  C   LIG d   1       4.858  -3.300  -4.340  0.00  0.00    -0.009 C 
ATOM     32  H   LIG d   1       4.487  -3.860  -3.480  0.00  0.00     0.032 H 
ATOM     33  H   LIG d   1       4.025  -2.802  -4.835  0.00  0.00     0.032 H 
BRANCH  31  34
ATOM     34  C   LIG d   1       5.872  -2.255  -3.871  0.00  0.00    -0.023 C 
ATOM     35  H   LIG d   1       6.487  -1.942  -4.714  0.00  0.00     0.032 H 
ATOM     36  H   LIG d   1       6.507  -2.687  -3.097  0.00  0.00     0.032 H 
BRANCH  34  37
ATOM     37  C   LIG d   1       5.141  -1.062  -3.311  0.00  0.00    -0.047 A 
ATOM     38  C   LIG d   1       3.770  -1.107  -3.143  0.00  0.00    -0.059 A 
ATOM     39  C   LIG d   1       3.100  -0.015  -2.624  0.00  0.00    -0.061 A 
ATOM     40  H   LIG d   1       3.222  -1.998  -3.414  0.00  0.00     0.062 H 
ATOM     41  C   LIG d   1       3.800   1.127  -2.283  0.00  0.00    -0.062 A 
ATOM     42  H   LIG d   1       2.029  -0.052  -2.489  0.00  0.00     0.062 H 
ATOM     43  C   LIG d   1       5.172   1.172  -2.450  0.00  0.00    -0.061 A 
ATOM     44  H   LIG d   1       3.277   1.982  -1.881  0.00  0.00     0.062 H 
ATOM     45  C   LIG d   1       5.842   0.078  -2.964  0.00  0.00    -0.059 A 
ATOM     46  H   LIG d   1       5.720   2.063  -2.180  0.00  0.00     0.062 H 
ATOM     47  H   LIG d   1       6.913   0.114  -3.095  0.00  0.00     0.062 H 
ENDBRANCH  34  37
ENDBRANCH  31  34
ENDBRANCH  28  31
ENDBRANCH  26  28
BRANCH   1  48
ATOM     48  N   LIG d   1       8.661   1.680  -4.698  0.00  0.00    -0.277 N 
ATOM     49  C   LIG d   1       9.377   2.720  -5.170  0.00  0.00     0.248 C 
ATOM     50  O   LIG d   1       9.911   2.645  -6.260  0.00  0.00    -0.270 OA
ATOM     51  H   LIG d   1       8.178   1.763  -3.861  0.00  0.00     0.155 HD
BRANCH  49  52
ATOM     52  C   LIG d   1       9.511   3.949  -4.365  0.00  0.00     0.037 A 
ATOM     53  C   LIG d   1       9.928   3.873  -3.034  0.00  0.00    -0.046 A 
ATOM     54  C   LIG d   1      10.052   5.022  -2.286  0.00  0.00    -0.019 A 
ATOM     55  H   LIG d   1      10.152   2.912  -2.592  0.00  0.00     0.063 H 
ATOM     56  C   LIG d   1       9.763   6.258  -2.853  0.00  0.00     0.120 A 
ATOM     57  H   LIG d   1      10.374   4.964  -1.256  0.00  0.00     0.065 H 
ATOM     58  C   LIG d   1       9.348   6.338  -4.177  0.00  0.00    -0.019 A 
ATOM     59  C   LIG d   1       9.227   5.194  -4.934  0.00  0.00    -0.046 A 
ATOM     60  H   LIG d   1       9.124   7.300  -4.615  0.00  0.00     0.065 H 
ATOM     61  H   LIG d   1       8.909   5.257  -5.964  0.00  0.00     0.063 H 
BRANCH  56  62
ATOM     62  O   LIG d   1       9.886   7.388  -2.112  0.00  0.00    -0.495 OA
BRANCH  62  63
ATOM     63  C   LIG d   1      10.344   8.560  -2.789  0.00  0.00     0.079 C 
ATOM     64  H   LIG d   1      10.398   8.364  -3.860  0.00  0.00     0.066 H 
ATOM     65  H   LIG d   1       9.650   9.381  -2.605  0.00  0.00     0.066 H 
ATOM     66  H   LIG d   1      11.332   8.831  -2.419  0.00  0.00     0.066 H 
ENDBRANCH  62  63
ENDBRANCH  56  62
ENDBRANCH  49  52
ENDBRANCH   1  48
TORSDOF 8
ENDMDL
MODEL 6
REMARK VINA RESULT:      -6.7      4.625      6.855
REMARK  8 active torsions:
REMARK  status: ('A' for Active; 'I' for Inactive)
REMARK    1  A    between atoms: C_1  and  O_2 
REMARK    2  A    between atoms: O_2  and  C_3 
REMARK    3  A    between atoms: C_6  and  C_9 
REMARK       I    between atoms: C_9  and  N_11 
REMARK    4  A    between atoms: N_11  and  C_12 
REMARK    5  A    between atoms: C_27  and  C_28 
REMARK    6  A    between atoms: C_27  and  N_65 
REMARK    7  A    between atoms: C_28  and  C_29 
REMARK    8  A    between atoms: C_29  and  C_30 
ROOT
ATOM      1  C   LIG d   1       6.642  -3.242  -6.313  0.00  0.00     0.099 A 
ATOM      2  C   LIG d   1       5.650  -3.925  -6.964  0.00  0.00    -0.034 A 
ATOM      3  C   LIG d   1       5.046  -3.336  -8.079  0.00  0.00    -0.040 A 
ATOM      4  C   LIG d   1       5.447  -2.117  -8.523  0.00  0.00     0.030 A 
ATOM      5  N   LIG d   1       6.481  -1.471  -7.929  0.00  0.00    -0.310 N 
ATOM      6  C   LIG d   1       7.036  -1.981  -6.802  0.00  0.00     0.273 A 
ATOM      7  O   LIG d   1       7.886  -1.341  -6.205  0.00  0.00    -0.266 OA
ATOM      8  C   LIG d   1       7.062  -0.234  -8.451  0.00  0.00     0.034 C 
ATOM      9  C   LIG d   1       6.150   0.461  -9.446  0.00  0.00     0.018 C 
ATOM     10  H   LIG d   1       6.737   1.203  -9.989  0.00  0.00     0.037 H 
ATOM     11  C   LIG d   1       5.619  -0.563 -10.452  0.00  0.00    -0.031 C 
ATOM     12  C   LIG d   1       4.694  -1.520  -9.692  0.00  0.00     0.040 C 
ATOM     13  H   LIG d   1       4.322  -2.300 -10.355  0.00  0.00     0.042 H 
ATOM     14  C   LIG d   1       3.528  -0.698  -9.117  0.00  0.00    -0.024 C 
ATOM     15  C   LIG d   1       5.006   1.188  -8.756  0.00  0.00    -0.027 C 
ATOM     16  H   LIG d   1       5.340  -4.902  -6.622  0.00  0.00     0.064 H 
ATOM     17  H   LIG d   1       4.250  -3.856  -8.593  0.00  0.00     0.064 H 
ATOM     18  H   LIG d   1       8.007  -0.468  -8.943  0.00  0.00     0.050 H 
ATOM     19  H   LIG d   1       7.258   0.442  -7.619  0.00  0.00     0.050 H 
ATOM     20  H   LIG d   1       6.449  -1.119 -10.888  0.00  0.00     0.028 H 
ATOM     21  H   LIG d   1       5.060  -0.055 -11.238  0.00  0.00     0.028 H 
ATOM     22  H   LIG d   1       2.811  -1.363  -8.635  0.00  0.00     0.082 H 
ATOM     23  H   LIG d   1       3.038  -0.144  -9.917  0.00  0.00     0.082 H 
ATOM     24  H   LIG d   1       4.463   1.782  -9.492  0.00  0.00     0.082 H 
ATOM     25  H   LIG d   1       5.411   1.851  -7.992  0.00  0.00     0.082 H 
ATOM     26  N   LIG d   1       4.094   0.224  -8.106  0.00  0.00     0.236 N 
ATOM     27  H   LIG d   1       4.622  -0.321  -7.416  0.00  0.00     0.203 HD
ENDROOT
BRANCH  26  28
ATOM     28  C   LIG d   1       3.006   0.946  -7.415  0.00  0.00    -0.032 C 
ATOM     29  H   LIG d   1       2.144   1.060  -8.073  0.00  0.00     0.081 H 
ATOM     30  H   LIG d   1       3.367   1.929  -7.114  0.00  0.00     0.081 H 
BRANCH  28  31
ATOM     31  C   LIG d   1       2.598   0.150  -6.174  0.00  0.00    -0.009 C 
ATOM     32  H   LIG d   1       3.352  -0.611  -5.967  0.00  0.00     0.032 H 
ATOM     33  H   LIG d   1       1.636  -0.331  -6.352  0.00  0.00     0.032 H 
BRANCH  31  34
ATOM     34  C   LIG d   1       2.481   1.095  -4.977  0.00  0.00    -0.023 C 
ATOM     35  H   LIG d   1       1.430   1.247  -4.735  0.00  0.00     0.032 H 
ATOM     36  H   LIG d   1       2.940   2.052  -5.224  0.00  0.00     0.032 H 
BRANCH  34  37
ATOM     37  C   LIG d   1       3.188   0.491  -3.790  0.00  0.00    -0.047 A 
ATOM     38  C   LIG d   1       3.836   1.309  -2.883  0.00  0.00    -0.059 A 
ATOM     39  C   LIG d   1       4.479   0.756  -1.791  0.00  0.00    -0.061 A 
ATOM     40  H   LIG d   1       3.836   2.380  -3.025  0.00  0.00     0.062 H 
ATOM     41  C   LIG d   1       4.484  -0.614  -1.612  0.00  0.00    -0.062 A 
ATOM     42  H   LIG d   1       4.981   1.395  -1.080  0.00  0.00     0.062 H 
ATOM     43  C   LIG d   1       3.836  -1.432  -2.520  0.00  0.00    -0.061 A 
ATOM     44  H   LIG d   1       4.990  -1.046  -0.761  0.00  0.00     0.062 H 
ATOM     45  C   LIG d   1       3.188  -0.879  -3.608  0.00  0.00    -0.059 A 
ATOM     46  H   LIG d   1       3.836  -2.503  -2.377  0.00  0.00     0.062 H 
ATOM     47  H   LIG d   1       2.682  -1.518  -4.317  0.00  0.00     0.062 H 
ENDBRANCH  34  37
ENDBRANCH  31  34
ENDBRANCH  28  31
ENDBRANCH  26  28
BRANCH   1  48
ATOM     48  N   LIG d   1       7.256  -3.789  -5.179  0.00  0.00    -0.277 N 
ATOM     49  C   LIG d   1       8.319  -4.606  -5.317  0.00  0.00     0.248 C 
ATOM     50  O   LIG d   1       8.797  -4.802  -6.417  0.00  0.00    -0.270 OA
ATOM     51  H   LIG d   1       6.917  -3.578  -4.295  0.00  0.00     0.155 HD
BRANCH  49  52
ATOM     52  C   LIG d   1       8.901  -5.264  -4.131  0.00  0.00     0.037 A 
ATOM     53  C   LIG d   1       9.361  -4.497  -3.058  0.00  0.00    -0.046 A 
ATOM     54  C   LIG d   1       9.903  -5.114  -1.954  0.00  0.00    -0.019 A 
ATOM     55  H   LIG d   1       9.292  -3.419  -3.097  0.00  0.00     0.063 H 
ATOM     56  C   LIG d   1       9.994  -6.500  -1.904  0.00  0.00     0.120 A 
ATOM     57  H   LIG d   1      10.260  -4.521  -1.124  0.00  0.00     0.065 H 
ATOM     58  C   LIG d   1       9.537  -7.268  -2.969  0.00  0.00    -0.019 A 
ATOM     59  C   LIG d   1       8.988  -6.659  -4.074  0.00  0.00    -0.046 A 
ATOM     60  H   LIG d   1       9.609  -8.346  -2.927  0.00  0.00     0.065 H 
ATOM     61  H   LIG d   1       8.628  -7.256  -4.900  0.00  0.00     0.063 H 
BRANCH  56  62
ATOM     62  O   LIG d   1      10.529  -7.105  -0.814  0.00  0.00    -0.495 OA
BRANCH  62  63
ATOM     63  C   LIG d   1      10.806  -8.503  -0.919  0.00  0.00     0.079 C 
ATOM     64  H   LIG d   1      10.803  -8.798  -1.968  0.00  0.00     0.066 H 
ATOM     65  H   LIG d   1      11.784  -8.713  -0.485  0.00  0.00     0.066 H 
ATOM     66  H   LIG d   1      10.043  -9.066  -0.381  0.00  0.00     0.066 H 
ENDBRANCH  62  63
ENDBRANCH  56  62
ENDBRANCH  49  52
ENDBRANCH   1  48
TORSDOF 8
ENDMDL
MODEL 7
REMARK VINA RESULT:      -6.6      3.986      9.152
REMARK  8 active torsions:
REMARK  status: ('A' for Active; 'I' for Inactive)
REMARK    1  A    between atoms: C_1  and  O_2 
REMARK    2  A    between atoms: O_2  and  C_3 
REMARK    3  A    between atoms: C_6  and  C_9 
REMARK       I    between atoms: C_9  and  N_11 
REMARK    4  A    between atoms: N_11  and  C_12 
REMARK    5  A    between atoms: C_27  and  C_28 
REMARK    6  A    between atoms: C_27  and  N_65 
REMARK    7  A    between atoms: C_28  and  C_29 
REMARK    8  A    between atoms: C_29  and  C_30 
ROOT
ATOM      1  C   LIG d   1       4.276  -1.305  -7.612  0.00  0.00     0.099 A 
ATOM      2  C   LIG d   1       4.769  -2.478  -7.109  0.00  0.00    -0.034 A 
ATOM      3  C   LIG d   1       4.756  -2.676  -5.724  0.00  0.00    -0.040 A 
ATOM      4  C   LIG d   1       4.246  -1.731  -4.893  0.00  0.00     0.030 A 
ATOM      5  N   LIG d   1       3.685  -0.601  -5.392  0.00  0.00    -0.310 N 
ATOM      6  C   LIG d   1       3.751  -0.347  -6.722  0.00  0.00     0.273 A 
ATOM      7  O   LIG d   1       3.349   0.721  -7.153  0.00  0.00    -0.266 OA
ATOM      8  C   LIG d   1       2.980   0.379  -4.565  0.00  0.00     0.034 C 
ATOM      9  C   LIG d   1       3.299   0.229  -3.088  0.00  0.00     0.018 C 
ATOM     10  H   LIG d   1       2.555   0.787  -2.519  0.00  0.00     0.037 H 
ATOM     11  C   LIG d   1       3.200  -1.246  -2.694  0.00  0.00    -0.031 C 
ATOM     12  C   LIG d   1       4.334  -1.992  -3.405  0.00  0.00     0.040 C 
ATOM     13  H   LIG d   1       4.283  -3.060  -3.193  0.00  0.00     0.042 H 
ATOM     14  C   LIG d   1       5.669  -1.408  -2.914  0.00  0.00    -0.024 C 
ATOM     15  C   LIG d   1       4.669   0.792  -2.743  0.00  0.00    -0.027 C 
ATOM     16  H   LIG d   1       5.162  -3.237  -7.769  0.00  0.00     0.064 H 
ATOM     17  H   LIG d   1       5.158  -3.589  -5.311  0.00  0.00     0.064 H 
ATOM     18  H   LIG d   1       1.907   0.255  -4.709  0.00  0.00     0.050 H 
ATOM     19  H   LIG d   1       3.264   1.381  -4.888  0.00  0.00     0.050 H 
ATOM     20  H   LIG d   1       2.237  -1.650  -3.008  0.00  0.00     0.028 H 
ATOM     21  H   LIG d   1       3.310  -1.350  -1.614  0.00  0.00     0.028 H 
ATOM     22  H   LIG d   1       6.498  -1.970  -3.344  0.00  0.00     0.082 H 
ATOM     23  H   LIG d   1       5.715  -1.457  -1.826  0.00  0.00     0.082 H 
ATOM     24  H   LIG d   1       4.794   0.789  -1.659  0.00  0.00     0.082 H 
ATOM     25  H   LIG d   1       4.736   1.818  -3.105  0.00  0.00     0.082 H 
ATOM     26  N   LIG d   1       5.736  -0.004  -3.382  0.00  0.00     0.236 N 
ATOM     27  H   LIG d   1       5.602   0.015  -4.399  0.00  0.00     0.203 HD
ENDROOT
BRANCH  26  28
ATOM     28  C   LIG d   1       7.057   0.573  -3.061  0.00  0.00    -0.032 C 
ATOM     29  H   LIG d   1       7.768  -0.214  -2.810  0.00  0.00     0.081 H 
ATOM     30  H   LIG d   1       6.953   1.253  -2.216  0.00  0.00     0.081 H 
BRANCH  28  31
ATOM     31  C   LIG d   1       7.564   1.348  -4.280  0.00  0.00    -0.009 C 
ATOM     32  H   LIG d   1       8.624   1.574  -4.151  0.00  0.00     0.032 H 
ATOM     33  H   LIG d   1       7.004   2.277  -4.379  0.00  0.00     0.032 H 
BRANCH  31  34
ATOM     34  C   LIG d   1       7.373   0.500  -5.539  0.00  0.00    -0.023 C 
ATOM     35  H   LIG d   1       6.331   0.187  -5.611  0.00  0.00     0.032 H 
ATOM     36  H   LIG d   1       8.014  -0.380  -5.485  0.00  0.00     0.032 H 
BRANCH  34  37
ATOM     37  C   LIG d   1       7.738   1.314  -6.753  0.00  0.00    -0.047 A 
ATOM     38  C   LIG d   1       8.794   2.205  -6.696  0.00  0.00    -0.059 A 
ATOM     39  C   LIG d   1       9.133   2.948  -7.811  0.00  0.00    -0.061 A 
ATOM     40  H   LIG d   1       9.355   2.318  -5.780  0.00  0.00     0.062 H 
ATOM     41  C   LIG d   1       8.411   2.807  -8.982  0.00  0.00    -0.062 A 
ATOM     42  H   LIG d   1       9.960   3.640  -7.768  0.00  0.00     0.062 H 
ATOM     43  C   LIG d   1       7.356   1.915  -9.039  0.00  0.00    -0.061 A 
ATOM     44  H   LIG d   1       8.674   3.389  -9.852  0.00  0.00     0.062 H 
ATOM     45  C   LIG d   1       7.020   1.169  -7.926  0.00  0.00    -0.059 A 
ATOM     46  H   LIG d   1       6.794   1.802  -9.955  0.00  0.00     0.062 H 
ATOM     47  H   LIG d   1       6.195   0.473  -7.971  0.00  0.00     0.062 H 
ENDBRANCH  34  37
ENDBRANCH  31  34
ENDBRANCH  28  31
ENDBRANCH  26  28
BRANCH   1  48
ATOM     48  N   LIG d   1       4.292  -1.060  -8.991  0.00  0.00    -0.277 N 
ATOM     49  C   LIG d   1       3.318  -1.563  -9.776  0.00  0.00     0.248 C 
ATOM     50  O   LIG d   1       2.381  -2.155  -9.278  0.00  0.00    -0.270 OA
ATOM     51  H   LIG d   1       5.003  -0.528  -9.381  0.00  0.00     0.155 HD
BRANCH  49  52
ATOM     52  C   LIG d   1       3.390  -1.393 -11.240  0.00  0.00     0.037 A 
ATOM     53  C   LIG d   1       4.393  -0.602 -11.806  0.00  0.00    -0.046 A 
ATOM     54  C   LIG d   1       4.457  -0.446 -13.172  0.00  0.00    -0.019 A 
ATOM     55  H   LIG d   1       5.117  -0.112 -11.171  0.00  0.00     0.063 H 
ATOM     56  C   LIG d   1       3.525  -1.075 -13.990  0.00  0.00     0.120 A 
ATOM     57  H   LIG d   1       5.232   0.166 -13.610  0.00  0.00     0.065 H 
ATOM     58  C   LIG d   1       2.526  -1.864 -13.432  0.00  0.00    -0.019 A 
ATOM     59  C   LIG d   1       2.459  -2.030 -12.067  0.00  0.00    -0.046 A 
ATOM     60  H   LIG d   1       1.804  -2.352 -14.070  0.00  0.00     0.065 H 
ATOM     61  H   LIG d   1       1.685  -2.646 -11.633  0.00  0.00     0.063 H 
BRANCH  56  62
ATOM     62  O   LIG d   1       3.592  -0.920 -15.337  0.00  0.00    -0.495 OA
BRANCH  62  63
ATOM     63  C   LIG d   1       4.578  -0.015 -15.836  0.00  0.00     0.079 C 
ATOM     64  H   LIG d   1       4.706   0.808 -15.134  0.00  0.00     0.066 H 
ATOM     65  H   LIG d   1       5.525  -0.541 -15.958  0.00  0.00     0.066 H 
ATOM     66  H   LIG d   1       4.256   0.377 -16.801  0.00  0.00     0.066 H 
ENDBRANCH  62  63
ENDBRANCH  56  62
ENDBRANCH  49  52
ENDBRANCH   1  48
TORSDOF 8
ENDMDL
MODEL 8
REMARK VINA RESULT:      -6.5      3.497      6.531
REMARK  8 active torsions:
REMARK  status: ('A' for Active; 'I' for Inactive)
REMARK    1  A    between atoms: C_1  and  O_2 
REMARK    2  A    between atoms: O_2  and  C_3 
REMARK    3  A    between atoms: C_6  and  C_9 
REMARK       I    between atoms: C_9  and  N_11 
REMARK    4  A    between atoms: N_11  and  C_12 
REMARK    5  A    between atoms: C_27  and  C_28 
REMARK    6  A    between atoms: C_27  and  N_65 
REMARK    7  A    between atoms: C_28  and  C_29 
REMARK    8  A    between atoms: C_29  and  C_30 
ROOT
ATOM      1  C   LIG d   1       7.794   0.347  -5.268  0.00  0.00     0.099 A 
ATOM      2  C   LIG d   1       7.676   1.438  -4.450  0.00  0.00    -0.034 A 
ATOM      3  C   LIG d   1       6.737   1.406  -3.414  0.00  0.00    -0.040 A 
ATOM      4  C   LIG d   1       5.968   0.306  -3.209  0.00  0.00     0.030 A 
ATOM      5  N   LIG d   1       6.134  -0.806  -3.967  0.00  0.00    -0.310 N 
ATOM      6  C   LIG d   1       6.982  -0.779  -5.025  0.00  0.00     0.273 A 
ATOM      7  O   LIG d   1       7.044  -1.741  -5.774  0.00  0.00    -0.266 OA
ATOM      8  C   LIG d   1       5.451  -2.072  -3.699  0.00  0.00     0.034 C 
ATOM      9  C   LIG d   1       4.255  -1.902  -2.780  0.00  0.00     0.018 C 
ATOM     10  H   LIG d   1       3.966  -2.886  -2.408  0.00  0.00     0.037 H 
ATOM     11  C   LIG d   1       4.651  -1.033  -1.584  0.00  0.00    -0.031 C 
ATOM     12  C   LIG d   1       4.928   0.380  -2.112  0.00  0.00     0.040 C 
ATOM     13  H   LIG d   1       5.259   1.032  -1.304  0.00  0.00     0.042 H 
ATOM     14  C   LIG d   1       3.631   0.915  -2.742  0.00  0.00    -0.024 C 
ATOM     15  C   LIG d   1       3.058  -1.311  -3.509  0.00  0.00    -0.027 C 
ATOM     16  H   LIG d   1       8.298   2.307  -4.603  0.00  0.00     0.064 H 
ATOM     17  H   LIG d   1       6.622   2.266  -2.771  0.00  0.00     0.064 H 
ATOM     18  H   LIG d   1       6.157  -2.762  -3.236  0.00  0.00     0.050 H 
ATOM     19  H   LIG d   1       5.114  -2.497  -4.644  0.00  0.00     0.050 H 
ATOM     20  H   LIG d   1       5.548  -1.435  -1.114  0.00  0.00     0.028 H 
ATOM     21  H   LIG d   1       3.835  -1.003  -0.861  0.00  0.00     0.028 H 
ATOM     22  H   LIG d   1       3.775   1.948  -3.058  0.00  0.00     0.082 H 
ATOM     23  H   LIG d   1       2.819   0.860  -2.017  0.00  0.00     0.082 H 
ATOM     24  H   LIG d   1       2.189  -1.337  -2.850  0.00  0.00     0.082 H 
ATOM     25  H   LIG d   1       2.850  -1.906  -4.397  0.00  0.00     0.082 H 
ATOM     26  N   LIG d   1       3.338   0.078  -3.928  0.00  0.00     0.236 N 
ATOM     27  H   LIG d   1       4.155   0.080  -4.548  0.00  0.00     0.203 HD
ENDROOT
BRANCH  26  28
ATOM     28  C   LIG d   1       2.179   0.627  -4.660  0.00  0.00    -0.032 C 
ATOM     29  H   LIG d   1       2.174   1.716  -4.608  0.00  0.00     0.081 H 
ATOM     30  H   LIG d   1       1.262   0.237  -4.219  0.00  0.00     0.081 H 
BRANCH  28  31
ATOM     31  C   LIG d   1       2.269   0.188  -6.123  0.00  0.00    -0.009 C 
ATOM     32  H   LIG d   1       1.749   0.912  -6.752  0.00  0.00     0.032 H 
ATOM     33  H   LIG d   1       1.805  -0.792  -6.238  0.00  0.00     0.032 H 
BRANCH  31  34
ATOM     34  C   LIG d   1       3.737   0.109  -6.543  0.00  0.00    -0.023 C 
ATOM     35  H   LIG d   1       4.082  -0.923  -6.468  0.00  0.00     0.032 H 
ATOM     36  H   LIG d   1       4.337   0.741  -5.888  0.00  0.00     0.032 H 
BRANCH  34  37
ATOM     37  C   LIG d   1       3.880   0.584  -7.966  0.00  0.00    -0.047 A 
ATOM     38  C   LIG d   1       4.705  -0.095  -8.843  0.00  0.00    -0.059 A 
ATOM     39  C   LIG d   1       4.831   0.337 -10.149  0.00  0.00    -0.061 A 
ATOM     40  H   LIG d   1       5.248  -0.967  -8.507  0.00  0.00     0.062 H 
ATOM     41  C   LIG d   1       4.140   1.455 -10.578  0.00  0.00    -0.062 A 
ATOM     42  H   LIG d   1       5.473  -0.197 -10.835  0.00  0.00     0.062 H 
ATOM     43  C   LIG d   1       3.315   2.134  -9.701  0.00  0.00    -0.061 A 
ATOM     44  H   LIG d   1       4.242   1.795 -11.598  0.00  0.00     0.062 H 
ATOM     45  C   LIG d   1       3.184   1.699  -8.396  0.00  0.00    -0.059 A 
ATOM     46  H   LIG d   1       2.772   3.006 -10.037  0.00  0.00     0.062 H 
ATOM     47  H   LIG d   1       2.539   2.230  -7.712  0.00  0.00     0.062 H 
ENDBRANCH  34  37
ENDBRANCH  31  34
ENDBRANCH  28  31
ENDBRANCH  26  28
BRANCH   1  48
ATOM     48  N   LIG d   1       8.707   0.348  -6.331  0.00  0.00    -0.277 N 
ATOM     49  C   LIG d   1       8.412   1.005  -7.471  0.00  0.00     0.248 C 
ATOM     50  O   LIG d   1       7.395   1.665  -7.546  0.00  0.00    -0.270 OA
ATOM     51  H   LIG d   1       9.550  -0.122  -6.245  0.00  0.00     0.155 HD
BRANCH  49  52
ATOM     52  C   LIG d   1       9.326   0.920  -8.627  0.00  0.00     0.037 A 
ATOM     53  C   LIG d   1       8.812   0.899  -9.926  0.00  0.00    -0.046 A 
ATOM     54  C   LIG d   1       9.668   0.821 -11.001  0.00  0.00    -0.019 A 
ATOM     55  H   LIG d   1       7.744   0.944 -10.085  0.00  0.00     0.063 H 
ATOM     56  C   LIG d   1      11.042   0.762 -10.797  0.00  0.00     0.120 A 
ATOM     57  H   LIG d   1       9.272   0.804 -12.007  0.00  0.00     0.065 H 
ATOM     58  C   LIG d   1      11.557   0.783  -9.506  0.00  0.00    -0.019 A 
ATOM     59  C   LIG d   1      10.708   0.868  -8.425  0.00  0.00    -0.046 A 
ATOM     60  H   LIG d   1      12.625   0.738  -9.351  0.00  0.00     0.065 H 
ATOM     61  H   LIG d   1      11.109   0.889  -7.422  0.00  0.00     0.063 H 
BRANCH  56  62
ATOM     62  O   LIG d   1      11.882   0.685 -11.860  0.00  0.00    -0.495 OA
BRANCH  62  63
ATOM     63  C   LIG d   1      11.492   1.380 -13.046  0.00  0.00     0.079 C 
ATOM     64  H   LIG d   1      11.716   0.766 -13.918  0.00  0.00     0.066 H 
ATOM     65  H   LIG d   1      10.422   1.586 -13.012  0.00  0.00     0.066 H 
ATOM     66  H   LIG d   1      12.040   2.320 -13.112  0.00  0.00     0.066 H 
ENDBRANCH  62  63
ENDBRANCH  56  62
ENDBRANCH  49  52
ENDBRANCH   1  48
TORSDOF 8
ENDMDL
MODEL 9
REMARK VINA RESULT:      -6.5      3.571      9.319
REMARK  8 active torsions:
REMARK  status: ('A' for Active; 'I' for Inactive)
REMARK    1  A    between atoms: C_1  and  O_2 
REMARK    2  A    between atoms: O_2  and  C_3 
REMARK    3  A    between atoms: C_6  and  C_9 
REMARK       I    between atoms: C_9  and  N_11 
REMARK    4  A    between atoms: N_11  and  C_12 
REMARK    5  A    between atoms: C_27  and  C_28 
REMARK    6  A    between atoms: C_27  and  N_65 
REMARK    7  A    between atoms: C_28  and  C_29 
REMARK    8  A    between atoms: C_29  and  C_30 
ROOT
ATOM      1  C   LIG d   1       4.257  -1.091  -7.707  0.00  0.00     0.099 A 
ATOM      2  C   LIG d   1       4.891  -2.180  -7.172  0.00  0.00    -0.034 A 
ATOM      3  C   LIG d   1       4.923  -2.325  -5.782  0.00  0.00    -0.040 A 
ATOM      4  C   LIG d   1       4.320  -1.415  -4.975  0.00  0.00     0.030 A 
ATOM      5  N   LIG d   1       3.624  -0.377  -5.502  0.00  0.00    -0.310 N 
ATOM      6  C   LIG d   1       3.638  -0.168  -6.842  0.00  0.00     0.273 A 
ATOM      7  O   LIG d   1       3.109   0.831  -7.302  0.00  0.00    -0.266 OA
ATOM      8  C   LIG d   1       2.823   0.546  -4.697  0.00  0.00     0.034 C 
ATOM      9  C   LIG d   1       3.180   0.490  -3.222  0.00  0.00     0.018 C 
ATOM     10  H   LIG d   1       2.386   0.979  -2.658  0.00  0.00     0.037 H 
ATOM     11  C   LIG d   1       3.259  -0.971  -2.773  0.00  0.00    -0.031 C 
ATOM     12  C   LIG d   1       4.461  -1.608  -3.481  0.00  0.00     0.040 C 
ATOM     13  H   LIG d   1       4.537  -2.666  -3.230  0.00  0.00     0.042 H 
ATOM     14  C   LIG d   1       5.727  -0.855  -3.037  0.00  0.00    -0.024 C 
ATOM     15  C   LIG d   1       4.481   1.220  -2.924  0.00  0.00    -0.027 C 
ATOM     16  H   LIG d   1       5.358  -2.913  -7.813  0.00  0.00     0.064 H 
ATOM     17  H   LIG d   1       5.434  -3.170  -5.345  0.00  0.00     0.064 H 
ATOM     18  H   LIG d   1       1.769   0.294  -4.815  0.00  0.00     0.050 H 
ATOM     19  H   LIG d   1       2.984   1.561  -5.061  0.00  0.00     0.050 H 
ATOM     20  H   LIG d   1       2.345  -1.495  -3.054  0.00  0.00     0.028 H 
ATOM     21  H   LIG d   1       3.398  -1.021  -1.694  0.00  0.00     0.028 H 
ATOM     22  H   LIG d   1       6.608  -1.334  -3.464  0.00  0.00     0.082 H 
ATOM     23  H   LIG d   1       5.795  -0.858  -1.949  0.00  0.00     0.082 H 
ATOM     24  H   LIG d   1       4.623   1.272  -1.844  0.00  0.00     0.082 H 
ATOM     25  H   LIG d   1       4.424   2.231  -3.325  0.00  0.00     0.082 H 
ATOM     26  N   LIG d   1       5.623   0.527  -3.556  0.00  0.00     0.236 N 
ATOM     27  H   LIG d   1       5.472   0.493  -4.570  0.00  0.00     0.203 HD
ENDROOT
BRANCH  26  28
ATOM     28  C   LIG d   1       6.873   1.265  -3.283  0.00  0.00    -0.032 C 
ATOM     29  H   LIG d   1       7.463   0.751  -2.524  0.00  0.00     0.081 H 
ATOM     30  H   LIG d   1       6.626   2.268  -2.934  0.00  0.00     0.081 H 
BRANCH  28  31
ATOM     31  C   LIG d   1       7.682   1.360  -4.578  0.00  0.00    -0.009 C 
ATOM     32  H   LIG d   1       7.323   2.204  -5.169  0.00  0.00     0.032 H 
ATOM     33  H   LIG d   1       7.562   0.440  -5.150  0.00  0.00     0.032 H 
BRANCH  31  34
ATOM     34  C   LIG d   1       9.160   1.563  -4.244  0.00  0.00    -0.023 C 
ATOM     35  H   LIG d   1       9.772   1.215  -5.075  0.00  0.00     0.032 H 
ATOM     36  H   LIG d   1       9.410   0.998  -3.346  0.00  0.00     0.032 H 
BRANCH  34  37
ATOM     37  C   LIG d   1       9.424   3.028  -4.004  0.00  0.00    -0.047 A 
ATOM     38  C   LIG d   1      10.010   3.440  -2.821  0.00  0.00    -0.059 A 
ATOM     39  C   LIG d   1      10.257   4.782  -2.603  0.00  0.00    -0.061 A 
ATOM     40  H   LIG d   1      10.277   2.712  -2.069  0.00  0.00     0.062 H 
ATOM     41  C   LIG d   1       9.910   5.714  -3.563  0.00  0.00    -0.062 A 
ATOM     42  H   LIG d   1      10.719   5.103  -1.681  0.00  0.00     0.062 H 
ATOM     43  C   LIG d   1       9.325   5.302  -4.746  0.00  0.00    -0.061 A 
ATOM     44  H   LIG d   1      10.101   6.763  -3.391  0.00  0.00     0.062 H 
ATOM     45  C   LIG d   1       9.083   3.959  -4.966  0.00  0.00    -0.059 A 
ATOM     46  H   LIG d   1       9.058   6.030  -5.498  0.00  0.00     0.062 H 
ATOM     47  H   LIG d   1       8.625   3.638  -5.890  0.00  0.00     0.062 H 
ENDBRANCH  34  37
ENDBRANCH  31  34
ENDBRANCH  28  31
ENDBRANCH  26  28
BRANCH   1  48
ATOM     48  N   LIG d   1       4.223  -0.898  -9.094  0.00  0.00    -0.277 N 
ATOM     49  C   LIG d   1       3.300  -1.537  -9.841  0.00  0.00     0.248 C 
ATOM     50  O   LIG d   1       2.444  -2.212  -9.303  0.00  0.00    -0.270 OA
ATOM     51  H   LIG d   1       4.863  -0.305  -9.517  0.00  0.00     0.155 HD
BRANCH  49  52
ATOM     52  C   LIG d   1       3.328  -1.415 -11.311  0.00  0.00     0.037 A 
ATOM     53  C   LIG d   1       2.439  -2.156 -12.093  0.00  0.00    -0.046 A 
ATOM     54  C   LIG d   1       2.469  -2.040 -13.465  0.00  0.00    -0.019 A 
ATOM     55  H   LIG d   1       1.728  -2.819 -11.621  0.00  0.00     0.063 H 
ATOM     56  C   LIG d   1       3.383  -1.188 -14.073  0.00  0.00     0.120 A 
ATOM     57  H   LIG d   1       1.781  -2.613 -14.070  0.00  0.00     0.065 H 
ATOM     58  C   LIG d   1       4.270  -0.449 -13.299  0.00  0.00    -0.019 A 
ATOM     59  C   LIG d   1       4.243  -0.554 -11.926  0.00  0.00    -0.046 A 
ATOM     60  H   LIG d   1       4.980   0.213 -13.774  0.00  0.00     0.065 H 
ATOM     61  H   LIG d   1       4.929   0.023 -11.324  0.00  0.00     0.063 H 
BRANCH  56  62
ATOM     62  O   LIG d   1       3.410  -1.076 -15.425  0.00  0.00    -0.495 OA
BRANCH  62  63
ATOM     63  C   LIG d   1       4.473  -0.308 -15.991  0.00  0.00     0.079 C 
ATOM     64  H   LIG d   1       4.873  -0.826 -16.863  0.00  0.00     0.066 H 
ATOM     65  H   LIG d   1       4.095   0.670 -16.292  0.00  0.00     0.066 H 
ATOM     66  H   LIG d   1       5.262  -0.179 -15.251  0.00  0.00     0.066 H 
ENDBRANCH  62  63
ENDBRANCH  56  62
ENDBRANCH  49  52
ENDBRANCH   1  48
TORSDOF 8
ENDMDL
MODEL 10
REMARK VINA RESULT:      -6.3      5.112      7.855
REMARK  8 active torsions:
REMARK  status: ('A' for Active; 'I' for Inactive)
REMARK    1  A    between atoms: C_1  and  O_2 
REMARK    2  A    between atoms: O_2  and  C_3 
REMARK    3  A    between atoms: C_6  and  C_9 
REMARK       I    between atoms: C_9  and  N_11 
REMARK    4  A    between atoms: N_11  and  C_12 
REMARK    5  A    between atoms: C_27  and  C_28 
REMARK    6  A    between atoms: C_27  and  N_65 
REMARK    7  A    between atoms: C_28  and  C_29 
REMARK    8  A    between atoms: C_29  and  C_30 
ROOT
ATOM      1  C   LIG d   1      10.335   6.670  -6.791  0.00  0.00     0.099 A 
ATOM      2  C   LIG d   1       9.338   6.940  -5.893  0.00  0.00    -0.034 A 
ATOM      3  C   LIG d   1       9.412   6.377  -4.615  0.00  0.00    -0.040 A 
ATOM      4  C   LIG d   1      10.462   5.592  -4.262  0.00  0.00     0.030 A 
ATOM      5  N   LIG d   1      11.490   5.384  -5.121  0.00  0.00    -0.310 N 
ATOM      6  C   LIG d   1      11.412   5.854  -6.391  0.00  0.00     0.273 A 
ATOM      7  O   LIG d   1      12.284   5.568  -7.195  0.00  0.00    -0.266 OA
ATOM      8  C   LIG d   1      12.719   4.682  -4.750  0.00  0.00     0.034 C 
ATOM      9  C   LIG d   1      12.558   3.862  -3.483  0.00  0.00     0.018 C 
ATOM     10  H   LIG d   1      13.551   3.596  -3.118  0.00  0.00     0.037 H 
ATOM     11  C   LIG d   1      11.865   4.710  -2.413  0.00  0.00    -0.031 C 
ATOM     12  C   LIG d   1      10.429   4.965  -2.885  0.00  0.00     0.040 C 
ATOM     13  H   LIG d   1       9.902   5.605  -2.178  0.00  0.00     0.042 H 
ATOM     14  C   LIG d   1       9.722   3.606  -3.015  0.00  0.00    -0.024 C 
ATOM     15  C   LIG d   1      11.792   2.572  -3.733  0.00  0.00    -0.027 C 
ATOM     16  H   LIG d   1       8.510   7.577  -6.167  0.00  0.00     0.064 H 
ATOM     17  H   LIG d   1       8.623   6.568  -3.901  0.00  0.00     0.064 H 
ATOM     18  H   LIG d   1      13.512   5.414  -4.599  0.00  0.00     0.050 H 
ATOM     19  H   LIG d   1      13.005   4.018  -5.567  0.00  0.00     0.050 H 
ATOM     20  H   LIG d   1      12.390   5.657  -2.294  0.00  0.00     0.028 H 
ATOM     21  H   LIG d   1      11.852   4.172  -1.465  0.00  0.00     0.028 H 
ATOM     22  H   LIG d   1       8.675   3.759  -3.275  0.00  0.00     0.082 H 
ATOM     23  H   LIG d   1       9.793   3.062  -2.073  0.00  0.00     0.082 H 
ATOM     24  H   LIG d   1      11.823   1.957  -2.833  0.00  0.00     0.082 H 
ATOM     25  H   LIG d   1      12.264   2.029  -4.552  0.00  0.00     0.082 H 
ATOM     26  N   LIG d   1      10.393   2.862  -4.105  0.00  0.00     0.236 N 
ATOM     27  H   LIG d   1      10.386   3.437  -4.955  0.00  0.00     0.203 HD
ENDROOT
BRANCH  26  28
ATOM     28  C   LIG d   1       9.672   1.601  -4.375  0.00  0.00    -0.032 C 
ATOM     29  H   LIG d   1      10.186   0.759  -3.910  0.00  0.00     0.081 H 
ATOM     30  H   LIG d   1       9.618   1.445  -5.452  0.00  0.00     0.081 H 
BRANCH  28  31
ATOM     31  C   LIG d   1       8.257   1.711  -3.803  0.00  0.00    -0.009 C 
ATOM     32  H   LIG d   1       7.863   2.710  -3.999  0.00  0.00     0.032 H 
ATOM     33  H   LIG d   1       8.285   1.536  -2.728  0.00  0.00     0.032 H 
BRANCH  31  34
ATOM     34  C   LIG d   1       7.356   0.668  -4.466  0.00  0.00    -0.023 C 
ATOM     35  H   LIG d   1       7.951  -0.202  -4.744  0.00  0.00     0.032 H 
ATOM     36  H   LIG d   1       6.900   1.097  -5.359  0.00  0.00     0.032 H 
BRANCH  34  37
ATOM     37  C   LIG d   1       6.276   0.251  -3.502  0.00  0.00    -0.047 A 
ATOM     38  C   LIG d   1       5.974  -1.088  -3.339  0.00  0.00    -0.059 A 
ATOM     39  C   LIG d   1       4.987  -1.471  -2.450  0.00  0.00    -0.061 A 
ATOM     40  H   LIG d   1       6.512  -1.835  -3.903  0.00  0.00     0.062 H 
ATOM     41  C   LIG d   1       4.294  -0.515  -1.732  0.00  0.00    -0.062 A 
ATOM     42  H   LIG d   1       4.754  -2.518  -2.320  0.00  0.00     0.062 H 
ATOM     43  C   LIG d   1       4.596   0.825  -1.894  0.00  0.00    -0.061 A 
ATOM     44  H   LIG d   1       3.520  -0.814  -1.040  0.00  0.00     0.062 H 
ATOM     45  C   LIG d   1       5.587   1.207  -2.779  0.00  0.00    -0.059 A 
ATOM     46  H   LIG d   1       4.057   1.572  -1.330  0.00  0.00     0.062 H 
ATOM     47  H   LIG d   1       5.822   2.254  -2.906  0.00  0.00     0.062 H 
ENDBRANCH  34  37
ENDBRANCH  31  34
ENDBRANCH  28  31
ENDBRANCH  26  28
BRANCH   1  48
ATOM     48  N   LIG d   1      10.286   7.197  -8.088  0.00  0.00    -0.277 N 
ATOM     49  C   LIG d   1       9.656   6.518  -9.067  0.00  0.00     0.248 C 
ATOM     50  O   LIG d   1       9.056   5.493  -8.808  0.00  0.00    -0.270 OA
ATOM     51  H   LIG d   1      10.706   8.049  -8.281  0.00  0.00     0.155 HD
BRANCH  49  52
ATOM     52  C   LIG d   1       9.693   7.021 -10.454  0.00  0.00     0.037 A 
ATOM     53  C   LIG d   1       9.042   6.320 -11.472  0.00  0.00    -0.046 A 
ATOM     54  C   LIG d   1       9.079   6.792 -12.765  0.00  0.00    -0.019 A 
ATOM     55  H   LIG d   1       8.510   5.407 -11.244  0.00  0.00     0.063 H 
ATOM     56  C   LIG d   1       9.764   7.965 -13.059  0.00  0.00     0.120 A 
ATOM     57  H   LIG d   1       8.576   6.250 -13.552  0.00  0.00     0.065 H 
ATOM     58  C   LIG d   1      10.414   8.666 -12.050  0.00  0.00    -0.019 A 
ATOM     59  C   LIG d   1      10.376   8.204 -10.753  0.00  0.00    -0.046 A 
ATOM     60  H   LIG d   1      10.945   9.577 -12.282  0.00  0.00     0.065 H 
ATOM     61  H   LIG d   1      10.877   8.751  -9.968  0.00  0.00     0.063 H 
BRANCH  56  62
ATOM     62  O   LIG d   1       9.799   8.427 -14.334  0.00  0.00    -0.495 OA
BRANCH  62  63
ATOM     63  C   LIG d   1       9.505   9.811 -14.531  0.00  0.00     0.079 C 
ATOM     64  H   LIG d   1       9.758  10.096 -15.552  0.00  0.00     0.066 H 
ATOM     65  H   LIG d   1       8.442   9.985 -14.358  0.00  0.00     0.066 H 
ATOM     66  H   LIG d   1      10.088  10.409 -13.831  0.00  0.00     0.066 H 
ENDBRANCH  62  63
ENDBRANCH  56  62
ENDBRANCH  49  52
ENDBRANCH   1  48
TORSDOF 8
ENDMDL
