MODEL 1
REMARK VINA RESULT:      -5.4      0.000      0.000
REMARK  10 active torsions:
REMARK  status: ('A' for Active; 'I' for Inactive)
REMARK    1  A    between atoms: C_1  and  O_2 
REMARK    2  A    between atoms: O_2  and  C_3 
REMARK    3  A    between atoms: C_6  and  C_10 
REMARK    4  A    between atoms: C_8  and  O_9 
REMARK    5  A    between atoms: C_11  and  O_25 
REMARK    6  A    between atoms: C_18  and  O_24 
REMARK    7  A    between atoms: C_19  and  O_22 
REMARK    8  A    between atoms: C_20  and  O_21 
REMARK    9  A    between atoms: O_22  and  C_23 
REMARK   10  A    between atoms: O_25  and  C_26 
ROOT
ATOM      1  C   LIG d   1       3.639  -0.412  -7.876  0.00  0.00     0.181 A 
ATOM      2  C   LIG d   1       4.496   0.390  -8.566  0.00  0.00     0.211 A 
ATOM      3  C   LIG d   1       4.494   0.356  -9.985  0.00  0.00     0.238 A 
ATOM      4  O   LIG d   1       5.248   1.060 -10.637  0.00  0.00    -0.283 OA
ATOM      5  C   LIG d   1       3.546  -0.559 -10.640  0.00  0.00     0.113 A 
ATOM      6  C   LIG d   1       2.704  -1.345  -9.831  0.00  0.00     0.147 A 
ATOM      7  O   LIG d   1       2.782  -1.248  -8.487  0.00  0.00    -0.451 OA
ATOM      8  C   LIG d   1       1.803  -2.214 -10.427  0.00  0.00     0.027 A 
ATOM      9  C   LIG d   1       1.737  -2.307 -11.808  0.00  0.00     0.166 A 
ATOM     10  C   LIG d   1       2.571  -1.532 -12.612  0.00  0.00     0.204 A 
ATOM     11  C   LIG d   1       3.476  -0.658 -12.034  0.00  0.00     0.177 A 
ATOM     12  H   LIG d   1       1.153  -2.820  -9.814  0.00  0.00     0.069 H 
ENDROOT
BRANCH   1  13
ATOM     13  C   LIG d   1       3.655  -0.366  -6.402  0.00  0.00     0.025 A 
ATOM     14  C   LIG d   1       2.779   0.482  -5.718  0.00  0.00    -0.047 A 
ATOM     15  C   LIG d   1       2.795   0.523  -4.340  0.00  0.00    -0.016 A 
ATOM     16  H   LIG d   1       2.089   1.104  -6.269  0.00  0.00     0.063 H 
ATOM     17  C   LIG d   1       3.679  -0.275  -3.629  0.00  0.00     0.161 A 
ATOM     18  H   LIG d   1       2.117   1.179  -3.813  0.00  0.00     0.066 H 
ATOM     19  C   LIG d   1       4.559  -1.119  -4.304  0.00  0.00     0.159 A 
ATOM     20  C   LIG d   1       4.546  -1.170  -5.685  0.00  0.00    -0.006 A 
ATOM     21  H   LIG d   1       5.225  -1.826  -6.209  0.00  0.00     0.066 H 
BRANCH  17  22
ATOM     22  O   LIG d   1       3.690  -0.231  -2.271  0.00  0.00    -0.491 OA
BRANCH  22  23
ATOM     23  C   LIG d   1       4.466   0.803  -1.661  0.00  0.00     0.079 C 
ATOM     24  H   LIG d   1       3.833   1.669  -1.474  0.00  0.00     0.066 H 
ATOM     25  H   LIG d   1       4.877   0.441  -0.718  0.00  0.00     0.066 H 
ATOM     26  H   LIG d   1       5.281   1.086  -2.327  0.00  0.00     0.066 H 
ENDBRANCH  22  23
ENDBRANCH  17  22
BRANCH  19  27
ATOM     27  O   LIG d   1       5.427  -1.897  -3.603  0.00  0.00    -0.503 OA
ATOM     28  H   LIG d   1       5.482  -1.678  -2.664  0.00  0.00     0.292 HD
ENDBRANCH  19  27
ENDBRANCH   1  13
BRANCH   2  29
ATOM     29  O   LIG d   1       5.349   1.216  -7.901  0.00  0.00    -0.488 OA
BRANCH  29  30
ATOM     30  C   LIG d   1       6.724   0.827  -7.854  0.00  0.00     0.079 C 
ATOM     31  H   LIG d   1       7.341   1.699  -7.641  0.00  0.00     0.066 H 
ATOM     32  H   LIG d   1       6.863   0.083  -7.069  0.00  0.00     0.066 H 
ATOM     33  H   LIG d   1       7.014   0.402  -8.814  0.00  0.00     0.066 H 
ENDBRANCH  29  30
ENDBRANCH   2  29
BRANCH  11  34
ATOM     34  O   LIG d   1       4.290   0.100 -12.815  0.00  0.00    -0.503 OA
ATOM     35  H   LIG d   1       5.232  -0.016 -12.629  0.00  0.00     0.292 HD
ENDBRANCH  11  34
BRANCH   9  36
ATOM     36  O   LIG d   1       0.853  -3.163 -12.383  0.00  0.00    -0.503 OA
ATOM     37  H   LIG d   1       1.073  -4.097 -12.260  0.00  0.00     0.292 HD
ENDBRANCH   9  36
BRANCH  10  38
ATOM     38  O   LIG d   1       2.494  -1.634 -13.968  0.00  0.00    -0.488 OA
BRANCH  38  39
ATOM     39  C   LIG d   1       3.340  -2.602 -14.593  0.00  0.00     0.079 C 
ATOM     40  H   LIG d   1       3.043  -3.602 -14.278  0.00  0.00     0.066 H 
ATOM     41  H   LIG d   1       3.246  -2.520 -15.676  0.00  0.00     0.066 H 
ATOM     42  H   LIG d   1       4.375  -2.422 -14.303  0.00  0.00     0.066 H 
ENDBRANCH  38  39
ENDBRANCH  10  38
TORSDOF 10
ENDMDL
MODEL 2
REMARK VINA RESULT:      -5.2     11.798     17.550
REMARK  10 active torsions:
REMARK  status: ('A' for Active; 'I' for Inactive)
REMARK    1  A    between atoms: C_1  and  O_2 
REMARK    2  A    between atoms: O_2  and  C_3 
REMARK    3  A    between atoms: C_6  and  C_10 
REMARK    4  A    between atoms: C_8  and  O_9 
REMARK    5  A    between atoms: C_11  and  O_25 
REMARK    6  A    between atoms: C_18  and  O_24 
REMARK    7  A    between atoms: C_19  and  O_22 
REMARK    8  A    between atoms: C_20  and  O_21 
REMARK    9  A    between atoms: O_22  and  C_23 
REMARK   10  A    between atoms: O_25  and  C_26 
ROOT
ATOM      1  C   LIG d   1      11.381   7.530   1.951  0.00  0.00     0.181 A 
ATOM      2  C   LIG d   1      11.807   8.823   1.989  0.00  0.00     0.211 A 
ATOM      3  C   LIG d   1      12.078   9.432   3.241  0.00  0.00     0.238 A 
ATOM      4  O   LIG d   1      12.461  10.589   3.315  0.00  0.00    -0.283 OA
ATOM      5  C   LIG d   1      11.882   8.615   4.449  0.00  0.00     0.113 A 
ATOM      6  C   LIG d   1      11.439   7.288   4.297  0.00  0.00     0.147 A 
ATOM      7  O   LIG d   1      11.201   6.796   3.063  0.00  0.00    -0.451 OA
ATOM      8  C   LIG d   1      11.248   6.500   5.422  0.00  0.00     0.027 A 
ATOM      9  C   LIG d   1      11.490   7.019   6.683  0.00  0.00     0.166 A 
ATOM     10  C   LIG d   1      11.928   8.333   6.838  0.00  0.00     0.204 A 
ATOM     11  C   LIG d   1      12.125   9.134   5.726  0.00  0.00     0.177 A 
ATOM     12  H   LIG d   1      10.908   5.480   5.314  0.00  0.00     0.069 H 
ENDROOT
BRANCH   1  13
ATOM     13  C   LIG d   1      11.103   6.912   0.641  0.00  0.00     0.025 A 
ATOM     14  C   LIG d   1      11.828   5.792   0.226  0.00  0.00    -0.047 A 
ATOM     15  C   LIG d   1      11.566   5.215  -0.998  0.00  0.00    -0.016 A 
ATOM     16  H   LIG d   1      12.593   5.377   0.866  0.00  0.00     0.063 H 
ATOM     17  C   LIG d   1      10.583   5.745  -1.822  0.00  0.00     0.161 A 
ATOM     18  H   LIG d   1      12.127   4.349  -1.317  0.00  0.00     0.066 H 
ATOM     19  C   LIG d   1       9.859   6.866  -1.417  0.00  0.00     0.159 A 
ATOM     20  C   LIG d   1      10.113   7.446  -0.189  0.00  0.00    -0.006 A 
ATOM     21  H   LIG d   1       9.550   8.312   0.126  0.00  0.00     0.066 H 
BRANCH  17  22
ATOM     22  O   LIG d   1      10.328   5.173  -3.028  0.00  0.00    -0.491 OA
BRANCH  22  23
ATOM     23  C   LIG d   1       9.864   3.822  -3.020  0.00  0.00     0.079 C 
ATOM     24  H   LIG d   1      10.088   3.366  -2.056  0.00  0.00     0.066 H 
ATOM     25  H   LIG d   1       8.786   3.806  -3.188  0.00  0.00     0.066 H 
ATOM     26  H   LIG d   1      10.362   3.262  -3.812  0.00  0.00     0.066 H 
ENDBRANCH  22  23
ENDBRANCH  17  22
BRANCH  19  27
ATOM     27  O   LIG d   1       8.900   7.385  -2.230  0.00  0.00    -0.503 OA
ATOM     28  H   LIG d   1       8.010   7.051  -2.052  0.00  0.00     0.292 HD
ENDBRANCH  19  27
ENDBRANCH   1  13
BRANCH   2  29
ATOM     29  O   LIG d   1      11.969   9.526   0.835  0.00  0.00    -0.488 OA
BRANCH  29  30
ATOM     30  C   LIG d   1      13.283   9.556   0.273  0.00  0.00     0.079 C 
ATOM     31  H   LIG d   1      13.400  10.455  -0.331  0.00  0.00     0.066 H 
ATOM     32  H   LIG d   1      14.021   9.560   1.076  0.00  0.00     0.066 H 
ATOM     33  H   LIG d   1      13.431   8.676  -0.352  0.00  0.00     0.066 H 
ENDBRANCH  29  30
ENDBRANCH   2  29
BRANCH  11  34
ATOM     34  O   LIG d   1      12.552  10.416   5.873  0.00  0.00    -0.503 OA
ATOM     35  H   LIG d   1      13.471  10.493   6.163  0.00  0.00     0.292 HD
ENDBRANCH  11  34
BRANCH   9  36
ATOM     36  O   LIG d   1      11.298   6.240   7.780  0.00  0.00    -0.503 OA
ATOM     37  H   LIG d   1      11.179   5.301   7.579  0.00  0.00     0.292 HD
ENDBRANCH   9  36
BRANCH  10  38
ATOM     38  O   LIG d   1      12.162   8.829   8.085  0.00  0.00    -0.488 OA
BRANCH  38  39
ATOM     39  C   LIG d   1      13.476   8.647   8.619  0.00  0.00     0.079 C 
ATOM     40  H   LIG d   1      13.562   7.643   9.035  0.00  0.00     0.066 H 
ATOM     41  H   LIG d   1      14.211   8.774   7.824  0.00  0.00     0.066 H 
ATOM     42  H   LIG d   1      13.655   9.382   9.402  0.00  0.00     0.066 H 
ENDBRANCH  38  39
ENDBRANCH  10  38
TORSDOF 10
ENDMDL
MODEL 3
REMARK VINA RESULT:      -5.2     10.336     14.078
REMARK  10 active torsions:
REMARK  status: ('A' for Active; 'I' for Inactive)
REMARK    1  A    between atoms: C_1  and  O_2 
REMARK    2  A    between atoms: O_2  and  C_3 
REMARK    3  A    between atoms: C_6  and  C_10 
REMARK    4  A    between atoms: C_8  and  O_9 
REMARK    5  A    between atoms: C_11  and  O_25 
REMARK    6  A    between atoms: C_18  and  O_24 
REMARK    7  A    between atoms: C_19  and  O_22 
REMARK    8  A    between atoms: C_20  and  O_21 
REMARK    9  A    between atoms: O_22  and  C_23 
REMARK   10  A    between atoms: O_25  and  C_26 
ROOT
ATOM      1  C   LIG d   1       7.073 -10.331  -2.586  0.00  0.00     0.181 A 
ATOM      2  C   LIG d   1       7.671  -9.155  -2.928  0.00  0.00     0.211 A 
ATOM      3  C   LIG d   1       8.828  -8.732  -2.226  0.00  0.00     0.238 A 
ATOM      4  O   LIG d   1       9.391  -7.684  -2.504  0.00  0.00    -0.283 OA
ATOM      5  C   LIG d   1       9.327  -9.603  -1.151  0.00  0.00     0.113 A 
ATOM      6  C   LIG d   1       8.633 -10.797  -0.879  0.00  0.00     0.147 A 
ATOM      7  O   LIG d   1       7.536 -11.115  -1.598  0.00  0.00    -0.451 OA
ATOM      8  C   LIG d   1       9.086 -11.633   0.130  0.00  0.00     0.027 A 
ATOM      9  C   LIG d   1      10.210 -11.293   0.864  0.00  0.00     0.166 A 
ATOM     10  C   LIG d   1      10.899 -10.110   0.598  0.00  0.00     0.204 A 
ATOM     11  C   LIG d   1      10.462  -9.263  -0.406  0.00  0.00     0.177 A 
ATOM     12  H   LIG d   1       8.559 -12.552   0.345  0.00  0.00     0.069 H 
ENDROOT
BRANCH   1  13
ATOM     13  C   LIG d   1       5.870 -10.757  -3.325  0.00  0.00     0.025 A 
ATOM     14  C   LIG d   1       5.988 -11.612  -4.424  0.00  0.00    -0.047 A 
ATOM     15  C   LIG d   1       4.863 -12.010  -5.113  0.00  0.00    -0.016 A 
ATOM     16  H   LIG d   1       6.962 -11.962  -4.733  0.00  0.00     0.063 H 
ATOM     17  C   LIG d   1       3.610 -11.562  -4.718  0.00  0.00     0.161 A 
ATOM     18  H   LIG d   1       4.956 -12.671  -5.962  0.00  0.00     0.066 H 
ATOM     19  C   LIG d   1       3.484 -10.705  -3.627  0.00  0.00     0.159 A 
ATOM     20  C   LIG d   1       4.608 -10.306  -2.928  0.00  0.00    -0.006 A 
ATOM     21  H   LIG d   1       4.511  -9.644  -2.080  0.00  0.00     0.066 H 
BRANCH  17  22
ATOM     22  O   LIG d   1       2.503 -11.958  -5.401  0.00  0.00    -0.491 OA
BRANCH  22  23
ATOM     23  C   LIG d   1       2.685 -12.948  -6.414  0.00  0.00     0.079 C 
ATOM     24  H   LIG d   1       3.641 -12.790  -6.910  0.00  0.00     0.066 H 
ATOM     25  H   LIG d   1       2.670 -13.940  -5.960  0.00  0.00     0.066 H 
ATOM     26  H   LIG d   1       1.879 -12.873  -7.144  0.00  0.00     0.066 H 
ENDBRANCH  22  23
ENDBRANCH  17  22
BRANCH  19  27
ATOM     27  O   LIG d   1       2.255 -10.265  -3.246  0.00  0.00    -0.503 OA
ATOM     28  H   LIG d   1       1.617 -10.972  -3.082  0.00  0.00     0.292 HD
ENDBRANCH  19  27
ENDBRANCH   1  13
BRANCH   2  29
ATOM     29  O   LIG d   1       7.161  -8.393  -3.934  0.00  0.00    -0.488 OA
BRANCH  29  30
ATOM     30  C   LIG d   1       7.808  -8.480  -5.205  0.00  0.00     0.079 C 
ATOM     31  H   LIG d   1       8.580  -7.714  -5.273  0.00  0.00     0.066 H 
ATOM     32  H   LIG d   1       8.263  -9.465  -5.314  0.00  0.00     0.066 H 
ATOM     33  H   LIG d   1       7.074  -8.328  -5.997  0.00  0.00     0.066 H 
ENDBRANCH  29  30
ENDBRANCH   2  29
BRANCH  11  34
ATOM     34  O   LIG d   1      11.131  -8.110  -0.668  0.00  0.00    -0.503 OA
ATOM     35  H   LIG d   1      10.557  -7.342  -0.794  0.00  0.00     0.292 HD
ENDBRANCH  11  34
BRANCH   9  36
ATOM     36  O   LIG d   1      10.645 -12.117   1.852  0.00  0.00    -0.503 OA
ATOM     37  H   LIG d   1      10.759 -11.679   2.707  0.00  0.00     0.292 HD
ENDBRANCH   9  36
BRANCH  10  38
ATOM     38  O   LIG d   1      12.003  -9.788   1.328  0.00  0.00    -0.488 OA
BRANCH  38  39
ATOM     39  C   LIG d   1      11.796  -9.000   2.502  0.00  0.00     0.079 C 
ATOM     40  H   LIG d   1      11.196  -9.563   3.216  0.00  0.00     0.066 H 
ATOM     41  H   LIG d   1      12.760  -8.757   2.950  0.00  0.00     0.066 H 
ATOM     42  H   LIG d   1      11.277  -8.080   2.235  0.00  0.00     0.066 H 
ENDBRANCH  38  39
ENDBRANCH  10  38
TORSDOF 10
ENDMDL
MODEL 4
REMARK VINA RESULT:      -5.1      7.534      9.538
REMARK  10 active torsions:
REMARK  status: ('A' for Active; 'I' for Inactive)
REMARK    1  A    between atoms: C_1  and  O_2 
REMARK    2  A    between atoms: O_2  and  C_3 
REMARK    3  A    between atoms: C_6  and  C_10 
REMARK    4  A    between atoms: C_8  and  O_9 
REMARK    5  A    between atoms: C_11  and  O_25 
REMARK    6  A    between atoms: C_18  and  O_24 
REMARK    7  A    between atoms: C_19  and  O_22 
REMARK    8  A    between atoms: C_20  and  O_21 
REMARK    9  A    between atoms: O_22  and  C_23 
REMARK   10  A    between atoms: O_25  and  C_26 
ROOT
ATOM      1  C   LIG d   1       9.845   5.497  -5.340  0.00  0.00     0.181 A 
ATOM      2  C   LIG d   1       9.695   4.199  -5.724  0.00  0.00     0.211 A 
ATOM      3  C   LIG d   1       9.513   3.894  -7.098  0.00  0.00     0.238 A 
ATOM      4  O   LIG d   1       9.374   2.743  -7.479  0.00  0.00    -0.283 OA
ATOM      5  C   LIG d   1       9.498   5.019  -8.046  0.00  0.00     0.113 A 
ATOM      6  C   LIG d   1       9.662   6.323  -7.543  0.00  0.00     0.147 A 
ATOM      7  O   LIG d   1       9.824   6.516  -6.217  0.00  0.00    -0.451 OA
ATOM      8  C   LIG d   1       9.651   7.398  -8.419  0.00  0.00     0.027 A 
ATOM      9  C   LIG d   1       9.478   7.186  -9.777  0.00  0.00     0.166 A 
ATOM     10  C   LIG d   1       9.314   5.896 -10.279  0.00  0.00     0.204 A 
ATOM     11  C   LIG d   1       9.323   4.810  -9.419  0.00  0.00     0.177 A 
ATOM     12  H   LIG d   1       9.777   8.402  -8.041  0.00  0.00     0.069 H 
ENDROOT
BRANCH   1  13
ATOM     13  C   LIG d   1      10.034   5.797  -3.909  0.00  0.00     0.025 A 
ATOM     14  C   LIG d   1      11.125   5.264  -3.218  0.00  0.00    -0.047 A 
ATOM     15  C   LIG d   1      11.300   5.547  -1.881  0.00  0.00    -0.016 A 
ATOM     16  H   LIG d   1      11.833   4.632  -3.734  0.00  0.00     0.063 H 
ATOM     17  C   LIG d   1      10.393   6.360  -1.216  0.00  0.00     0.161 A 
ATOM     18  H   LIG d   1      12.145   5.133  -1.349  0.00  0.00     0.066 H 
ATOM     19  C   LIG d   1       9.299   6.891  -1.897  0.00  0.00     0.159 A 
ATOM     20  C   LIG d   1       9.120   6.616  -3.239  0.00  0.00    -0.006 A 
ATOM     21  H   LIG d   1       8.274   7.030  -3.768  0.00  0.00     0.066 H 
BRANCH  17  22
ATOM     22  O   LIG d   1      10.570   6.636   0.103  0.00  0.00    -0.491 OA
BRANCH  22  23
ATOM     23  C   LIG d   1      11.258   5.657   0.884  0.00  0.00     0.079 C 
ATOM     24  H   LIG d   1      12.281   5.985   1.059  0.00  0.00     0.066 H 
ATOM     25  H   LIG d   1      10.747   5.530   1.840  0.00  0.00     0.066 H 
ATOM     26  H   LIG d   1      11.266   4.706   0.350  0.00  0.00     0.066 H 
ENDBRANCH  22  23
ENDBRANCH  17  22
BRANCH  19  27
ATOM     27  O   LIG d   1       8.410   7.684  -1.240  0.00  0.00    -0.503 OA
ATOM     28  H   LIG d   1       8.798   8.487  -0.869  0.00  0.00     0.292 HD
ENDBRANCH  19  27
ENDBRANCH   1  13
BRANCH   2  29
ATOM     29  O   LIG d   1       9.719   3.202  -4.798  0.00  0.00    -0.488 OA
BRANCH  29  30
ATOM     30  C   LIG d   1       8.458   2.668  -4.388  0.00  0.00     0.079 C 
ATOM     31  H   LIG d   1       7.711   2.869  -5.155  0.00  0.00     0.066 H 
ATOM     32  H   LIG d   1       8.550   1.590  -4.245  0.00  0.00     0.066 H 
ATOM     33  H   LIG d   1       8.153   3.134  -3.451  0.00  0.00     0.066 H 
ENDBRANCH  29  30
ENDBRANCH   2  29
BRANCH  11  34
ATOM     34  O   LIG d   1       9.163   3.552  -9.905  0.00  0.00    -0.503 OA
ATOM     35  H   LIG d   1       8.475   3.041  -9.455  0.00  0.00     0.292 HD
ENDBRANCH  11  34
BRANCH   9  36
ATOM     36  O   LIG d   1       9.467   8.245 -10.628  0.00  0.00    -0.503 OA
ATOM     37  H   LIG d   1      10.281   8.769 -10.613  0.00  0.00     0.292 HD
ENDBRANCH   9  36
BRANCH  10  38
ATOM     38  O   LIG d   1       9.145   5.703 -11.616  0.00  0.00    -0.488 OA
BRANCH  38  39
ATOM     39  C   LIG d   1      10.325   5.496 -12.396  0.00  0.00     0.079 C 
ATOM     40  H   LIG d   1      10.878   6.432 -12.472  0.00  0.00     0.066 H 
ATOM     41  H   LIG d   1      10.950   4.743 -11.915  0.00  0.00     0.066 H 
ATOM     42  H   LIG d   1      10.047   5.156 -13.393  0.00  0.00     0.066 H 
ENDBRANCH  38  39
ENDBRANCH  10  38
TORSDOF 10
ENDMDL
MODEL 5
REMARK VINA RESULT:      -5.1      9.533     13.227
REMARK  10 active torsions:
REMARK  status: ('A' for Active; 'I' for Inactive)
REMARK    1  A    between atoms: C_1  and  O_2 
REMARK    2  A    between atoms: O_2  and  C_3 
REMARK    3  A    between atoms: C_6  and  C_10 
REMARK    4  A    between atoms: C_8  and  O_9 
REMARK    5  A    between atoms: C_11  and  O_25 
REMARK    6  A    between atoms: C_18  and  O_24 
REMARK    7  A    between atoms: C_19  and  O_22 
REMARK    8  A    between atoms: C_20  and  O_21 
REMARK    9  A    between atoms: O_22  and  C_23 
REMARK   10  A    between atoms: O_25  and  C_26 
ROOT
ATOM      1  C   LIG d   1      10.453   6.380  -2.658  0.00  0.00     0.181 A 
ATOM      2  C   LIG d   1      10.228   6.737  -1.363  0.00  0.00     0.211 A 
ATOM      3  C   LIG d   1       9.873   8.077  -1.060  0.00  0.00     0.238 A 
ATOM      4  O   LIG d   1       9.664   8.434   0.089  0.00  0.00    -0.283 OA
ATOM      5  C   LIG d   1       9.764   9.021  -2.184  0.00  0.00     0.113 A 
ATOM      6  C   LIG d   1      10.017   8.547  -3.485  0.00  0.00     0.147 A 
ATOM      7  O   LIG d   1      10.355   7.254  -3.674  0.00  0.00    -0.451 OA
ATOM      8  C   LIG d   1       9.920   9.419  -4.558  0.00  0.00     0.027 A 
ATOM      9  C   LIG d   1       9.578  10.745  -4.348  0.00  0.00     0.166 A 
ATOM     10  C   LIG d   1       9.327  11.218  -3.061  0.00  0.00     0.204 A 
ATOM     11  C   LIG d   1       9.419  10.361  -1.977  0.00  0.00     0.177 A 
ATOM     12  H   LIG d   1      10.113   9.063  -5.560  0.00  0.00     0.069 H 
ENDROOT
BRANCH   1  13
ATOM     13  C   LIG d   1      10.822   4.984  -2.955  0.00  0.00     0.025 A 
ATOM     14  C   LIG d   1      12.162   4.638  -3.143  0.00  0.00    -0.047 A 
ATOM     15  C   LIG d   1      12.505   3.332  -3.420  0.00  0.00    -0.016 A 
ATOM     16  H   LIG d   1      12.930   5.394  -3.069  0.00  0.00     0.063 H 
ATOM     17  C   LIG d   1      11.521   2.358  -3.514  0.00  0.00     0.161 A 
ATOM     18  H   LIG d   1      13.543   3.066  -3.564  0.00  0.00     0.066 H 
ATOM     19  C   LIG d   1      10.181   2.697  -3.334  0.00  0.00     0.159 A 
ATOM     20  C   LIG d   1       9.830   4.003  -3.051  0.00  0.00    -0.006 A 
ATOM     21  H   LIG d   1       8.793   4.265  -2.908  0.00  0.00     0.066 H 
BRANCH  17  22
ATOM     22  O   LIG d   1      11.864   1.072  -3.788  0.00  0.00    -0.491 OA
BRANCH  22  23
ATOM     23  C   LIG d   1      13.252   0.739  -3.707  0.00  0.00     0.079 C 
ATOM     24  H   LIG d   1      13.788   1.538  -3.198  0.00  0.00     0.066 H 
ATOM     25  H   LIG d   1      13.370  -0.192  -3.152  0.00  0.00     0.066 H 
ATOM     26  H   LIG d   1      13.654   0.615  -4.713  0.00  0.00     0.066 H 
ENDBRANCH  22  23
ENDBRANCH  17  22
BRANCH  19  27
ATOM     27  O   LIG d   1       9.219   1.740  -3.432  0.00  0.00    -0.503 OA
ATOM     28  H   LIG d   1       8.988   1.507  -4.341  0.00  0.00     0.292 HD
ENDBRANCH  19  27
ENDBRANCH   1  13
BRANCH   2  29
ATOM     29  O   LIG d   1      10.345   5.817  -0.367  0.00  0.00    -0.488 OA
BRANCH  29  30
ATOM     30  C   LIG d   1      11.571   5.806   0.366  0.00  0.00     0.079 C 
ATOM     31  H   LIG d   1      12.380   5.471  -0.282  0.00  0.00     0.066 H 
ATOM     32  H   LIG d   1      11.788   6.813   0.725  0.00  0.00     0.066 H 
ATOM     33  H   LIG d   1      11.481   5.129   1.216  0.00  0.00     0.066 H 
ENDBRANCH  29  30
ENDBRANCH   2  29
BRANCH  11  34
ATOM     34  O   LIG d   1       9.175  10.819  -0.721  0.00  0.00    -0.503 OA
ATOM     35  H   LIG d   1       9.601  11.664  -0.521  0.00  0.00     0.292 HD
ENDBRANCH  11  34
BRANCH   9  36
ATOM     36  O   LIG d   1       9.488  11.592  -5.406  0.00  0.00    -0.503 OA
ATOM     37  H   LIG d   1       8.623  11.586  -5.842  0.00  0.00     0.292 HD
ENDBRANCH   9  36
BRANCH  10  38
ATOM     38  O   LIG d   1       8.992  12.524  -2.871  0.00  0.00    -0.488 OA
BRANCH  38  39
ATOM     39  C   LIG d   1      10.063  13.439  -2.627  0.00  0.00     0.079 C 
ATOM     40  H   LIG d   1       9.943  13.882  -1.639  0.00  0.00     0.066 H 
ATOM     41  H   LIG d   1      11.013  12.906  -2.672  0.00  0.00     0.066 H 
ATOM     42  H   LIG d   1      10.050  14.224  -3.382  0.00  0.00     0.066 H 
ENDBRANCH  38  39
ENDBRANCH  10  38
TORSDOF 10
ENDMDL
MODEL 6
REMARK VINA RESULT:      -5.0     11.097     13.691
REMARK  10 active torsions:
REMARK  status: ('A' for Active; 'I' for Inactive)
REMARK    1  A    between atoms: C_1  and  O_2 
REMARK    2  A    between atoms: O_2  and  C_3 
REMARK    3  A    between atoms: C_6  and  C_10 
REMARK    4  A    between atoms: C_8  and  O_9 
REMARK    5  A    between atoms: C_11  and  O_25 
REMARK    6  A    between atoms: C_18  and  O_24 
REMARK    7  A    between atoms: C_19  and  O_22 
REMARK    8  A    between atoms: C_20  and  O_21 
REMARK    9  A    between atoms: O_22  and  C_23 
REMARK   10  A    between atoms: O_25  and  C_26 
ROOT
ATOM      1  C   LIG d   1       9.821  -9.934  -0.074  0.00  0.00     0.181 A 
ATOM      2  C   LIG d   1      10.513  -9.452  -1.143  0.00  0.00     0.211 A 
ATOM      3  C   LIG d   1       9.850  -9.292  -2.388  0.00  0.00     0.238 A 
ATOM      4  O   LIG d   1      10.438  -8.863  -3.369  0.00  0.00    -0.283 OA
ATOM      5  C   LIG d   1       8.428  -9.661  -2.452  0.00  0.00     0.113 A 
ATOM      6  C   LIG d   1       7.808 -10.149  -1.286  0.00  0.00     0.147 A 
ATOM      7  O   LIG d   1       8.522 -10.272  -0.148  0.00  0.00    -0.451 OA
ATOM      8  C   LIG d   1       6.468 -10.503  -1.324  0.00  0.00     0.027 A 
ATOM      9  C   LIG d   1       5.749 -10.377  -2.501  0.00  0.00     0.166 A 
ATOM     10  C   LIG d   1       6.359  -9.894  -3.658  0.00  0.00     0.204 A 
ATOM     11  C   LIG d   1       7.697  -9.536  -3.639  0.00  0.00     0.177 A 
ATOM     12  H   LIG d   1       5.985 -10.878  -0.434  0.00  0.00     0.069 H 
ENDROOT
BRANCH   1  13
ATOM     13  C   LIG d   1      10.524 -10.094   1.212  0.00  0.00     0.025 A 
ATOM     14  C   LIG d   1      10.933 -11.362   1.634  0.00  0.00    -0.047 A 
ATOM     15  C   LIG d   1      11.591 -11.510   2.836  0.00  0.00    -0.016 A 
ATOM     16  H   LIG d   1      10.735 -12.226   1.017  0.00  0.00     0.063 H 
ATOM     17  C   LIG d   1      11.848 -10.402   3.631  0.00  0.00     0.161 A 
ATOM     18  H   LIG d   1      11.907 -12.491   3.160  0.00  0.00     0.066 H 
ATOM     19  C   LIG d   1      11.438  -9.135   3.220  0.00  0.00     0.159 A 
ATOM     20  C   LIG d   1      10.782  -8.978   2.013  0.00  0.00    -0.006 A 
ATOM     21  H   LIG d   1      10.468  -7.996   1.693  0.00  0.00     0.066 H 
BRANCH  17  22
ATOM     22  O   LIG d   1      12.497 -10.553   4.815  0.00  0.00    -0.491 OA
BRANCH  22  23
ATOM     23  C   LIG d   1      13.920 -10.676   4.765  0.00  0.00     0.079 C 
ATOM     24  H   LIG d   1      14.194 -11.730   4.757  0.00  0.00     0.066 H 
ATOM     25  H   LIG d   1      14.293 -10.195   3.860  0.00  0.00     0.066 H 
ATOM     26  H   LIG d   1      14.357 -10.192   5.639  0.00  0.00     0.066 H 
ENDBRANCH  22  23
ENDBRANCH  17  22
BRANCH  19  27
ATOM     27  O   LIG d   1      11.688  -8.052   4.004  0.00  0.00    -0.503 OA
ATOM     28  H   LIG d   1      12.504  -7.585   3.783  0.00  0.00     0.292 HD
ENDBRANCH  19  27
ENDBRANCH   1  13
BRANCH   2  29
ATOM     29  O   LIG d   1      11.829  -9.128  -1.020  0.00  0.00    -0.488 OA
BRANCH  29  30
ATOM     30  C   LIG d   1      12.780 -10.114  -1.425  0.00  0.00     0.079 C 
ATOM     31  H   LIG d   1      12.542 -11.066  -0.952  0.00  0.00     0.066 H 
ATOM     32  H   LIG d   1      12.745 -10.229  -2.509  0.00  0.00     0.066 H 
ATOM     33  H   LIG d   1      13.780  -9.800  -1.125  0.00  0.00     0.066 H 
ENDBRANCH  29  30
ENDBRANCH   2  29
BRANCH  11  34
ATOM     34  O   LIG d   1       8.295  -9.066  -4.764  0.00  0.00    -0.503 OA
ATOM     35  H   LIG d   1       7.803  -9.248  -5.577  0.00  0.00     0.292 HD
ENDBRANCH  11  34
BRANCH   9  36
ATOM     36  O   LIG d   1       4.436 -10.728  -2.529  0.00  0.00    -0.503 OA
ATOM     37  H   LIG d   1       3.905 -10.316  -1.833  0.00  0.00     0.292 HD
ENDBRANCH   9  36
BRANCH  10  38
ATOM     38  O   LIG d   1       5.639  -9.776  -4.808  0.00  0.00    -0.488 OA
BRANCH  38  39
ATOM     39  C   LIG d   1       4.973  -8.531  -5.030  0.00  0.00     0.079 C 
ATOM     40  H   LIG d   1       5.563  -7.922  -5.714  0.00  0.00     0.066 H 
ATOM     41  H   LIG d   1       3.991  -8.718  -5.466  0.00  0.00     0.066 H 
ATOM     42  H   LIG d   1       4.857  -8.007  -4.082  0.00  0.00     0.066 H 
ENDBRANCH  38  39
ENDBRANCH  10  38
TORSDOF 10
ENDMDL
MODEL 7
REMARK VINA RESULT:      -5.0     10.285     13.585
REMARK  10 active torsions:
REMARK  status: ('A' for Active; 'I' for Inactive)
REMARK    1  A    between atoms: C_1  and  O_2 
REMARK    2  A    between atoms: O_2  and  C_3 
REMARK    3  A    between atoms: C_6  and  C_10 
REMARK    4  A    between atoms: C_8  and  O_9 
REMARK    5  A    between atoms: C_11  and  O_25 
REMARK    6  A    between atoms: C_18  and  O_24 
REMARK    7  A    between atoms: C_19  and  O_22 
REMARK    8  A    between atoms: C_20  and  O_21 
REMARK    9  A    between atoms: O_22  and  C_23 
REMARK   10  A    between atoms: O_25  and  C_26 
ROOT
ATOM      1  C   LIG d   1      10.309   8.988  -2.965  0.00  0.00     0.181 A 
ATOM      2  C   LIG d   1      10.885   8.639  -1.780  0.00  0.00     0.211 A 
ATOM      3  C   LIG d   1      11.019   7.267  -1.448  0.00  0.00     0.238 A 
ATOM      4  O   LIG d   1      11.530   6.916  -0.396  0.00  0.00    -0.283 OA
ATOM      5  C   LIG d   1      10.522   6.281  -2.421  0.00  0.00     0.113 A 
ATOM      6  C   LIG d   1       9.944   6.749  -3.615  0.00  0.00     0.147 A 
ATOM      7  O   LIG d   1       9.854   8.077  -3.842  0.00  0.00    -0.451 OA
ATOM      8  C   LIG d   1       9.469   5.838  -4.545  0.00  0.00     0.027 A 
ATOM      9  C   LIG d   1       9.563   4.478  -4.297  0.00  0.00     0.166 A 
ATOM     10  C   LIG d   1      10.134   4.010  -3.115  0.00  0.00     0.204 A 
ATOM     11  C   LIG d   1      10.614   4.906  -2.174  0.00  0.00     0.177 A 
ATOM     12  H   LIG d   1       9.024   6.189  -5.465  0.00  0.00     0.069 H 
ENDROOT
BRANCH   1  13
ATOM     13  C   LIG d   1      10.176  10.419  -3.295  0.00  0.00     0.025 A 
ATOM     14  C   LIG d   1      11.214  11.087  -3.949  0.00  0.00    -0.047 A 
ATOM     15  C   LIG d   1      11.087  12.425  -4.258  0.00  0.00    -0.016 A 
ATOM     16  H   LIG d   1      12.116  10.555  -4.214  0.00  0.00     0.063 H 
ATOM     17  C   LIG d   1       9.929  13.111  -3.920  0.00  0.00     0.161 A 
ATOM     18  H   LIG d   1      11.891  12.940  -4.763  0.00  0.00     0.066 H 
ATOM     19  C   LIG d   1       8.891  12.452  -3.263  0.00  0.00     0.159 A 
ATOM     20  C   LIG d   1       9.009  11.111  -2.955  0.00  0.00    -0.006 A 
ATOM     21  H   LIG d   1       8.204  10.599  -2.449  0.00  0.00     0.066 H 
BRANCH  17  22
ATOM     22  O   LIG d   1       9.809  14.429  -4.227  0.00  0.00    -0.491 OA
BRANCH  22  23
ATOM     23  C   LIG d   1       9.492  14.754  -5.582  0.00  0.00     0.079 C 
ATOM     24  H   LIG d   1       8.570  15.334  -5.611  0.00  0.00     0.066 H 
ATOM     25  H   LIG d   1      10.304  15.339  -6.015  0.00  0.00     0.066 H 
ATOM     26  H   LIG d   1       9.362  13.835  -6.155  0.00  0.00     0.066 H 
ENDBRANCH  22  23
ENDBRANCH  17  22
BRANCH  19  27
ATOM     27  O   LIG d   1       7.760  13.130  -2.930  0.00  0.00    -0.503 OA
ATOM     28  H   LIG d   1       7.091  13.146  -3.627  0.00  0.00     0.292 HD
ENDBRANCH  19  27
ENDBRANCH   1  13
BRANCH   2  29
ATOM     29  O   LIG d   1      11.325   9.599  -0.923  0.00  0.00    -0.488 OA
BRANCH  29  30
ATOM     30  C   LIG d   1      10.487   9.907   0.193  0.00  0.00     0.079 C 
ATOM     31  H   LIG d   1       9.579  10.397  -0.158  0.00  0.00     0.066 H 
ATOM     32  H   LIG d   1      10.224   8.986   0.714  0.00  0.00     0.066 H 
ATOM     33  H   LIG d   1      11.018  10.571   0.875  0.00  0.00     0.066 H 
ENDBRANCH  29  30
ENDBRANCH   2  29
BRANCH  11  34
ATOM     34  O   LIG d   1      11.171   4.454  -1.021  0.00  0.00    -0.503 OA
ATOM     35  H   LIG d   1      10.959   4.990  -0.245  0.00  0.00     0.292 HD
ENDBRANCH  11  34
BRANCH   9  36
ATOM     36  O   LIG d   1       9.093   3.593  -5.214  0.00  0.00    -0.503 OA
ATOM     37  H   LIG d   1       9.046   2.681  -4.892  0.00  0.00     0.292 HD
ENDBRANCH   9  36
BRANCH  10  38
ATOM     38  O   LIG d   1      10.219   2.671  -2.885  0.00  0.00    -0.488 OA
BRANCH  38  39
ATOM     39  C   LIG d   1      11.366   1.995  -3.407  0.00  0.00     0.079 C 
ATOM     40  H   LIG d   1      11.527   2.299  -4.441  0.00  0.00     0.066 H 
ATOM     41  H   LIG d   1      12.242   2.254  -2.812  0.00  0.00     0.066 H 
ATOM     42  H   LIG d   1      11.203   0.919  -3.366  0.00  0.00     0.066 H 
ENDBRANCH  38  39
ENDBRANCH  10  38
TORSDOF 10
ENDMDL
MODEL 8
REMARK VINA RESULT:      -5.0      9.099     11.004
REMARK  10 active torsions:
REMARK  status: ('A' for Active; 'I' for Inactive)
REMARK    1  A    between atoms: C_1  and  O_2 
REMARK    2  A    between atoms: O_2  and  C_3 
REMARK    3  A    between atoms: C_6  and  C_10 
REMARK    4  A    between atoms: C_8  and  O_9 
REMARK    5  A    between atoms: C_11  and  O_25 
REMARK    6  A    between atoms: C_18  and  O_24 
REMARK    7  A    between atoms: C_19  and  O_22 
REMARK    8  A    between atoms: C_20  and  O_21 
REMARK    9  A    between atoms: O_22  and  C_23 
REMARK   10  A    between atoms: O_25  and  C_26 
ROOT
ATOM      1  C   LIG d   1      10.584   6.433  -3.846  0.00  0.00     0.181 A 
ATOM      2  C   LIG d   1      10.807   5.180  -4.331  0.00  0.00     0.211 A 
ATOM      3  C   LIG d   1      10.527   4.900  -5.694  0.00  0.00     0.238 A 
ATOM      4  O   LIG d   1      10.714   3.789  -6.164  0.00  0.00    -0.283 OA
ATOM      5  C   LIG d   1      10.005   6.000  -6.519  0.00  0.00     0.113 A 
ATOM      6  C   LIG d   1       9.812   7.258  -5.917  0.00  0.00     0.147 A 
ATOM      7  O   LIG d   1      10.102   7.428  -4.610  0.00  0.00    -0.451 OA
ATOM      8  C   LIG d   1       9.321   8.309  -6.677  0.00  0.00     0.027 A 
ATOM      9  C   LIG d   1       9.022   8.118  -8.016  0.00  0.00     0.166 A 
ATOM     10  C   LIG d   1       9.211   6.874  -8.616  0.00  0.00     0.204 A 
ATOM     11  C   LIG d   1       9.701   5.813  -7.873  0.00  0.00     0.177 A 
ATOM     12  H   LIG d   1       9.170   9.277  -6.223  0.00  0.00     0.069 H 
ENDROOT
BRANCH   1  13
ATOM     13  C   LIG d   1      10.880   6.708  -2.428  0.00  0.00     0.025 A 
ATOM     14  C   LIG d   1       9.851   7.073  -1.555  0.00  0.00    -0.047 A 
ATOM     15  C   LIG d   1      10.129   7.328  -0.229  0.00  0.00    -0.016 A 
ATOM     16  H   LIG d   1       8.837   7.153  -1.919  0.00  0.00     0.063 H 
ATOM     17  C   LIG d   1      11.430   7.225   0.242  0.00  0.00     0.161 A 
ATOM     18  H   LIG d   1       9.332   7.609   0.444  0.00  0.00     0.066 H 
ATOM     19  C   LIG d   1      12.462   6.867  -0.623  0.00  0.00     0.159 A 
ATOM     20  C   LIG d   1      12.190   6.604  -1.952  0.00  0.00    -0.006 A 
ATOM     21  H   LIG d   1      12.989   6.324  -2.622  0.00  0.00     0.066 H 
BRANCH  17  22
ATOM     22  O   LIG d   1      11.699   7.477   1.550  0.00  0.00    -0.491 OA
BRANCH  22  23
ATOM     23  C   LIG d   1      11.659   8.843   1.969  0.00  0.00     0.079 C 
ATOM     24  H   LIG d   1      12.656   9.275   1.892  0.00  0.00     0.066 H 
ATOM     25  H   LIG d   1      10.971   9.398   1.332  0.00  0.00     0.066 H 
ATOM     26  H   LIG d   1      11.319   8.896   3.003  0.00  0.00     0.066 H 
ENDBRANCH  22  23
ENDBRANCH  17  22
BRANCH  19  27
ATOM     27  O   LIG d   1      13.737   6.771  -0.157  0.00  0.00    -0.503 OA
ATOM     28  H   LIG d   1      14.188   7.621  -0.069  0.00  0.00     0.292 HD
ENDBRANCH  19  27
ENDBRANCH   1  13
BRANCH   2  29
ATOM     29  O   LIG d   1      11.292   4.205  -3.516  0.00  0.00    -0.488 OA
BRANCH  29  30
ATOM     30  C   LIG d   1      10.335   3.349  -2.887  0.00  0.00     0.079 C 
ATOM     31  H   LIG d   1       9.378   3.863  -2.818  0.00  0.00     0.066 H 
ATOM     32  H   LIG d   1      10.217   2.441  -3.480  0.00  0.00     0.066 H 
ATOM     33  H   LIG d   1      10.682   3.089  -1.888  0.00  0.00     0.066 H 
ENDBRANCH  29  30
ENDBRANCH   2  29
BRANCH  11  34
ATOM     34  O   LIG d   1       9.887   4.599  -8.454  0.00  0.00    -0.503 OA
ATOM     35  H   LIG d   1      10.598   4.581  -9.109  0.00  0.00     0.292 HD
ENDBRANCH  11  34
BRANCH   9  36
ATOM     36  O   LIG d   1       8.540   9.153  -8.752  0.00  0.00    -0.503 OA
ATOM     37  H   LIG d   1       9.175   9.514  -9.387  0.00  0.00     0.292 HD
ENDBRANCH   9  36
BRANCH  10  38
ATOM     38  O   LIG d   1       8.913   6.702  -9.933  0.00  0.00    -0.488 OA
BRANCH  38  39
ATOM     39  C   LIG d   1       9.957   6.966 -10.874  0.00  0.00     0.079 C 
ATOM     40  H   LIG d   1      10.563   6.070 -11.004  0.00  0.00     0.066 H 
ATOM     41  H   LIG d   1       9.519   7.251 -11.831  0.00  0.00     0.066 H 
ATOM     42  H   LIG d   1      10.582   7.778 -10.504  0.00  0.00     0.066 H 
ENDBRANCH  38  39
ENDBRANCH  10  38
TORSDOF 10
ENDMDL
MODEL 9
REMARK VINA RESULT:      -5.0      9.476     13.551
REMARK  10 active torsions:
REMARK  status: ('A' for Active; 'I' for Inactive)
REMARK    1  A    between atoms: C_1  and  O_2 
REMARK    2  A    between atoms: O_2  and  C_3 
REMARK    3  A    between atoms: C_6  and  C_10 
REMARK    4  A    between atoms: C_8  and  O_9 
REMARK    5  A    between atoms: C_11  and  O_25 
REMARK    6  A    between atoms: C_18  and  O_24 
REMARK    7  A    between atoms: C_19  and  O_22 
REMARK    8  A    between atoms: C_20  and  O_21 
REMARK    9  A    between atoms: O_22  and  C_23 
REMARK   10  A    between atoms: O_25  and  C_26 
ROOT
ATOM      1  C   LIG d   1      10.847   6.842  -5.382  0.00  0.00     0.181 A 
ATOM      2  C   LIG d   1      10.486   5.549  -5.152  0.00  0.00     0.211 A 
ATOM      3  C   LIG d   1      10.650   5.000  -3.855  0.00  0.00     0.238 A 
ATOM      4  O   LIG d   1      10.337   3.845  -3.611  0.00  0.00    -0.283 OA
ATOM      5  C   LIG d   1      11.208   5.875  -2.813  0.00  0.00     0.113 A 
ATOM      6  C   LIG d   1      11.548   7.196  -3.157  0.00  0.00     0.147 A 
ATOM      7  O   LIG d   1      11.362   7.630  -4.422  0.00  0.00    -0.451 OA
ATOM      8  C   LIG d   1      12.076   8.038  -2.190  0.00  0.00     0.027 A 
ATOM      9  C   LIG d   1      12.267   7.579  -0.898  0.00  0.00     0.166 A 
ATOM     10  C   LIG d   1      11.932   6.271  -0.552  0.00  0.00     0.204 A 
ATOM     11  C   LIG d   1      11.404   5.415  -1.505  0.00  0.00     0.177 A 
ATOM     12  H   LIG d   1      12.339   9.055  -2.447  0.00  0.00     0.069 H 
ENDROOT
BRANCH   1  13
ATOM     13  C   LIG d   1      10.672   7.398  -6.737  0.00  0.00     0.025 A 
ATOM     14  C   LIG d   1      11.706   7.306  -7.672  0.00  0.00    -0.047 A 
ATOM     15  C   LIG d   1      11.539   7.826  -8.938  0.00  0.00    -0.016 A 
ATOM     16  H   LIG d   1      12.635   6.826  -7.403  0.00  0.00     0.063 H 
ATOM     17  C   LIG d   1      10.346   8.442  -9.287  0.00  0.00     0.161 A 
ATOM     18  H   LIG d   1      12.340   7.753  -9.660  0.00  0.00     0.066 H 
ATOM     19  C   LIG d   1       9.312   8.543  -8.357  0.00  0.00     0.159 A 
ATOM     20  C   LIG d   1       9.470   8.020  -7.088  0.00  0.00    -0.006 A 
ATOM     21  H   LIG d   1       8.668   8.095  -6.369  0.00  0.00     0.066 H 
BRANCH  17  22
ATOM     22  O   LIG d   1      10.187   8.953 -10.536  0.00  0.00    -0.491 OA
BRANCH  22  23
ATOM     23  C   LIG d   1      10.218   8.027 -11.624  0.00  0.00     0.079 C 
ATOM     24  H   LIG d   1      11.224   7.991 -12.041  0.00  0.00     0.066 H 
ATOM     25  H   LIG d   1       9.937   7.036 -11.266  0.00  0.00     0.066 H 
ATOM     26  H   LIG d   1       9.516   8.348 -12.394  0.00  0.00     0.066 H 
ENDBRANCH  22  23
ENDBRANCH  17  22
BRANCH  19  27
ATOM     27  O   LIG d   1       8.146   9.152  -8.702  0.00  0.00    -0.503 OA
ATOM     28  H   LIG d   1       7.699   9.592  -7.967  0.00  0.00     0.292 HD
ENDBRANCH  19  27
ENDBRANCH   1  13
BRANCH   2  29
ATOM     29  O   LIG d   1       9.974   4.790  -6.160  0.00  0.00    -0.488 OA
BRANCH  29  30
ATOM     30  C   LIG d   1      10.863   3.868  -6.793  0.00  0.00     0.079 C 
ATOM     31  H   LIG d   1      11.545   3.453  -6.052  0.00  0.00     0.066 H 
ATOM     32  H   LIG d   1      10.286   3.061  -7.246  0.00  0.00     0.066 H 
ATOM     33  H   LIG d   1      11.435   4.384  -7.564  0.00  0.00     0.066 H 
ENDBRANCH  29  30
ENDBRANCH   2  29
BRANCH  11  34
ATOM     34  O   LIG d   1      11.077   4.140  -1.172  0.00  0.00    -0.503 OA
ATOM     35  H   LIG d   1      10.131   4.002  -1.024  0.00  0.00     0.292 HD
ENDBRANCH  11  34
BRANCH   9  36
ATOM     36  O   LIG d   1      12.787   8.411   0.043  0.00  0.00    -0.503 OA
ATOM     37  H   LIG d   1      12.786   9.344  -0.215  0.00  0.00     0.292 HD
ENDBRANCH   9  36
BRANCH  10  38
ATOM     38  O   LIG d   1      12.126   5.833   0.722  0.00  0.00    -0.488 OA
BRANCH  38  39
ATOM     39  C   LIG d   1      11.013   5.921   1.614  0.00  0.00     0.079 C 
ATOM     40  H   LIG d   1      11.363   6.215   2.603  0.00  0.00     0.066 H 
ATOM     41  H   LIG d   1      10.308   6.665   1.243  0.00  0.00     0.066 H 
ATOM     42  H   LIG d   1      10.519   4.951   1.676  0.00  0.00     0.066 H 
ENDBRANCH  38  39
ENDBRANCH  10  38
TORSDOF 10
ENDMDL
MODEL 10
REMARK VINA RESULT:      -4.9      8.356     10.415
REMARK  10 active torsions:
REMARK  status: ('A' for Active; 'I' for Inactive)
REMARK    1  A    between atoms: C_1  and  O_2 
REMARK    2  A    between atoms: O_2  and  C_3 
REMARK    3  A    between atoms: C_6  and  C_10 
REMARK    4  A    between atoms: C_8  and  O_9 
REMARK    5  A    between atoms: C_11  and  O_25 
REMARK    6  A    between atoms: C_18  and  O_24 
REMARK    7  A    between atoms: C_19  and  O_22 
REMARK    8  A    between atoms: C_20  and  O_21 
REMARK    9  A    between atoms: O_22  and  C_23 
REMARK   10  A    between atoms: O_25  and  C_26 
ROOT
ATOM      1  C   LIG d   1      10.318   7.243  -5.644  0.00  0.00     0.181 A 
ATOM      2  C   LIG d   1      10.300   8.443  -6.288  0.00  0.00     0.211 A 
ATOM      3  C   LIG d   1       9.988   8.487  -7.672  0.00  0.00     0.238 A 
ATOM      4  O   LIG d   1       9.962   9.544  -8.283  0.00  0.00    -0.283 OA
ATOM      5  C   LIG d   1       9.694   7.211  -8.342  0.00  0.00     0.113 A 
ATOM      6  C   LIG d   1       9.741   6.027  -7.582  0.00  0.00     0.147 A 
ATOM      7  O   LIG d   1      10.053   6.084  -6.270  0.00  0.00    -0.451 OA
ATOM      8  C   LIG d   1       9.467   4.814  -8.193  0.00  0.00     0.027 A 
ATOM      9  C   LIG d   1       9.154   4.769  -9.542  0.00  0.00     0.166 A 
ATOM     10  C   LIG d   1       9.107   5.939 -10.299  0.00  0.00     0.204 A 
ATOM     11  C   LIG d   1       9.377   7.161  -9.704  0.00  0.00     0.177 A 
ATOM     12  H   LIG d   1       9.501   3.900  -7.617  0.00  0.00     0.069 H 
ENDROOT
BRANCH   1  13
ATOM     13  C   LIG d   1      10.645   7.214  -4.206  0.00  0.00     0.025 A 
ATOM     14  C   LIG d   1      11.972   7.069  -3.792  0.00  0.00    -0.047 A 
ATOM     15  C   LIG d   1      12.275   7.044  -2.447  0.00  0.00    -0.016 A 
ATOM     16  H   LIG d   1      12.760   6.979  -4.525  0.00  0.00     0.063 H 
ATOM     17  C   LIG d   1      11.266   7.161  -1.502  0.00  0.00     0.161 A 
ATOM     18  H   LIG d   1      13.302   6.932  -2.129  0.00  0.00     0.066 H 
ATOM     19  C   LIG d   1       9.940   7.300  -1.908  0.00  0.00     0.159 A 
ATOM     20  C   LIG d   1       9.628   7.332  -3.254  0.00  0.00    -0.006 A 
ATOM     21  H   LIG d   1       8.601   7.444  -3.569  0.00  0.00     0.066 H 
BRANCH  17  22
ATOM     22  O   LIG d   1      11.570   7.135  -0.178  0.00  0.00    -0.491 OA
BRANCH  22  23
ATOM     23  C   LIG d   1      11.697   5.850   0.434  0.00  0.00     0.079 C 
ATOM     24  H   LIG d   1      10.735   5.546   0.843  0.00  0.00     0.066 H 
ATOM     25  H   LIG d   1      12.022   5.124  -0.312  0.00  0.00     0.066 H 
ATOM     26  H   LIG d   1      12.434   5.901   1.236  0.00  0.00     0.066 H 
ENDBRANCH  22  23
ENDBRANCH  17  22
BRANCH  19  27
ATOM     27  O   LIG d   1       8.953   7.410  -0.979  0.00  0.00    -0.503 OA
ATOM     28  H   LIG d   1       9.271   7.612  -0.089  0.00  0.00     0.292 HD
ENDBRANCH  19  27
ENDBRANCH   1  13
BRANCH   2  29
ATOM     29  O   LIG d   1      10.581   9.590  -5.611  0.00  0.00    -0.488 OA
BRANCH  29  30
ATOM     30  C   LIG d   1       9.471  10.408  -5.234  0.00  0.00     0.079 C 
ATOM     31  H   LIG d   1       8.597   9.781  -5.064  0.00  0.00     0.066 H 
ATOM     32  H   LIG d   1       9.714  10.949  -4.318  0.00  0.00     0.066 H 
ATOM     33  H   LIG d   1       9.258  11.121  -6.031  0.00  0.00     0.066 H 
ENDBRANCH  29  30
ENDBRANCH   2  29
BRANCH  11  34
ATOM     34  O   LIG d   1       9.333   8.303 -10.438  0.00  0.00    -0.503 OA
ATOM     35  H   LIG d   1       8.833   8.222 -11.262  0.00  0.00     0.292 HD
ENDBRANCH  11  34
BRANCH   9  36
ATOM     36  O   LIG d   1       8.889   3.575 -10.133  0.00  0.00    -0.503 OA
ATOM     37  H   LIG d   1       7.989   3.253  -9.982  0.00  0.00     0.292 HD
ENDBRANCH   9  36
BRANCH  10  38
ATOM     38  O   LIG d   1       8.798   5.880 -11.623  0.00  0.00    -0.488 OA
BRANCH  38  39
ATOM     39  C   LIG d   1       9.882   5.694 -12.535  0.00  0.00     0.079 C 
ATOM     40  H   LIG d   1       9.512   5.760 -13.558  0.00  0.00     0.066 H 
ATOM     41  H   LIG d   1      10.632   6.468 -12.370  0.00  0.00     0.066 H 
ATOM     42  H   LIG d   1      10.329   4.714 -12.372  0.00  0.00     0.066 H 
ENDBRANCH  38  39
ENDBRANCH  10  38
TORSDOF 10
ENDMDL
