MODEL 1
REMARK VINA RESULT:      -5.2      0.000      0.000
REMARK  6 active torsions:
REMARK  status: ('A' for Active; 'I' for Inactive)
REMARK    1  A    between atoms: C_1  and  C_2 
REMARK    2  A    between atoms: C_2  and  C_3 
REMARK    3  A    between atoms: C_5  and  C_18 
REMARK    4  A    between atoms: N_7  and  S_8 
REMARK    5  A    between atoms: S_8  and  C_11 
REMARK    6  A    between atoms: C_14  and  C_17 
ROOT
ATOM      1  S   LIG d   1       4.520  -1.299  -7.482  0.00  0.00     0.061 S 
ATOM      2  O   LIG d   1       4.139  -2.662  -7.361  0.00  0.00    -0.153 OA
ATOM      3  O   LIG d   1       5.790  -0.905  -7.985  0.00  0.00    -0.153 OA
ENDROOT
BRANCH   1   4
ATOM      4  N   LIG d   1       3.385  -0.571  -8.443  0.00  0.00    -0.168 N 
ATOM      5  C   LIG d   1       3.043   0.506  -9.375  0.00  0.00     0.049 A 
ATOM      6  H   LIG d   1       3.448   0.448 -10.386  0.00  0.00     0.050 H 
ATOM      7  C   LIG d   1       2.015  -0.549  -8.961  0.00  0.00     0.047 A 
ATOM      8  H   LIG d   1       1.222  -0.245  -8.278  0.00  0.00     0.049 H 
BRANCH   5   9
ATOM      9  C   LIG d   1       2.883   1.917  -8.805  0.00  0.00    -0.037 C 
ATOM     10  H   LIG d   1       1.955   2.355  -9.173  0.00  0.00     0.028 H 
ATOM     11  H   LIG d   1       2.854   1.866  -7.716  0.00  0.00     0.028 H 
BRANCH   9  12
ATOM     12  C   LIG d   1       4.065   2.782  -9.244  0.00  0.00    -0.064 C 
ATOM     13  H   LIG d   1       4.921   2.583  -8.598  0.00  0.00     0.023 H 
ATOM     14  H   LIG d   1       4.326   2.544 -10.276  0.00  0.00     0.023 H 
ATOM     15  H   LIG d   1       3.792   3.835  -9.172  0.00  0.00     0.023 H 
ENDBRANCH   9  12
ENDBRANCH   5   9
BRANCH   7  16
ATOM     16  C   LIG d   1       1.629  -1.609  -9.994  0.00  0.00    -0.046 C 
ATOM     17  H   LIG d   1       0.966  -1.167 -10.738  0.00  0.00     0.025 H 
ATOM     18  H   LIG d   1       1.118  -2.433  -9.496  0.00  0.00     0.025 H 
ATOM     19  H   LIG d   1       2.528  -1.982 -10.484  0.00  0.00     0.025 H 
ENDBRANCH   7  16
ENDBRANCH   1   4
BRANCH   1  20
ATOM     20  C   LIG d   1       4.374  -0.591  -5.876  0.00  0.00     0.105 A 
ATOM     21  C   LIG d   1       5.462  -0.582  -5.023  0.00  0.00    -0.035 A 
ATOM     22  C   LIG d   1       5.348  -0.026  -3.762  0.00  0.00    -0.057 A 
ATOM     23  H   LIG d   1       6.401  -1.010  -5.341  0.00  0.00     0.064 H 
ATOM     24  C   LIG d   1       4.146   0.521  -3.354  0.00  0.00    -0.050 A 
ATOM     25  H   LIG d   1       6.197  -0.020  -3.095  0.00  0.00     0.062 H 
ATOM     26  C   LIG d   1       3.057   0.513  -4.208  0.00  0.00    -0.057 A 
ATOM     27  C   LIG d   1       3.174  -0.038  -5.470  0.00  0.00    -0.035 A 
ATOM     28  H   LIG d   1       2.118   0.940  -3.889  0.00  0.00     0.062 H 
ATOM     29  H   LIG d   1       2.325  -0.041  -6.138  0.00  0.00     0.064 H 
BRANCH  24  30
ATOM     30  C   LIG d   1       4.021   1.126  -1.980  0.00  0.00    -0.040 C 
ATOM     31  H   LIG d   1       4.947   0.970  -1.429  0.00  0.00     0.028 H 
ATOM     32  H   LIG d   1       3.826   2.195  -2.069  0.00  0.00     0.028 H 
ATOM     33  H   LIG d   1       3.197   0.650  -1.447  0.00  0.00     0.028 H 
ENDBRANCH  24  30
ENDBRANCH   1  20
TORSDOF 6
ENDMDL
MODEL 2
REMARK VINA RESULT:      -5.0      2.825      3.599
REMARK  6 active torsions:
REMARK  status: ('A' for Active; 'I' for Inactive)
REMARK    1  A    between atoms: C_1  and  C_2 
REMARK    2  A    between atoms: C_2  and  C_3 
REMARK    3  A    between atoms: C_5  and  C_18 
REMARK    4  A    between atoms: N_7  and  S_8 
REMARK    5  A    between atoms: S_8  and  C_11 
REMARK    6  A    between atoms: C_14  and  C_17 
ROOT
ATOM      1  S   LIG d   1       5.488  -3.837  -5.118  0.00  0.00     0.061 S 
ATOM      2  O   LIG d   1       4.374  -4.701  -4.942  0.00  0.00    -0.153 OA
ATOM      3  O   LIG d   1       6.826  -4.266  -4.898  0.00  0.00    -0.153 OA
ENDROOT
BRANCH   1   4
ATOM      4  N   LIG d   1       5.420  -3.285  -6.677  0.00  0.00    -0.168 N 
ATOM      5  C   LIG d   1       5.258  -2.155  -7.596  0.00  0.00     0.049 A 
ATOM      6  H   LIG d   1       6.088  -1.452  -7.685  0.00  0.00     0.050 H 
ATOM      7  C   LIG d   1       5.477  -3.579  -8.111  0.00  0.00     0.047 A 
ATOM      8  H   LIG d   1       4.626  -4.095  -8.555  0.00  0.00     0.049 H 
BRANCH   5   9
ATOM      9  C   LIG d   1       3.860  -1.553  -7.744  0.00  0.00    -0.037 C 
ATOM     10  H   LIG d   1       3.721  -1.203  -8.767  0.00  0.00     0.028 H 
ATOM     11  H   LIG d   1       3.112  -2.313  -7.515  0.00  0.00     0.028 H 
BRANCH   9  12
ATOM     12  C   LIG d   1       3.705  -0.378  -6.777  0.00  0.00    -0.064 C 
ATOM     13  H   LIG d   1       4.489   0.356  -6.969  0.00  0.00     0.023 H 
ATOM     14  H   LIG d   1       2.729   0.086  -6.922  0.00  0.00     0.023 H 
ATOM     15  H   LIG d   1       3.787  -0.738  -5.751  0.00  0.00     0.023 H 
ENDBRANCH   9  12
ENDBRANCH   5   9
BRANCH   7  16
ATOM     16  C   LIG d   1       6.843  -3.915  -8.713  0.00  0.00    -0.046 C 
ATOM     17  H   LIG d   1       7.629  -3.487  -8.090  0.00  0.00     0.025 H 
ATOM     18  H   LIG d   1       6.910  -3.499  -9.718  0.00  0.00     0.025 H 
ATOM     19  H   LIG d   1       6.964  -4.997  -8.758  0.00  0.00     0.025 H 
ENDBRANCH   7  16
ENDBRANCH   1   4
BRANCH   1  20
ATOM     20  C   LIG d   1       5.224  -2.452  -4.063  0.00  0.00     0.105 A 
ATOM     21  C   LIG d   1       4.130  -2.426  -3.217  0.00  0.00    -0.035 A 
ATOM     22  C   LIG d   1       3.922  -1.339  -2.389  0.00  0.00    -0.057 A 
ATOM     23  H   LIG d   1       3.437  -3.254  -3.205  0.00  0.00     0.064 H 
ATOM     24  C   LIG d   1       4.808  -0.278  -2.405  0.00  0.00    -0.050 A 
ATOM     25  H   LIG d   1       3.067  -1.318  -1.730  0.00  0.00     0.062 H 
ATOM     26  C   LIG d   1       5.903  -0.305  -3.250  0.00  0.00    -0.057 A 
ATOM     27  C   LIG d   1       6.113  -1.394  -4.074  0.00  0.00    -0.035 A 
ATOM     28  H   LIG d   1       6.595   0.524  -3.263  0.00  0.00     0.062 H 
ATOM     29  H   LIG d   1       6.970  -1.416  -4.732  0.00  0.00     0.064 H 
BRANCH  24  30
ATOM     30  C   LIG d   1       4.581   0.907  -1.503  0.00  0.00    -0.040 C 
ATOM     31  H   LIG d   1       5.125   1.768  -1.891  0.00  0.00     0.028 H 
ATOM     32  H   LIG d   1       3.515   1.137  -1.467  0.00  0.00     0.028 H 
ATOM     33  H   LIG d   1       4.936   0.674  -0.500  0.00  0.00     0.028 H 
ENDBRANCH  24  30
ENDBRANCH   1  20
TORSDOF 6
ENDMDL
MODEL 3
REMARK VINA RESULT:      -5.0      3.980      5.619
REMARK  6 active torsions:
REMARK  status: ('A' for Active; 'I' for Inactive)
REMARK    1  A    between atoms: C_1  and  C_2 
REMARK    2  A    between atoms: C_2  and  C_3 
REMARK    3  A    between atoms: C_5  and  C_18 
REMARK    4  A    between atoms: N_7  and  S_8 
REMARK    5  A    between atoms: S_8  and  C_11 
REMARK    6  A    between atoms: C_14  and  C_17 
ROOT
ATOM      1  S   LIG d   1       5.055  -3.682  -5.345  0.00  0.00     0.061 S 
ATOM      2  O   LIG d   1       4.735  -3.195  -6.641  0.00  0.00    -0.153 OA
ATOM      3  O   LIG d   1       4.360  -4.769  -4.747  0.00  0.00    -0.153 OA
ENDROOT
BRANCH   1   4
ATOM      4  N   LIG d   1       6.655  -4.106  -5.379  0.00  0.00    -0.168 N 
ATOM      5  C   LIG d   1       7.854  -4.518  -4.643  0.00  0.00     0.049 A 
ATOM      6  H   LIG d   1       7.885  -5.538  -4.259  0.00  0.00     0.050 H 
ATOM      7  C   LIG d   1       7.872  -4.331  -6.162  0.00  0.00     0.047 A 
ATOM      8  H   LIG d   1       8.386  -3.457  -6.560  0.00  0.00     0.049 H 
BRANCH   5   9
ATOM      9  C   LIG d   1       8.562  -3.465  -3.789  0.00  0.00    -0.037 C 
ATOM     10  H   LIG d   1       9.153  -2.813  -4.433  0.00  0.00     0.028 H 
ATOM     11  H   LIG d   1       7.819  -2.873  -3.254  0.00  0.00     0.028 H 
BRANCH   9  12
ATOM     12  C   LIG d   1       9.483  -4.159  -2.784  0.00  0.00    -0.064 C 
ATOM     13  H   LIG d   1      10.516  -3.872  -2.979  0.00  0.00     0.023 H 
ATOM     14  H   LIG d   1       9.207  -3.859  -1.772  0.00  0.00     0.023 H 
ATOM     15  H   LIG d   1       9.381  -5.240  -2.883  0.00  0.00     0.023 H 
ENDBRANCH   9  12
ENDBRANCH   5   9
BRANCH   7  16
ATOM     16  C   LIG d   1       7.933  -5.589  -7.031  0.00  0.00    -0.046 C 
ATOM     17  H   LIG d   1       7.779  -6.469  -6.407  0.00  0.00     0.025 H 
ATOM     18  H   LIG d   1       8.909  -5.651  -7.513  0.00  0.00     0.025 H 
ATOM     19  H   LIG d   1       7.155  -5.542  -7.793  0.00  0.00     0.025 H 
ENDBRANCH   7  16
ENDBRANCH   1   4
BRANCH   1  20
ATOM     20  C   LIG d   1       4.900  -2.318  -4.242  0.00  0.00     0.105 A 
ATOM     21  C   LIG d   1       4.177  -2.455  -3.071  0.00  0.00    -0.035 A 
ATOM     22  C   LIG d   1       4.056  -1.383  -2.205  0.00  0.00    -0.057 A 
ATOM     23  H   LIG d   1       3.707  -3.397  -2.833  0.00  0.00     0.064 H 
ATOM     24  C   LIG d   1       4.657  -0.177  -2.509  0.00  0.00    -0.050 A 
ATOM     25  H   LIG d   1       3.491  -1.490  -1.291  0.00  0.00     0.062 H 
ATOM     26  C   LIG d   1       5.381  -0.041  -3.680  0.00  0.00    -0.057 A 
ATOM     27  C   LIG d   1       5.506  -1.112  -4.543  0.00  0.00    -0.035 A 
ATOM     28  H   LIG d   1       5.850   0.902  -3.918  0.00  0.00     0.062 H 
ATOM     29  H   LIG d   1       6.074  -1.007  -5.456  0.00  0.00     0.064 H 
BRANCH  24  30
ATOM     30  C   LIG d   1       4.523   0.991  -1.566  0.00  0.00    -0.040 C 
ATOM     31  H   LIG d   1       4.740   0.663  -0.550  0.00  0.00     0.028 H 
ATOM     32  H   LIG d   1       5.227   1.773  -1.853  0.00  0.00     0.028 H 
ATOM     33  H   LIG d   1       3.507   1.382  -1.614  0.00  0.00     0.028 H 
ENDBRANCH  24  30
ENDBRANCH   1  20
TORSDOF 6
ENDMDL
MODEL 4
REMARK VINA RESULT:      -5.0      2.370      3.262
REMARK  6 active torsions:
REMARK  status: ('A' for Active; 'I' for Inactive)
REMARK    1  A    between atoms: C_1  and  C_2 
REMARK    2  A    between atoms: C_2  and  C_3 
REMARK    3  A    between atoms: C_5  and  C_18 
REMARK    4  A    between atoms: N_7  and  S_8 
REMARK    5  A    between atoms: S_8  and  C_11 
REMARK    6  A    between atoms: C_14  and  C_17 
ROOT
ATOM      1  S   LIG d   1       3.226   0.535  -7.640  0.00  0.00     0.061 S 
ATOM      2  O   LIG d   1       2.893   1.900  -7.427  0.00  0.00    -0.153 OA
ATOM      3  O   LIG d   1       2.396  -0.344  -8.387  0.00  0.00    -0.153 OA
ENDROOT
BRANCH   1   4
ATOM      4  N   LIG d   1       4.712   0.517  -8.370  0.00  0.00    -0.168 N 
ATOM      5  C   LIG d   1       5.553   0.918  -9.501  0.00  0.00     0.049 A 
ATOM      6  H   LIG d   1       5.850   1.965  -9.565  0.00  0.00     0.050 H 
ATOM      7  C   LIG d   1       6.113   0.090  -8.343  0.00  0.00     0.047 A 
ATOM      8  H   LIG d   1       6.324  -0.963  -8.526  0.00  0.00     0.049 H 
BRANCH   5   9
ATOM      9  C   LIG d   1       5.330   0.209 -10.839  0.00  0.00    -0.037 C 
ATOM     10  H   LIG d   1       6.143   0.457 -11.521  0.00  0.00     0.028 H 
ATOM     11  H   LIG d   1       5.306  -0.869 -10.678  0.00  0.00     0.028 H 
BRANCH   9  12
ATOM     12  C   LIG d   1       4.001   0.665 -11.443  0.00  0.00    -0.064 C 
ATOM     13  H   LIG d   1       4.102   0.745 -12.525  0.00  0.00     0.023 H 
ATOM     14  H   LIG d   1       3.224  -0.063 -11.203  0.00  0.00     0.023 H 
ATOM     15  H   LIG d   1       3.728   1.637 -11.030  0.00  0.00     0.023 H 
ENDBRANCH   9  12
ENDBRANCH   5   9
BRANCH   7  16
ATOM     16  C   LIG d   1       7.050   0.791  -7.357  0.00  0.00    -0.046 C 
ATOM     17  H   LIG d   1       7.874   0.124  -7.102  0.00  0.00     0.025 H 
ATOM     18  H   LIG d   1       6.499   1.049  -6.453  0.00  0.00     0.025 H 
ATOM     19  H   LIG d   1       7.445   1.699  -7.814  0.00  0.00     0.025 H 
ENDBRANCH   7  16
ENDBRANCH   1   4
BRANCH   1  20
ATOM     20  C   LIG d   1       3.421  -0.189  -6.046  0.00  0.00     0.105 A 
ATOM     21  C   LIG d   1       2.695   0.295  -4.973  0.00  0.00    -0.035 A 
ATOM     22  C   LIG d   1       2.848  -0.273  -3.722  0.00  0.00    -0.057 A 
ATOM     23  H   LIG d   1       2.010   1.119  -5.112  0.00  0.00     0.064 H 
ATOM     24  C   LIG d   1       3.725  -1.327  -3.544  0.00  0.00    -0.050 A 
ATOM     25  H   LIG d   1       2.282   0.106  -2.884  0.00  0.00     0.062 H 
ATOM     26  C   LIG d   1       4.450  -1.812  -4.617  0.00  0.00    -0.057 A 
ATOM     27  C   LIG d   1       4.293  -1.246  -5.868  0.00  0.00    -0.035 A 
ATOM     28  H   LIG d   1       5.135  -2.634  -4.478  0.00  0.00     0.062 H 
ATOM     29  H   LIG d   1       4.857  -1.628  -6.707  0.00  0.00     0.064 H 
BRANCH  24  30
ATOM     30  C   LIG d   1       3.891  -1.945  -2.180  0.00  0.00    -0.040 C 
ATOM     31  H   LIG d   1       3.251  -2.823  -2.098  0.00  0.00     0.028 H 
ATOM     32  H   LIG d   1       4.932  -2.241  -2.040  0.00  0.00     0.028 H 
ATOM     33  H   LIG d   1       3.614  -1.220  -1.415  0.00  0.00     0.028 H 
ENDBRANCH  24  30
ENDBRANCH   1  20
TORSDOF 6
ENDMDL
MODEL 5
REMARK VINA RESULT:      -5.0      2.075      2.857
REMARK  6 active torsions:
REMARK  status: ('A' for Active; 'I' for Inactive)
REMARK    1  A    between atoms: C_1  and  C_2 
REMARK    2  A    between atoms: C_2  and  C_3 
REMARK    3  A    between atoms: C_5  and  C_18 
REMARK    4  A    between atoms: N_7  and  S_8 
REMARK    5  A    between atoms: S_8  and  C_11 
REMARK    6  A    between atoms: C_14  and  C_17 
ROOT
ATOM      1  S   LIG d   1       3.862   0.406  -7.551  0.00  0.00     0.061 S 
ATOM      2  O   LIG d   1       5.224   0.691  -7.840  0.00  0.00    -0.153 OA
ATOM      3  O   LIG d   1       2.857   1.411  -7.549  0.00  0.00    -0.153 OA
ENDROOT
BRANCH   1   4
ATOM      4  N   LIG d   1       3.377  -0.745  -8.638  0.00  0.00    -0.168 N 
ATOM      5  C   LIG d   1       2.847  -1.063  -9.967  0.00  0.00     0.049 A 
ATOM      6  H   LIG d   1       3.516  -0.946 -10.820  0.00  0.00     0.050 H 
ATOM      7  C   LIG d   1       3.174  -2.161  -8.952  0.00  0.00     0.047 A 
ATOM      8  H   LIG d   1       2.342  -2.671  -8.470  0.00  0.00     0.049 H 
BRANCH   5   9
ATOM      9  C   LIG d   1       1.371  -0.760 -10.234  0.00  0.00    -0.037 C 
ATOM     10  H   LIG d   1       0.752  -1.341  -9.551  0.00  0.00     0.028 H 
ATOM     11  H   LIG d   1       1.185   0.303 -10.081  0.00  0.00     0.028 H 
BRANCH   9  12
ATOM     12  C   LIG d   1       1.027  -1.135 -11.677  0.00  0.00    -0.064 C 
ATOM     13  H   LIG d   1       1.107  -2.216 -11.801  0.00  0.00     0.023 H 
ATOM     14  H   LIG d   1       0.009  -0.817 -11.902  0.00  0.00     0.023 H 
ATOM     15  H   LIG d   1       1.721  -0.640 -12.357  0.00  0.00     0.023 H 
ENDBRANCH   9  12
ENDBRANCH   5   9
BRANCH   7  16
ATOM     16  C   LIG d   1       4.417  -3.016  -9.208  0.00  0.00    -0.046 C 
ATOM     17  H   LIG d   1       4.827  -2.776 -10.190  0.00  0.00     0.025 H 
ATOM     18  H   LIG d   1       4.146  -4.071  -9.176  0.00  0.00     0.025 H 
ATOM     19  H   LIG d   1       5.165  -2.809  -8.443  0.00  0.00     0.025 H 
ENDBRANCH   7  16
ENDBRANCH   1   4
BRANCH   1  20
ATOM     20  C   LIG d   1       3.832  -0.340  -5.955  0.00  0.00     0.105 A 
ATOM     21  C   LIG d   1       2.942   0.113  -4.998  0.00  0.00    -0.035 A 
ATOM     22  C   LIG d   1       2.918  -0.472  -3.746  0.00  0.00    -0.057 A 
ATOM     23  H   LIG d   1       2.267   0.924  -5.228  0.00  0.00     0.064 H 
ATOM     24  C   LIG d   1       3.782  -1.510  -3.450  0.00  0.00    -0.050 A 
ATOM     25  H   LIG d   1       2.224  -0.118  -2.998  0.00  0.00     0.062 H 
ATOM     26  C   LIG d   1       4.671  -1.963  -4.408  0.00  0.00    -0.057 A 
ATOM     27  C   LIG d   1       4.691  -1.381  -5.661  0.00  0.00    -0.035 A 
ATOM     28  H   LIG d   1       5.346  -2.774  -4.178  0.00  0.00     0.062 H 
ATOM     29  H   LIG d   1       5.383  -1.738  -6.411  0.00  0.00     0.064 H 
BRANCH  24  30
ATOM     30  C   LIG d   1       3.756  -2.147  -2.085  0.00  0.00    -0.040 C 
ATOM     31  H   LIG d   1       3.744  -3.231  -2.190  0.00  0.00     0.028 H 
ATOM     32  H   LIG d   1       4.643  -1.846  -1.527  0.00  0.00     0.028 H 
ATOM     33  H   LIG d   1       2.863  -1.823  -1.550  0.00  0.00     0.028 H 
ENDBRANCH  24  30
ENDBRANCH   1  20
TORSDOF 6
ENDMDL
MODEL 6
REMARK VINA RESULT:      -4.9      1.611      2.442
REMARK  6 active torsions:
REMARK  status: ('A' for Active; 'I' for Inactive)
REMARK    1  A    between atoms: C_1  and  C_2 
REMARK    2  A    between atoms: C_2  and  C_3 
REMARK    3  A    between atoms: C_5  and  C_18 
REMARK    4  A    between atoms: N_7  and  S_8 
REMARK    5  A    between atoms: S_8  and  C_11 
REMARK    6  A    between atoms: C_14  and  C_17 
ROOT
ATOM      1  S   LIG d   1       4.157  -1.043  -7.877  0.00  0.00     0.061 S 
ATOM      2  O   LIG d   1       2.829  -1.151  -8.370  0.00  0.00    -0.153 OA
ATOM      3  O   LIG d   1       5.049  -2.150  -7.845  0.00  0.00    -0.153 OA
ENDROOT
BRANCH   1   4
ATOM      4  N   LIG d   1       4.900   0.137  -8.771  0.00  0.00    -0.168 N 
ATOM      5  C   LIG d   1       5.174   1.561  -8.977  0.00  0.00     0.049 A 
ATOM      6  H   LIG d   1       5.861   2.050  -8.286  0.00  0.00     0.050 H 
ATOM      7  C   LIG d   1       5.747   0.494  -9.912  0.00  0.00     0.047 A 
ATOM      8  H   LIG d   1       5.315   0.406 -10.908  0.00  0.00     0.049 H 
BRANCH   5   9
ATOM      9  C   LIG d   1       4.035   2.434  -9.509  0.00  0.00    -0.037 C 
ATOM     10  H   LIG d   1       4.377   3.466  -9.593  0.00  0.00     0.028 H 
ATOM     11  H   LIG d   1       3.729   2.071 -10.491  0.00  0.00     0.028 H 
BRANCH   9  12
ATOM     12  C   LIG d   1       2.848   2.367  -8.547  0.00  0.00    -0.064 C 
ATOM     13  H   LIG d   1       2.247   1.486  -8.773  0.00  0.00     0.023 H 
ATOM     14  H   LIG d   1       3.215   2.304  -7.522  0.00  0.00     0.023 H 
ATOM     15  H   LIG d   1       2.237   3.263  -8.660  0.00  0.00     0.023 H 
ENDBRANCH   9  12
ENDBRANCH   5   9
BRANCH   7  16
ATOM     16  C   LIG d   1       7.242   0.189  -9.808  0.00  0.00    -0.046 C 
ATOM     17  H   LIG d   1       7.602   0.468  -8.818  0.00  0.00     0.025 H 
ATOM     18  H   LIG d   1       7.783   0.757 -10.565  0.00  0.00     0.025 H 
ATOM     19  H   LIG d   1       7.408  -0.877  -9.967  0.00  0.00     0.025 H 
ENDBRANCH   7  16
ENDBRANCH   1   4
BRANCH   1  20
ATOM     20  C   LIG d   1       4.035  -0.446  -6.225  0.00  0.00     0.105 A 
ATOM     21  C   LIG d   1       2.852   0.112  -5.777  0.00  0.00    -0.035 A 
ATOM     22  C   LIG d   1       2.756   0.581  -4.480  0.00  0.00    -0.057 A 
ATOM     23  H   LIG d   1       2.003   0.182  -6.441  0.00  0.00     0.064 H 
ATOM     24  C   LIG d   1       3.843   0.492  -3.631  0.00  0.00    -0.050 A 
ATOM     25  H   LIG d   1       1.832   1.017  -4.131  0.00  0.00     0.062 H 
ATOM     26  C   LIG d   1       5.026  -0.067  -4.078  0.00  0.00    -0.057 A 
ATOM     27  C   LIG d   1       5.120  -0.540  -5.373  0.00  0.00    -0.035 A 
ATOM     28  H   LIG d   1       5.875  -0.136  -3.415  0.00  0.00     0.062 H 
ATOM     29  H   LIG d   1       6.043  -0.979  -5.722  0.00  0.00     0.064 H 
BRANCH  24  30
ATOM     30  C   LIG d   1       3.738   1.004  -2.217  0.00  0.00    -0.040 C 
ATOM     31  H   LIG d   1       2.759   0.753  -1.811  0.00  0.00     0.028 H 
ATOM     32  H   LIG d   1       4.515   0.543  -1.605  0.00  0.00     0.028 H 
ATOM     33  H   LIG d   1       3.868   2.086  -2.213  0.00  0.00     0.028 H 
ENDBRANCH  24  30
ENDBRANCH   1  20
TORSDOF 6
ENDMDL
MODEL 7
REMARK VINA RESULT:      -4.9      2.231      5.582
REMARK  6 active torsions:
REMARK  status: ('A' for Active; 'I' for Inactive)
REMARK    1  A    between atoms: C_1  and  C_2 
REMARK    2  A    between atoms: C_2  and  C_3 
REMARK    3  A    between atoms: C_5  and  C_18 
REMARK    4  A    between atoms: N_7  and  S_8 
REMARK    5  A    between atoms: S_8  and  C_11 
REMARK    6  A    between atoms: C_14  and  C_17 
ROOT
ATOM      1  S   LIG d   1       5.495  -1.458  -5.714  0.00  0.00     0.061 S 
ATOM      2  O   LIG d   1       6.798  -1.854  -6.119  0.00  0.00    -0.153 OA
ATOM      3  O   LIG d   1       4.447  -2.394  -5.499  0.00  0.00    -0.153 OA
ENDROOT
BRANCH   1   4
ATOM      4  N   LIG d   1       5.674  -0.615  -4.300  0.00  0.00    -0.168 N 
ATOM      5  C   LIG d   1       5.678  -0.621  -2.835  0.00  0.00     0.049 A 
ATOM      6  H   LIG d   1       6.527  -1.086  -2.333  0.00  0.00     0.050 H 
ATOM      7  C   LIG d   1       5.937   0.660  -3.630  0.00  0.00     0.047 A 
ATOM      8  H   LIG d   1       5.151   1.414  -3.650  0.00  0.00     0.049 H 
BRANCH   5   9
ATOM      9  C   LIG d   1       4.332  -0.753  -2.120  0.00  0.00    -0.037 C 
ATOM     10  H   LIG d   1       4.459  -0.529  -1.061  0.00  0.00     0.028 H 
ATOM     11  H   LIG d   1       3.619  -0.053  -2.557  0.00  0.00     0.028 H 
BRANCH   9  12
ATOM     12  C   LIG d   1       3.807  -2.181  -2.280  0.00  0.00    -0.064 C 
ATOM     13  H   LIG d   1       2.940  -2.325  -1.635  0.00  0.00     0.023 H 
ATOM     14  H   LIG d   1       3.520  -2.349  -3.318  0.00  0.00     0.023 H 
ATOM     15  H   LIG d   1       4.589  -2.889  -2.000  0.00  0.00     0.023 H 
ENDBRANCH   9  12
ENDBRANCH   5   9
BRANCH   7  16
ATOM     16  C   LIG d   1       7.370   1.197  -3.664  0.00  0.00    -0.046 C 
ATOM     17  H   LIG d   1       7.560   1.782  -2.764  0.00  0.00     0.025 H 
ATOM     18  H   LIG d   1       7.501   1.829  -4.543  0.00  0.00     0.025 H 
ATOM     19  H   LIG d   1       8.070   0.362  -3.709  0.00  0.00     0.025 H 
ENDBRANCH   7  16
ENDBRANCH   1   4
BRANCH   1  20
ATOM     20  C   LIG d   1       4.914  -0.321  -6.928  0.00  0.00     0.105 A 
ATOM     21  C   LIG d   1       5.806   0.272  -7.803  0.00  0.00    -0.035 A 
ATOM     22  C   LIG d   1       5.350   1.164  -8.755  0.00  0.00    -0.057 A 
ATOM     23  H   LIG d   1       6.859   0.039  -7.741  0.00  0.00     0.064 H 
ATOM     24  C   LIG d   1       4.003   1.463  -8.834  0.00  0.00    -0.050 A 
ATOM     25  H   LIG d   1       6.047   1.628  -9.438  0.00  0.00     0.062 H 
ATOM     26  C   LIG d   1       3.111   0.869  -7.959  0.00  0.00    -0.057 A 
ATOM     27  C   LIG d   1       3.567  -0.026  -7.011  0.00  0.00    -0.035 A 
ATOM     28  H   LIG d   1       2.059   1.103  -8.020  0.00  0.00     0.062 H 
ATOM     29  H   LIG d   1       2.869  -0.493  -6.330  0.00  0.00     0.064 H 
BRANCH  24  30
ATOM     30  C   LIG d   1       3.507   2.437  -9.871  0.00  0.00    -0.040 C 
ATOM     31  H   LIG d   1       4.279   2.591 -10.624  0.00  0.00     0.028 H 
ATOM     32  H   LIG d   1       2.611   2.035 -10.347  0.00  0.00     0.028 H 
ATOM     33  H   LIG d   1       3.269   3.387  -9.393  0.00  0.00     0.028 H 
ENDBRANCH  24  30
ENDBRANCH   1  20
TORSDOF 6
ENDMDL
MODEL 8
REMARK VINA RESULT:      -4.9      1.788      2.709
REMARK  6 active torsions:
REMARK  status: ('A' for Active; 'I' for Inactive)
REMARK    1  A    between atoms: C_1  and  C_2 
REMARK    2  A    between atoms: C_2  and  C_3 
REMARK    3  A    between atoms: C_5  and  C_18 
REMARK    4  A    between atoms: N_7  and  S_8 
REMARK    5  A    between atoms: S_8  and  C_11 
REMARK    6  A    between atoms: C_14  and  C_17 
ROOT
ATOM      1  S   LIG d   1       3.651  -0.605  -7.489  0.00  0.00     0.061 S 
ATOM      2  O   LIG d   1       2.282  -0.350  -7.769  0.00  0.00    -0.153 OA
ATOM      3  O   LIG d   1       4.246  -1.880  -7.693  0.00  0.00    -0.153 OA
ENDROOT
BRANCH   1   4
ATOM      4  N   LIG d   1       4.528   0.474  -8.389  0.00  0.00    -0.168 N 
ATOM      5  C   LIG d   1       5.805   0.835  -9.011  0.00  0.00     0.049 A 
ATOM      6  H   LIG d   1       6.109   0.282  -9.900  0.00  0.00     0.050 H 
ATOM      7  C   LIG d   1       4.576   1.741  -9.124  0.00  0.00     0.047 A 
ATOM      8  H   LIG d   1       4.569   2.662  -8.543  0.00  0.00     0.049 H 
BRANCH   5   9
ATOM      9  C   LIG d   1       6.940   1.290  -8.091  0.00  0.00    -0.037 C 
ATOM     10  H   LIG d   1       7.532   2.054  -8.596  0.00  0.00     0.028 H 
ATOM     11  H   LIG d   1       6.520   1.703  -7.173  0.00  0.00     0.028 H 
BRANCH   9  12
ATOM     12  C   LIG d   1       7.832   0.095  -7.752  0.00  0.00    -0.064 C 
ATOM     13  H   LIG d   1       7.275  -0.612  -7.137  0.00  0.00     0.023 H 
ATOM     14  H   LIG d   1       8.148  -0.396  -8.674  0.00  0.00     0.023 H 
ATOM     15  H   LIG d   1       8.710   0.440  -7.205  0.00  0.00     0.023 H 
ENDBRANCH   9  12
ENDBRANCH   5   9
BRANCH   7  16
ATOM     16  C   LIG d   1       3.863   1.803 -10.476  0.00  0.00    -0.046 C 
ATOM     17  H   LIG d   1       2.820   2.080 -10.324  0.00  0.00     0.025 H 
ATOM     18  H   LIG d   1       3.913   0.827 -10.959  0.00  0.00     0.025 H 
ATOM     19  H   LIG d   1       4.348   2.547 -11.108  0.00  0.00     0.025 H 
ENDBRANCH   7  16
ENDBRANCH   1   4
BRANCH   1  20
ATOM     20  C   LIG d   1       3.904  -0.196  -5.795  0.00  0.00     0.105 A 
ATOM     21  C   LIG d   1       2.867   0.335  -5.050  0.00  0.00    -0.035 A 
ATOM     22  C   LIG d   1       3.065   0.656  -3.720  0.00  0.00    -0.057 A 
ATOM     23  H   LIG d   1       1.903   0.500  -5.507  0.00  0.00     0.064 H 
ATOM     24  C   LIG d   1       4.299   0.445  -3.134  0.00  0.00    -0.050 A 
ATOM     25  H   LIG d   1       2.255   1.072  -3.138  0.00  0.00     0.062 H 
ATOM     26  C   LIG d   1       5.336  -0.087  -3.879  0.00  0.00    -0.057 A 
ATOM     27  C   LIG d   1       5.136  -0.412  -5.207  0.00  0.00    -0.035 A 
ATOM     28  H   LIG d   1       6.300  -0.251  -3.421  0.00  0.00     0.062 H 
ATOM     29  H   LIG d   1       5.945  -0.831  -5.788  0.00  0.00     0.064 H 
BRANCH  24  30
ATOM     30  C   LIG d   1       4.515   0.796  -1.685  0.00  0.00    -0.040 C 
ATOM     31  H   LIG d   1       5.295   1.553  -1.606  0.00  0.00     0.028 H 
ATOM     32  H   LIG d   1       3.587   1.186  -1.263  0.00  0.00     0.028 H 
ATOM     33  H   LIG d   1       4.817  -0.096  -1.136  0.00  0.00     0.028 H 
ENDBRANCH  24  30
ENDBRANCH   1  20
TORSDOF 6
ENDMDL
MODEL 9
REMARK VINA RESULT:      -4.9      0.508      2.421
REMARK  6 active torsions:
REMARK  status: ('A' for Active; 'I' for Inactive)
REMARK    1  A    between atoms: C_1  and  C_2 
REMARK    2  A    between atoms: C_2  and  C_3 
REMARK    3  A    between atoms: C_5  and  C_18 
REMARK    4  A    between atoms: N_7  and  S_8 
REMARK    5  A    between atoms: S_8  and  C_11 
REMARK    6  A    between atoms: C_14  and  C_17 
ROOT
ATOM      1  S   LIG d   1       4.438  -1.120  -7.648  0.00  0.00     0.061 S 
ATOM      2  O   LIG d   1       3.925  -2.445  -7.620  0.00  0.00    -0.153 OA
ATOM      3  O   LIG d   1       5.758  -0.824  -8.083  0.00  0.00    -0.153 OA
ENDROOT
BRANCH   1   4
ATOM      4  N   LIG d   1       3.415  -0.235  -8.604  0.00  0.00    -0.168 N 
ATOM      5  C   LIG d   1       2.129  -0.135  -9.299  0.00  0.00     0.049 A 
ATOM      6  H   LIG d   1       1.237   0.021  -8.691  0.00  0.00     0.050 H 
ATOM      7  C   LIG d   1       3.158   0.997  -9.352  0.00  0.00     0.047 A 
ATOM      8  H   LIG d   1       3.702   1.146 -10.284  0.00  0.00     0.049 H 
BRANCH   5   9
ATOM      9  C   LIG d   1       1.935  -0.977 -10.561  0.00  0.00    -0.037 C 
ATOM     10  H   LIG d   1       1.183  -0.511 -11.197  0.00  0.00     0.028 H 
ATOM     11  H   LIG d   1       2.880  -1.043 -11.102  0.00  0.00     0.028 H 
BRANCH   9  12
ATOM     12  C   LIG d   1       1.472  -2.382 -10.170  0.00  0.00    -0.064 C 
ATOM     13  H   LIG d   1       1.777  -3.092 -10.939  0.00  0.00     0.023 H 
ATOM     14  H   LIG d   1       1.923  -2.661  -9.217  0.00  0.00     0.023 H 
ATOM     15  H   LIG d   1       0.386  -2.393 -10.075  0.00  0.00     0.023 H 
ENDBRANCH   9  12
ENDBRANCH   5   9
BRANCH   7  16
ATOM     16  C   LIG d   1       2.860   2.265  -8.549  0.00  0.00    -0.046 C 
ATOM     17  H   LIG d   1       3.426   2.247  -7.617  0.00  0.00     0.025 H 
ATOM     18  H   LIG d   1       1.794   2.312  -8.325  0.00  0.00     0.025 H 
ATOM     19  H   LIG d   1       3.147   3.140  -9.131  0.00  0.00     0.025 H 
ENDBRANCH   7  16
ENDBRANCH   1   4
BRANCH   1  20
ATOM     20  C   LIG d   1       4.294  -0.490  -6.009  0.00  0.00     0.105 A 
ATOM     21  C   LIG d   1       3.085   0.014  -5.566  0.00  0.00    -0.035 A 
ATOM     22  C   LIG d   1       2.973   0.508  -4.280  0.00  0.00    -0.057 A 
ATOM     23  H   LIG d   1       2.230   0.023  -6.225  0.00  0.00     0.064 H 
ATOM     24  C   LIG d   1       4.068   0.498  -3.437  0.00  0.00    -0.050 A 
ATOM     25  H   LIG d   1       2.029   0.903  -3.934  0.00  0.00     0.062 H 
ATOM     26  C   LIG d   1       5.277  -0.007  -3.880  0.00  0.00    -0.057 A 
ATOM     27  C   LIG d   1       5.388  -0.505  -5.164  0.00  0.00    -0.035 A 
ATOM     28  H   LIG d   1       6.132  -0.015  -3.221  0.00  0.00     0.062 H 
ATOM     29  H   LIG d   1       6.331  -0.903  -5.509  0.00  0.00     0.064 H 
BRANCH  24  30
ATOM     30  C   LIG d   1       3.945   1.038  -2.035  0.00  0.00    -0.040 C 
ATOM     31  H   LIG d   1       4.105   0.232  -1.320  0.00  0.00     0.028 H 
ATOM     32  H   LIG d   1       4.693   1.816  -1.879  0.00  0.00     0.028 H 
ATOM     33  H   LIG d   1       2.949   1.459  -1.894  0.00  0.00     0.028 H 
ENDBRANCH  24  30
ENDBRANCH   1  20
TORSDOF 6
ENDMDL
