MODEL 1
REMARK VINA RESULT:      -6.2      0.000      0.000
REMARK  7 active torsions:
REMARK  status: ('A' for Active; 'I' for Inactive)
REMARK    1  A    between atoms: C_4  and  O_8 
REMARK    2  A    between atoms: C_5  and  N_7 
REMARK    3  A    between atoms: O_8  and  C_9 
REMARK    4  A    between atoms: C_11  and  O_24 
REMARK    5  A    between atoms: C_13  and  O_23 
REMARK    6  A    between atoms: C_15  and  O_22 
REMARK    7  A    between atoms: C_17  and  C_20 
ROOT
ATOM      1  C   LIG d   1       4.563  -0.644  -5.922  0.00  0.00     0.231 C 
ATOM      2  H   LIG d   1       3.505  -0.382  -5.960  0.00  0.00     0.108 H 
ATOM      3  C   LIG d   1       4.710  -2.113  -5.515  0.00  0.00     0.145 C 
ATOM      4  H   LIG d   1       5.765  -2.387  -5.516  0.00  0.00     0.068 H 
ATOM      5  C   LIG d   1       4.134  -2.303  -4.107  0.00  0.00     0.116 C 
ATOM      6  H   LIG d   1       3.069  -2.076  -4.115  0.00  0.00     0.065 H 
ATOM      7  C   LIG d   1       4.853  -1.356  -3.141  0.00  0.00     0.115 C 
ATOM      8  H   LIG d   1       5.911  -1.615  -3.095  0.00  0.00     0.065 H 
ATOM      9  C   LIG d   1       4.700   0.083  -3.641  0.00  0.00     0.130 C 
ATOM     10  H   LIG d   1       3.645   0.355  -3.647  0.00  0.00     0.069 H 
ATOM     11  O   LIG d   1       5.226   0.184  -4.965  0.00  0.00    -0.328 OA
ENDROOT
BRANCH   1  12
ATOM     12  O   LIG d   1       5.148  -0.447  -7.210  0.00  0.00    -0.459 OA
BRANCH  12  13
ATOM     13  C   LIG d   1       4.555   0.468  -8.025  0.00  0.00     0.144 A 
ATOM     14  C   LIG d   1       3.211   0.348  -8.340  0.00  0.00    -0.018 A 
ATOM     15  C   LIG d   1       2.610   1.278  -9.168  0.00  0.00    -0.058 A 
ATOM     16  H   LIG d   1       2.633  -0.471  -7.938  0.00  0.00     0.066 H 
ATOM     17  C   LIG d   1       3.345   2.328  -9.684  0.00  0.00    -0.060 A 
ATOM     18  H   LIG d   1       1.562   1.184  -9.413  0.00  0.00     0.062 H 
ATOM     19  C   LIG d   1       4.687   2.454  -9.375  0.00  0.00    -0.037 A 
ATOM     20  H   LIG d   1       2.873   3.049 -10.335  0.00  0.00     0.062 H 
ATOM     21  C   LIG d   1       5.297   1.526  -8.544  0.00  0.00     0.067 A 
ATOM     22  H   LIG d   1       5.260   3.276  -9.780  0.00  0.00     0.064 H 
BRANCH  21  23
ATOM     23  N   LIG d   1       6.655   1.651  -8.229  0.00  0.00    -0.355 N 
ATOM     24  H   LIG d   1       6.923   1.892  -7.328  0.00  0.00     0.142 HD
ATOM     25  H   LIG d   1       7.328   1.496  -8.910  0.00  0.00     0.142 HD
ENDBRANCH  21  23
ENDBRANCH  12  13
ENDBRANCH   1  12
BRANCH   3  26
ATOM     26  O   LIG d   1       4.000  -2.939  -6.438  0.00  0.00    -0.383 OA
ATOM     27  H   LIG d   1       3.296  -3.466  -6.033  0.00  0.00     0.210 HD
ENDBRANCH   3  26
BRANCH   9  28
ATOM     28  C   LIG d   1       5.454   1.015  -2.727  0.00  0.00     0.073 C 
ATOM     29  O   LIG d   1       5.014   1.273  -1.632  0.00  0.00    -0.547 OA
ATOM     30  O   LIG d   1       6.612   1.559  -3.131  0.00  0.00    -0.547 OA
ENDBRANCH   9  28
BRANCH   5  31
ATOM     31  O   LIG d   1       4.334  -3.655  -3.688  0.00  0.00    -0.386 OA
ATOM     32  H   LIG d   1       4.470  -4.277  -4.417  0.00  0.00     0.210 HD
ENDBRANCH   5  31
BRANCH   7  33
ATOM     33  O   LIG d   1       4.275  -1.475  -1.839  0.00  0.00    -0.386 OA
ATOM     34  H   LIG d   1       4.888  -1.802  -1.165  0.00  0.00     0.210 HD
ENDBRANCH   7  33
TORSDOF 7
ENDMDL
MODEL 2
REMARK VINA RESULT:      -6.2      2.713      5.766
REMARK  7 active torsions:
REMARK  status: ('A' for Active; 'I' for Inactive)
REMARK    1  A    between atoms: C_4  and  O_8 
REMARK    2  A    between atoms: C_5  and  N_7 
REMARK    3  A    between atoms: O_8  and  C_9 
REMARK    4  A    between atoms: C_11  and  O_24 
REMARK    5  A    between atoms: C_13  and  O_23 
REMARK    6  A    between atoms: C_15  and  O_22 
REMARK    7  A    between atoms: C_17  and  C_20 
ROOT
ATOM      1  C   LIG d   1       4.163  -0.490  -6.538  0.00  0.00     0.231 C 
ATOM      2  H   LIG d   1       5.142  -0.587  -6.069  0.00  0.00     0.108 H 
ATOM      3  C   LIG d   1       3.921  -1.686  -7.464  0.00  0.00     0.145 C 
ATOM      4  H   LIG d   1       2.926  -1.611  -7.903  0.00  0.00     0.068 H 
ATOM      5  C   LIG d   1       4.973  -1.678  -8.579  0.00  0.00     0.116 C 
ATOM      6  H   LIG d   1       5.965  -1.802  -8.145  0.00  0.00     0.065 H 
ATOM      7  C   LIG d   1       4.903  -0.341  -9.324  0.00  0.00     0.115 C 
ATOM      8  H   LIG d   1       3.927  -0.240  -9.799  0.00  0.00     0.065 H 
ATOM      9  C   LIG d   1       5.106   0.801  -8.325  0.00  0.00     0.130 C 
ATOM     10  H   LIG d   1       6.098   0.723  -7.880  0.00  0.00     0.069 H 
ATOM     11  O   LIG d   1       4.116   0.718  -7.299  0.00  0.00    -0.328 OA
ENDROOT
BRANCH   1  12
ATOM     12  O   LIG d   1       3.152  -0.458  -5.529  0.00  0.00    -0.459 OA
BRANCH  12  13
ATOM     13  C   LIG d   1       3.563  -0.235  -4.251  0.00  0.00     0.144 A 
ATOM     14  C   LIG d   1       3.646   1.059  -3.766  0.00  0.00    -0.018 A 
ATOM     15  C   LIG d   1       4.064   1.285  -2.466  0.00  0.00    -0.058 A 
ATOM     16  H   LIG d   1       3.384   1.892  -4.401  0.00  0.00     0.066 H 
ATOM     17  C   LIG d   1       4.399   0.221  -1.649  0.00  0.00    -0.060 A 
ATOM     18  H   LIG d   1       4.128   2.295  -2.089  0.00  0.00     0.062 H 
ATOM     19  C   LIG d   1       4.319  -1.074  -2.127  0.00  0.00    -0.037 A 
ATOM     20  H   LIG d   1       4.730   0.403  -0.638  0.00  0.00     0.062 H 
ATOM     21  C   LIG d   1       3.901  -1.308  -3.429  0.00  0.00     0.067 A 
ATOM     22  H   LIG d   1       4.582  -1.903  -1.487  0.00  0.00     0.064 H 
BRANCH  21  23
ATOM     23  N   LIG d   1       3.818  -2.618  -3.915  0.00  0.00    -0.355 N 
ATOM     24  H   LIG d   1       3.116  -2.860  -4.539  0.00  0.00     0.142 HD
ATOM     25  H   LIG d   1       4.463  -3.283  -3.628  0.00  0.00     0.142 HD
ENDBRANCH  21  23
ENDBRANCH  12  13
ENDBRANCH   1  12
BRANCH   3  26
ATOM     26  O   LIG d   1       4.024  -2.898  -6.717  0.00  0.00    -0.383 OA
ATOM     27  H   LIG d   1       3.174  -3.325  -6.541  0.00  0.00     0.210 HD
ENDBRANCH   3  26
BRANCH   9  28
ATOM     28  C   LIG d   1       4.980   2.122  -9.041  0.00  0.00     0.073 C 
ATOM     29  O   LIG d   1       5.972   2.717  -9.388  0.00  0.00    -0.547 OA
ATOM     30  O   LIG d   1       3.766   2.636  -9.290  0.00  0.00    -0.547 OA
ENDBRANCH   9  28
BRANCH   5  31
ATOM     31  O   LIG d   1       4.710  -2.747  -9.490  0.00  0.00    -0.386 OA
ATOM     32  H   LIG d   1       4.593  -2.462 -10.407  0.00  0.00     0.210 HD
ENDBRANCH   5  31
BRANCH   7  33
ATOM     33  O   LIG d   1       5.927  -0.296 -10.320  0.00  0.00    -0.386 OA
ATOM     34  H   LIG d   1       6.784  -0.625 -10.017  0.00  0.00     0.210 HD
ENDBRANCH   7  33
TORSDOF 7
ENDMDL
MODEL 3
REMARK VINA RESULT:      -6.1      1.955      3.384
REMARK  7 active torsions:
REMARK  status: ('A' for Active; 'I' for Inactive)
REMARK    1  A    between atoms: C_4  and  O_8 
REMARK    2  A    between atoms: C_5  and  N_7 
REMARK    3  A    between atoms: O_8  and  C_9 
REMARK    4  A    between atoms: C_11  and  O_24 
REMARK    5  A    between atoms: C_13  and  O_23 
REMARK    6  A    between atoms: C_15  and  O_22 
REMARK    7  A    between atoms: C_17  and  C_20 
ROOT
ATOM      1  C   LIG d   1       3.457  -0.013  -5.994  0.00  0.00     0.231 C 
ATOM      2  H   LIG d   1       4.324   0.604  -6.231  0.00  0.00     0.108 H 
ATOM      3  C   LIG d   1       2.817   0.484  -4.695  0.00  0.00     0.145 C 
ATOM      4  H   LIG d   1       1.927  -0.107  -4.478  0.00  0.00     0.068 H 
ATOM      5  C   LIG d   1       3.823   0.330  -3.549  0.00  0.00     0.116 C 
ATOM      6  H   LIG d   1       4.693   0.958  -3.740  0.00  0.00     0.065 H 
ATOM      7  C   LIG d   1       4.260  -1.136  -3.460  0.00  0.00     0.115 C 
ATOM      8  H   LIG d   1       3.398  -1.759  -3.219  0.00  0.00     0.065 H 
ATOM      9  C   LIG d   1       4.843  -1.569  -4.807  0.00  0.00     0.130 C 
ATOM     10  H   LIG d   1       5.729  -0.973  -5.028  0.00  0.00     0.069 H 
ATOM     11  O   LIG d   1       3.869  -1.371  -5.833  0.00  0.00    -0.328 OA
ENDROOT
BRANCH   1  12
ATOM     12  O   LIG d   1       2.506   0.075  -7.056  0.00  0.00    -0.459 OA
BRANCH  12  13
ATOM     13  C   LIG d   1       2.963   0.518  -8.259  0.00  0.00     0.144 A 
ATOM     14  C   LIG d   1       3.082   1.876  -8.498  0.00  0.00    -0.018 A 
ATOM     15  C   LIG d   1       3.546   2.326  -9.722  0.00  0.00    -0.058 A 
ATOM     16  H   LIG d   1       2.814   2.586  -7.729  0.00  0.00     0.066 H 
ATOM     17  C   LIG d   1       3.892   1.422 -10.708  0.00  0.00    -0.060 A 
ATOM     18  H   LIG d   1       3.638   3.386  -9.907  0.00  0.00     0.062 H 
ATOM     19  C   LIG d   1       3.775   0.063 -10.477  0.00  0.00    -0.037 A 
ATOM     20  H   LIG d   1       4.248   1.777 -11.664  0.00  0.00     0.062 H 
ATOM     21  C   LIG d   1       3.311  -0.395  -9.253  0.00  0.00     0.067 A 
ATOM     22  H   LIG d   1       4.046  -0.641 -11.251  0.00  0.00     0.064 H 
BRANCH  21  23
ATOM     23  N   LIG d   1       3.193  -1.769  -9.016  0.00  0.00    -0.355 N 
ATOM     24  H   LIG d   1       3.285  -2.397  -9.750  0.00  0.00     0.142 HD
ATOM     25  H   LIG d   1       3.021  -2.093  -8.118  0.00  0.00     0.142 HD
ENDBRANCH  21  23
ENDBRANCH  12  13
ENDBRANCH   1  12
BRANCH   3  26
ATOM     26  O   LIG d   1       2.457   1.858  -4.834  0.00  0.00    -0.383 OA
ATOM     27  H   LIG d   1       1.653   2.004  -5.352  0.00  0.00     0.210 HD
ENDBRANCH   3  26
BRANCH   9  28
ATOM     28  C   LIG d   1       5.221  -3.027  -4.745  0.00  0.00     0.073 C 
ATOM     29  O   LIG d   1       6.344  -3.347  -4.434  0.00  0.00    -0.547 OA
ATOM     30  O   LIG d   1       4.311  -3.968  -5.037  0.00  0.00    -0.547 OA
ENDBRANCH   9  28
BRANCH   5  31
ATOM     31  O   LIG d   1       3.210   0.722  -2.319  0.00  0.00    -0.386 OA
ATOM     32  H   LIG d   1       3.156   0.012  -1.663  0.00  0.00     0.210 HD
ENDBRANCH   5  31
BRANCH   7  33
ATOM     33  O   LIG d   1       5.251  -1.277  -2.440  0.00  0.00    -0.386 OA
ATOM     34  H   LIG d   1       6.121  -0.933  -2.687  0.00  0.00     0.210 HD
ENDBRANCH   7  33
TORSDOF 7
ENDMDL
MODEL 4
REMARK VINA RESULT:      -5.9      2.637      6.415
REMARK  7 active torsions:
REMARK  status: ('A' for Active; 'I' for Inactive)
REMARK    1  A    between atoms: C_4  and  O_8 
REMARK    2  A    between atoms: C_5  and  N_7 
REMARK    3  A    between atoms: O_8  and  C_9 
REMARK    4  A    between atoms: C_11  and  O_24 
REMARK    5  A    between atoms: C_13  and  O_23 
REMARK    6  A    between atoms: C_15  and  O_22 
REMARK    7  A    between atoms: C_17  and  C_20 
ROOT
ATOM      1  C   LIG d   1       4.996  -0.304  -6.729  0.00  0.00     0.231 C 
ATOM      2  H   LIG d   1       4.445   0.472  -6.199  0.00  0.00     0.108 H 
ATOM      3  C   LIG d   1       6.011   0.346  -7.674  0.00  0.00     0.145 C 
ATOM      4  H   LIG d   1       6.591  -0.430  -8.175  0.00  0.00     0.068 H 
ATOM      5  C   LIG d   1       5.263   1.180  -8.718  0.00  0.00     0.116 C 
ATOM      6  H   LIG d   1       4.722   1.986  -8.222  0.00  0.00     0.065 H 
ATOM      7  C   LIG d   1       4.271   0.280  -9.461  0.00  0.00     0.115 C 
ATOM      8  H   LIG d   1       4.815  -0.497  -9.998  0.00  0.00     0.065 H 
ATOM      9  C   LIG d   1       3.324  -0.368  -8.447  0.00  0.00     0.130 C 
ATOM     10  H   LIG d   1       2.750   0.407  -7.940  0.00  0.00     0.069 H 
ATOM     11  O   LIG d   1       4.085  -1.102  -7.487  0.00  0.00    -0.328 OA
ENDROOT
BRANCH   1  12
ATOM     12  O   LIG d   1       5.683  -1.129  -5.787  0.00  0.00    -0.459 OA
BRANCH  12  13
ATOM     13  C   LIG d   1       5.218  -1.126  -4.509  0.00  0.00     0.144 A 
ATOM     14  C   LIG d   1       5.538  -0.082  -3.657  0.00  0.00    -0.018 A 
ATOM     15  C   LIG d   1       5.065  -0.080  -2.357  0.00  0.00    -0.058 A 
ATOM     16  H   LIG d   1       6.156   0.731  -4.007  0.00  0.00     0.066 H 
ATOM     17  C   LIG d   1       4.272  -1.118  -1.904  0.00  0.00    -0.060 A 
ATOM     18  H   LIG d   1       5.315   0.735  -1.694  0.00  0.00     0.062 H 
ATOM     19  C   LIG d   1       3.949  -2.164  -2.748  0.00  0.00    -0.037 A 
ATOM     20  H   LIG d   1       3.910  -1.115  -0.887  0.00  0.00     0.062 H 
ATOM     21  C   LIG d   1       4.419  -2.173  -4.053  0.00  0.00     0.067 A 
ATOM     22  H   LIG d   1       3.330  -2.974  -2.391  0.00  0.00     0.064 H 
BRANCH  21  23
ATOM     23  N   LIG d   1       4.093  -3.230  -4.910  0.00  0.00    -0.355 N 
ATOM     24  H   LIG d   1       4.676  -4.003  -4.972  0.00  0.00     0.142 HD
ATOM     25  H   LIG d   1       3.282  -3.191  -5.442  0.00  0.00     0.142 HD
ENDBRANCH  21  23
ENDBRANCH  12  13
ENDBRANCH   1  12
BRANCH   3  26
ATOM     26  O   LIG d   1       6.888   1.189  -6.926  0.00  0.00    -0.383 OA
ATOM     27  H   LIG d   1       7.228   1.945  -7.426  0.00  0.00     0.210 HD
ENDBRANCH   3  26
BRANCH   9  28
ATOM     28  C   LIG d   1       2.382  -1.301  -9.164  0.00  0.00     0.073 C 
ATOM     29  O   LIG d   1       1.365  -0.872  -9.656  0.00  0.00    -0.547 OA
ATOM     30  O   LIG d   1       2.673  -2.608  -9.255  0.00  0.00    -0.547 OA
ENDBRANCH   9  28
BRANCH   5  31
ATOM     31  O   LIG d   1       6.197   1.731  -9.649  0.00  0.00    -0.386 OA
ATOM     32  H   LIG d   1       6.562   2.586  -9.380  0.00  0.00     0.210 HD
ENDBRANCH   5  31
BRANCH   7  33
ATOM     33  O   LIG d   1       3.517   1.063 -10.389  0.00  0.00    -0.386 OA
ATOM     34  H   LIG d   1       3.231   0.575 -11.173  0.00  0.00     0.210 HD
ENDBRANCH   7  33
TORSDOF 7
ENDMDL
MODEL 5
REMARK VINA RESULT:      -5.8      2.708      5.525
REMARK  7 active torsions:
REMARK  status: ('A' for Active; 'I' for Inactive)
REMARK    1  A    between atoms: C_4  and  O_8 
REMARK    2  A    between atoms: C_5  and  N_7 
REMARK    3  A    between atoms: O_8  and  C_9 
REMARK    4  A    between atoms: C_11  and  O_24 
REMARK    5  A    between atoms: C_13  and  O_23 
REMARK    6  A    between atoms: C_15  and  O_22 
REMARK    7  A    between atoms: C_17  and  C_20 
ROOT
ATOM      1  C   LIG d   1       3.973  -0.387  -6.397  0.00  0.00     0.231 C 
ATOM      2  H   LIG d   1       4.127  -1.462  -6.494  0.00  0.00     0.108 H 
ATOM      3  C   LIG d   1       3.431   0.172  -7.716  0.00  0.00     0.145 C 
ATOM      4  H   LIG d   1       3.240   1.240  -7.607  0.00  0.00     0.068 H 
ATOM      5  C   LIG d   1       4.470  -0.051  -8.820  0.00  0.00     0.116 C 
ATOM      6  H   LIG d   1       4.626  -1.120  -8.963  0.00  0.00     0.065 H 
ATOM      7  C   LIG d   1       5.789   0.608  -8.407  0.00  0.00     0.115 C 
ATOM      8  H   LIG d   1       5.645   1.685  -8.312  0.00  0.00     0.065 H 
ATOM      9  C   LIG d   1       6.239   0.033  -7.061  0.00  0.00     0.130 C 
ATOM     10  H   LIG d   1       6.423  -1.036  -7.167  0.00  0.00     0.069 H 
ATOM     11  O   LIG d   1       5.216   0.246  -6.087  0.00  0.00    -0.328 OA
ENDROOT
BRANCH   1  12
ATOM     12  O   LIG d   1       3.035  -0.132  -5.351  0.00  0.00    -0.459 OA
BRANCH  12  13
ATOM     13  C   LIG d   1       3.515  -0.128  -4.078  0.00  0.00     0.144 A 
ATOM     14  C   LIG d   1       3.639   1.066  -3.387  0.00  0.00    -0.018 A 
ATOM     15  C   LIG d   1       4.127   1.069  -2.093  0.00  0.00    -0.058 A 
ATOM     16  H   LIG d   1       3.352   1.995  -3.858  0.00  0.00     0.066 H 
ATOM     17  C   LIG d   1       4.493  -0.118  -1.486  0.00  0.00    -0.060 A 
ATOM     18  H   LIG d   1       4.223   2.001  -1.555  0.00  0.00     0.062 H 
ATOM     19  C   LIG d   1       4.373  -1.314  -2.169  0.00  0.00    -0.037 A 
ATOM     20  H   LIG d   1       4.879  -0.110  -0.477  0.00  0.00     0.062 H 
ATOM     21  C   LIG d   1       3.884  -1.325  -3.466  0.00  0.00     0.067 A 
ATOM     22  H   LIG d   1       4.661  -2.239  -1.692  0.00  0.00     0.064 H 
BRANCH  21  23
ATOM     23  N   LIG d   1       3.760  -2.534  -4.160  0.00  0.00    -0.355 N 
ATOM     24  H   LIG d   1       2.976  -3.091  -4.029  0.00  0.00     0.142 HD
ATOM     25  H   LIG d   1       4.458  -2.815  -4.773  0.00  0.00     0.142 HD
ENDBRANCH  21  23
ENDBRANCH  12  13
ENDBRANCH   1  12
BRANCH   3  26
ATOM     26  O   LIG d   1       2.218  -0.500  -8.057  0.00  0.00    -0.383 OA
ATOM     27  H   LIG d   1       1.748  -0.872  -7.298  0.00  0.00     0.210 HD
ENDBRANCH   3  26
BRANCH   9  28
ATOM     28  C   LIG d   1       7.506   0.719  -6.620  0.00  0.00     0.073 C 
ATOM     29  O   LIG d   1       7.453   1.640  -5.838  0.00  0.00    -0.547 OA
ATOM     30  O   LIG d   1       8.692   0.309  -7.095  0.00  0.00    -0.547 OA
ENDBRANCH   9  28
BRANCH   5  31
ATOM     31  O   LIG d   1       4.005   0.533 -10.039  0.00  0.00    -0.386 OA
ATOM     32  H   LIG d   1       4.034   1.500 -10.047  0.00  0.00     0.210 HD
ENDBRANCH   5  31
BRANCH   7  33
ATOM     33  O   LIG d   1       6.785   0.346  -9.398  0.00  0.00    -0.386 OA
ATOM     34  H   LIG d   1       7.263   1.133  -9.693  0.00  0.00     0.210 HD
ENDBRANCH   7  33
TORSDOF 7
ENDMDL
MODEL 6
REMARK VINA RESULT:      -5.7      4.358      6.109
REMARK  7 active torsions:
REMARK  status: ('A' for Active; 'I' for Inactive)
REMARK    1  A    between atoms: C_4  and  O_8 
REMARK    2  A    between atoms: C_5  and  N_7 
REMARK    3  A    between atoms: O_8  and  C_9 
REMARK    4  A    between atoms: C_11  and  O_24 
REMARK    5  A    between atoms: C_13  and  O_23 
REMARK    6  A    between atoms: C_15  and  O_22 
REMARK    7  A    between atoms: C_17  and  C_20 
ROOT
ATOM      1  C   LIG d   1       6.339  -2.562  -4.366  0.00  0.00     0.231 C 
ATOM      2  H   LIG d   1       6.174  -1.754  -5.080  0.00  0.00     0.108 H 
ATOM      3  C   LIG d   1       7.737  -3.149  -4.577  0.00  0.00     0.145 C 
ATOM      4  H   LIG d   1       7.919  -3.930  -3.838  0.00  0.00     0.068 H 
ATOM      5  C   LIG d   1       7.824  -3.748  -5.985  0.00  0.00     0.116 C 
ATOM      6  H   LIG d   1       7.691  -2.960  -6.725  0.00  0.00     0.065 H 
ATOM      7  C   LIG d   1       6.721  -4.798  -6.150  0.00  0.00     0.115 C 
ATOM      8  H   LIG d   1       6.882  -5.611  -5.443  0.00  0.00     0.065 H 
ATOM      9  C   LIG d   1       5.362  -4.146  -5.879  0.00  0.00     0.130 C 
ATOM     10  H   LIG d   1       5.183  -3.360  -6.612  0.00  0.00     0.069 H 
ATOM     11  O   LIG d   1       5.359  -3.582  -4.566  0.00  0.00    -0.328 OA
ENDROOT
BRANCH   1  12
ATOM     12  O   LIG d   1       6.232  -2.052  -3.036  0.00  0.00    -0.459 OA
BRANCH  12  13
ATOM     13  C   LIG d   1       5.436  -0.963  -2.854  0.00  0.00     0.144 A 
ATOM     14  C   LIG d   1       5.968   0.311  -2.963  0.00  0.00    -0.018 A 
ATOM     15  C   LIG d   1       5.158   1.416  -2.777  0.00  0.00    -0.058 A 
ATOM     16  H   LIG d   1       7.015   0.441  -3.195  0.00  0.00     0.066 H 
ATOM     17  C   LIG d   1       3.817   1.254  -2.482  0.00  0.00    -0.060 A 
ATOM     18  H   LIG d   1       5.573   2.410  -2.863  0.00  0.00     0.062 H 
ATOM     19  C   LIG d   1       3.279  -0.015  -2.371  0.00  0.00    -0.037 A 
ATOM     20  H   LIG d   1       3.189   2.120  -2.332  0.00  0.00     0.062 H 
ATOM     21  C   LIG d   1       4.085  -1.128  -2.557  0.00  0.00     0.067 A 
ATOM     22  H   LIG d   1       2.231  -0.139  -2.139  0.00  0.00     0.064 H 
BRANCH  21  23
ATOM     23  N   LIG d   1       3.543  -2.414  -2.446  0.00  0.00    -0.355 N 
ATOM     24  H   LIG d   1       3.661  -2.921  -1.627  0.00  0.00     0.142 HD
ATOM     25  H   LIG d   1       3.048  -2.797  -3.187  0.00  0.00     0.142 HD
ENDBRANCH  21  23
ENDBRANCH  12  13
ENDBRANCH   1  12
BRANCH   3  26
ATOM     26  O   LIG d   1       8.716  -2.119  -4.434  0.00  0.00    -0.383 OA
ATOM     27  H   LIG d   1       9.027  -1.752  -5.274  0.00  0.00     0.210 HD
ENDBRANCH   3  26
BRANCH   9  28
ATOM     28  C   LIG d   1       4.276  -5.186  -5.982  0.00  0.00     0.073 C 
ATOM     29  O   LIG d   1       3.993  -5.861  -5.021  0.00  0.00    -0.547 OA
ATOM     30  O   LIG d   1       3.626  -5.363  -7.142  0.00  0.00    -0.547 OA
ENDBRANCH   9  28
BRANCH   5  31
ATOM     31  O   LIG d   1       9.101  -4.364  -6.164  0.00  0.00    -0.386 OA
ATOM     32  H   LIG d   1       9.830  -3.736  -6.263  0.00  0.00     0.210 HD
ENDBRANCH   5  31
BRANCH   7  33
ATOM     33  O   LIG d   1       6.748  -5.312  -7.484  0.00  0.00    -0.386 OA
ATOM     34  H   LIG d   1       6.400  -4.701  -8.148  0.00  0.00     0.210 HD
ENDBRANCH   7  33
TORSDOF 7
ENDMDL
MODEL 7
REMARK VINA RESULT:      -5.6      2.658      6.399
REMARK  7 active torsions:
REMARK  status: ('A' for Active; 'I' for Inactive)
REMARK    1  A    between atoms: C_4  and  O_8 
REMARK    2  A    between atoms: C_5  and  N_7 
REMARK    3  A    between atoms: O_8  and  C_9 
REMARK    4  A    between atoms: C_11  and  O_24 
REMARK    5  A    between atoms: C_13  and  O_23 
REMARK    6  A    between atoms: C_15  and  O_22 
REMARK    7  A    between atoms: C_17  and  C_20 
ROOT
ATOM      1  C   LIG d   1       3.516  -0.143  -7.310  0.00  0.00     0.231 C 
ATOM      2  H   LIG d   1       2.452  -0.044  -7.094  0.00  0.00     0.108 H 
ATOM      3  C   LIG d   1       3.884   0.765  -8.487  0.00  0.00     0.145 C 
ATOM      4  H   LIG d   1       4.956   0.697  -8.678  0.00  0.00     0.068 H 
ATOM      5  C   LIG d   1       3.113   0.313  -9.731  0.00  0.00     0.116 C 
ATOM      6  H   LIG d   1       2.043   0.427  -9.559  0.00  0.00     0.065 H 
ATOM      7  C   LIG d   1       3.433  -1.159 -10.010  0.00  0.00     0.115 C 
ATOM      8  H   LIG d   1       4.495  -1.265 -10.232  0.00  0.00     0.065 H 
ATOM      9  C   LIG d   1       3.083  -1.992  -8.775  0.00  0.00     0.130 C 
ATOM     10  H   LIG d   1       2.013  -1.918  -8.578  0.00  0.00     0.069 H 
ATOM     11  O   LIG d   1       3.810  -1.500  -7.648  0.00  0.00    -0.328 OA
ENDROOT
BRANCH   1  12
ATOM     12  O   LIG d   1       4.274   0.237  -6.161  0.00  0.00    -0.459 OA
BRANCH  12  13
ATOM     13  C   LIG d   1       4.007  -0.421  -5.000  0.00  0.00     0.144 A 
ATOM     14  C   LIG d   1       2.911  -0.060  -4.234  0.00  0.00    -0.018 A 
ATOM     15  C   LIG d   1       2.640  -0.730  -3.054  0.00  0.00    -0.058 A 
ATOM     16  H   LIG d   1       2.266   0.743  -4.559  0.00  0.00     0.066 H 
ATOM     17  C   LIG d   1       3.462  -1.759  -2.635  0.00  0.00    -0.060 A 
ATOM     18  H   LIG d   1       1.785  -0.447  -2.458  0.00  0.00     0.062 H 
ATOM     19  C   LIG d   1       4.559  -2.125  -3.394  0.00  0.00    -0.037 A 
ATOM     20  H   LIG d   1       3.250  -2.275  -1.711  0.00  0.00     0.062 H 
ATOM     21  C   LIG d   1       4.836  -1.459  -4.578  0.00  0.00     0.067 A 
ATOM     22  H   LIG d   1       5.200  -2.930  -3.064  0.00  0.00     0.064 H 
BRANCH  21  23
ATOM     23  N   LIG d   1       5.945  -1.828  -5.349  0.00  0.00    -0.355 N 
ATOM     24  H   LIG d   1       6.444  -2.629  -5.127  0.00  0.00     0.142 HD
ATOM     25  H   LIG d   1       6.212  -1.282  -6.105  0.00  0.00     0.142 HD
ENDBRANCH  21  23
ENDBRANCH  12  13
ENDBRANCH   1  12
BRANCH   3  26
ATOM     26  O   LIG d   1       3.539   2.115  -8.174  0.00  0.00    -0.383 OA
ATOM     27  H   LIG d   1       4.146   2.772  -8.545  0.00  0.00     0.210 HD
ENDBRANCH   3  26
BRANCH   9  28
ATOM     28  C   LIG d   1       3.450  -3.434  -9.021  0.00  0.00     0.073 C 
ATOM     29  O   LIG d   1       4.487  -3.875  -8.585  0.00  0.00    -0.547 OA
ATOM     30  O   LIG d   1       2.625  -4.225  -9.723  0.00  0.00    -0.547 OA
ENDBRANCH   9  28
BRANCH   5  31
ATOM     31  O   LIG d   1       3.506   1.108 -10.852  0.00  0.00    -0.386 OA
ATOM     32  H   LIG d   1       3.943   0.608 -11.555  0.00  0.00     0.210 HD
ENDBRANCH   5  31
BRANCH   7  33
ATOM     33  O   LIG d   1       2.665  -1.611 -11.127  0.00  0.00    -0.386 OA
ATOM     34  H   LIG d   1       2.019  -2.297 -10.908  0.00  0.00     0.210 HD
ENDBRANCH   7  33
TORSDOF 7
ENDMDL
MODEL 8
REMARK VINA RESULT:      -5.4      2.544      5.735
REMARK  7 active torsions:
REMARK  status: ('A' for Active; 'I' for Inactive)
REMARK    1  A    between atoms: C_4  and  O_8 
REMARK    2  A    between atoms: C_5  and  N_7 
REMARK    3  A    between atoms: O_8  and  C_9 
REMARK    4  A    between atoms: C_11  and  O_24 
REMARK    5  A    between atoms: C_13  and  O_23 
REMARK    6  A    between atoms: C_15  and  O_22 
REMARK    7  A    between atoms: C_17  and  C_20 
ROOT
ATOM      1  C   LIG d   1       5.950  -0.548  -6.358  0.00  0.00     0.231 C 
ATOM      2  H   LIG d   1       6.646   0.291  -6.327  0.00  0.00     0.108 H 
ATOM      3  C   LIG d   1       6.423  -1.565  -7.400  0.00  0.00     0.145 C 
ATOM      4  H   LIG d   1       5.750  -2.423  -7.403  0.00  0.00     0.068 H 
ATOM      5  C   LIG d   1       6.418  -0.906  -8.784  0.00  0.00     0.116 C 
ATOM      6  H   LIG d   1       7.126  -0.078  -8.797  0.00  0.00     0.065 H 
ATOM      7  C   LIG d   1       5.010  -0.380  -9.081  0.00  0.00     0.115 C 
ATOM      8  H   LIG d   1       4.309  -1.214  -9.118  0.00  0.00     0.065 H 
ATOM      9  C   LIG d   1       4.592   0.591  -7.974  0.00  0.00     0.130 C 
ATOM     10  H   LIG d   1       5.269   1.445  -7.965  0.00  0.00     0.069 H 
ATOM     11  O   LIG d   1       4.649  -0.075  -6.711  0.00  0.00    -0.328 OA
ENDROOT
BRANCH   1  12
ATOM     12  O   LIG d   1       5.898  -1.171  -5.074  0.00  0.00    -0.459 OA
BRANCH  12  13
ATOM     13  C   LIG d   1       5.300  -0.472  -4.071  0.00  0.00     0.144 A 
ATOM     14  C   LIG d   1       5.953   0.602  -3.490  0.00  0.00    -0.018 A 
ATOM     15  C   LIG d   1       5.344   1.312  -2.470  0.00  0.00    -0.058 A 
ATOM     16  H   LIG d   1       6.937   0.887  -3.833  0.00  0.00     0.066 H 
ATOM     17  C   LIG d   1       4.085   0.952  -2.029  0.00  0.00    -0.060 A 
ATOM     18  H   LIG d   1       5.854   2.150  -2.018  0.00  0.00     0.062 H 
ATOM     19  C   LIG d   1       3.427  -0.120  -2.604  0.00  0.00    -0.037 A 
ATOM     20  H   LIG d   1       3.616   1.506  -1.229  0.00  0.00     0.062 H 
ATOM     21  C   LIG d   1       4.031  -0.836  -3.627  0.00  0.00     0.067 A 
ATOM     22  H   LIG d   1       2.443  -0.399  -2.256  0.00  0.00     0.064 H 
BRANCH  21  23
ATOM     23  N   LIG d   1       3.367  -1.920  -4.211  0.00  0.00    -0.355 N 
ATOM     24  H   LIG d   1       2.727  -1.770  -4.924  0.00  0.00     0.142 HD
ATOM     25  H   LIG d   1       3.549  -2.822  -3.904  0.00  0.00     0.142 HD
ENDBRANCH  21  23
ENDBRANCH  12  13
ENDBRANCH   1  12
BRANCH   3  26
ATOM     26  O   LIG d   1       7.746  -1.996  -7.081  0.00  0.00    -0.383 OA
ATOM     27  H   LIG d   1       8.292  -1.316  -6.661  0.00  0.00     0.210 HD
ENDBRANCH   3  26
BRANCH   9  28
ATOM     28  C   LIG d   1       3.185   1.068  -8.229  0.00  0.00     0.073 C 
ATOM     29  O   LIG d   1       2.384   0.332  -8.755  0.00  0.00    -0.547 OA
ATOM     30  O   LIG d   1       2.823   2.310  -7.872  0.00  0.00    -0.547 OA
ENDBRANCH   9  28
BRANCH   5  31
ATOM     31  O   LIG d   1       6.787  -1.869  -9.773  0.00  0.00    -0.386 OA
ATOM     32  H   LIG d   1       7.529  -1.596 -10.330  0.00  0.00     0.210 HD
ENDBRANCH   5  31
BRANCH   7  33
ATOM     33  O   LIG d   1       5.010   0.299 -10.339  0.00  0.00    -0.386 OA
ATOM     34  H   LIG d   1       5.888   0.390 -10.736  0.00  0.00     0.210 HD
ENDBRANCH   7  33
TORSDOF 7
ENDMDL
MODEL 9
REMARK VINA RESULT:      -5.4      2.757      6.386
REMARK  7 active torsions:
REMARK  status: ('A' for Active; 'I' for Inactive)
REMARK    1  A    between atoms: C_4  and  O_8 
REMARK    2  A    between atoms: C_5  and  N_7 
REMARK    3  A    between atoms: O_8  and  C_9 
REMARK    4  A    between atoms: C_11  and  O_24 
REMARK    5  A    between atoms: C_13  and  O_23 
REMARK    6  A    between atoms: C_15  and  O_22 
REMARK    7  A    between atoms: C_17  and  C_20 
ROOT
ATOM      1  C   LIG d   1       4.304  -0.448  -7.320  0.00  0.00     0.231 C 
ATOM      2  H   LIG d   1       3.334  -0.911  -7.142  0.00  0.00     0.108 H 
ATOM      3  C   LIG d   1       4.137   0.731  -8.283  0.00  0.00     0.145 C 
ATOM      4  H   LIG d   1       5.101   1.220  -8.431  0.00  0.00     0.068 H 
ATOM      5  C   LIG d   1       3.617   0.210  -9.628  0.00  0.00     0.116 C 
ATOM      6  H   LIG d   1       2.632  -0.235  -9.490  0.00  0.00     0.065 H 
ATOM      7  C   LIG d   1       4.587  -0.847 -10.164  0.00  0.00     0.115 C 
ATOM      8  H   LIG d   1       5.560  -0.390 -10.349  0.00  0.00     0.065 H 
ATOM      9  C   LIG d   1       4.737  -1.964  -9.127  0.00  0.00     0.130 C 
ATOM     10  H   LIG d   1       3.773  -2.448  -8.973  0.00  0.00     0.069 H 
ATOM     11  O   LIG d   1       5.193  -1.408  -7.893  0.00  0.00    -0.328 OA
ENDROOT
BRANCH   1  12
ATOM     12  O   LIG d   1       4.842   0.022  -6.083  0.00  0.00    -0.459 OA
BRANCH  12  13
ATOM     13  C   LIG d   1       4.357  -0.544  -4.944  0.00  0.00     0.144 A 
ATOM     14  C   LIG d   1       4.907  -1.722  -4.466  0.00  0.00    -0.018 A 
ATOM     15  C   LIG d   1       4.413  -2.296  -3.309  0.00  0.00    -0.058 A 
ATOM     16  H   LIG d   1       5.723  -2.191  -4.996  0.00  0.00     0.066 H 
ATOM     17  C   LIG d   1       3.370  -1.698  -2.627  0.00  0.00    -0.060 A 
ATOM     18  H   LIG d   1       4.843  -3.214  -2.937  0.00  0.00     0.062 H 
ATOM     19  C   LIG d   1       2.815  -0.522  -3.098  0.00  0.00    -0.037 A 
ATOM     20  H   LIG d   1       2.984  -2.153  -1.726  0.00  0.00     0.062 H 
ATOM     21  C   LIG d   1       3.306   0.060  -4.257  0.00  0.00     0.067 A 
ATOM     22  H   LIG d   1       2.000  -0.058  -2.563  0.00  0.00     0.064 H 
BRANCH  21  23
ATOM     23  N   LIG d   1       2.747   1.250  -4.736  0.00  0.00    -0.355 N 
ATOM     24  H   LIG d   1       3.322   1.959  -5.063  0.00  0.00     0.142 HD
ATOM     25  H   LIG d   1       1.784   1.366  -4.742  0.00  0.00     0.142 HD
ENDBRANCH  21  23
ENDBRANCH  12  13
ENDBRANCH   1  12
BRANCH   3  26
ATOM     26  O   LIG d   1       3.205   1.665  -7.739  0.00  0.00    -0.383 OA
ATOM     27  H   LIG d   1       3.611   2.476  -7.401  0.00  0.00     0.210 HD
ENDBRANCH   3  26
BRANCH   9  28
ATOM     28  C   LIG d   1       5.735  -2.979  -9.622  0.00  0.00     0.073 C 
ATOM     29  O   LIG d   1       5.388  -3.839 -10.396  0.00  0.00    -0.547 OA
ATOM     30  O   LIG d   1       7.009  -2.927  -9.203  0.00  0.00    -0.547 OA
ENDBRANCH   9  28
BRANCH   5  31
ATOM     31  O   LIG d   1       3.528   1.292 -10.557  0.00  0.00    -0.386 OA
ATOM     32  H   LIG d   1       2.632   1.462 -10.878  0.00  0.00     0.210 HD
ENDBRANCH   5  31
BRANCH   7  33
ATOM     33  O   LIG d   1       4.076  -1.390 -11.383  0.00  0.00    -0.386 OA
ATOM     34  H   LIG d   1       4.414  -0.956 -12.179  0.00  0.00     0.210 HD
ENDBRANCH   7  33
TORSDOF 7
ENDMDL
