MODEL 1
REMARK VINA RESULT:      -7.7      0.000      0.000
REMARK  9 active torsions:
REMARK  status: ('A' for Active; 'I' for Inactive)
REMARK    1  A    between atoms: C_1  and  C_2 
REMARK    2  A    between atoms: C_3  and  C_30 
REMARK    3  A    between atoms: C_9  and  C_29 
REMARK    4  A    between atoms: C_10  and  C_17 
REMARK    5  A    between atoms: C_15  and  C_16 
REMARK    6  A    between atoms: C_17  and  C_18 
REMARK    7  A    between atoms: C_18  and  C_19 
REMARK       I    between atoms: C_19  and  N_21 
REMARK    8  A    between atoms: N_21  and  C_22 
REMARK    9  A    between atoms: C_22  and  C_23 
ROOT
ATOM      1  C   LIG d   1       9.954  10.032  -1.354  0.00  0.00    -0.002 A 
ATOM      2  C   LIG d   1      10.298  10.175  -0.068  0.00  0.00     0.106 A 
ATOM      3  O   LIG d   1      10.622   8.983   0.462  0.00  0.00    -0.459 OA
ATOM      4  C   LIG d   1      10.505   7.999  -0.452  0.00  0.00     0.142 A 
ATOM      5  C   LIG d   1      10.076   8.599  -1.654  0.00  0.00     0.024 A 
ATOM      6  C   LIG d   1       9.865   7.829  -2.789  0.00  0.00    -0.040 A 
ATOM      7  C   LIG d   1      10.082   6.452  -2.730  0.00  0.00     0.022 A 
ATOM      8  C   LIG d   1       9.875   5.609  -3.911  0.00  0.00    -0.030 A 
ATOM      9  C   LIG d   1      10.097   4.275  -3.794  0.00  0.00     0.041 A 
ATOM     10  C   LIG d   1      10.525   3.740  -2.561  0.00  0.00     0.341 A 
ATOM     11  O   LIG d   1      10.724   2.543  -2.472  0.00  0.00    -0.245 OA
ATOM     12  O   LIG d   1      10.717   4.516  -1.483  0.00  0.00    -0.422 OA
ATOM     13  C   LIG d   1      10.511   5.852  -1.528  0.00  0.00     0.146 A 
ATOM     14  C   LIG d   1      10.718   6.629  -0.401  0.00  0.00     0.035 A 
ATOM     15  H   LIG d   1       9.537   8.291  -3.708  0.00  0.00     0.063 H 
ENDROOT
BRANCH   9  16
ATOM     16  C   LIG d   1       9.892   3.369  -4.981  0.00  0.00    -0.012 C 
ATOM     17  H   LIG d   1      10.484   2.462  -4.851  0.00  0.00     0.032 H 
ATOM     18  H   LIG d   1      10.208   3.882  -5.889  0.00  0.00     0.032 H 
BRANCH  16  19
ATOM     19  C   LIG d   1       8.411   3.001  -5.092  0.00  0.00     0.028 C 
ATOM     20  H   LIG d   1       8.100   3.051  -6.135  0.00  0.00     0.036 H 
ATOM     21  H   LIG d   1       7.818   3.700  -4.501  0.00  0.00     0.036 H 
BRANCH  19  22
ATOM     22  C   LIG d   1       8.201   1.602  -4.572  0.00  0.00     0.214 C 
ATOM     23  O   LIG d   1       9.059   0.760  -4.732  0.00  0.00    -0.276 OA
ATOM     24  N   LIG d   1       7.059   1.286  -3.930  0.00  0.00    -0.310 N 
ATOM     25  H   LIG d   1       6.374   1.960  -3.798  0.00  0.00     0.149 HD
BRANCH  24  26
ATOM     26  C   LIG d   1       6.855  -0.074  -3.425  0.00  0.00     0.054 C 
ATOM     27  H   LIG d   1       7.296  -0.789  -4.119  0.00  0.00     0.053 H 
ATOM     28  H   LIG d   1       7.329  -0.175  -2.448  0.00  0.00     0.053 H 
BRANCH  26  29
ATOM     29  C   LIG d   1       5.378  -0.345  -3.296  0.00  0.00     0.058 A 
ATOM     30  N   LIG d   1       4.512   0.507  -3.807  0.00  0.00    -0.258 NA
ATOM     31  C   LIG d   1       3.210   0.308  -3.723  0.00  0.00     0.028 A 
ATOM     32  C   LIG d   1       2.706  -0.805  -3.081  0.00  0.00    -0.044 A 
ATOM     33  H   LIG d   1       2.531   1.028  -4.157  0.00  0.00     0.083 H 
ATOM     34  C   LIG d   1       3.586  -1.722  -2.526  0.00  0.00    -0.059 A 
ATOM     35  H   LIG d   1       1.639  -0.961  -3.010  0.00  0.00     0.063 H 
ATOM     36  C   LIG d   1       4.947  -1.482  -2.638  0.00  0.00    -0.039 A 
ATOM     37  H   LIG d   1       3.220  -2.602  -2.017  0.00  0.00     0.062 H 
ATOM     38  H   LIG d   1       5.661  -2.175  -2.218  0.00  0.00     0.064 H 
ENDBRANCH  26  29
ENDBRANCH  24  26
ENDBRANCH  19  22
ENDBRANCH  16  19
ENDBRANCH   9  16
BRANCH   8  39
ATOM     39  C   LIG d   1       9.425   6.207  -5.219  0.00  0.00    -0.039 C 
ATOM     40  H   LIG d   1       8.338   6.294  -5.224  0.00  0.00     0.028 H 
ATOM     41  H   LIG d   1       9.869   7.196  -5.339  0.00  0.00     0.028 H 
ATOM     42  H   LIG d   1       9.741   5.564  -6.041  0.00  0.00     0.028 H 
ENDBRANCH   8  39
BRANCH  14  43
ATOM     43  C   LIG d   1      11.177   5.987   0.882  0.00  0.00    -0.033 C 
ATOM     44  H   LIG d   1      11.915   6.626   1.365  0.00  0.00     0.028 H 
ATOM     45  H   LIG d   1      10.323   5.851   1.546  0.00  0.00     0.028 H 
ATOM     46  H   LIG d   1      11.625   5.017   0.663  0.00  0.00     0.028 H 
ENDBRANCH  14  43
BRANCH   1  47
ATOM     47  C   LIG d   1       9.527  11.122  -2.303  0.00  0.00    -0.036 C 
ATOM     48  H   LIG d   1      10.124  11.067  -3.213  0.00  0.00     0.028 H 
ATOM     49  H   LIG d   1       8.474  10.996  -2.550  0.00  0.00     0.028 H 
ATOM     50  H   LIG d   1       9.675  12.094  -1.830  0.00  0.00     0.028 H 
ENDBRANCH   1  47
BRANCH   2  51
ATOM     51  C   LIG d   1      10.321  11.485   0.677  0.00  0.00    -0.006 C 
ATOM     52  H   LIG d   1      11.062  12.146   0.228  0.00  0.00     0.031 H 
ATOM     53  H   LIG d   1       9.338  11.952   0.620  0.00  0.00     0.031 H 
ATOM     54  H   LIG d   1      10.579  11.305   1.721  0.00  0.00     0.031 H 
ENDBRANCH   2  51
TORSDOF 9
ENDMDL
MODEL 2
REMARK VINA RESULT:      -7.4      6.256     10.229
REMARK  9 active torsions:
REMARK  status: ('A' for Active; 'I' for Inactive)
REMARK    1  A    between atoms: C_1  and  C_2 
REMARK    2  A    between atoms: C_3  and  C_30 
REMARK    3  A    between atoms: C_9  and  C_29 
REMARK    4  A    between atoms: C_10  and  C_17 
REMARK    5  A    between atoms: C_15  and  C_16 
REMARK    6  A    between atoms: C_17  and  C_18 
REMARK    7  A    between atoms: C_18  and  C_19 
REMARK       I    between atoms: C_19  and  N_21 
REMARK    8  A    between atoms: N_21  and  C_22 
REMARK    9  A    between atoms: C_22  and  C_23 
ROOT
ATOM      1  C   LIG d   1       4.115   0.340 -10.138  0.00  0.00    -0.002 A 
ATOM      2  C   LIG d   1       4.636  -0.585 -10.956  0.00  0.00     0.106 A 
ATOM      3  O   LIG d   1       4.958  -1.690 -10.262  0.00  0.00    -0.459 OA
ATOM      4  C   LIG d   1       4.665  -1.543  -8.954  0.00  0.00     0.142 A 
ATOM      5  C   LIG d   1       4.116  -0.254  -8.795  0.00  0.00     0.024 A 
ATOM      6  C   LIG d   1       3.713   0.190  -7.543  0.00  0.00    -0.040 A 
ATOM      7  C   LIG d   1       3.856  -0.654  -6.441  0.00  0.00     0.022 A 
ATOM      8  C   LIG d   1       3.436  -0.220  -5.105  0.00  0.00    -0.030 A 
ATOM      9  C   LIG d   1       3.604  -1.080  -4.069  0.00  0.00     0.041 A 
ATOM     10  C   LIG d   1       4.161  -2.356  -4.299  0.00  0.00     0.341 A 
ATOM     11  O   LIG d   1       4.301  -3.119  -3.361  0.00  0.00    -0.245 OA
ATOM     12  O   LIG d   1       4.540  -2.751  -5.524  0.00  0.00    -0.422 OA
ATOM     13  C   LIG d   1       4.406  -1.942  -6.600  0.00  0.00     0.146 A 
ATOM     14  C   LIG d   1       4.805  -2.375  -7.853  0.00  0.00     0.035 A 
ATOM     15  H   LIG d   1       3.293   1.176  -7.424  0.00  0.00     0.063 H 
ENDROOT
BRANCH   9  16
ATOM     16  C   LIG d   1       3.190  -0.676  -2.677  0.00  0.00    -0.012 C 
ATOM     17  H   LIG d   1       2.539  -1.442  -2.255  0.00  0.00     0.032 H 
ATOM     18  H   LIG d   1       2.656   0.273  -2.718  0.00  0.00     0.032 H 
BRANCH  16  19
ATOM     19  C   LIG d   1       4.435  -0.523  -1.800  0.00  0.00     0.028 C 
ATOM     20  H   LIG d   1       4.911  -1.494  -1.672  0.00  0.00     0.036 H 
ATOM     21  H   LIG d   1       4.146  -0.127  -0.826  0.00  0.00     0.036 H 
BRANCH  19  22
ATOM     22  C   LIG d   1       5.400   0.427  -2.461  0.00  0.00     0.214 C 
ATOM     23  O   LIG d   1       5.213   1.624  -2.399  0.00  0.00    -0.276 OA
ATOM     24  N   LIG d   1       6.472  -0.054  -3.122  0.00  0.00    -0.310 N 
ATOM     25  H   LIG d   1       6.625  -1.011  -3.169  0.00  0.00     0.149 HD
BRANCH  24  26
ATOM     26  C   LIG d   1       7.411   0.869  -3.766  0.00  0.00     0.054 C 
ATOM     27  H   LIG d   1       7.042   1.890  -3.666  0.00  0.00     0.053 H 
ATOM     28  H   LIG d   1       8.387   0.787  -3.288  0.00  0.00     0.053 H 
BRANCH  26  29
ATOM     29  C   LIG d   1       7.536   0.522  -5.226  0.00  0.00     0.058 A 
ATOM     30  N   LIG d   1       7.313   1.448  -6.138  0.00  0.00    -0.258 NA
ATOM     31  C   LIG d   1       7.416   1.191  -7.428  0.00  0.00     0.028 A 
ATOM     32  C   LIG d   1       7.753  -0.073  -7.872  0.00  0.00    -0.044 A 
ATOM     33  H   LIG d   1       7.230   1.977  -8.145  0.00  0.00     0.083 H 
ATOM     34  C   LIG d   1       7.990  -1.075  -6.943  0.00  0.00    -0.059 A 
ATOM     35  H   LIG d   1       7.831  -0.279  -8.929  0.00  0.00     0.063 H 
ATOM     36  C   LIG d   1       7.877  -0.766  -5.596  0.00  0.00    -0.039 A 
ATOM     37  H   LIG d   1       8.255  -2.073  -7.260  0.00  0.00     0.062 H 
ATOM     38  H   LIG d   1       8.054  -1.521  -4.844  0.00  0.00     0.064 H 
ENDBRANCH  26  29
ENDBRANCH  24  26
ENDBRANCH  19  22
ENDBRANCH  16  19
ENDBRANCH   9  16
BRANCH   8  39
ATOM     39  C   LIG d   1       2.836   1.145  -4.888  0.00  0.00    -0.039 C 
ATOM     40  H   LIG d   1       3.186   1.549  -3.938  0.00  0.00     0.028 H 
ATOM     41  H   LIG d   1       3.140   1.809  -5.698  0.00  0.00     0.028 H 
ATOM     42  H   LIG d   1       1.749   1.067  -4.872  0.00  0.00     0.028 H 
ENDBRANCH   8  39
BRANCH  14  43
ATOM     43  C   LIG d   1       5.391  -3.753  -8.021  0.00  0.00    -0.033 C 
ATOM     44  H   LIG d   1       5.379  -4.272  -7.064  0.00  0.00     0.028 H 
ATOM     45  H   LIG d   1       4.800  -4.314  -8.747  0.00  0.00     0.028 H 
ATOM     46  H   LIG d   1       6.419  -3.670  -8.377  0.00  0.00     0.028 H 
ENDBRANCH  14  43
BRANCH   1  47
ATOM     47  C   LIG d   1       3.628   1.714 -10.521  0.00  0.00    -0.036 C 
ATOM     48  H   LIG d   1       4.088   2.457  -9.870  0.00  0.00     0.028 H 
ATOM     49  H   LIG d   1       3.898   1.919 -11.556  0.00  0.00     0.028 H 
ATOM     50  H   LIG d   1       2.544   1.758 -10.412  0.00  0.00     0.028 H 
ENDBRANCH   1  47
BRANCH   2  51
ATOM     51  C   LIG d   1       4.831  -0.411 -12.440  0.00  0.00    -0.006 C 
ATOM     52  H   LIG d   1       5.816   0.014 -12.629  0.00  0.00     0.031 H 
ATOM     53  H   LIG d   1       4.753  -1.380 -12.933  0.00  0.00     0.031 H 
ATOM     54  H   LIG d   1       4.064   0.258 -12.830  0.00  0.00     0.031 H 
ENDBRANCH   2  51
TORSDOF 9
ENDMDL
MODEL 3
REMARK VINA RESULT:      -7.2      1.623      2.785
REMARK  9 active torsions:
REMARK  status: ('A' for Active; 'I' for Inactive)
REMARK    1  A    between atoms: C_1  and  C_2 
REMARK    2  A    between atoms: C_3  and  C_30 
REMARK    3  A    between atoms: C_9  and  C_29 
REMARK    4  A    between atoms: C_10  and  C_17 
REMARK    5  A    between atoms: C_15  and  C_16 
REMARK    6  A    between atoms: C_17  and  C_18 
REMARK    7  A    between atoms: C_18  and  C_19 
REMARK       I    between atoms: C_19  and  N_21 
REMARK    8  A    between atoms: N_21  and  C_22 
REMARK    9  A    between atoms: C_22  and  C_23 
ROOT
ATOM      1  C   LIG d   1      10.864   6.950  -0.048  0.00  0.00    -0.002 A 
ATOM      2  C   LIG d   1      10.860   8.287  -0.117  0.00  0.00     0.106 A 
ATOM      3  O   LIG d   1      10.638   8.687  -1.381  0.00  0.00    -0.459 OA
ATOM      4  C   LIG d   1      10.488   7.629  -2.203  0.00  0.00     0.142 A 
ATOM      5  C   LIG d   1      10.621   6.468  -1.414  0.00  0.00     0.024 A 
ATOM      6  C   LIG d   1      10.514   5.210  -1.990  0.00  0.00    -0.040 A 
ATOM      7  C   LIG d   1      10.271   5.104  -3.360  0.00  0.00     0.022 A 
ATOM      8  C   LIG d   1      10.146   3.791  -3.999  0.00  0.00    -0.030 A 
ATOM      9  C   LIG d   1       9.915   3.748  -5.336  0.00  0.00     0.041 A 
ATOM     10  C   LIG d   1       9.792   4.949  -6.066  0.00  0.00     0.341 A 
ATOM     11  O   LIG d   1       9.581   4.895  -7.264  0.00  0.00    -0.245 OA
ATOM     12  O   LIG d   1       9.904   6.149  -5.476  0.00  0.00    -0.422 OA
ATOM     13  C   LIG d   1      10.138   6.264  -4.149  0.00  0.00     0.146 A 
ATOM     14  C   LIG d   1      10.247   7.515  -3.565  0.00  0.00     0.035 A 
ATOM     15  H   LIG d   1      10.616   4.323  -1.383  0.00  0.00     0.063 H 
ENDROOT
BRANCH   9  16
ATOM     16  C   LIG d   1       9.783   2.420  -6.037  0.00  0.00    -0.012 C 
ATOM     17  H   LIG d   1      10.318   1.657  -5.473  0.00  0.00     0.032 H 
ATOM     18  H   LIG d   1      10.205   2.495  -7.039  0.00  0.00     0.032 H 
BRANCH  16  19
ATOM     19  C   LIG d   1       8.303   2.041  -6.135  0.00  0.00     0.028 C 
ATOM     20  H   LIG d   1       8.071   1.742  -7.157  0.00  0.00     0.036 H 
ATOM     21  H   LIG d   1       7.690   2.898  -5.858  0.00  0.00     0.036 H 
BRANCH  19  22
ATOM     22  C   LIG d   1       8.016   0.895  -5.198  0.00  0.00     0.214 C 
ATOM     23  O   LIG d   1       8.658  -0.131  -5.280  0.00  0.00    -0.276 OA
ATOM     24  N   LIG d   1       7.046   1.011  -4.270  0.00  0.00    -0.310 N 
ATOM     25  H   LIG d   1       6.535   1.833  -4.202  0.00  0.00     0.149 HD
BRANCH  24  26
ATOM     26  C   LIG d   1       6.767  -0.103  -3.360  0.00  0.00     0.054 C 
ATOM     27  H   LIG d   1       7.265  -1.002  -3.722  0.00  0.00     0.053 H 
ATOM     28  H   LIG d   1       7.135   0.141  -2.363  0.00  0.00     0.053 H 
BRANCH  26  29
ATOM     29  C   LIG d   1       5.280  -0.342  -3.301  0.00  0.00     0.058 A 
ATOM     30  N   LIG d   1       4.461   0.494  -3.906  0.00  0.00    -0.258 NA
ATOM     31  C   LIG d   1       3.153   0.322  -3.886  0.00  0.00     0.028 A 
ATOM     32  C   LIG d   1       2.592  -0.747  -3.214  0.00  0.00    -0.044 A 
ATOM     33  H   LIG d   1       2.514   1.027  -4.397  0.00  0.00     0.083 H 
ATOM     34  C   LIG d   1       3.421  -1.645  -2.561  0.00  0.00    -0.059 A 
ATOM     35  H   LIG d   1       1.520  -0.880  -3.196  0.00  0.00     0.063 H 
ATOM     36  C   LIG d   1       4.791  -1.434  -2.608  0.00  0.00    -0.039 A 
ATOM     37  H   LIG d   1       3.011  -2.490  -2.027  0.00  0.00     0.062 H 
ATOM     38  H   LIG d   1       5.467  -2.114  -2.111  0.00  0.00     0.064 H 
ENDBRANCH  26  29
ENDBRANCH  24  26
ENDBRANCH  19  22
ENDBRANCH  16  19
ENDBRANCH   9  16
BRANCH   8  39
ATOM     39  C   LIG d   1      10.273   2.523  -3.195  0.00  0.00    -0.039 C 
ATOM     40  H   LIG d   1       9.930   1.678  -3.792  0.00  0.00     0.028 H 
ATOM     41  H   LIG d   1      11.316   2.372  -2.916  0.00  0.00     0.028 H 
ATOM     42  H   LIG d   1       9.665   2.601  -2.293  0.00  0.00     0.028 H 
ENDBRANCH   8  39
BRANCH  14  43
ATOM     43  C   LIG d   1      10.104   8.755  -4.410  0.00  0.00    -0.033 C 
ATOM     44  H   LIG d   1       9.369   8.577  -5.194  0.00  0.00     0.028 H 
ATOM     45  H   LIG d   1       9.775   9.585  -3.784  0.00  0.00     0.028 H 
ATOM     46  H   LIG d   1      11.066   9.000  -4.862  0.00  0.00     0.028 H 
ENDBRANCH  14  43
BRANCH   1  47
ATOM     47  C   LIG d   1      11.077   6.108   1.184  0.00  0.00    -0.036 C 
ATOM     48  H   LIG d   1      10.162   6.092   1.775  0.00  0.00     0.028 H 
ATOM     49  H   LIG d   1      11.338   5.092   0.889  0.00  0.00     0.028 H 
ATOM     50  H   LIG d   1      11.886   6.533   1.780  0.00  0.00     0.028 H 
ENDBRANCH   1  47
BRANCH   2  51
ATOM     51  C   LIG d   1      11.071   9.211   1.055  0.00  0.00    -0.006 C 
ATOM     52  H   LIG d   1      12.101   9.128   1.401  0.00  0.00     0.031 H 
ATOM     53  H   LIG d   1      10.873  10.238   0.749  0.00  0.00     0.031 H 
ATOM     54  H   LIG d   1      10.393   8.934   1.862  0.00  0.00     0.031 H 
ENDBRANCH   2  51
TORSDOF 9
ENDMDL
MODEL 4
REMARK VINA RESULT:      -7.2      4.061      6.962
REMARK  9 active torsions:
REMARK  status: ('A' for Active; 'I' for Inactive)
REMARK    1  A    between atoms: C_1  and  C_2 
REMARK    2  A    between atoms: C_3  and  C_30 
REMARK    3  A    between atoms: C_9  and  C_29 
REMARK    4  A    between atoms: C_10  and  C_17 
REMARK    5  A    between atoms: C_15  and  C_16 
REMARK    6  A    between atoms: C_17  and  C_18 
REMARK    7  A    between atoms: C_18  and  C_19 
REMARK       I    between atoms: C_19  and  N_21 
REMARK    8  A    between atoms: N_21  and  C_22 
REMARK    9  A    between atoms: C_22  and  C_23 
ROOT
ATOM      1  C   LIG d   1       9.688   4.002  -5.122  0.00  0.00    -0.002 A 
ATOM      2  C   LIG d   1      10.795   3.793  -5.847  0.00  0.00     0.106 A 
ATOM      3  O   LIG d   1      10.965   2.478  -6.066  0.00  0.00    -0.459 OA
ATOM      4  C   LIG d   1       9.978   1.760  -5.493  0.00  0.00     0.142 A 
ATOM      5  C   LIG d   1       9.112   2.676  -4.862  0.00  0.00     0.024 A 
ATOM      6  C   LIG d   1       7.989   2.228  -4.180  0.00  0.00    -0.040 A 
ATOM      7  C   LIG d   1       7.725   0.860  -4.125  0.00  0.00     0.022 A 
ATOM      8  C   LIG d   1       6.545   0.352  -3.419  0.00  0.00    -0.030 A 
ATOM      9  C   LIG d   1       6.340  -0.989  -3.393  0.00  0.00     0.041 A 
ATOM     10  C   LIG d   1       7.248  -1.850  -4.046  0.00  0.00     0.341 A 
ATOM     11  O   LIG d   1       7.049  -3.051  -4.019  0.00  0.00    -0.245 OA
ATOM     12  O   LIG d   1       8.324  -1.381  -4.695  0.00  0.00    -0.422 OA
ATOM     13  C   LIG d   1       8.591  -0.057  -4.756  0.00  0.00     0.146 A 
ATOM     14  C   LIG d   1       9.708   0.401  -5.434  0.00  0.00     0.035 A 
ATOM     15  H   LIG d   1       7.328   2.932  -3.698  0.00  0.00     0.063 H 
ENDROOT
BRANCH   9  16
ATOM     16  C   LIG d   1       5.143  -1.557  -2.676  0.00  0.00    -0.012 C 
ATOM     17  H   LIG d   1       4.642  -0.764  -2.121  0.00  0.00     0.032 H 
ATOM     18  H   LIG d   1       5.468  -2.335  -1.985  0.00  0.00     0.032 H 
BRANCH  16  19
ATOM     19  C   LIG d   1       4.173  -2.157  -3.697  0.00  0.00     0.028 C 
ATOM     20  H   LIG d   1       3.513  -2.866  -3.200  0.00  0.00     0.036 H 
ATOM     21  H   LIG d   1       4.739  -2.670  -4.476  0.00  0.00     0.036 H 
BRANCH  19  22
ATOM     22  C   LIG d   1       3.353  -1.055  -4.317  0.00  0.00     0.214 C 
ATOM     23  O   LIG d   1       2.548  -0.445  -3.644  0.00  0.00    -0.276 OA
ATOM     24  N   LIG d   1       3.513  -0.746  -5.619  0.00  0.00    -0.310 N 
ATOM     25  H   LIG d   1       4.159  -1.231  -6.157  0.00  0.00     0.149 HD
BRANCH  24  26
ATOM     26  C   LIG d   1       2.716   0.325  -6.222  0.00  0.00     0.054 C 
ATOM     27  H   LIG d   1       1.752  -0.074  -6.538  0.00  0.00     0.053 H 
ATOM     28  H   LIG d   1       2.559   1.117  -5.490  0.00  0.00     0.053 H 
BRANCH  26  29
ATOM     29  C   LIG d   1       3.444   0.882  -7.417  0.00  0.00     0.058 A 
ATOM     30  N   LIG d   1       4.703   0.549  -7.627  0.00  0.00    -0.258 NA
ATOM     31  C   LIG d   1       5.379   1.008  -8.662  0.00  0.00     0.028 A 
ATOM     32  C   LIG d   1       4.789   1.870  -9.565  0.00  0.00    -0.044 A 
ATOM     33  H   LIG d   1       6.408   0.710  -8.803  0.00  0.00     0.083 H 
ATOM     34  C   LIG d   1       3.468   2.248  -9.376  0.00  0.00    -0.059 A 
ATOM     35  H   LIG d   1       5.348   2.247 -10.409  0.00  0.00     0.063 H 
ATOM     36  C   LIG d   1       2.788   1.741  -8.278  0.00  0.00    -0.039 A 
ATOM     37  H   LIG d   1       2.980   2.921 -10.065  0.00  0.00     0.062 H 
ATOM     38  H   LIG d   1       1.758   2.013  -8.099  0.00  0.00     0.064 H 
ENDBRANCH  26  29
ENDBRANCH  24  26
ENDBRANCH  19  22
ENDBRANCH  16  19
ENDBRANCH   9  16
BRANCH   8  39
ATOM     39  C   LIG d   1       5.587   1.294  -2.736  0.00  0.00    -0.039 C 
ATOM     40  H   LIG d   1       4.784   1.558  -3.425  0.00  0.00     0.028 H 
ATOM     41  H   LIG d   1       5.166   0.810  -1.855  0.00  0.00     0.028 H 
ATOM     42  H   LIG d   1       6.118   2.198  -2.436  0.00  0.00     0.028 H 
ENDBRANCH   8  39
BRANCH  14  43
ATOM     43  C   LIG d   1      10.633  -0.580  -6.108  0.00  0.00    -0.033 C 
ATOM     44  H   LIG d   1      10.119  -1.531  -6.241  0.00  0.00     0.028 H 
ATOM     45  H   LIG d   1      10.931  -0.189  -7.081  0.00  0.00     0.028 H 
ATOM     46  H   LIG d   1      11.519  -0.729  -5.490  0.00  0.00     0.028 H 
ENDBRANCH  14  43
BRANCH   1  47
ATOM     47  C   LIG d   1       9.145   5.331  -4.664  0.00  0.00    -0.036 C 
ATOM     48  H   LIG d   1       9.862   5.806  -3.994  0.00  0.00     0.028 H 
ATOM     49  H   LIG d   1       8.976   5.972  -5.529  0.00  0.00     0.028 H 
ATOM     50  H   LIG d   1       8.203   5.177  -4.137  0.00  0.00     0.028 H 
ENDBRANCH   1  47
BRANCH   2  51
ATOM     51  C   LIG d   1      11.715   4.877  -6.347  0.00  0.00    -0.006 C 
ATOM     52  H   LIG d   1      12.705   4.743  -5.911  0.00  0.00     0.031 H 
ATOM     53  H   LIG d   1      11.787   4.821  -7.433  0.00  0.00     0.031 H 
ATOM     54  H   LIG d   1      11.319   5.850  -6.058  0.00  0.00     0.031 H 
ENDBRANCH   2  51
TORSDOF 9
ENDMDL
MODEL 5
REMARK VINA RESULT:      -7.2      1.632      2.219
REMARK  9 active torsions:
REMARK  status: ('A' for Active; 'I' for Inactive)
REMARK    1  A    between atoms: C_1  and  C_2 
REMARK    2  A    between atoms: C_3  and  C_30 
REMARK    3  A    between atoms: C_9  and  C_29 
REMARK    4  A    between atoms: C_10  and  C_17 
REMARK    5  A    between atoms: C_15  and  C_16 
REMARK    6  A    between atoms: C_17  and  C_18 
REMARK    7  A    between atoms: C_18  and  C_19 
REMARK       I    between atoms: C_19  and  N_21 
REMARK    8  A    between atoms: N_21  and  C_22 
REMARK    9  A    between atoms: C_22  and  C_23 
ROOT
ATOM      1  C   LIG d   1       9.907   9.846  -4.955  0.00  0.00    -0.002 A 
ATOM      2  C   LIG d   1       9.945  10.445  -3.758  0.00  0.00     0.106 A 
ATOM      3  O   LIG d   1       9.939   9.526  -2.778  0.00  0.00    -0.459 OA
ATOM      4  C   LIG d   1       9.896   8.278  -3.286  0.00  0.00     0.142 A 
ATOM      5  C   LIG d   1       9.874   8.402  -4.690  0.00  0.00     0.024 A 
ATOM      6  C   LIG d   1       9.827   7.273  -5.496  0.00  0.00    -0.040 A 
ATOM      7  C   LIG d   1       9.806   6.011  -4.903  0.00  0.00     0.022 A 
ATOM      8  C   LIG d   1       9.764   4.797  -5.723  0.00  0.00    -0.030 A 
ATOM      9  C   LIG d   1       9.739   3.596  -5.092  0.00  0.00     0.041 A 
ATOM     10  C   LIG d   1       9.764   3.544  -3.682  0.00  0.00     0.341 A 
ATOM     11  O   LIG d   1       9.746   2.459  -3.129  0.00  0.00    -0.245 OA
ATOM     12  O   LIG d   1       9.807   4.657  -2.935  0.00  0.00    -0.422 OA
ATOM     13  C   LIG d   1       9.829   5.886  -3.498  0.00  0.00     0.146 A 
ATOM     14  C   LIG d   1       9.874   7.019  -2.703  0.00  0.00     0.035 A 
ATOM     15  H   LIG d   1       9.810   7.371  -6.571  0.00  0.00     0.063 H 
ENDROOT
BRANCH   9  16
ATOM     16  C   LIG d   1       9.692   2.321  -5.895  0.00  0.00    -0.012 C 
ATOM     17  H   LIG d   1      10.198   1.527  -5.345  0.00  0.00     0.032 H 
ATOM     18  H   LIG d   1      10.189   2.476  -6.852  0.00  0.00     0.032 H 
BRANCH  16  19
ATOM     19  C   LIG d   1       8.233   1.926  -6.136  0.00  0.00     0.028 C 
ATOM     20  H   LIG d   1       8.090   1.689  -7.190  0.00  0.00     0.036 H 
ATOM     21  H   LIG d   1       7.582   2.754  -5.857  0.00  0.00     0.036 H 
BRANCH  19  22
ATOM     22  C   LIG d   1       7.896   0.718  -5.299  0.00  0.00     0.214 C 
ATOM     23  O   LIG d   1       8.212  -0.390  -5.677  0.00  0.00    -0.276 OA
ATOM     24  N   LIG d   1       7.241   0.870  -4.131  0.00  0.00    -0.310 N 
ATOM     25  H   LIG d   1       6.990   1.757  -3.827  0.00  0.00     0.149 HD
BRANCH  24  26
ATOM     26  C   LIG d   1       6.912  -0.303  -3.318  0.00  0.00     0.054 C 
ATOM     27  H   LIG d   1       7.350  -1.193  -3.769  0.00  0.00     0.053 H 
ATOM     28  H   LIG d   1       7.311  -0.172  -2.312  0.00  0.00     0.053 H 
BRANCH  26  29
ATOM     29  C   LIG d   1       5.416  -0.462  -3.246  0.00  0.00     0.058 A 
ATOM     30  N   LIG d   1       4.636   0.460  -3.776  0.00  0.00    -0.258 NA
ATOM     31  C   LIG d   1       3.321   0.361  -3.742  0.00  0.00     0.028 A 
ATOM     32  C   LIG d   1       2.710  -0.719  -3.135  0.00  0.00    -0.044 A 
ATOM     33  H   LIG d   1       2.716   1.135  -4.190  0.00  0.00     0.083 H 
ATOM     34  C   LIG d   1       3.496  -1.707  -2.563  0.00  0.00    -0.059 A 
ATOM     35  H   LIG d   1       1.632  -0.793  -3.106  0.00  0.00     0.063 H 
ATOM     36  C   LIG d   1       4.875  -1.570  -2.622  0.00  0.00    -0.039 A 
ATOM     37  H   LIG d   1       3.046  -2.562  -2.081  0.00  0.00     0.062 H 
ATOM     38  H   LIG d   1       5.518  -2.321  -2.186  0.00  0.00     0.064 H 
ENDBRANCH  26  29
ENDBRANCH  24  26
ENDBRANCH  19  22
ENDBRANCH  16  19
ENDBRANCH   9  16
BRANCH   8  39
ATOM     39  C   LIG d   1       9.746   4.881  -7.228  0.00  0.00    -0.039 C 
ATOM     40  H   LIG d   1      10.615   4.360  -7.631  0.00  0.00     0.028 H 
ATOM     41  H   LIG d   1       8.835   4.417  -7.607  0.00  0.00     0.028 H 
ATOM     42  H   LIG d   1       9.775   5.927  -7.534  0.00  0.00     0.028 H 
ENDBRANCH   8  39
BRANCH  14  43
ATOM     43  C   LIG d   1       9.899   6.884  -1.203  0.00  0.00    -0.033 C 
ATOM     44  H   LIG d   1       9.829   5.831  -0.931  0.00  0.00     0.028 H 
ATOM     45  H   LIG d   1      10.831   7.298  -0.816  0.00  0.00     0.028 H 
ATOM     46  H   LIG d   1       9.056   7.426  -0.775  0.00  0.00     0.028 H 
ENDBRANCH  14  43
BRANCH   1  47
ATOM     47  C   LIG d   1       9.900  10.520  -6.304  0.00  0.00    -0.036 C 
ATOM     48  H   LIG d   1       9.380   9.887  -7.023  0.00  0.00     0.028 H 
ATOM     49  H   LIG d   1       9.390  11.479  -6.228  0.00  0.00     0.028 H 
ATOM     50  H   LIG d   1      10.927  10.679  -6.636  0.00  0.00     0.028 H 
ENDBRANCH   1  47
BRANCH   2  51
ATOM     51  C   LIG d   1       9.989  11.936  -3.542  0.00  0.00    -0.006 C 
ATOM     52  H   LIG d   1       9.489  12.438  -4.370  0.00  0.00     0.031 H 
ATOM     53  H   LIG d   1       9.483  12.184  -2.609  0.00  0.00     0.031 H 
ATOM     54  H   LIG d   1      11.027  12.265  -3.491  0.00  0.00     0.031 H 
ENDBRANCH   2  51
TORSDOF 9
ENDMDL
MODEL 6
REMARK VINA RESULT:      -6.9      6.628     10.546
REMARK  9 active torsions:
REMARK  status: ('A' for Active; 'I' for Inactive)
REMARK    1  A    between atoms: C_1  and  C_2 
REMARK    2  A    between atoms: C_3  and  C_30 
REMARK    3  A    between atoms: C_9  and  C_29 
REMARK    4  A    between atoms: C_10  and  C_17 
REMARK    5  A    between atoms: C_15  and  C_16 
REMARK    6  A    between atoms: C_17  and  C_18 
REMARK    7  A    between atoms: C_18  and  C_19 
REMARK       I    between atoms: C_19  and  N_21 
REMARK    8  A    between atoms: N_21  and  C_22 
REMARK    9  A    between atoms: C_22  and  C_23 
ROOT
ATOM      1  C   LIG d   1       4.563  -1.580 -10.789  0.00  0.00    -0.002 A 
ATOM      2  C   LIG d   1       4.161  -0.547 -11.541  0.00  0.00     0.106 A 
ATOM      3  O   LIG d   1       3.662   0.429 -10.761  0.00  0.00    -0.459 OA
ATOM      4  C   LIG d   1       3.713   0.081  -9.460  0.00  0.00     0.142 A 
ATOM      5  C   LIG d   1       4.284  -1.207  -9.396  0.00  0.00     0.024 A 
ATOM      6  C   LIG d   1       4.466  -1.837  -8.173  0.00  0.00    -0.040 A 
ATOM      7  C   LIG d   1       4.080  -1.181  -7.003  0.00  0.00     0.022 A 
ATOM      8  C   LIG d   1       4.265  -1.814  -5.694  0.00  0.00    -0.030 A 
ATOM      9  C   LIG d   1       3.866  -1.132  -4.590  0.00  0.00     0.041 A 
ATOM     10  C   LIG d   1       3.302   0.154  -4.726  0.00  0.00     0.341 A 
ATOM     11  O   LIG d   1       2.953   0.756  -3.726  0.00  0.00    -0.245 OA
ATOM     12  O   LIG d   1       3.139   0.731  -5.926  0.00  0.00    -0.422 OA
ATOM     13  C   LIG d   1       3.510   0.106  -7.067  0.00  0.00     0.146 A 
ATOM     14  C   LIG d   1       3.331   0.726  -8.292  0.00  0.00     0.035 A 
ATOM     15  H   LIG d   1       4.904  -2.822  -8.127  0.00  0.00     0.063 H 
ENDROOT
BRANCH   9  16
ATOM     16  C   LIG d   1       4.031  -1.745  -3.223  0.00  0.00    -0.012 C 
ATOM     17  H   LIG d   1       4.435  -2.752  -3.323  0.00  0.00     0.032 H 
ATOM     18  H   LIG d   1       3.064  -1.788  -2.725  0.00  0.00     0.032 H 
BRANCH  16  19
ATOM     19  C   LIG d   1       4.993  -0.889  -2.395  0.00  0.00     0.028 C 
ATOM     20  H   LIG d   1       5.122  -1.337  -1.410  0.00  0.00     0.036 H 
ATOM     21  H   LIG d   1       4.584   0.115  -2.287  0.00  0.00     0.036 H 
BRANCH  19  22
ATOM     22  C   LIG d   1       6.327  -0.816  -3.093  0.00  0.00     0.214 C 
ATOM     23  O   LIG d   1       7.043  -1.794  -3.139  0.00  0.00    -0.276 OA
ATOM     24  N   LIG d   1       6.725   0.338  -3.665  0.00  0.00    -0.310 N 
ATOM     25  H   LIG d   1       6.152   1.120  -3.631  0.00  0.00     0.149 HD
BRANCH  24  26
ATOM     26  C   LIG d   1       8.022   0.410  -4.343  0.00  0.00     0.054 C 
ATOM     27  H   LIG d   1       8.509   1.353  -4.095  0.00  0.00     0.053 H 
ATOM     28  H   LIG d   1       8.649  -0.420  -4.017  0.00  0.00     0.053 H 
BRANCH  26  29
ATOM     29  C   LIG d   1       7.815   0.329  -5.833  0.00  0.00     0.058 A 
ATOM     30  N   LIG d   1       7.359   1.379  -6.486  0.00  0.00    -0.258 NA
ATOM     31  C   LIG d   1       7.167   1.355  -7.791  0.00  0.00     0.028 A 
ATOM     32  C   LIG d   1       7.431   0.215  -8.523  0.00  0.00    -0.044 A 
ATOM     33  H   LIG d   1       6.796   2.238  -8.292  0.00  0.00     0.083 H 
ATOM     34  C   LIG d   1       7.907  -0.912  -7.871  0.00  0.00    -0.059 A 
ATOM     35  H   LIG d   1       7.267   0.199  -9.591  0.00  0.00     0.063 H 
ATOM     36  C   LIG d   1       8.100  -0.848  -6.499  0.00  0.00    -0.039 A 
ATOM     37  H   LIG d   1       8.121  -1.819  -8.417  0.00  0.00     0.062 H 
ATOM     38  H   LIG d   1       8.470  -1.707  -5.958  0.00  0.00     0.064 H 
ENDBRANCH  26  29
ENDBRANCH  24  26
ENDBRANCH  19  22
ENDBRANCH  16  19
ENDBRANCH   9  16
BRANCH   8  39
ATOM     39  C   LIG d   1       4.877  -3.186  -5.577  0.00  0.00    -0.039 C 
ATOM     40  H   LIG d   1       5.502  -3.380  -6.449  0.00  0.00     0.028 H 
ATOM     41  H   LIG d   1       5.486  -3.237  -4.674  0.00  0.00     0.028 H 
ATOM     42  H   LIG d   1       4.086  -3.934  -5.524  0.00  0.00     0.028 H 
ENDBRANCH   8  39
BRANCH  14  43
ATOM     43  C   LIG d   1       2.722   2.102  -8.358  0.00  0.00    -0.033 C 
ATOM     44  H   LIG d   1       2.307   2.269  -9.351  0.00  0.00     0.028 H 
ATOM     45  H   LIG d   1       1.929   2.185  -7.613  0.00  0.00     0.028 H 
ATOM     46  H   LIG d   1       3.490   2.850  -8.155  0.00  0.00     0.028 H 
ENDBRANCH  14  43
BRANCH   1  47
ATOM     47  C   LIG d   1       5.178  -2.867 -11.276  0.00  0.00    -0.036 C 
ATOM     48  H   LIG d   1       6.144  -3.013 -10.795  0.00  0.00     0.028 H 
ATOM     49  H   LIG d   1       4.520  -3.700 -11.030  0.00  0.00     0.028 H 
ATOM     50  H   LIG d   1       5.314  -2.819 -12.357  0.00  0.00     0.028 H 
ENDBRANCH   1  47
BRANCH   2  51
ATOM     51  C   LIG d   1       4.255  -0.486 -13.043  0.00  0.00    -0.006 C 
ATOM     52  H   LIG d   1       4.719   0.454 -13.341  0.00  0.00     0.031 H 
ATOM     53  H   LIG d   1       4.860  -1.318 -13.403  0.00  0.00     0.031 H 
ATOM     54  H   LIG d   1       3.255  -0.550 -13.473  0.00  0.00     0.031 H 
ENDBRANCH   2  51
TORSDOF 9
ENDMDL
MODEL 7
REMARK VINA RESULT:      -6.9      8.112     13.959
REMARK  9 active torsions:
REMARK  status: ('A' for Active; 'I' for Inactive)
REMARK    1  A    between atoms: C_1  and  C_2 
REMARK    2  A    between atoms: C_3  and  C_30 
REMARK    3  A    between atoms: C_9  and  C_29 
REMARK    4  A    between atoms: C_10  and  C_17 
REMARK    5  A    between atoms: C_15  and  C_16 
REMARK    6  A    between atoms: C_17  and  C_18 
REMARK    7  A    between atoms: C_18  and  C_19 
REMARK       I    between atoms: C_19  and  N_21 
REMARK    8  A    between atoms: N_21  and  C_22 
REMARK    9  A    between atoms: C_22  and  C_23 
ROOT
ATOM      1  C   LIG d   1      10.242  -9.734  -0.558  0.00  0.00    -0.002 A 
ATOM      2  C   LIG d   1       9.926 -10.748   0.258  0.00  0.00     0.106 A 
ATOM      3  O   LIG d   1       8.715 -11.238  -0.059  0.00  0.00    -0.459 OA
ATOM      4  C   LIG d   1       8.178 -10.568  -1.098  0.00  0.00     0.142 A 
ATOM      5  C   LIG d   1       9.107  -9.578  -1.478  0.00  0.00     0.024 A 
ATOM      6  C   LIG d   1       8.830  -8.719  -2.532  0.00  0.00    -0.040 A 
ATOM      7  C   LIG d   1       7.621  -8.847  -3.217  0.00  0.00     0.022 A 
ATOM      8  C   LIG d   1       7.299  -7.962  -4.340  0.00  0.00    -0.030 A 
ATOM      9  C   LIG d   1       6.106  -8.128  -4.965  0.00  0.00     0.041 A 
ATOM     10  C   LIG d   1       5.222  -9.139  -4.534  0.00  0.00     0.341 A 
ATOM     11  O   LIG d   1       4.157  -9.279  -5.107  0.00  0.00    -0.245 OA
ATOM     12  O   LIG d   1       5.523  -9.950  -3.508  0.00  0.00    -0.422 OA
ATOM     13  C   LIG d   1       6.692  -9.837  -2.837  0.00  0.00     0.146 A 
ATOM     14  C   LIG d   1       6.978 -10.688  -1.783  0.00  0.00     0.035 A 
ATOM     15  H   LIG d   1       9.544  -7.963  -2.821  0.00  0.00     0.063 H 
ENDROOT
BRANCH   9  16
ATOM     16  C   LIG d   1       5.729  -7.238  -6.122  0.00  0.00    -0.012 C 
ATOM     17  H   LIG d   1       5.379  -7.851  -6.953  0.00  0.00     0.032 H 
ATOM     18  H   LIG d   1       6.599  -6.662  -6.436  0.00  0.00     0.032 H 
BRANCH  16  19
ATOM     19  C   LIG d   1       4.615  -6.282  -5.688  0.00  0.00     0.028 C 
ATOM     20  H   LIG d   1       4.378  -6.452  -4.638  0.00  0.00     0.036 H 
ATOM     21  H   LIG d   1       3.727  -6.460  -6.295  0.00  0.00     0.036 H 
BRANCH  19  22
ATOM     22  C   LIG d   1       5.075  -4.859  -5.875  0.00  0.00     0.214 C 
ATOM     23  O   LIG d   1       6.151  -4.630  -6.385  0.00  0.00    -0.276 OA
ATOM     24  N   LIG d   1       4.289  -3.839  -5.475  0.00  0.00    -0.310 N 
ATOM     25  H   LIG d   1       3.426  -4.021  -5.070  0.00  0.00     0.149 HD
BRANCH  24  26
ATOM     26  C   LIG d   1       4.736  -2.456  -5.657  0.00  0.00     0.054 C 
ATOM     27  H   LIG d   1       5.773  -2.449  -5.991  0.00  0.00     0.053 H 
ATOM     28  H   LIG d   1       4.110  -1.966  -6.403  0.00  0.00     0.053 H 
BRANCH  26  29
ATOM     29  C   LIG d   1       4.626  -1.717  -4.348  0.00  0.00     0.058 A 
ATOM     30  N   LIG d   1       4.924  -0.433  -4.298  0.00  0.00    -0.258 NA
ATOM     31  C   LIG d   1       4.838   0.255  -3.176  0.00  0.00     0.028 A 
ATOM     32  C   LIG d   1       4.438  -0.353  -2.002  0.00  0.00    -0.044 A 
ATOM     33  H   LIG d   1       5.087   1.307  -3.174  0.00  0.00     0.083 H 
ATOM     34  C   LIG d   1       4.120  -1.702  -2.014  0.00  0.00    -0.059 A 
ATOM     35  H   LIG d   1       4.374   0.215  -1.085  0.00  0.00     0.063 H 
ATOM     36  C   LIG d   1       4.219  -2.392  -3.214  0.00  0.00    -0.039 A 
ATOM     37  H   LIG d   1       3.805  -2.205  -1.112  0.00  0.00     0.062 H 
ATOM     38  H   LIG d   1       3.979  -3.445  -3.260  0.00  0.00     0.064 H 
ENDBRANCH  26  29
ENDBRANCH  24  26
ENDBRANCH  19  22
ENDBRANCH  16  19
ENDBRANCH   9  16
BRANCH   8  39
ATOM     39  C   LIG d   1       8.264  -6.894  -4.785  0.00  0.00    -0.039 C 
ATOM     40  H   LIG d   1       8.464  -6.215  -3.956  0.00  0.00     0.028 H 
ATOM     41  H   LIG d   1       9.197  -7.358  -5.108  0.00  0.00     0.028 H 
ATOM     42  H   LIG d   1       7.831  -6.335  -5.615  0.00  0.00     0.028 H 
ENDBRANCH   8  39
BRANCH  14  43
ATOM     43  C   LIG d   1       5.983 -11.746  -1.380  0.00  0.00    -0.033 C 
ATOM     44  H   LIG d   1       6.513 -12.662  -1.122  0.00  0.00     0.028 H 
ATOM     45  H   LIG d   1       5.414 -11.399  -0.517  0.00  0.00     0.028 H 
ATOM     46  H   LIG d   1       5.303 -11.941  -2.209  0.00  0.00     0.028 H 
ENDBRANCH  14  43
BRANCH   1  47
ATOM     47  C   LIG d   1      11.509  -8.917  -0.536  0.00  0.00    -0.036 C 
ATOM     48  H   LIG d   1      11.305  -7.942  -0.094  0.00  0.00     0.028 H 
ATOM     49  H   LIG d   1      12.264  -9.433   0.055  0.00  0.00     0.028 H 
ATOM     50  H   LIG d   1      11.873  -8.784  -1.555  0.00  0.00     0.028 H 
ENDBRANCH   1  47
BRANCH   2  51
ATOM     51  C   LIG d   1      10.802 -11.265   1.369  0.00  0.00    -0.006 C 
ATOM     52  H   LIG d   1      10.934 -10.485   2.120  0.00  0.00     0.031 H 
ATOM     53  H   LIG d   1      10.332 -12.134   1.829  0.00  0.00     0.031 H 
ATOM     54  H   LIG d   1      11.773 -11.548   0.964  0.00  0.00     0.031 H 
ENDBRANCH   2  51
TORSDOF 9
ENDMDL
MODEL 8
REMARK VINA RESULT:      -6.9      8.586     13.572
REMARK  9 active torsions:
REMARK  status: ('A' for Active; 'I' for Inactive)
REMARK    1  A    between atoms: C_1  and  C_2 
REMARK    2  A    between atoms: C_3  and  C_30 
REMARK    3  A    between atoms: C_9  and  C_29 
REMARK    4  A    between atoms: C_10  and  C_17 
REMARK    5  A    between atoms: C_15  and  C_16 
REMARK    6  A    between atoms: C_17  and  C_18 
REMARK    7  A    between atoms: C_18  and  C_19 
REMARK       I    between atoms: C_19  and  N_21 
REMARK    8  A    between atoms: N_21  and  C_22 
REMARK    9  A    between atoms: C_22  and  C_23 
ROOT
ATOM      1  C   LIG d   1       5.613  -0.899 -16.020  0.00  0.00    -0.002 A 
ATOM      2  C   LIG d   1       5.442  -1.927 -16.862  0.00  0.00     0.106 A 
ATOM      3  O   LIG d   1       4.551  -2.798 -16.358  0.00  0.00    -0.459 OA
ATOM      4  C   LIG d   1       4.094  -2.383 -15.160  0.00  0.00     0.142 A 
ATOM      5  C   LIG d   1       4.735  -1.161 -14.872  0.00  0.00     0.024 A 
ATOM      6  C   LIG d   1       4.464  -0.485 -13.690  0.00  0.00    -0.040 A 
ATOM      7  C   LIG d   1       3.547  -1.027 -12.788  0.00  0.00     0.022 A 
ATOM      8  C   LIG d   1       3.232  -0.337 -11.534  0.00  0.00    -0.030 A 
ATOM      9  C   LIG d   1       2.337  -0.913 -10.692  0.00  0.00     0.041 A 
ATOM     10  C   LIG d   1       1.732  -2.139 -11.043  0.00  0.00     0.341 A 
ATOM     11  O   LIG d   1       0.928  -2.642 -10.280  0.00  0.00    -0.245 OA
ATOM     12  O   LIG d   1       2.021  -2.765 -12.194  0.00  0.00    -0.422 OA
ATOM     13  C   LIG d   1       2.906  -2.249 -13.076  0.00  0.00     0.146 A 
ATOM     14  C   LIG d   1       3.185  -2.916 -14.257  0.00  0.00     0.035 A 
ATOM     15  H   LIG d   1       4.955   0.451 -13.473  0.00  0.00     0.063 H 
ENDROOT
BRANCH   9  16
ATOM     16  C   LIG d   1       1.985  -0.242  -9.389  0.00  0.00    -0.012 C 
ATOM     17  H   LIG d   1       0.964  -0.503  -9.111  0.00  0.00     0.032 H 
ATOM     18  H   LIG d   1       2.067   0.838  -9.503  0.00  0.00     0.032 H 
BRANCH  16  19
ATOM     19  C   LIG d   1       2.949  -0.713  -8.298  0.00  0.00     0.028 C 
ATOM     20  H   LIG d   1       3.966  -0.722  -8.689  0.00  0.00     0.036 H 
ATOM     21  H   LIG d   1       2.673  -1.718  -7.979  0.00  0.00     0.036 H 
BRANCH  19  22
ATOM     22  C   LIG d   1       2.871   0.225  -7.121  0.00  0.00     0.214 C 
ATOM     23  O   LIG d   1       3.168   1.394  -7.255  0.00  0.00    -0.276 OA
ATOM     24  N   LIG d   1       2.471  -0.234  -5.918  0.00  0.00    -0.310 N 
ATOM     25  H   LIG d   1       2.230  -1.168  -5.811  0.00  0.00     0.149 HD
BRANCH  24  26
ATOM     26  C   LIG d   1       2.396   0.678  -4.774  0.00  0.00     0.054 C 
ATOM     27  H   LIG d   1       2.816   1.644  -5.051  0.00  0.00     0.053 H 
ATOM     28  H   LIG d   1       1.354   0.805  -4.478  0.00  0.00     0.053 H 
BRANCH  26  29
ATOM     29  C   LIG d   1       3.178   0.103  -3.621  0.00  0.00     0.058 A 
ATOM     30  N   LIG d   1       3.177  -1.200  -3.419  0.00  0.00    -0.258 NA
ATOM     31  C   LIG d   1       3.851  -1.748  -2.426  0.00  0.00     0.028 A 
ATOM     32  C   LIG d   1       4.579  -0.967  -1.550  0.00  0.00    -0.044 A 
ATOM     33  H   LIG d   1       3.830  -2.820  -2.294  0.00  0.00     0.083 H 
ATOM     34  C   LIG d   1       4.599   0.408  -1.727  0.00  0.00    -0.059 A 
ATOM     35  H   LIG d   1       5.125  -1.421  -0.735  0.00  0.00     0.063 H 
ATOM     36  C   LIG d   1       3.882   0.948  -2.785  0.00  0.00    -0.039 A 
ATOM     37  H   LIG d   1       5.159   1.045  -1.058  0.00  0.00     0.062 H 
ATOM     38  H   LIG d   1       3.876   2.015  -2.953  0.00  0.00     0.064 H 
ENDBRANCH  26  29
ENDBRANCH  24  26
ENDBRANCH  19  22
ENDBRANCH  16  19
ENDBRANCH   9  16
BRANCH   8  39
ATOM     39  C   LIG d   1       3.887   0.976 -11.188  0.00  0.00    -0.039 C 
ATOM     40  H   LIG d   1       3.684   1.219 -10.145  0.00  0.00     0.028 H 
ATOM     41  H   LIG d   1       4.964   0.897 -11.340  0.00  0.00     0.028 H 
ATOM     42  H   LIG d   1       3.486   1.763 -11.828  0.00  0.00     0.028 H 
ENDBRANCH   8  39
BRANCH  14  43
ATOM     43  C   LIG d   1       2.498  -4.222 -14.564  0.00  0.00    -0.033 C 
ATOM     44  H   LIG d   1       3.060  -4.757 -15.329  0.00  0.00     0.028 H 
ATOM     45  H   LIG d   1       2.448  -4.827 -13.658  0.00  0.00     0.028 H 
ATOM     46  H   LIG d   1       1.488  -4.025 -14.926  0.00  0.00     0.028 H 
ENDBRANCH  14  43
BRANCH   1  47
ATOM     47  C   LIG d   1       6.523   0.287 -16.213  0.00  0.00    -0.036 C 
ATOM     48  H   LIG d   1       7.224   0.079 -17.021  0.00  0.00     0.028 H 
ATOM     49  H   LIG d   1       5.928   1.164 -16.463  0.00  0.00     0.028 H 
ATOM     50  H   LIG d   1       7.077   0.473 -15.292  0.00  0.00     0.028 H 
ENDBRANCH   1  47
BRANCH   2  51
ATOM     51  C   LIG d   1       6.148  -2.083 -18.185  0.00  0.00    -0.006 C 
ATOM     52  H   LIG d   1       6.926  -2.841 -18.094  0.00  0.00     0.031 H 
ATOM     53  H   LIG d   1       5.431  -2.389 -18.946  0.00  0.00     0.031 H 
ATOM     54  H   LIG d   1       6.599  -1.133 -18.470  0.00  0.00     0.031 H 
ENDBRANCH   2  51
TORSDOF 9
ENDMDL
MODEL 9
REMARK VINA RESULT:      -6.8      2.290      3.548
REMARK  9 active torsions:
REMARK  status: ('A' for Active; 'I' for Inactive)
REMARK    1  A    between atoms: C_1  and  C_2 
REMARK    2  A    between atoms: C_3  and  C_30 
REMARK    3  A    between atoms: C_9  and  C_29 
REMARK    4  A    between atoms: C_10  and  C_17 
REMARK    5  A    between atoms: C_15  and  C_16 
REMARK    6  A    between atoms: C_17  and  C_18 
REMARK    7  A    between atoms: C_18  and  C_19 
REMARK       I    between atoms: C_19  and  N_21 
REMARK    8  A    between atoms: N_21  and  C_22 
REMARK    9  A    between atoms: C_22  and  C_23 
ROOT
ATOM      1  C   LIG d   1       9.953  10.842  -3.613  0.00  0.00    -0.002 A 
ATOM      2  C   LIG d   1       9.679  11.663  -4.636  0.00  0.00     0.106 A 
ATOM      3  O   LIG d   1       9.464  10.953  -5.757  0.00  0.00    -0.459 OA
ATOM      4  C   LIG d   1       9.589   9.631  -5.524  0.00  0.00     0.142 A 
ATOM      5  C   LIG d   1       9.905   9.479  -4.158  0.00  0.00     0.024 A 
ATOM      6  C   LIG d   1      10.097   8.215  -3.616  0.00  0.00    -0.040 A 
ATOM      7  C   LIG d   1       9.972   7.094  -4.437  0.00  0.00     0.022 A 
ATOM      8  C   LIG d   1      10.161   5.745  -3.897  0.00  0.00    -0.030 A 
ATOM      9  C   LIG d   1      10.033   4.691  -4.743  0.00  0.00     0.041 A 
ATOM     10  C   LIG d   1       9.715   4.915  -6.100  0.00  0.00     0.341 A 
ATOM     11  O   LIG d   1       9.599   3.961  -6.846  0.00  0.00    -0.245 OA
ATOM     12  O   LIG d   1       9.539   6.152  -6.589  0.00  0.00    -0.422 OA
ATOM     13  C   LIG d   1       9.656   7.246  -5.803  0.00  0.00     0.146 A 
ATOM     14  C   LIG d   1       9.468   8.511  -6.334  0.00  0.00     0.035 A 
ATOM     15  H   LIG d   1      10.338   8.102  -2.570  0.00  0.00     0.063 H 
ENDROOT
BRANCH   9  16
ATOM     16  C   LIG d   1      10.222   3.286  -4.234  0.00  0.00    -0.012 C 
ATOM     17  H   LIG d   1      11.065   3.261  -3.542  0.00  0.00     0.032 H 
ATOM     18  H   LIG d   1      10.421   2.619  -5.072  0.00  0.00     0.032 H 
BRANCH  16  19
ATOM     19  C   LIG d   1       8.953   2.831  -3.509  0.00  0.00     0.028 C 
ATOM     20  H   LIG d   1       8.231   3.647  -3.493  0.00  0.00     0.036 H 
ATOM     21  H   LIG d   1       9.202   2.544  -2.487  0.00  0.00     0.036 H 
BRANCH  19  22
ATOM     22  C   LIG d   1       8.360   1.649  -4.232  0.00  0.00     0.214 C 
ATOM     23  O   LIG d   1       8.993   1.088  -5.101  0.00  0.00    -0.276 OA
ATOM     24  N   LIG d   1       7.124   1.215  -3.913  0.00  0.00    -0.310 N 
ATOM     25  H   LIG d   1       6.618   1.661  -3.216  0.00  0.00     0.149 HD
BRANCH  24  26
ATOM     26  C   LIG d   1       6.547   0.067  -4.616  0.00  0.00     0.054 C 
ATOM     27  H   LIG d   1       6.420   0.312  -5.670  0.00  0.00     0.053 H 
ATOM     28  H   LIG d   1       7.212  -0.791  -4.520  0.00  0.00     0.053 H 
BRANCH  26  29
ATOM     29  C   LIG d   1       5.207  -0.268  -4.015  0.00  0.00     0.058 A 
ATOM     30  N   LIG d   1       4.116   0.292  -4.500  0.00  0.00    -0.258 NA
ATOM     31  C   LIG d   1       2.921   0.025  -4.009  0.00  0.00     0.028 A 
ATOM     32  C   LIG d   1       2.771  -0.852  -2.952  0.00  0.00    -0.044 A 
ATOM     33  H   LIG d   1       2.050   0.500  -4.435  0.00  0.00     0.083 H 
ATOM     34  C   LIG d   1       3.896  -1.457  -2.411  0.00  0.00    -0.059 A 
ATOM     35  H   LIG d   1       1.791  -1.063  -2.550  0.00  0.00     0.063 H 
ATOM     36  C   LIG d   1       5.135  -1.155  -2.957  0.00  0.00    -0.039 A 
ATOM     37  H   LIG d   1       3.810  -2.146  -1.584  0.00  0.00     0.062 H 
ATOM     38  H   LIG d   1       6.032  -1.608  -2.561  0.00  0.00     0.064 H 
ENDBRANCH  26  29
ENDBRANCH  24  26
ENDBRANCH  19  22
ENDBRANCH  16  19
ENDBRANCH   9  16
BRANCH   8  39
ATOM     39  C   LIG d   1      10.492   5.533  -2.442  0.00  0.00    -0.039 C 
ATOM     40  H   LIG d   1      11.370   4.893  -2.359  0.00  0.00     0.028 H 
ATOM     41  H   LIG d   1      10.697   6.495  -1.972  0.00  0.00     0.028 H 
ATOM     42  H   LIG d   1       9.648   5.057  -1.942  0.00  0.00     0.028 H 
ENDBRANCH   8  39
BRANCH  14  43
ATOM     43  C   LIG d   1       9.129   8.672  -7.793  0.00  0.00    -0.033 C 
ATOM     44  H   LIG d   1      10.022   8.500  -8.394  0.00  0.00     0.028 H 
ATOM     45  H   LIG d   1       8.361   7.950  -8.070  0.00  0.00     0.028 H 
ATOM     46  H   LIG d   1       8.760   9.682  -7.972  0.00  0.00     0.028 H 
ENDBRANCH  14  43
BRANCH   1  47
ATOM     47  C   LIG d   1      10.251  11.239  -2.190  0.00  0.00    -0.036 C 
ATOM     48  H   LIG d   1       9.587  10.700  -1.516  0.00  0.00     0.028 H 
ATOM     49  H   LIG d   1      11.286  10.993  -1.954  0.00  0.00     0.028 H 
ATOM     50  H   LIG d   1      10.096  12.312  -2.072  0.00  0.00     0.028 H 
ENDBRANCH   1  47
BRANCH   2  51
ATOM     51  C   LIG d   1       9.618  13.166  -4.542  0.00  0.00    -0.006 C 
ATOM     52  H   LIG d   1      10.386  13.601  -5.180  0.00  0.00     0.031 H 
ATOM     53  H   LIG d   1       8.637  13.511  -4.868  0.00  0.00     0.031 H 
ATOM     54  H   LIG d   1       9.786  13.472  -3.509  0.00  0.00     0.031 H 
ENDBRANCH   2  51
TORSDOF 9
ENDMDL
MODEL 10
REMARK VINA RESULT:      -6.6      3.634      6.058
REMARK  9 active torsions:
REMARK  status: ('A' for Active; 'I' for Inactive)
REMARK    1  A    between atoms: C_1  and  C_2 
REMARK    2  A    between atoms: C_3  and  C_30 
REMARK    3  A    between atoms: C_9  and  C_29 
REMARK    4  A    between atoms: C_10  and  C_17 
REMARK    5  A    between atoms: C_15  and  C_16 
REMARK    6  A    between atoms: C_17  and  C_18 
REMARK    7  A    between atoms: C_18  and  C_19 
REMARK       I    between atoms: C_19  and  N_21 
REMARK    8  A    between atoms: N_21  and  C_22 
REMARK    9  A    between atoms: C_22  and  C_23 
ROOT
ATOM      1  C   LIG d   1      10.015   6.596 -11.062  0.00  0.00    -0.002 A 
ATOM      2  C   LIG d   1       9.915   7.927 -11.167  0.00  0.00     0.106 A 
ATOM      3  O   LIG d   1       9.792   8.482  -9.948  0.00  0.00    -0.459 OA
ATOM      4  C   LIG d   1       9.803   7.539  -8.985  0.00  0.00     0.142 A 
ATOM      5  C   LIG d   1       9.944   6.292  -9.626  0.00  0.00     0.024 A 
ATOM      6  C   LIG d   1       9.987   5.119  -8.884  0.00  0.00    -0.040 A 
ATOM      7  C   LIG d   1       9.892   5.187  -7.494  0.00  0.00     0.022 A 
ATOM      8  C   LIG d   1       9.941   3.970  -6.679  0.00  0.00    -0.030 A 
ATOM      9  C   LIG d   1       9.838   4.095  -5.331  0.00  0.00     0.041 A 
ATOM     10  C   LIG d   1       9.699   5.376  -4.755  0.00  0.00     0.341 A 
ATOM     11  O   LIG d   1       9.611   5.473  -3.544  0.00  0.00    -0.245 OA
ATOM     12  O   LIG d   1       9.658   6.488  -5.504  0.00  0.00    -0.422 OA
ATOM     13  C   LIG d   1       9.751   6.435  -6.852  0.00  0.00     0.146 A 
ATOM     14  C   LIG d   1       9.708   7.598  -7.602  0.00  0.00     0.035 A 
ATOM     15  H   LIG d   1      10.096   4.166  -9.378  0.00  0.00     0.063 H 
ENDROOT
BRANCH   9  16
ATOM     16  C   LIG d   1       9.879   2.871  -4.453  0.00  0.00    -0.012 C 
ATOM     17  H   LIG d   1      10.644   2.999  -3.688  0.00  0.00     0.032 H 
ATOM     18  H   LIG d   1      10.113   1.997  -5.059  0.00  0.00     0.032 H 
BRANCH  16  19
ATOM     19  C   LIG d   1       8.515   2.677  -3.786  0.00  0.00     0.028 C 
ATOM     20  H   LIG d   1       7.914   3.577  -3.918  0.00  0.00     0.036 H 
ATOM     21  H   LIG d   1       8.656   2.486  -2.722  0.00  0.00     0.036 H 
BRANCH  19  22
ATOM     22  C   LIG d   1       7.810   1.505  -4.417  0.00  0.00     0.214 C 
ATOM     23  O   LIG d   1       7.414   1.579  -5.562  0.00  0.00    -0.276 OA
ATOM     24  N   LIG d   1       7.618   0.374  -3.710  0.00  0.00    -0.310 N 
ATOM     25  H   LIG d   1       7.937   0.312  -2.796  0.00  0.00     0.149 HD
BRANCH  24  26
ATOM     26  C   LIG d   1       6.931  -0.766  -4.324  0.00  0.00     0.054 C 
ATOM     27  H   LIG d   1       6.949  -0.660  -5.408  0.00  0.00     0.053 H 
ATOM     28  H   LIG d   1       7.436  -1.690  -4.040  0.00  0.00     0.053 H 
BRANCH  26  29
ATOM     29  C   LIG d   1       5.503  -0.809  -3.847  0.00  0.00     0.058 A 
ATOM     30  N   LIG d   1       4.596  -0.055  -4.437  0.00  0.00    -0.258 NA
ATOM     31  C   LIG d   1       3.333  -0.063  -4.056  0.00  0.00     0.028 A 
ATOM     32  C   LIG d   1       2.915  -0.861  -3.010  0.00  0.00    -0.044 A 
ATOM     33  H   LIG d   1       2.618   0.566  -4.567  0.00  0.00     0.083 H 
ATOM     34  C   LIG d   1       3.840  -1.665  -2.362  0.00  0.00    -0.059 A 
ATOM     35  H   LIG d   1       1.880  -0.861  -2.700  0.00  0.00     0.063 H 
ATOM     36  C   LIG d   1       5.158  -1.633  -2.792  0.00  0.00    -0.039 A 
ATOM     37  H   LIG d   1       3.543  -2.300  -1.540  0.00  0.00     0.062 H 
ATOM     38  H   LIG d   1       5.906  -2.246  -2.310  0.00  0.00     0.064 H 
ENDBRANCH  26  29
ENDBRANCH  24  26
ENDBRANCH  19  22
ENDBRANCH  16  19
ENDBRANCH   9  16
BRANCH   8  39
ATOM     39  C   LIG d   1      10.098   2.615  -7.320  0.00  0.00    -0.039 C 
ATOM     40  H   LIG d   1       9.156   2.321  -7.783  0.00  0.00     0.028 H 
ATOM     41  H   LIG d   1      10.879   2.661  -8.081  0.00  0.00     0.028 H 
ATOM     42  H   LIG d   1      10.373   1.883  -6.561  0.00  0.00     0.028 H 
ENDBRANCH   8  39
BRANCH  14  43
ATOM     43  C   LIG d   1       9.558   8.931  -6.914  0.00  0.00    -0.033 C 
ATOM     44  H   LIG d   1      10.381   9.583  -7.203  0.00  0.00     0.028 H 
ATOM     45  H   LIG d   1       8.612   9.387  -7.208  0.00  0.00     0.028 H 
ATOM     46  H   LIG d   1       9.571   8.786  -5.834  0.00  0.00     0.028 H 
ENDBRANCH  14  43
BRANCH   1  47
ATOM     47  C   LIG d   1      10.167   5.608 -12.190  0.00  0.00    -0.036 C 
ATOM     48  H   LIG d   1       9.219   5.099 -12.358  0.00  0.00     0.028 H 
ATOM     49  H   LIG d   1      10.463   6.135 -13.096  0.00  0.00     0.028 H 
ATOM     50  H   LIG d   1      10.932   4.875 -11.930  0.00  0.00     0.028 H 
ENDBRANCH   1  47
BRANCH   2  51
ATOM     51  C   LIG d   1       9.940   8.693 -12.464  0.00  0.00    -0.006 C 
ATOM     52  H   LIG d   1      10.876   8.494 -12.986  0.00  0.00     0.031 H 
ATOM     53  H   LIG d   1       9.104   8.378 -13.089  0.00  0.00     0.031 H 
ATOM     54  H   LIG d   1       9.859   9.760 -12.258  0.00  0.00     0.031 H 
ENDBRANCH   2  51
TORSDOF 9
ENDMDL
