MODEL 1
REMARK VINA RESULT:      -6.7      0.000      0.000
REMARK  14 active torsions:
REMARK  status: ('A' for Active; 'I' for Inactive)
REMARK    1  A    between atoms: C_1  and  C_2 
REMARK    2  A    between atoms: C_5  and  C_34 
REMARK    3  A    between atoms: C_8  and  C_33 
REMARK    4  A    between atoms: C_10  and  C_12 
REMARK    5  A    between atoms: C_13  and  O_32 
REMARK    6  A    between atoms: C_14  and  C_17 
REMARK    7  A    between atoms: C_15  and  O_16 
REMARK    8  A    between atoms: C_19  and  C_31 
REMARK    9  A    between atoms: C_22  and  C_28 
REMARK   10  A    between atoms: C_25  and  C_27 
REMARK   11  A    between atoms: C_28  and  C_29 
REMARK   12  A    between atoms: C_28  and  C_30 
REMARK   13  A    between atoms: C_34  and  C_35 
REMARK   14  A    between atoms: C_34  and  C_36 
ROOT
ATOM      1  C   LIG d   1      11.064   7.440  -0.469  0.00  0.00     0.067 A 
ATOM      2  C   LIG d   1       9.830   7.174  -1.215  0.00  0.00     0.139 A 
ATOM      3  C   LIG d   1      10.541   6.190  -2.040  0.00  0.00     0.067 A 
ATOM      4  C   LIG d   1      11.778   6.462  -1.297  0.00  0.00     0.139 A 
ENDROOT
BRANCH   1   5
ATOM      5  C   LIG d   1      11.435   8.328   0.645  0.00  0.00    -0.003 A 
ATOM      6  C   LIG d   1      11.829   9.666   0.534  0.00  0.00    -0.050 A 
ATOM      7  C   LIG d   1      12.102  10.189   1.786  0.00  0.00    -0.042 A 
ATOM      8  H   LIG d   1      11.908  10.212  -0.394  0.00  0.00     0.063 H 
ATOM      9  C   LIG d   1      11.891   9.201   2.744  0.00  0.00    -0.014 A 
ATOM     10  C   LIG d   1      12.065   9.360   4.122  0.00  0.00    -0.050 A 
ATOM     11  C   LIG d   1      11.459   7.980   2.012  0.00  0.00    -0.007 A 
ATOM     12  C   LIG d   1      11.868   8.411   5.113  0.00  0.00    -0.044 A 
ATOM     13  H   LIG d   1      12.389  10.335   4.452  0.00  0.00     0.063 H 
ATOM     14  C   LIG d   1      11.457   7.089   4.994  0.00  0.00    -0.058 A 
ATOM     15  C   LIG d   1      11.132   6.351   3.873  0.00  0.00    -0.058 A 
ATOM     16  H   LIG d   1      11.381   6.552   5.928  0.00  0.00     0.062 H 
ATOM     17  C   LIG d   1      11.127   6.741   2.532  0.00  0.00    -0.042 A 
ATOM     18  H   LIG d   1      10.839   5.328   4.061  0.00  0.00     0.062 H 
BRANCH   7  19
ATOM     19  C   LIG d   1      12.553  11.599   2.067  0.00  0.00    -0.039 C 
ATOM     20  H   LIG d   1      12.603  12.157   1.132  0.00  0.00     0.028 H 
ATOM     21  H   LIG d   1      11.844  12.080   2.741  0.00  0.00     0.028 H 
ATOM     22  H   LIG d   1      13.539  11.579   2.530  0.00  0.00     0.028 H 
ENDBRANCH   7  19
BRANCH  12  23
ATOM     23  C   LIG d   1      12.138   8.880   6.520  0.00  0.00    -0.021 C 
ATOM     24  H   LIG d   1      11.222   8.811   7.108  0.00  0.00     0.034 H 
BRANCH  23  25
ATOM     25  C   LIG d   1      13.218   7.999   7.153  0.00  0.00    -0.059 C 
ATOM     26  H   LIG d   1      13.562   7.266   6.424  0.00  0.00     0.024 H 
ATOM     27  H   LIG d   1      14.056   8.621   7.466  0.00  0.00     0.024 H 
ATOM     28  H   LIG d   1      12.804   7.483   8.019  0.00  0.00     0.024 H 
ENDBRANCH  23  25
BRANCH  23  29
ATOM     29  C   LIG d   1      12.618  10.332   6.490  0.00  0.00    -0.059 C 
ATOM     30  H   LIG d   1      12.456  10.789   7.466  0.00  0.00     0.024 H 
ATOM     31  H   LIG d   1      13.681  10.359   6.248  0.00  0.00     0.024 H 
ATOM     32  H   LIG d   1      12.060  10.883   5.734  0.00  0.00     0.024 H 
ENDBRANCH  23  29
ENDBRANCH  12  23
BRANCH  17  33
ATOM     33  C   LIG d   1      10.716   5.687   1.535  0.00  0.00    -0.039 C 
ATOM     34  H   LIG d   1      11.575   5.061   1.295  0.00  0.00     0.028 H 
ATOM     35  H   LIG d   1       9.925   5.071   1.963  0.00  0.00     0.028 H 
ATOM     36  H   LIG d   1      10.352   6.168   0.628  0.00  0.00     0.028 H 
ENDBRANCH  17  33
ENDBRANCH   1   5
BRANCH   4  37
ATOM     37  O   LIG d   1      13.039   6.004  -1.353  0.00  0.00    -0.505 OA
ATOM     38  H   LIG d   1      13.562   6.197  -0.563  0.00  0.00     0.292 HD
ENDBRANCH   4  37
BRANCH   2  39
ATOM     39  O   LIG d   1       8.571   7.637  -1.166  0.00  0.00    -0.505 OA
ATOM     40  H   LIG d   1       8.350   8.252  -1.878  0.00  0.00     0.292 HD
ENDBRANCH   2  39
BRANCH   3  41
ATOM     41  C   LIG d   1      10.170   5.303  -3.154  0.00  0.00    -0.003 A 
ATOM     42  C   LIG d   1      10.121   5.660  -4.518  0.00  0.00    -0.007 A 
ATOM     43  C   LIG d   1       9.700   4.437  -5.252  0.00  0.00    -0.014 A 
ATOM     44  C   LIG d   1      10.428   6.907  -5.036  0.00  0.00    -0.042 A 
ATOM     45  C   LIG d   1       9.517   3.439  -4.298  0.00  0.00    -0.042 A 
ATOM     46  C   LIG d   1       9.510   4.283  -6.629  0.00  0.00    -0.050 A 
ATOM     47  C   LIG d   1       9.799   3.958  -3.046  0.00  0.00    -0.050 A 
ATOM     48  H   LIG d   1       9.740   3.405  -2.121  0.00  0.00     0.063 H 
ATOM     49  C   LIG d   1       9.678   5.241  -7.617  0.00  0.00    -0.044 A 
ATOM     50  H   LIG d   1       9.196   3.305  -6.962  0.00  0.00     0.063 H 
ATOM     51  C   LIG d   1      10.069   6.569  -7.494  0.00  0.00    -0.058 A 
ATOM     52  C   LIG d   1      10.399   7.305  -6.373  0.00  0.00    -0.058 A 
ATOM     53  H   LIG d   1      10.126   7.113  -8.425  0.00  0.00     0.062 H 
ATOM     54  H   LIG d   1      10.673   8.332  -6.558  0.00  0.00     0.062 H 
BRANCH  45  55
ATOM     55  C   LIG d   1       9.084   2.023  -4.582  0.00  0.00    -0.039 C 
ATOM     56  H   LIG d   1       8.952   1.489  -3.642  0.00  0.00     0.028 H 
ATOM     57  H   LIG d   1       8.142   2.035  -5.128  0.00  0.00     0.028 H 
ATOM     58  H   LIG d   1       9.845   1.524  -5.181  0.00  0.00     0.028 H 
ENDBRANCH  45  55
BRANCH  49  59
ATOM     59  C   LIG d   1       9.396   4.777  -9.022  0.00  0.00    -0.021 C 
ATOM     60  H   LIG d   1      10.330   4.721  -9.580  0.00  0.00     0.034 H 
BRANCH  59  61
ATOM     61  C   LIG d   1       8.743   3.394  -8.981  0.00  0.00    -0.059 C 
ATOM     62  H   LIG d   1       8.941   2.870  -9.916  0.00  0.00     0.024 H 
ATOM     63  H   LIG d   1       9.154   2.822  -8.150  0.00  0.00     0.024 H 
ATOM     64  H   LIG d   1       7.666   3.504  -8.848  0.00  0.00     0.024 H 
ENDBRANCH  59  61
BRANCH  59  65
ATOM     65  C   LIG d   1       8.451   5.767  -9.706  0.00  0.00    -0.059 C 
ATOM     66  H   LIG d   1       7.947   6.370  -8.951  0.00  0.00     0.024 H 
ATOM     67  H   LIG d   1       9.022   6.415 -10.369  0.00  0.00     0.024 H 
ATOM     68  H   LIG d   1       7.707   5.218 -10.285  0.00  0.00     0.024 H 
ENDBRANCH  59  65
ENDBRANCH  49  59
BRANCH  44  69
ATOM     69  C   LIG d   1      10.835   7.960  -4.037  0.00  0.00    -0.039 C 
ATOM     70  H   LIG d   1      11.290   8.801  -4.560  0.00  0.00     0.028 H 
ATOM     71  H   LIG d   1       9.955   8.304  -3.494  0.00  0.00     0.028 H 
ATOM     72  H   LIG d   1      11.554   7.537  -3.335  0.00  0.00     0.028 H 
ENDBRANCH  44  69
ENDBRANCH   3  41
TORSDOF 14
ENDMDL
MODEL 2
REMARK VINA RESULT:      -6.7      0.041     10.634
REMARK  14 active torsions:
REMARK  status: ('A' for Active; 'I' for Inactive)
REMARK    1  A    between atoms: C_1  and  C_2 
REMARK    2  A    between atoms: C_5  and  C_34 
REMARK    3  A    between atoms: C_8  and  C_33 
REMARK    4  A    between atoms: C_10  and  C_12 
REMARK    5  A    between atoms: C_13  and  O_32 
REMARK    6  A    between atoms: C_14  and  C_17 
REMARK    7  A    between atoms: C_15  and  O_16 
REMARK    8  A    between atoms: C_19  and  C_31 
REMARK    9  A    between atoms: C_22  and  C_28 
REMARK   10  A    between atoms: C_25  and  C_27 
REMARK   11  A    between atoms: C_28  and  C_29 
REMARK   12  A    between atoms: C_28  and  C_30 
REMARK   13  A    between atoms: C_34  and  C_35 
REMARK   14  A    between atoms: C_34  and  C_36 
ROOT
ATOM      1  C   LIG d   1      10.558   6.213  -2.062  0.00  0.00     0.067 A 
ATOM      2  C   LIG d   1      11.793   6.479  -1.317  0.00  0.00     0.139 A 
ATOM      3  C   LIG d   1      11.080   7.456  -0.485  0.00  0.00     0.067 A 
ATOM      4  C   LIG d   1       9.846   7.194  -1.235  0.00  0.00     0.139 A 
ENDROOT
BRANCH   1   5
ATOM      5  C   LIG d   1      10.188   5.332  -3.180  0.00  0.00    -0.003 A 
ATOM      6  C   LIG d   1       9.826   3.984  -3.081  0.00  0.00    -0.050 A 
ATOM      7  C   LIG d   1       9.542   3.471  -4.335  0.00  0.00    -0.042 A 
ATOM      8  H   LIG d   1       9.774   3.424  -2.159  0.00  0.00     0.063 H 
ATOM      9  C   LIG d   1       9.713   4.476  -5.283  0.00  0.00    -0.014 A 
ATOM     10  C   LIG d   1       9.517   4.332  -6.659  0.00  0.00    -0.050 A 
ATOM     11  C   LIG d   1      10.139   5.695  -4.543  0.00  0.00    -0.007 A 
ATOM     12  C   LIG d   1       9.674   5.298  -7.641  0.00  0.00    -0.044 A 
ATOM     13  H   LIG d   1       9.208   3.354  -6.997  0.00  0.00     0.063 H 
ATOM     14  C   LIG d   1      10.056   6.628  -7.511  0.00  0.00    -0.058 A 
ATOM     15  C   LIG d   1      10.386   7.358  -6.387  0.00  0.00    -0.058 A 
ATOM     16  H   LIG d   1      10.104   7.178  -8.439  0.00  0.00     0.062 H 
ATOM     17  C   LIG d   1      10.424   6.951  -5.051  0.00  0.00    -0.042 A 
ATOM     18  H   LIG d   1      10.651   8.390  -6.566  0.00  0.00     0.062 H 
BRANCH   7  19
ATOM     19  C   LIG d   1       9.116   2.055  -4.627  0.00  0.00    -0.039 C 
ATOM     20  H   LIG d   1       8.720   1.997  -5.640  0.00  0.00     0.028 H 
ATOM     21  H   LIG d   1       9.975   1.391  -4.532  0.00  0.00     0.028 H 
ATOM     22  H   LIG d   1       8.345   1.756  -3.917  0.00  0.00     0.028 H 
ENDBRANCH   7  19
BRANCH  12  23
ATOM     23  C   LIG d   1       9.388   4.842  -9.049  0.00  0.00    -0.021 C 
ATOM     24  H   LIG d   1      10.320   4.802  -9.614  0.00  0.00     0.034 H 
BRANCH  23  25
ATOM     25  C   LIG d   1       8.751   3.452  -9.015  0.00  0.00    -0.059 C 
ATOM     26  H   LIG d   1       8.544   3.122 -10.034  0.00  0.00     0.024 H 
ATOM     27  H   LIG d   1       9.436   2.750  -8.540  0.00  0.00     0.024 H 
ATOM     28  H   LIG d   1       7.820   3.492  -8.451  0.00  0.00     0.024 H 
ENDBRANCH  23  25
BRANCH  23  29
ATOM     29  C   LIG d   1       8.428   5.827  -9.719  0.00  0.00    -0.059 C 
ATOM     30  H   LIG d   1       7.855   6.353  -8.955  0.00  0.00     0.024 H 
ATOM     31  H   LIG d   1       8.997   6.547 -10.307  0.00  0.00     0.024 H 
ATOM     32  H   LIG d   1       7.747   5.282 -10.372  0.00  0.00     0.024 H 
ENDBRANCH  23  29
ENDBRANCH  12  23
BRANCH  17  33
ATOM     33  C   LIG d   1      10.827   8.001  -4.047  0.00  0.00    -0.039 C 
ATOM     34  H   LIG d   1       9.955   8.593  -3.771  0.00  0.00     0.028 H 
ATOM     35  H   LIG d   1      11.234   7.517  -3.160  0.00  0.00     0.028 H 
ATOM     36  H   LIG d   1      11.583   8.651  -4.486  0.00  0.00     0.028 H 
ENDBRANCH  17  33
ENDBRANCH   1   5
BRANCH   4  37
ATOM     37  O   LIG d   1       8.588   7.659  -1.184  0.00  0.00    -0.505 OA
ATOM     38  H   LIG d   1       8.247   7.773  -0.287  0.00  0.00     0.292 HD
ENDBRANCH   4  37
BRANCH   2  39
ATOM     39  O   LIG d   1      13.054   6.020  -1.372  0.00  0.00    -0.505 OA
ATOM     40  H   LIG d   1      13.119   5.060  -1.465  0.00  0.00     0.292 HD
ENDBRANCH   2  39
BRANCH   3  41
ATOM     41  C   LIG d   1      11.451   8.337   0.633  0.00  0.00    -0.003 A 
ATOM     42  C   LIG d   1      11.457   7.987   2.000  0.00  0.00    -0.007 A 
ATOM     43  C   LIG d   1      11.902   9.200   2.738  0.00  0.00    -0.014 A 
ATOM     44  C   LIG d   1      11.127   6.744   2.514  0.00  0.00    -0.042 A 
ATOM     45  C   LIG d   1      12.124  10.190   1.785  0.00  0.00    -0.042 A 
ATOM     46  C   LIG d   1      12.071   9.353   4.117  0.00  0.00    -0.050 A 
ATOM     47  C   LIG d   1      11.854   9.674   0.529  0.00  0.00    -0.050 A 
ATOM     48  H   LIG d   1      11.942  10.222  -0.396  0.00  0.00     0.063 H 
ATOM     49  C   LIG d   1      11.865   8.402   5.105  0.00  0.00    -0.044 A 
ATOM     50  H   LIG d   1      12.401  10.325   4.453  0.00  0.00     0.063 H 
ATOM     51  C   LIG d   1      11.447   7.082   4.978  0.00  0.00    -0.058 A 
ATOM     52  C   LIG d   1      11.122   6.350   3.853  0.00  0.00    -0.058 A 
ATOM     53  H   LIG d   1      11.363   6.542   5.909  0.00  0.00     0.062 H 
ATOM     54  H   LIG d   1      10.824   5.329   4.035  0.00  0.00     0.062 H 
BRANCH  45  55
ATOM     55  C   LIG d   1      12.583  11.597   2.073  0.00  0.00    -0.039 C 
ATOM     56  H   LIG d   1      13.352  11.577   2.845  0.00  0.00     0.028 H 
ATOM     57  H   LIG d   1      12.992  12.038   1.164  0.00  0.00     0.028 H 
ATOM     58  H   LIG d   1      11.738  12.192   2.417  0.00  0.00     0.028 H 
ENDBRANCH  45  55
BRANCH  49  59
ATOM     59  C   LIG d   1      12.131   8.863   6.513  0.00  0.00    -0.021 C 
ATOM     60  H   LIG d   1      11.214   8.796   7.097  0.00  0.00     0.034 H 
BRANCH  59  61
ATOM     61  C   LIG d   1      13.205   7.977   7.146  0.00  0.00    -0.059 C 
ATOM     62  H   LIG d   1      14.118   8.555   7.287  0.00  0.00     0.024 H 
ATOM     63  H   LIG d   1      12.853   7.613   8.111  0.00  0.00     0.024 H 
ATOM     64  H   LIG d   1      13.410   7.130   6.491  0.00  0.00     0.024 H 
ENDBRANCH  59  61
BRANCH  59  65
ATOM     65  C   LIG d   1      12.616  10.315   6.491  0.00  0.00    -0.059 C 
ATOM     66  H   LIG d   1      11.914  10.941   7.043  0.00  0.00     0.024 H 
ATOM     67  H   LIG d   1      13.600  10.376   6.954  0.00  0.00     0.024 H 
ATOM     68  H   LIG d   1      12.677  10.662   5.459  0.00  0.00     0.024 H 
ENDBRANCH  59  65
ENDBRANCH  49  59
BRANCH  44  69
ATOM     69  C   LIG d   1      10.716   5.697   1.511  0.00  0.00    -0.039 C 
ATOM     70  H   LIG d   1       9.993   5.020   1.967  0.00  0.00     0.028 H 
ATOM     71  H   LIG d   1      10.263   6.181   0.646  0.00  0.00     0.028 H 
ATOM     72  H   LIG d   1      11.593   5.133   1.195  0.00  0.00     0.028 H 
ENDBRANCH  44  69
ENDBRANCH   3  41
TORSDOF 14
ENDMDL
MODEL 3
REMARK VINA RESULT:      -6.1      1.103      2.557
REMARK  14 active torsions:
REMARK  status: ('A' for Active; 'I' for Inactive)
REMARK    1  A    between atoms: C_1  and  C_2 
REMARK    2  A    between atoms: C_5  and  C_34 
REMARK    3  A    between atoms: C_8  and  C_33 
REMARK    4  A    between atoms: C_10  and  C_12 
REMARK    5  A    between atoms: C_13  and  O_32 
REMARK    6  A    between atoms: C_14  and  C_17 
REMARK    7  A    between atoms: C_15  and  O_16 
REMARK    8  A    between atoms: C_19  and  C_31 
REMARK    9  A    between atoms: C_22  and  C_28 
REMARK   10  A    between atoms: C_25  and  C_27 
REMARK   11  A    between atoms: C_28  and  C_29 
REMARK   12  A    between atoms: C_28  and  C_30 
REMARK   13  A    between atoms: C_34  and  C_35 
REMARK   14  A    between atoms: C_34  and  C_36 
ROOT
ATOM      1  C   LIG d   1      11.224   8.375  -0.501  0.00  0.00     0.067 A 
ATOM      2  C   LIG d   1       9.964   8.142  -1.215  0.00  0.00     0.139 A 
ATOM      3  C   LIG d   1      10.712   7.588  -2.351  0.00  0.00     0.067 A 
ATOM      4  C   LIG d   1      11.973   7.829  -1.638  0.00  0.00     0.139 A 
ENDROOT
BRANCH   1   5
ATOM      5  C   LIG d   1      11.587   8.933   0.811  0.00  0.00    -0.003 A 
ATOM      6  C   LIG d   1      12.057  10.229   1.052  0.00  0.00    -0.050 A 
ATOM      7  C   LIG d   1      12.296  10.407   2.404  0.00  0.00    -0.042 A 
ATOM      8  H   LIG d   1      12.211  10.982   0.294  0.00  0.00     0.063 H 
ATOM      9  C   LIG d   1      11.985   9.229   3.077  0.00  0.00    -0.014 A 
ATOM     10  C   LIG d   1      12.100   9.030   4.456  0.00  0.00    -0.050 A 
ATOM     11  C   LIG d   1      11.526   8.257   2.048  0.00  0.00    -0.007 A 
ATOM     12  C   LIG d   1      11.804   7.880   5.171  0.00  0.00    -0.044 A 
ATOM     13  H   LIG d   1      12.459   9.870   5.030  0.00  0.00     0.063 H 
ATOM     14  C   LIG d   1      11.329   6.658   4.711  0.00  0.00    -0.058 A 
ATOM     15  C   LIG d   1      11.020   6.243   3.431  0.00  0.00    -0.058 A 
ATOM     16  H   LIG d   1      11.178   5.913   5.478  0.00  0.00     0.062 H 
ATOM     17  C   LIG d   1      11.102   6.952   2.231  0.00  0.00    -0.042 A 
ATOM     18  H   LIG d   1      10.664   5.226   3.347  0.00  0.00     0.062 H 
BRANCH   7  19
ATOM     19  C   LIG d   1      12.808  11.672   3.044  0.00  0.00    -0.039 C 
ATOM     20  H   LIG d   1      13.891  11.721   2.936  0.00  0.00     0.028 H 
ATOM     21  H   LIG d   1      12.354  12.535   2.557  0.00  0.00     0.028 H 
ATOM     22  H   LIG d   1      12.548  11.674   4.102  0.00  0.00     0.028 H 
ENDBRANCH   7  19
BRANCH  12  23
ATOM     23  C   LIG d   1      12.030   7.967   6.658  0.00  0.00    -0.021 C 
ATOM     24  H   LIG d   1      13.026   7.593   6.898  0.00  0.00     0.034 H 
BRANCH  23  25
ATOM     25  C   LIG d   1      11.912   9.425   7.107  0.00  0.00    -0.059 C 
ATOM     26  H   LIG d   1      12.813   9.713   7.649  0.00  0.00     0.024 H 
ATOM     27  H   LIG d   1      11.794  10.066   6.233  0.00  0.00     0.024 H 
ATOM     28  H   LIG d   1      11.045   9.536   7.760  0.00  0.00     0.024 H 
ENDBRANCH  23  25
BRANCH  23  29
ATOM     29  C   LIG d   1      10.980   7.124   7.384  0.00  0.00    -0.059 C 
ATOM     30  H   LIG d   1      10.733   6.250   6.779  0.00  0.00     0.024 H 
ATOM     31  H   LIG d   1      11.376   6.800   8.347  0.00  0.00     0.024 H 
ATOM     32  H   LIG d   1      10.082   7.720   7.543  0.00  0.00     0.024 H 
ENDBRANCH  23  29
ENDBRANCH  12  23
BRANCH  17  33
ATOM     33  C   LIG d   1      10.685   6.206   0.989  0.00  0.00    -0.039 C 
ATOM     34  H   LIG d   1      11.340   5.348   0.842  0.00  0.00     0.028 H 
ATOM     35  H   LIG d   1       9.656   5.863   1.099  0.00  0.00     0.028 H 
ATOM     36  H   LIG d   1      10.756   6.869   0.127  0.00  0.00     0.028 H 
ENDBRANCH  17  33
ENDBRANCH   1   5
BRANCH   4  37
ATOM     37  O   LIG d   1      13.272   7.630  -1.914  0.00  0.00    -0.505 OA
ATOM     38  H   LIG d   1      13.745   7.129  -1.235  0.00  0.00     0.292 HD
ENDBRANCH   4  37
BRANCH   2  39
ATOM     39  O   LIG d   1       8.666   8.347  -0.945  0.00  0.00    -0.505 OA
ATOM     40  H   LIG d   1       8.505   8.772  -0.091  0.00  0.00     0.292 HD
ENDBRANCH   2  39
BRANCH   3  41
ATOM     41  C   LIG d   1      10.349   7.031  -3.663  0.00  0.00    -0.003 A 
ATOM     42  C   LIG d   1      10.120   5.669  -3.952  0.00  0.00    -0.007 A 
ATOM     43  C   LIG d   1       9.783   5.602  -5.399  0.00  0.00    -0.014 A 
ATOM     44  C   LIG d   1      10.187   4.630  -3.039  0.00  0.00    -0.042 A 
ATOM     45  C   LIG d   1       9.837   6.905  -5.885  0.00  0.00    -0.042 A 
ATOM     46  C   LIG d   1       9.471   4.469  -6.158  0.00  0.00    -0.050 A 
ATOM     47  C   LIG d   1      10.176   7.757  -4.846  0.00  0.00    -0.050 A 
ATOM     48  H   LIG d   1      10.288   8.827  -4.937  0.00  0.00     0.063 H 
ATOM     49  C   LIG d   1       9.404   3.154  -5.724  0.00  0.00    -0.044 A 
ATOM     50  H   LIG d   1       9.258   4.638  -7.203  0.00  0.00     0.063 H 
ATOM     51  C   LIG d   1       9.623   2.637  -4.453  0.00  0.00    -0.058 A 
ATOM     52  C   LIG d   1       9.965   3.272  -3.275  0.00  0.00    -0.058 A 
ATOM     53  H   LIG d   1       9.506   1.567  -4.372  0.00  0.00     0.062 H 
ATOM     54  H   LIG d   1      10.075   2.627  -2.416  0.00  0.00     0.062 H 
BRANCH  45  55
ATOM     55  C   LIG d   1       9.571   7.323  -7.308  0.00  0.00    -0.039 C 
ATOM     56  H   LIG d   1       8.798   6.685  -7.735  0.00  0.00     0.028 H 
ATOM     57  H   LIG d   1       9.237   8.360  -7.325  0.00  0.00     0.028 H 
ATOM     58  H   LIG d   1      10.485   7.226  -7.892  0.00  0.00     0.028 H 
ENDBRANCH  45  55
BRANCH  49  59
ATOM     59  C   LIG d   1       9.042   2.143  -6.780  0.00  0.00    -0.021 C 
ATOM     60  H   LIG d   1       8.061   1.722  -6.559  0.00  0.00     0.034 H 
BRANCH  59  61
ATOM     61  C   LIG d   1       9.006   2.825  -8.149  0.00  0.00    -0.059 C 
ATOM     62  H   LIG d   1       9.988   3.244  -8.372  0.00  0.00     0.024 H 
ATOM     63  H   LIG d   1       8.740   2.095  -8.912  0.00  0.00     0.024 H 
ATOM     64  H   LIG d   1       8.265   3.625  -8.137  0.00  0.00     0.024 H 
ENDBRANCH  59  61
BRANCH  59  65
ATOM     65  C   LIG d   1      10.086   1.024  -6.795  0.00  0.00    -0.059 C 
ATOM     66  H   LIG d   1       9.894   0.360  -7.637  0.00  0.00     0.024 H 
ATOM     67  H   LIG d   1      11.081   1.457  -6.891  0.00  0.00     0.024 H 
ATOM     68  H   LIG d   1      10.024   0.457  -5.865  0.00  0.00     0.024 H 
ENDBRANCH  59  65
ENDBRANCH  49  59
BRANCH  44  69
ATOM     69  C   LIG d   1      10.550   5.008  -1.625  0.00  0.00    -0.039 C 
ATOM     70  H   LIG d   1      10.450   4.137  -0.978  0.00  0.00     0.028 H 
ATOM     71  H   LIG d   1      11.579   5.364  -1.598  0.00  0.00     0.028 H 
ATOM     72  H   LIG d   1       9.883   5.797  -1.278  0.00  0.00     0.028 H 
ENDBRANCH  44  69
ENDBRANCH   3  41
TORSDOF 14
ENDMDL
MODEL 4
REMARK VINA RESULT:      -6.0      4.242      8.543
REMARK  14 active torsions:
REMARK  status: ('A' for Active; 'I' for Inactive)
REMARK    1  A    between atoms: C_1  and  C_2 
REMARK    2  A    between atoms: C_5  and  C_34 
REMARK    3  A    between atoms: C_8  and  C_33 
REMARK    4  A    between atoms: C_10  and  C_12 
REMARK    5  A    between atoms: C_13  and  O_32 
REMARK    6  A    between atoms: C_14  and  C_17 
REMARK    7  A    between atoms: C_15  and  O_16 
REMARK    8  A    between atoms: C_19  and  C_31 
REMARK    9  A    between atoms: C_22  and  C_28 
REMARK   10  A    between atoms: C_25  and  C_27 
REMARK   11  A    between atoms: C_28  and  C_29 
REMARK   12  A    between atoms: C_28  and  C_30 
REMARK   13  A    between atoms: C_34  and  C_35 
REMARK   14  A    between atoms: C_34  and  C_36 
ROOT
ATOM      1  C   LIG d   1      10.160   7.162  -7.877  0.00  0.00     0.067 A 
ATOM      2  C   LIG d   1      11.201   7.045  -8.904  0.00  0.00     0.139 A 
ATOM      3  C   LIG d   1      10.429   7.930  -9.785  0.00  0.00     0.067 A 
ATOM      4  C   LIG d   1       9.385   8.041  -8.760  0.00  0.00     0.139 A 
ENDROOT
BRANCH   1   5
ATOM      5  C   LIG d   1       9.970   6.617  -6.523  0.00  0.00    -0.003 A 
ATOM      6  C   LIG d   1       9.661   5.290  -6.207  0.00  0.00    -0.050 A 
ATOM      7  C   LIG d   1       9.557   5.137  -4.835  0.00  0.00    -0.042 A 
ATOM      8  H   LIG d   1       9.524   4.499  -6.928  0.00  0.00     0.063 H 
ATOM      9  C   LIG d   1       9.797   6.365  -4.224  0.00  0.00    -0.014 A 
ATOM     10  C   LIG d   1       9.778   6.600  -2.847  0.00  0.00    -0.050 A 
ATOM     11  C   LIG d   1      10.064   7.341  -5.315  0.00  0.00    -0.007 A 
ATOM     12  C   LIG d   1      10.010   7.800  -2.192  0.00  0.00    -0.044 A 
ATOM     13  H   LIG d   1       9.559   5.749  -2.220  0.00  0.00     0.063 H 
ATOM     14  C   LIG d   1      10.313   9.047  -2.724  0.00  0.00    -0.058 A 
ATOM     15  C   LIG d   1      10.468   9.445  -4.037  0.00  0.00    -0.058 A 
ATOM     16  H   LIG d   1      10.449   9.831  -1.994  0.00  0.00     0.062 H 
ATOM     17  C   LIG d   1      10.361   8.689  -5.206  0.00  0.00    -0.042 A 
ATOM     18  H   LIG d   1      10.707  10.489  -4.179  0.00  0.00     0.062 H 
BRANCH   7  19
ATOM     19  C   LIG d   1       9.236   3.850  -4.119  0.00  0.00    -0.039 C 
ATOM     20  H   LIG d   1      10.144   3.257  -4.015  0.00  0.00     0.028 H 
ATOM     21  H   LIG d   1       8.832   4.074  -3.132  0.00  0.00     0.028 H 
ATOM     22  H   LIG d   1       8.500   3.289  -4.695  0.00  0.00     0.028 H 
ENDBRANCH   7  19
BRANCH  12  23
ATOM     23  C   LIG d   1       9.921   7.743  -0.688  0.00  0.00    -0.021 C 
ATOM     24  H   LIG d   1       8.874   7.685  -0.388  0.00  0.00     0.034 H 
BRANCH  23  25
ATOM     25  C   LIG d   1      10.666   6.508  -0.179  0.00  0.00    -0.059 C 
ATOM     26  H   LIG d   1      10.173   6.130   0.717  0.00  0.00     0.024 H 
ATOM     27  H   LIG d   1      10.659   5.736  -0.949  0.00  0.00     0.024 H 
ATOM     28  H   LIG d   1      11.695   6.776   0.059  0.00  0.00     0.024 H 
ENDBRANCH  23  25
BRANCH  23  29
ATOM     29  C   LIG d   1      10.554   9.002  -0.092  0.00  0.00    -0.059 C 
ATOM     30  H   LIG d   1       9.882   9.849  -0.235  0.00  0.00     0.024 H 
ATOM     31  H   LIG d   1      10.727   8.852   0.974  0.00  0.00     0.024 H 
ATOM     32  H   LIG d   1      11.502   9.202  -0.590  0.00  0.00     0.024 H 
ENDBRANCH  23  29
ENDBRANCH  12  23
BRANCH  17  33
ATOM     33  C   LIG d   1      10.592   9.427  -6.500  0.00  0.00    -0.039 C 
ATOM     34  H   LIG d   1      11.596   9.850  -6.503  0.00  0.00     0.028 H 
ATOM     35  H   LIG d   1      10.485   8.737  -7.336  0.00  0.00     0.028 H 
ATOM     36  H   LIG d   1       9.860  10.229  -6.595  0.00  0.00     0.028 H 
ENDBRANCH  17  33
ENDBRANCH   1   5
BRANCH   4  37
ATOM     37  O   LIG d   1       8.209   8.682  -8.668  0.00  0.00    -0.505 OA
ATOM     38  H   LIG d   1       7.952   8.903  -7.762  0.00  0.00     0.292 HD
ENDBRANCH   4  37
BRANCH   2  39
ATOM     39  O   LIG d   1      12.373   6.399  -9.000  0.00  0.00    -0.505 OA
ATOM     40  H   LIG d   1      12.435   5.808  -9.763  0.00  0.00     0.292 HD
ENDBRANCH   2  39
BRANCH   3  41
ATOM     41  C   LIG d   1      10.619   8.474 -11.139  0.00  0.00    -0.003 A 
ATOM     42  C   LIG d   1      10.153   7.897 -12.339  0.00  0.00    -0.007 A 
ATOM     43  C   LIG d   1      10.586   8.807 -13.433  0.00  0.00    -0.014 A 
ATOM     44  C   LIG d   1       9.424   6.724 -12.438  0.00  0.00    -0.042 A 
ATOM     45  C   LIG d   1      11.281   9.854 -12.834  0.00  0.00    -0.042 A 
ATOM     46  C   LIG d   1      10.361   8.669 -14.806  0.00  0.00    -0.050 A 
ATOM     47  C   LIG d   1      11.301   9.653 -11.463  0.00  0.00    -0.050 A 
ATOM     48  H   LIG d   1      11.772  10.311 -10.750  0.00  0.00     0.063 H 
ATOM     49  C   LIG d   1       9.677   7.650 -15.452  0.00  0.00    -0.044 A 
ATOM     50  H   LIG d   1      10.766   9.446 -15.438  0.00  0.00     0.063 H 
ATOM     51  C   LIG d   1       9.054   6.531 -14.911  0.00  0.00    -0.058 A 
ATOM     52  C   LIG d   1       8.938   6.118 -13.599  0.00  0.00    -0.058 A 
ATOM     53  H   LIG d   1       8.584   5.880 -15.633  0.00  0.00     0.062 H 
ATOM     54  H   LIG d   1       8.395   5.198 -13.448  0.00  0.00     0.062 H 
BRANCH  45  55
ATOM     55  C   LIG d   1      11.911  11.016 -13.557  0.00  0.00    -0.039 C 
ATOM     56  H   LIG d   1      11.792  10.883 -14.632  0.00  0.00     0.028 H 
ATOM     57  H   LIG d   1      11.425  11.941 -13.249  0.00  0.00     0.028 H 
ATOM     58  H   LIG d   1      12.972  11.065 -13.312  0.00  0.00     0.028 H 
ENDBRANCH  45  55
BRANCH  49  59
ATOM     59  C   LIG d   1       9.597   7.773 -16.950  0.00  0.00    -0.021 C 
ATOM     60  H   LIG d   1      10.535   7.437 -17.393  0.00  0.00     0.034 H 
BRANCH  59  61
ATOM     61  C   LIG d   1       8.449   6.908 -17.473  0.00  0.00    -0.059 C 
ATOM     62  H   LIG d   1       8.402   6.983 -18.560  0.00  0.00     0.024 H 
ATOM     63  H   LIG d   1       8.616   5.871 -17.187  0.00  0.00     0.024 H 
ATOM     64  H   LIG d   1       7.508   7.256 -17.046  0.00  0.00     0.024 H 
ENDBRANCH  59  61
BRANCH  59  65
ATOM     65  C   LIG d   1       9.349   9.234 -17.330  0.00  0.00    -0.059 C 
ATOM     66  H   LIG d   1       8.957   9.284 -18.347  0.00  0.00     0.024 H 
ATOM     67  H   LIG d   1       8.628   9.672 -16.641  0.00  0.00     0.024 H 
ATOM     68  H   LIG d   1      10.286   9.788 -17.276  0.00  0.00     0.024 H 
ENDBRANCH  59  65
ENDBRANCH  49  59
BRANCH  44  69
ATOM     69  C   LIG d   1       9.126   6.014 -11.143  0.00  0.00    -0.039 C 
ATOM     70  H   LIG d   1       8.194   5.457 -11.238  0.00  0.00     0.028 H 
ATOM     71  H   LIG d   1       9.938   5.325 -10.912  0.00  0.00     0.028 H 
ATOM     72  H   LIG d   1       9.031   6.746 -10.340  0.00  0.00     0.028 H 
ENDBRANCH  44  69
ENDBRANCH   3  41
TORSDOF 14
ENDMDL
MODEL 5
REMARK VINA RESULT:      -5.9      4.192     12.565
REMARK  14 active torsions:
REMARK  status: ('A' for Active; 'I' for Inactive)
REMARK    1  A    between atoms: C_1  and  C_2 
REMARK    2  A    between atoms: C_5  and  C_34 
REMARK    3  A    between atoms: C_8  and  C_33 
REMARK    4  A    between atoms: C_10  and  C_12 
REMARK    5  A    between atoms: C_13  and  O_32 
REMARK    6  A    between atoms: C_14  and  C_17 
REMARK    7  A    between atoms: C_15  and  O_16 
REMARK    8  A    between atoms: C_19  and  C_31 
REMARK    9  A    between atoms: C_22  and  C_28 
REMARK   10  A    between atoms: C_25  and  C_27 
REMARK   11  A    between atoms: C_28  and  C_29 
REMARK   12  A    between atoms: C_28  and  C_30 
REMARK   13  A    between atoms: C_34  and  C_35 
REMARK   14  A    between atoms: C_34  and  C_36 
ROOT
ATOM      1  C   LIG d   1      10.385   7.834  -9.756  0.00  0.00     0.067 A 
ATOM      2  C   LIG d   1      11.185   6.982  -8.868  0.00  0.00     0.139 A 
ATOM      3  C   LIG d   1      10.126   7.047  -7.854  0.00  0.00     0.067 A 
ATOM      4  C   LIG d   1       9.329   7.905  -8.739  0.00  0.00     0.139 A 
ENDROOT
BRANCH   1   5
ATOM      5  C   LIG d   1      10.569   8.392 -11.105  0.00  0.00    -0.003 A 
ATOM      6  C   LIG d   1      11.236   9.581 -11.418  0.00  0.00    -0.050 A 
ATOM      7  C   LIG d   1      11.216   9.794 -12.787  0.00  0.00    -0.042 A 
ATOM      8  H   LIG d   1      11.700  10.238 -10.699  0.00  0.00     0.063 H 
ATOM      9  C   LIG d   1      10.534   8.745 -13.397  0.00  0.00    -0.014 A 
ATOM     10  C   LIG d   1      10.312   8.616 -14.770  0.00  0.00    -0.050 A 
ATOM     11  C   LIG d   1      10.102   7.825 -12.310  0.00  0.00    -0.007 A 
ATOM     12  C   LIG d   1       9.641   7.594 -15.425  0.00  0.00    -0.044 A 
ATOM     13  H   LIG d   1      10.709   9.402 -15.394  0.00  0.00     0.063 H 
ATOM     14  C   LIG d   1       9.033   6.463 -14.895  0.00  0.00    -0.058 A 
ATOM     15  C   LIG d   1       8.921   6.037 -13.587  0.00  0.00    -0.058 A 
ATOM     16  H   LIG d   1       8.572   5.813 -15.624  0.00  0.00     0.062 H 
ATOM     17  C   LIG d   1       9.399   6.638 -12.420  0.00  0.00    -0.042 A 
ATOM     18  H   LIG d   1       8.390   5.107 -13.446  0.00  0.00     0.062 H 
BRANCH   7  19
ATOM     19  C   LIG d   1      11.833  10.970 -13.499  0.00  0.00    -0.039 C 
ATOM     20  H   LIG d   1      11.419  11.895 -13.098  0.00  0.00     0.028 H 
ATOM     21  H   LIG d   1      12.913  10.959 -13.350  0.00  0.00     0.028 H 
ATOM     22  H   LIG d   1      11.612  10.905 -14.564  0.00  0.00     0.028 H 
ENDBRANCH   7  19
BRANCH  12  23
ATOM     23  C   LIG d   1       9.562   7.729 -16.924  0.00  0.00    -0.021 C 
ATOM     24  H   LIG d   1      10.505   7.409 -17.368  0.00  0.00     0.034 H 
BRANCH  23  25
ATOM     25  C   LIG d   1       8.425   6.853 -17.456  0.00  0.00    -0.059 C 
ATOM     26  H   LIG d   1       8.150   6.117 -16.701  0.00  0.00     0.024 H 
ATOM     27  H   LIG d   1       7.562   7.479 -17.684  0.00  0.00     0.024 H 
ATOM     28  H   LIG d   1       8.754   6.341 -18.360  0.00  0.00     0.024 H 
ENDBRANCH  23  25
BRANCH  23  29
ATOM     29  C   LIG d   1       9.294   9.190 -17.291  0.00  0.00    -0.059 C 
ATOM     30  H   LIG d   1       8.531   9.598 -16.628  0.00  0.00     0.024 H 
ATOM     31  H   LIG d   1      10.214   9.766 -17.184  0.00  0.00     0.024 H 
ATOM     32  H   LIG d   1       8.947   9.247 -18.322  0.00  0.00     0.024 H 
ENDBRANCH  23  29
ENDBRANCH  12  23
BRANCH  17  33
ATOM     33  C   LIG d   1       9.109   5.912 -11.131  0.00  0.00    -0.039 C 
ATOM     34  H   LIG d   1       8.040   5.949 -10.926  0.00  0.00     0.028 H 
ATOM     35  H   LIG d   1       9.426   4.873 -11.221  0.00  0.00     0.028 H 
ATOM     36  H   LIG d   1       9.653   6.389 -10.316  0.00  0.00     0.028 H 
ENDBRANCH  17  33
ENDBRANCH   1   5
BRANCH   4  37
ATOM     37  O   LIG d   1       8.131   8.505  -8.654  0.00  0.00    -0.505 OA
ATOM     38  H   LIG d   1       7.685   8.613  -9.505  0.00  0.00     0.292 HD
ENDBRANCH   4  37
BRANCH   2  39
ATOM     39  O   LIG d   1      12.386   6.388  -8.949  0.00  0.00    -0.505 OA
ATOM     40  H   LIG d   1      12.591   6.034  -9.825  0.00  0.00     0.292 HD
ENDBRANCH   2  39
BRANCH   3  41
ATOM     41  C   LIG d   1       9.942   6.489  -6.505  0.00  0.00    -0.003 A 
ATOM     42  C   LIG d   1      10.061   7.197  -5.290  0.00  0.00    -0.007 A 
ATOM     43  C   LIG d   1       9.785   6.214  -4.208  0.00  0.00    -0.014 A 
ATOM     44  C   LIG d   1      10.359   8.544  -5.169  0.00  0.00    -0.042 A 
ATOM     45  C   LIG d   1       9.529   4.995  -4.829  0.00  0.00    -0.042 A 
ATOM     46  C   LIG d   1       9.780   6.435  -2.827  0.00  0.00    -0.050 A 
ATOM     47  C   LIG d   1       9.624   5.161  -6.200  0.00  0.00    -0.050 A 
ATOM     48  H   LIG d   1       9.473   4.379  -6.929  0.00  0.00     0.063 H 
ATOM     49  C   LIG d   1      10.027   7.626  -2.161  0.00  0.00    -0.044 A 
ATOM     50  H   LIG d   1       9.557   5.580  -2.207  0.00  0.00     0.063 H 
ATOM     51  C   LIG d   1      10.336   8.876  -2.684  0.00  0.00    -0.058 A 
ATOM     52  C   LIG d   1      10.483   9.287  -3.994  0.00  0.00    -0.058 A 
ATOM     53  H   LIG d   1      10.483   9.652  -1.948  0.00  0.00     0.062 H 
ATOM     54  H   LIG d   1      10.728  10.330  -4.128  0.00  0.00     0.062 H 
BRANCH  45  55
ATOM     55  C   LIG d   1       9.203   3.704  -4.124  0.00  0.00    -0.039 C 
ATOM     56  H   LIG d   1       9.132   3.883  -3.051  0.00  0.00     0.028 H 
ATOM     57  H   LIG d   1       8.252   3.320  -4.492  0.00  0.00     0.028 H 
ATOM     58  H   LIG d   1       9.989   2.974  -4.318  0.00  0.00     0.028 H 
ENDBRANCH  45  55
BRANCH  49  59
ATOM     59  C   LIG d   1       9.949   7.554  -0.659  0.00  0.00    -0.021 C 
ATOM     60  H   LIG d   1       8.905   7.500  -0.351  0.00  0.00     0.034 H 
BRANCH  59  61
ATOM     61  C   LIG d   1      10.690   6.309  -0.169  0.00  0.00    -0.059 C 
ATOM     62  H   LIG d   1      10.132   5.852   0.649  0.00  0.00     0.024 H 
ATOM     63  H   LIG d   1      10.784   5.596  -0.987  0.00  0.00     0.024 H 
ATOM     64  H   LIG d   1      11.683   6.591   0.183  0.00  0.00     0.024 H 
ENDBRANCH  59  61
BRANCH  59  65
ATOM     65  C   LIG d   1      10.595   8.803  -0.054  0.00  0.00    -0.059 C 
ATOM     66  H   LIG d   1      10.955   9.450  -0.855  0.00  0.00     0.024 H 
ATOM     67  H   LIG d   1       9.860   9.339   0.545  0.00  0.00     0.024 H 
ATOM     68  H   LIG d   1      11.434   8.508   0.577  0.00  0.00     0.024 H 
ENDBRANCH  59  65
ENDBRANCH  49  59
BRANCH  44  69
ATOM     69  C   LIG d   1      10.584   9.294  -6.457  0.00  0.00    -0.039 C 
ATOM     70  H   LIG d   1      10.004  10.217  -6.447  0.00  0.00     0.028 H 
ATOM     71  H   LIG d   1      11.643   9.532  -6.558  0.00  0.00     0.028 H 
ATOM     72  H   LIG d   1      10.269   8.676  -7.298  0.00  0.00     0.028 H 
ENDBRANCH  44  69
ENDBRANCH   3  41
TORSDOF 14
ENDMDL
MODEL 6
REMARK VINA RESULT:      -5.7      9.727     17.108
REMARK  14 active torsions:
REMARK  status: ('A' for Active; 'I' for Inactive)
REMARK    1  A    between atoms: C_1  and  C_2 
REMARK    2  A    between atoms: C_5  and  C_34 
REMARK    3  A    between atoms: C_8  and  C_33 
REMARK    4  A    between atoms: C_10  and  C_12 
REMARK    5  A    between atoms: C_13  and  O_32 
REMARK    6  A    between atoms: C_14  and  C_17 
REMARK    7  A    between atoms: C_15  and  O_16 
REMARK    8  A    between atoms: C_19  and  C_31 
REMARK    9  A    between atoms: C_22  and  C_28 
REMARK   10  A    between atoms: C_25  and  C_27 
REMARK   11  A    between atoms: C_28  and  C_29 
REMARK   12  A    between atoms: C_28  and  C_30 
REMARK   13  A    between atoms: C_34  and  C_35 
REMARK   14  A    between atoms: C_34  and  C_36 
ROOT
ATOM      1  C   LIG d   1       4.587  -1.006 -11.515  0.00  0.00     0.067 A 
ATOM      2  C   LIG d   1       4.808   0.084 -10.558  0.00  0.00     0.139 A 
ATOM      3  C   LIG d   1       5.139  -0.897  -9.518  0.00  0.00     0.067 A 
ATOM      4  C   LIG d   1       4.911  -1.987 -10.473  0.00  0.00     0.139 A 
ENDROOT
BRANCH   1   5
ATOM      5  C   LIG d   1       4.195  -1.083 -12.931  0.00  0.00    -0.003 A 
ATOM      6  C   LIG d   1       5.004  -0.762 -14.027  0.00  0.00    -0.050 A 
ATOM      7  C   LIG d   1       4.307  -0.954 -15.208  0.00  0.00    -0.042 A 
ATOM      8  H   LIG d   1       6.024  -0.415 -13.962  0.00  0.00     0.063 H 
ATOM      9  C   LIG d   1       3.025  -1.406 -14.907  0.00  0.00    -0.014 A 
ATOM     10  C   LIG d   1       2.034  -1.709 -15.845  0.00  0.00    -0.050 A 
ATOM     11  C   LIG d   1       2.938  -1.491 -13.424  0.00  0.00    -0.007 A 
ATOM     12  C   LIG d   1       0.747  -2.161 -15.597  0.00  0.00    -0.044 A 
ATOM     13  H   LIG d   1       2.302  -1.576 -16.882  0.00  0.00     0.063 H 
ATOM     14  C   LIG d   1       0.127  -2.424 -14.381  0.00  0.00    -0.058 A 
ATOM     15  C   LIG d   1       0.605  -2.311 -13.091  0.00  0.00    -0.058 A 
ATOM     16  H   LIG d   1      -0.892  -2.771 -14.459  0.00  0.00     0.062 H 
ATOM     17  C   LIG d   1       1.864  -1.897 -12.650  0.00  0.00    -0.042 A 
ATOM     18  H   LIG d   1      -0.093  -2.583 -12.313  0.00  0.00     0.062 H 
BRANCH   7  19
ATOM     19  C   LIG d   1       4.849  -0.713 -16.593  0.00  0.00    -0.039 C 
ATOM     20  H   LIG d   1       4.090  -0.975 -17.330  0.00  0.00     0.028 H 
ATOM     21  H   LIG d   1       5.114   0.339 -16.701  0.00  0.00     0.028 H 
ATOM     22  H   LIG d   1       5.734  -1.329 -16.748  0.00  0.00     0.028 H 
ENDBRANCH   7  19
BRANCH  12  23
ATOM     23  C   LIG d   1      -0.100  -2.404 -16.820  0.00  0.00    -0.021 C 
ATOM     24  H   LIG d   1       0.136  -3.383 -17.237  0.00  0.00     0.034 H 
BRANCH  23  25
ATOM     25  C   LIG d   1      -1.580  -2.357 -16.434  0.00  0.00    -0.059 C 
ATOM     26  H   LIG d   1      -1.996  -3.364 -16.471  0.00  0.00     0.024 H 
ATOM     27  H   LIG d   1      -1.679  -1.960 -15.424  0.00  0.00     0.024 H 
ATOM     28  H   LIG d   1      -2.117  -1.716 -17.132  0.00  0.00     0.024 H 
ENDBRANCH  23  25
BRANCH  23  29
ATOM     29  C   LIG d   1       0.189  -1.322 -17.863  0.00  0.00    -0.059 C 
ATOM     30  H   LIG d   1      -0.117  -0.350 -17.473  0.00  0.00     0.024 H 
ATOM     31  H   LIG d   1       1.257  -1.305 -18.083  0.00  0.00     0.024 H 
ATOM     32  H   LIG d   1      -0.366  -1.539 -18.774  0.00  0.00     0.024 H 
ENDBRANCH  23  29
ENDBRANCH  12  23
BRANCH  17  33
ATOM     33  C   LIG d   1       2.075  -1.885 -11.158  0.00  0.00    -0.039 C 
ATOM     34  H   LIG d   1       1.145  -2.153 -10.657  0.00  0.00     0.028 H 
ATOM     35  H   LIG d   1       2.849  -2.606 -10.895  0.00  0.00     0.028 H 
ATOM     36  H   LIG d   1       2.383  -0.889 -10.843  0.00  0.00     0.028 H 
ENDBRANCH  17  33
ENDBRANCH   1   5
BRANCH   4  37
ATOM     37  O   LIG d   1       4.973  -3.327 -10.417  0.00  0.00    -0.505 OA
ATOM     38  H   LIG d   1       4.111  -3.763 -10.462  0.00  0.00     0.292 HD
ENDBRANCH   4  37
BRANCH   2  39
ATOM     39  O   LIG d   1       4.738   1.424 -10.612  0.00  0.00    -0.505 OA
ATOM     40  H   LIG d   1       5.507   1.873 -10.236  0.00  0.00     0.292 HD
ENDBRANCH   2  39
BRANCH   3  41
ATOM     41  C   LIG d   1       5.529  -0.819  -8.101  0.00  0.00    -0.003 A 
ATOM     42  C   LIG d   1       4.678  -0.506  -7.021  0.00  0.00    -0.007 A 
ATOM     43  C   LIG d   1       5.523  -0.554  -5.798  0.00  0.00    -0.014 A 
ATOM     44  C   LIG d   1       3.324  -0.233  -7.116  0.00  0.00    -0.042 A 
ATOM     45  C   LIG d   1       6.812  -0.879  -6.213  0.00  0.00    -0.042 A 
ATOM     46  C   LIG d   1       5.136  -0.319  -4.475  0.00  0.00    -0.050 A 
ATOM     47  C   LIG d   1       6.813  -1.037  -7.589  0.00  0.00    -0.050 A 
ATOM     48  H   LIG d   1       7.680  -1.292  -8.180  0.00  0.00     0.063 H 
ATOM     49  C   LIG d   1       3.871   0.006  -4.011  0.00  0.00    -0.044 A 
ATOM     50  H   LIG d   1       5.912  -0.401  -3.728  0.00  0.00     0.063 H 
ATOM     51  C   LIG d   1       2.691   0.178  -4.725  0.00  0.00    -0.058 A 
ATOM     52  C   LIG d   1       2.442   0.077  -6.079  0.00  0.00    -0.058 A 
ATOM     53  H   LIG d   1       1.830   0.432  -4.125  0.00  0.00     0.062 H 
ATOM     54  H   LIG d   1       1.421   0.261  -6.377  0.00  0.00     0.062 H 
BRANCH  45  55
ATOM     55  C   LIG d   1       8.010  -1.035  -5.313  0.00  0.00    -0.039 C 
ATOM     56  H   LIG d   1       8.921  -0.887  -5.893  0.00  0.00     0.028 H 
ATOM     57  H   LIG d   1       7.963  -0.294  -4.515  0.00  0.00     0.028 H 
ATOM     58  H   LIG d   1       8.013  -2.035  -4.880  0.00  0.00     0.028 H 
ENDBRANCH  45  55
BRANCH  49  59
ATOM     59  C   LIG d   1       3.760   0.201  -2.521  0.00  0.00    -0.021 C 
ATOM     60  H   LIG d   1       2.716   0.367  -2.254  0.00  0.00     0.034 H 
BRANCH  59  61
ATOM     61  C   LIG d   1       4.277  -1.047  -1.804  0.00  0.00    -0.059 C 
ATOM     62  H   LIG d   1       4.480  -1.830  -2.535  0.00  0.00     0.024 H 
ATOM     63  H   LIG d   1       5.194  -0.804  -1.268  0.00  0.00     0.024 H 
ATOM     64  H   LIG d   1       3.525  -1.398  -1.096  0.00  0.00     0.024 H 
ENDBRANCH  59  61
BRANCH  59  65
ATOM     65  C   LIG d   1       4.594   1.413  -2.101  0.00  0.00    -0.059 C 
ATOM     66  H   LIG d   1       5.588   1.083  -1.800  0.00  0.00     0.024 H 
ATOM     67  H   LIG d   1       4.678   2.104  -2.939  0.00  0.00     0.024 H 
ATOM     68  H   LIG d   1       4.109   1.915  -1.263  0.00  0.00     0.024 H 
ENDBRANCH  59  65
ENDBRANCH  49  59
BRANCH  44  69
ATOM     69  C   LIG d   1       2.734  -0.265  -8.503  0.00  0.00    -0.039 C 
ATOM     70  H   LIG d   1       3.526  -0.438  -9.231  0.00  0.00     0.028 H 
ATOM     71  H   LIG d   1       2.000  -1.068  -8.567  0.00  0.00     0.028 H 
ATOM     72  H   LIG d   1       2.249   0.688  -8.714  0.00  0.00     0.028 H 
ENDBRANCH  44  69
ENDBRANCH   3  41
TORSDOF 14
ENDMDL
MODEL 7
REMARK VINA RESULT:      -5.7      9.625     14.102
REMARK  14 active torsions:
REMARK  status: ('A' for Active; 'I' for Inactive)
REMARK    1  A    between atoms: C_1  and  C_2 
REMARK    2  A    between atoms: C_5  and  C_34 
REMARK    3  A    between atoms: C_8  and  C_33 
REMARK    4  A    between atoms: C_10  and  C_12 
REMARK    5  A    between atoms: C_13  and  O_32 
REMARK    6  A    between atoms: C_14  and  C_17 
REMARK    7  A    between atoms: C_15  and  O_16 
REMARK    8  A    between atoms: C_19  and  C_31 
REMARK    9  A    between atoms: C_22  and  C_28 
REMARK   10  A    between atoms: C_25  and  C_27 
REMARK   11  A    between atoms: C_28  and  C_29 
REMARK   12  A    between atoms: C_28  and  C_30 
REMARK   13  A    between atoms: C_34  and  C_35 
REMARK   14  A    between atoms: C_34  and  C_36 
ROOT
ATOM      1  C   LIG d   1       5.090  -0.878  -9.395  0.00  0.00     0.067 A 
ATOM      2  C   LIG d   1       4.737   0.078 -10.451  0.00  0.00     0.139 A 
ATOM      3  C   LIG d   1       4.506  -1.036 -11.380  0.00  0.00     0.067 A 
ATOM      4  C   LIG d   1       4.866  -1.991 -10.325  0.00  0.00     0.139 A 
ENDROOT
BRANCH   1   5
ATOM      5  C   LIG d   1       5.505  -0.765  -7.988  0.00  0.00    -0.003 A 
ATOM      6  C   LIG d   1       6.808  -0.911  -7.501  0.00  0.00    -0.050 A 
ATOM      7  C   LIG d   1       6.827  -0.739  -6.127  0.00  0.00    -0.042 A 
ATOM      8  H   LIG d   1       7.675  -1.126  -8.108  0.00  0.00     0.063 H 
ATOM      9  C   LIG d   1       5.533  -0.476  -5.687  0.00  0.00    -0.014 A 
ATOM     10  C   LIG d   1       5.161  -0.248  -4.360  0.00  0.00    -0.050 A 
ATOM     11  C   LIG d   1       4.659  -0.495  -6.892  0.00  0.00    -0.007 A 
ATOM     12  C   LIG d   1       3.890   0.017  -3.872  0.00  0.00    -0.044 A 
ATOM     13  H   LIG d   1       5.955  -0.281  -3.629  0.00  0.00     0.063 H 
ATOM     14  C   LIG d   1       2.689   0.122  -4.563  0.00  0.00    -0.058 A 
ATOM     15  C   LIG d   1       2.418  -0.007  -5.910  0.00  0.00    -0.058 A 
ATOM     16  H   LIG d   1       1.829   0.337  -3.946  0.00  0.00     0.062 H 
ATOM     17  C   LIG d   1       3.293  -0.280  -6.963  0.00  0.00    -0.042 A 
ATOM     18  H   LIG d   1       1.383   0.124  -6.189  0.00  0.00     0.062 H 
BRANCH   7  19
ATOM     19  C   LIG d   1       8.051  -0.822  -5.251  0.00  0.00    -0.039 C 
ATOM     20  H   LIG d   1       8.699  -1.621  -5.609  0.00  0.00     0.028 H 
ATOM     21  H   LIG d   1       8.587   0.126  -5.285  0.00  0.00     0.028 H 
ATOM     22  H   LIG d   1       7.748  -1.032  -4.225  0.00  0.00     0.028 H 
ENDBRANCH   7  19
BRANCH  12  23
ATOM     23  C   LIG d   1       3.799   0.222  -2.382  0.00  0.00    -0.021 C 
ATOM     24  H   LIG d   1       2.763   0.416  -2.104  0.00  0.00     0.034 H 
BRANCH  23  25
ATOM     25  C   LIG d   1       4.293  -1.035  -1.663  0.00  0.00    -0.059 C 
ATOM     26  H   LIG d   1       3.452  -1.529  -1.176  0.00  0.00     0.024 H 
ATOM     27  H   LIG d   1       4.743  -1.714  -2.387  0.00  0.00     0.024 H 
ATOM     28  H   LIG d   1       5.034  -0.758  -0.913  0.00  0.00     0.024 H 
ENDBRANCH  23  25
BRANCH  23  29
ATOM     29  C   LIG d   1       4.668   1.415  -1.977  0.00  0.00    -0.059 C 
ATOM     30  H   LIG d   1       4.688   2.143  -2.789  0.00  0.00     0.024 H 
ATOM     31  H   LIG d   1       4.253   1.880  -1.082  0.00  0.00     0.024 H 
ATOM     32  H   LIG d   1       5.682   1.072  -1.772  0.00  0.00     0.024 H 
ENDBRANCH  23  29
ENDBRANCH  12  23
BRANCH  17  33
ATOM     33  C   LIG d   1       2.678  -0.356  -8.337  0.00  0.00    -0.039 C 
ATOM     34  H   LIG d   1       2.459  -1.395  -8.580  0.00  0.00     0.028 H 
ATOM     35  H   LIG d   1       1.755   0.223  -8.354  0.00  0.00     0.028 H 
ATOM     36  H   LIG d   1       3.375   0.049  -9.070  0.00  0.00     0.028 H 
ENDBRANCH  17  33
ENDBRANCH   1   5
BRANCH   4  37
ATOM     37  O   LIG d   1       4.953  -3.328 -10.245  0.00  0.00    -0.505 OA
ATOM     38  H   LIG d   1       5.459  -3.643  -9.483  0.00  0.00     0.292 HD
ENDBRANCH   4  37
BRANCH   2  39
ATOM     39  O   LIG d   1       4.657   1.415 -10.535  0.00  0.00    -0.505 OA
ATOM     40  H   LIG d   1       4.665   1.864  -9.679  0.00  0.00     0.292 HD
ENDBRANCH   2  39
BRANCH   3  41
ATOM     41  C   LIG d   1       4.092  -1.148 -12.787  0.00  0.00    -0.003 A 
ATOM     42  C   LIG d   1       2.833  -1.585 -13.250  0.00  0.00    -0.007 A 
ATOM     43  C   LIG d   1       2.891  -1.524 -14.735  0.00  0.00    -0.014 A 
ATOM     44  C   LIG d   1       1.770  -1.970 -12.449  0.00  0.00    -0.042 A 
ATOM     45  C   LIG d   1       4.164  -1.068 -15.068  0.00  0.00    -0.042 A 
ATOM     46  C   LIG d   1       1.887  -1.854 -15.650  0.00  0.00    -0.050 A 
ATOM     47  C   LIG d   1       4.880  -0.844 -13.903  0.00  0.00    -0.050 A 
ATOM     48  H   LIG d   1       5.897  -0.487 -13.863  0.00  0.00     0.063 H 
ATOM     49  C   LIG d   1       0.608  -2.311 -15.371  0.00  0.00    -0.044 A 
ATOM     50  H   LIG d   1       2.136  -1.742 -16.694  0.00  0.00     0.063 H 
ATOM     51  C   LIG d   1       0.011  -2.550 -14.139  0.00  0.00    -0.058 A 
ATOM     52  C   LIG d   1       0.509  -2.405 -12.860  0.00  0.00    -0.058 A 
ATOM     53  H   LIG d   1      -1.008  -2.906 -14.190  0.00  0.00     0.062 H 
ATOM     54  H   LIG d   1      -0.174  -2.663 -12.064  0.00  0.00     0.062 H 
BRANCH  45  55
ATOM     55  C   LIG d   1       4.680  -0.853 -16.467  0.00  0.00    -0.039 C 
ATOM     56  H   LIG d   1       4.943  -1.814 -16.909  0.00  0.00     0.028 H 
ATOM     57  H   LIG d   1       3.908  -0.375 -17.069  0.00  0.00     0.028 H 
ATOM     58  H   LIG d   1       5.562  -0.214 -16.435  0.00  0.00     0.028 H 
ENDBRANCH  45  55
BRANCH  49  59
ATOM     59  C   LIG d   1      -0.257  -2.586 -16.573  0.00  0.00    -0.021 C 
ATOM     60  H   LIG d   1       0.376  -2.821 -17.429  0.00  0.00     0.034 H 
BRANCH  59  61
ATOM     61  C   LIG d   1      -1.177  -3.773 -16.279  0.00  0.00    -0.059 C 
ATOM     62  H   LIG d   1      -2.184  -3.549 -16.633  0.00  0.00     0.024 H 
ATOM     63  H   LIG d   1      -0.801  -4.659 -16.789  0.00  0.00     0.024 H 
ATOM     64  H   LIG d   1      -1.202  -3.956 -15.204  0.00  0.00     0.024 H 
ENDBRANCH  59  61
BRANCH  59  65
ATOM     65  C   LIG d   1      -1.103  -1.351 -16.887  0.00  0.00    -0.059 C 
ATOM     66  H   LIG d   1      -1.886  -1.617 -17.598  0.00  0.00     0.024 H 
ATOM     67  H   LIG d   1      -1.557  -0.978 -15.969  0.00  0.00     0.024 H 
ATOM     68  H   LIG d   1      -0.470  -0.576 -17.320  0.00  0.00     0.024 H 
ENDBRANCH  59  65
ENDBRANCH  49  59
BRANCH  44  69
ATOM     69  C   LIG d   1       2.006  -1.922 -10.962  0.00  0.00    -0.039 C 
ATOM     70  H   LIG d   1       3.064  -2.087 -10.755  0.00  0.00     0.028 H 
ATOM     71  H   LIG d   1       1.710  -0.946 -10.579  0.00  0.00     0.028 H 
ATOM     72  H   LIG d   1       1.415  -2.699 -10.475  0.00  0.00     0.028 H 
ENDBRANCH  44  69
ENDBRANCH   3  41
TORSDOF 14
ENDMDL
MODEL 8
REMARK VINA RESULT:      -5.5      4.645     13.659
REMARK  14 active torsions:
REMARK  status: ('A' for Active; 'I' for Inactive)
REMARK    1  A    between atoms: C_1  and  C_2 
REMARK    2  A    between atoms: C_5  and  C_34 
REMARK    3  A    between atoms: C_8  and  C_33 
REMARK    4  A    between atoms: C_10  and  C_12 
REMARK    5  A    between atoms: C_13  and  O_32 
REMARK    6  A    between atoms: C_14  and  C_17 
REMARK    7  A    between atoms: C_15  and  O_16 
REMARK    8  A    between atoms: C_19  and  C_31 
REMARK    9  A    between atoms: C_22  and  C_28 
REMARK   10  A    between atoms: C_25  and  C_27 
REMARK   11  A    between atoms: C_28  and  C_29 
REMARK   12  A    between atoms: C_28  and  C_30 
REMARK   13  A    between atoms: C_34  and  C_35 
REMARK   14  A    between atoms: C_34  and  C_36 
ROOT
ATOM      1  C   LIG d   1       9.939   6.050 -10.960  0.00  0.00     0.067 A 
ATOM      2  C   LIG d   1      10.902   6.603 -10.000  0.00  0.00     0.139 A 
ATOM      3  C   LIG d   1       9.820   6.787  -9.025  0.00  0.00     0.067 A 
ATOM      4  C   LIG d   1       8.857   6.240  -9.988  0.00  0.00     0.139 A 
ENDROOT
BRANCH   1   5
ATOM      5  C   LIG d   1      10.024   5.528 -12.333  0.00  0.00    -0.003 A 
ATOM      6  C   LIG d   1      10.190   4.187 -12.695  0.00  0.00    -0.050 A 
ATOM      7  C   LIG d   1      10.227   4.064 -14.073  0.00  0.00    -0.042 A 
ATOM      8  H   LIG d   1      10.277   3.365 -12.000  0.00  0.00     0.063 H 
ATOM      9  C   LIG d   1      10.085   5.326 -14.643  0.00  0.00    -0.014 A 
ATOM     10  C   LIG d   1      10.074   5.598 -16.014  0.00  0.00    -0.050 A 
ATOM     11  C   LIG d   1       9.956   6.292 -13.518  0.00  0.00    -0.007 A 
ATOM     12  C   LIG d   1       9.936   6.833 -16.629  0.00  0.00    -0.044 A 
ATOM     13  H   LIG d   1      10.185   4.747 -16.670  0.00  0.00     0.063 H 
ATOM     14  C   LIG d   1       9.775   8.087 -16.054  0.00  0.00    -0.058 A 
ATOM     15  C   LIG d   1       9.710   8.460 -14.726  0.00  0.00    -0.058 A 
ATOM     16  H   LIG d   1       9.689   8.901 -16.758  0.00  0.00     0.062 H 
ATOM     17  C   LIG d   1       9.787   7.664 -13.582  0.00  0.00    -0.042 A 
ATOM     18  H   LIG d   1       9.580   9.518 -14.549  0.00  0.00     0.062 H 
BRANCH   7  19
ATOM     19  C   LIG d   1      10.393   2.773 -14.833  0.00  0.00    -0.039 C 
ATOM     20  H   LIG d   1      11.388   2.737 -15.275  0.00  0.00     0.028 H 
ATOM     21  H   LIG d   1      10.266   1.932 -14.152  0.00  0.00     0.028 H 
ATOM     22  H   LIG d   1       9.643   2.718 -15.622  0.00  0.00     0.028 H 
ENDBRANCH   7  19
BRANCH  12  23
ATOM     23  C   LIG d   1       9.962   6.811 -18.136  0.00  0.00    -0.021 C 
ATOM     24  H   LIG d   1      10.875   7.290 -18.490  0.00  0.00     0.034 H 
BRANCH  23  25
ATOM     25  C   LIG d   1       9.923   5.362 -18.626  0.00  0.00    -0.059 C 
ATOM     26  H   LIG d   1       9.195   5.270 -19.432  0.00  0.00     0.024 H 
ATOM     27  H   LIG d   1      10.909   5.077 -18.994  0.00  0.00     0.024 H 
ATOM     28  H   LIG d   1       9.638   4.707 -17.803  0.00  0.00     0.024 H 
ENDBRANCH  23  25
BRANCH  23  29
ATOM     29  C   LIG d   1       8.745   7.564 -18.678  0.00  0.00    -0.059 C 
ATOM     30  H   LIG d   1       8.131   7.909 -17.846  0.00  0.00     0.024 H 
ATOM     31  H   LIG d   1       9.080   8.421 -19.263  0.00  0.00     0.024 H 
ATOM     32  H   LIG d   1       8.159   6.899 -19.311  0.00  0.00     0.024 H 
ENDBRANCH  23  29
ENDBRANCH  12  23
BRANCH  17  33
ATOM     33  C   LIG d   1       9.679   8.384 -12.262  0.00  0.00    -0.039 C 
ATOM     34  H   LIG d   1       8.636   8.633 -12.068  0.00  0.00     0.028 H 
ATOM     35  H   LIG d   1      10.053   7.741 -11.466  0.00  0.00     0.028 H 
ATOM     36  H   LIG d   1      10.270   9.299 -12.298  0.00  0.00     0.028 H 
ENDBRANCH  17  33
ENDBRANCH   1   5
BRANCH   4  37
ATOM     37  O   LIG d   1       7.535   6.009  -9.981  0.00  0.00    -0.505 OA
ATOM     38  H   LIG d   1       7.299   5.083  -9.834  0.00  0.00     0.292 HD
ENDBRANCH   4  37
BRANCH   2  39
ATOM     39  O   LIG d   1      12.222   6.841 -10.009  0.00  0.00    -0.505 OA
ATOM     40  H   LIG d   1      12.766   6.042 -10.011  0.00  0.00     0.292 HD
ENDBRANCH   2  39
BRANCH   3  41
ATOM     41  C   LIG d   1       9.736   7.310  -7.652  0.00  0.00    -0.003 A 
ATOM     42  C   LIG d   1       9.777   6.544  -6.468  0.00  0.00    -0.007 A 
ATOM     43  C   LIG d   1       9.660   7.510  -5.343  0.00  0.00    -0.014 A 
ATOM     44  C   LIG d   1       9.918   5.167  -6.403  0.00  0.00    -0.042 A 
ATOM     45  C   LIG d   1       9.550   8.776  -5.912  0.00  0.00    -0.042 A 
ATOM     46  C   LIG d   1       9.654   7.238  -3.972  0.00  0.00    -0.050 A 
ATOM     47  C   LIG d   1       9.595   8.654  -7.291  0.00  0.00    -0.050 A 
ATOM     48  H   LIG d   1       9.532   9.478  -7.986  0.00  0.00     0.063 H 
ATOM     49  C   LIG d   1       9.761   6.000  -3.356  0.00  0.00    -0.044 A 
ATOM     50  H   LIG d   1       9.555   8.089  -3.315  0.00  0.00     0.063 H 
ATOM     51  C   LIG d   1       9.899   4.743  -3.933  0.00  0.00    -0.058 A 
ATOM     52  C   LIG d   1       9.968   4.369  -5.260  0.00  0.00    -0.058 A 
ATOM     53  H   LIG d   1       9.963   3.926  -3.229  0.00  0.00     0.062 H 
ATOM     54  H   LIG d   1      10.077   3.310  -5.438  0.00  0.00     0.062 H 
BRANCH  45  55
ATOM     55  C   LIG d   1       9.405  10.070  -5.152  0.00  0.00    -0.039 C 
ATOM     56  H   LIG d   1      10.174  10.127  -4.383  0.00  0.00     0.028 H 
ATOM     57  H   LIG d   1       9.515  10.908  -5.839  0.00  0.00     0.028 H 
ATOM     58  H   LIG d   1       8.421  10.109  -4.686  0.00  0.00     0.028 H 
ENDBRANCH  45  55
BRANCH  49  59
ATOM     59  C   LIG d   1       9.722   6.021  -1.851  0.00  0.00    -0.021 C 
ATOM     60  H   LIG d   1       8.897   5.402  -1.500  0.00  0.00     0.034 H 
BRANCH  59  61
ATOM     61  C   LIG d   1      11.040   5.473  -1.299  0.00  0.00    -0.059 C 
ATOM     62  H   LIG d   1      11.080   4.395  -1.456  0.00  0.00     0.024 H 
ATOM     63  H   LIG d   1      11.874   5.947  -1.815  0.00  0.00     0.024 H 
ATOM     64  H   LIG d   1      11.104   5.687  -0.232  0.00  0.00     0.024 H 
ENDBRANCH  59  61
BRANCH  59  65
ATOM     65  C   LIG d   1       9.525   7.459  -1.366  0.00  0.00    -0.059 C 
ATOM     66  H   LIG d   1      10.487   7.879  -1.073  0.00  0.00     0.024 H 
ATOM     67  H   LIG d   1       9.095   8.057  -2.168  0.00  0.00     0.024 H 
ATOM     68  H   LIG d   1       8.852   7.463  -0.508  0.00  0.00     0.024 H 
ENDBRANCH  59  65
ENDBRANCH  49  59
BRANCH  44  69
ATOM     69  C   LIG d   1      10.021   4.447  -7.723  0.00  0.00    -0.039 C 
ATOM     70  H   LIG d   1      10.994   3.961  -7.798  0.00  0.00     0.028 H 
ATOM     71  H   LIG d   1       9.234   3.695  -7.788  0.00  0.00     0.028 H 
ATOM     72  H   LIG d   1       9.908   5.162  -8.538  0.00  0.00     0.028 H 
ENDBRANCH  44  69
ENDBRANCH   3  41
TORSDOF 14
ENDMDL
MODEL 9
REMARK VINA RESULT:      -5.4      4.429      8.271
REMARK  14 active torsions:
REMARK  status: ('A' for Active; 'I' for Inactive)
REMARK    1  A    between atoms: C_1  and  C_2 
REMARK    2  A    between atoms: C_5  and  C_34 
REMARK    3  A    between atoms: C_8  and  C_33 
REMARK    4  A    between atoms: C_10  and  C_12 
REMARK    5  A    between atoms: C_13  and  O_32 
REMARK    6  A    between atoms: C_14  and  C_17 
REMARK    7  A    between atoms: C_15  and  O_16 
REMARK    8  A    between atoms: C_19  and  C_31 
REMARK    9  A    between atoms: C_22  and  C_28 
REMARK   10  A    between atoms: C_25  and  C_27 
REMARK   11  A    between atoms: C_28  and  C_29 
REMARK   12  A    between atoms: C_28  and  C_30 
REMARK   13  A    between atoms: C_34  and  C_35 
REMARK   14  A    between atoms: C_34  and  C_36 
ROOT
ATOM      1  C   LIG d   1      10.543   7.973  -7.886  0.00  0.00     0.067 A 
ATOM      2  C   LIG d   1      11.267   7.324  -8.985  0.00  0.00     0.139 A 
ATOM      3  C   LIG d   1      10.177   7.671  -9.906  0.00  0.00     0.067 A 
ATOM      4  C   LIG d   1       9.451   8.314  -8.805  0.00  0.00     0.139 A 
ENDROOT
BRANCH   1   5
ATOM      5  C   LIG d   1      10.803   8.186  -6.454  0.00  0.00    -0.003 A 
ATOM      6  C   LIG d   1      11.353   9.337  -5.880  0.00  0.00    -0.050 A 
ATOM      7  C   LIG d   1      11.453   9.187  -4.507  0.00  0.00    -0.042 A 
ATOM      8  H   LIG d   1      11.655  10.217  -6.428  0.00  0.00     0.063 H 
ATOM      9  C   LIG d   1      10.968   7.930  -4.154  0.00  0.00    -0.014 A 
ATOM     10  C   LIG d   1      10.909   7.422  -2.854  0.00  0.00    -0.050 A 
ATOM     11  C   LIG d   1      10.545   7.265  -5.417  0.00  0.00    -0.007 A 
ATOM     12  C   LIG d   1      10.437   6.182  -2.452  0.00  0.00    -0.044 A 
ATOM     13  H   LIG d   1      11.273   8.071  -2.071  0.00  0.00     0.063 H 
ATOM     14  C   LIG d   1       9.913   5.150  -3.222  0.00  0.00    -0.058 A 
ATOM     15  C   LIG d   1       9.716   5.063  -4.585  0.00  0.00    -0.058 A 
ATOM     16  H   LIG d   1       9.614   4.276  -2.664  0.00  0.00     0.062 H 
ATOM     17  C   LIG d   1       9.992   6.006  -5.578  0.00  0.00    -0.042 A 
ATOM     18  H   LIG d   1       9.285   4.135  -4.933  0.00  0.00     0.062 H 
BRANCH   7  19
ATOM     19  C   LIG d   1      11.996  10.216  -3.550  0.00  0.00    -0.039 C 
ATOM     20  H   LIG d   1      11.287  10.366  -2.737  0.00  0.00     0.028 H 
ATOM     21  H   LIG d   1      12.947   9.870  -3.146  0.00  0.00     0.028 H 
ATOM     22  H   LIG d   1      12.147  11.158  -4.079  0.00  0.00     0.028 H 
ENDBRANCH   7  19
BRANCH  12  23
ATOM     23  C   LIG d   1      10.500   5.915  -0.971  0.00  0.00    -0.021 C 
ATOM     24  H   LIG d   1       9.643   5.309  -0.673  0.00  0.00     0.034 H 
BRANCH  23  25
ATOM     25  C   LIG d   1      11.793   5.165  -0.641  0.00  0.00    -0.059 C 
ATOM     26  H   LIG d   1      12.536   5.869  -0.267  0.00  0.00     0.024 H 
ATOM     27  H   LIG d   1      11.592   4.411   0.120  0.00  0.00     0.024 H 
ATOM     28  H   LIG d   1      12.172   4.681  -1.542  0.00  0.00     0.024 H 
ENDBRANCH  23  25
BRANCH  23  29
ATOM     29  C   LIG d   1      10.475   7.243  -0.212  0.00  0.00    -0.059 C 
ATOM     30  H   LIG d   1      11.394   7.794  -0.411  0.00  0.00     0.024 H 
ATOM     31  H   LIG d   1       9.619   7.833  -0.540  0.00  0.00     0.024 H 
ATOM     32  H   LIG d   1      10.393   7.049   0.857  0.00  0.00     0.024 H 
ENDBRANCH  23  29
ENDBRANCH  12  23
BRANCH  17  33
ATOM     33  C   LIG d   1       9.655   5.602  -6.991  0.00  0.00    -0.039 C 
ATOM     34  H   LIG d   1      10.494   5.835  -7.645  0.00  0.00     0.028 H 
ATOM     35  H   LIG d   1       9.454   4.531  -7.024  0.00  0.00     0.028 H 
ATOM     36  H   LIG d   1       8.773   6.148  -7.323  0.00  0.00     0.028 H 
ENDBRANCH  17  33
ENDBRANCH   1   5
BRANCH   4  37
ATOM     37  O   LIG d   1       8.275   8.951  -8.687  0.00  0.00    -0.505 OA
ATOM     38  H   LIG d   1       7.962   9.353  -9.509  0.00  0.00     0.292 HD
ENDBRANCH   4  37
BRANCH   2  39
ATOM     39  O   LIG d   1      12.439   6.680  -9.102  0.00  0.00    -0.505 OA
ATOM     40  H   LIG d   1      12.512   5.893  -8.546  0.00  0.00     0.292 HD
ENDBRANCH   2  39
BRANCH   3  41
ATOM     41  C   LIG d   1       9.918   7.457 -11.338  0.00  0.00    -0.003 A 
ATOM     42  C   LIG d   1      10.326   8.302 -12.392  0.00  0.00    -0.007 A 
ATOM     43  C   LIG d   1       9.836   7.670 -13.646  0.00  0.00    -0.014 A 
ATOM     44  C   LIG d   1      11.054   9.472 -12.249  0.00  0.00    -0.042 A 
ATOM     45  C   LIG d   1       9.168   6.506 -13.274  0.00  0.00    -0.042 A 
ATOM     46  C   LIG d   1       9.994   8.127 -14.958  0.00  0.00    -0.050 A 
ATOM     47  C   LIG d   1       9.217   6.381 -11.895  0.00  0.00    -0.050 A 
ATOM     48  H   LIG d   1       8.780   5.570 -11.333  0.00  0.00     0.063 H 
ATOM     49  C   LIG d   1      10.648   9.274 -15.379  0.00  0.00    -0.044 A 
ATOM     50  H   LIG d   1       9.555   7.516 -15.733  0.00  0.00     0.063 H 
ATOM     51  C   LIG d   1      11.301  10.240 -14.623  0.00  0.00    -0.058 A 
ATOM     52  C   LIG d   1      11.483  10.336 -13.258  0.00  0.00    -0.058 A 
ATOM     53  H   LIG d   1      11.736  11.046 -15.195  0.00  0.00     0.062 H 
ATOM     54  H   LIG d   1      12.037  11.200 -12.924  0.00  0.00     0.062 H 
BRANCH  45  55
ATOM     55  C   LIG d   1       8.499   5.540 -14.217  0.00  0.00    -0.039 C 
ATOM     56  H   LIG d   1       9.061   4.606 -14.240  0.00  0.00     0.028 H 
ATOM     57  H   LIG d   1       7.483   5.344 -13.875  0.00  0.00     0.028 H 
ATOM     58  H   LIG d   1       8.468   5.970 -15.218  0.00  0.00     0.028 H 
ENDBRANCH  45  55
BRANCH  49  59
ATOM     59  C   LIG d   1      10.652   9.506 -16.867  0.00  0.00    -0.021 C 
ATOM     60  H   LIG d   1      11.565   9.093 -17.297  0.00  0.00     0.034 H 
BRANCH  59  61
ATOM     61  C   LIG d   1       9.438   8.817 -17.494  0.00  0.00    -0.059 C 
ATOM     62  H   LIG d   1       9.478   8.925 -18.579  0.00  0.00     0.024 H 
ATOM     63  H   LIG d   1       9.445   7.760 -17.234  0.00  0.00     0.024 H 
ATOM     64  H   LIG d   1       8.524   9.278 -17.118  0.00  0.00     0.024 H 
ENDBRANCH  59  61
BRANCH  59  65
ATOM     65  C   LIG d   1      10.589  11.008 -17.151  0.00  0.00    -0.059 C 
ATOM     66  H   LIG d   1      10.153  11.521 -16.293  0.00  0.00     0.024 H 
ATOM     67  H   LIG d   1      11.594  11.387 -17.329  0.00  0.00     0.024 H 
ATOM     68  H   LIG d   1       9.972  11.186 -18.032  0.00  0.00     0.024 H 
ENDBRANCH  59  65
ENDBRANCH  49  59
BRANCH  44  69
ATOM     69  C   LIG d   1      11.418   9.862 -10.840  0.00  0.00    -0.039 C 
ATOM     70  H   LIG d   1      12.164  10.656 -10.863  0.00  0.00     0.028 H 
ATOM     71  H   LIG d   1      10.528  10.215 -10.320  0.00  0.00     0.028 H 
ATOM     72  H   LIG d   1      11.825   8.996 -10.316  0.00  0.00     0.028 H 
ENDBRANCH  44  69
ENDBRANCH   3  41
TORSDOF 14
ENDMDL
MODEL 10
REMARK VINA RESULT:      -5.4     12.563     16.050
REMARK  14 active torsions:
REMARK  status: ('A' for Active; 'I' for Inactive)
REMARK    1  A    between atoms: C_1  and  C_2 
REMARK    2  A    between atoms: C_5  and  C_34 
REMARK    3  A    between atoms: C_8  and  C_33 
REMARK    4  A    between atoms: C_10  and  C_12 
REMARK    5  A    between atoms: C_13  and  O_32 
REMARK    6  A    between atoms: C_14  and  C_17 
REMARK    7  A    between atoms: C_15  and  O_16 
REMARK    8  A    between atoms: C_19  and  C_31 
REMARK    9  A    between atoms: C_22  and  C_28 
REMARK   10  A    between atoms: C_25  and  C_27 
REMARK   11  A    between atoms: C_28  and  C_29 
REMARK   12  A    between atoms: C_28  and  C_30 
REMARK   13  A    between atoms: C_34  and  C_35 
REMARK   14  A    between atoms: C_34  and  C_36 
ROOT
ATOM      1  C   LIG d   1       4.908  -5.458  -7.198  0.00  0.00     0.067 A 
ATOM      2  C   LIG d   1       4.769  -5.943  -5.820  0.00  0.00     0.139 A 
ATOM      3  C   LIG d   1       5.996  -6.734  -5.976  0.00  0.00     0.067 A 
ATOM      4  C   LIG d   1       6.130  -6.253  -7.357  0.00  0.00     0.139 A 
ENDROOT
BRANCH   1   5
ATOM      5  C   LIG d   1       4.136  -4.553  -8.064  0.00  0.00    -0.003 A 
ATOM      6  C   LIG d   1       3.248  -4.940  -9.074  0.00  0.00    -0.050 A 
ATOM      7  C   LIG d   1       2.700  -3.823  -9.683  0.00  0.00    -0.042 A 
ATOM      8  H   LIG d   1       3.022  -5.961  -9.340  0.00  0.00     0.063 H 
ATOM      9  C   LIG d   1       3.220  -2.680  -9.081  0.00  0.00    -0.014 A 
ATOM     10  C   LIG d   1       2.898  -1.366  -9.430  0.00  0.00    -0.050 A 
ATOM     11  C   LIG d   1       4.162  -3.143  -8.025  0.00  0.00    -0.007 A 
ATOM     12  C   LIG d   1       3.387  -0.198  -8.863  0.00  0.00    -0.044 A 
ATOM     13  H   LIG d   1       2.188  -1.246 -10.233  0.00  0.00     0.063 H 
ATOM     14  C   LIG d   1       4.298  -0.040  -7.827  0.00  0.00    -0.058 A 
ATOM     15  C   LIG d   1       4.971  -0.982  -7.076  0.00  0.00    -0.058 A 
ATOM     16  H   LIG d   1       4.517   0.986  -7.569  0.00  0.00     0.062 H 
ATOM     17  C   LIG d   1       4.916  -2.375  -7.154  0.00  0.00    -0.042 A 
ATOM     18  H   LIG d   1       5.633  -0.585  -6.320  0.00  0.00     0.062 H 
BRANCH   7  19
ATOM     19  C   LIG d   1       1.703  -3.843 -10.812  0.00  0.00    -0.039 C 
ATOM     20  H   LIG d   1       2.059  -3.206 -11.621  0.00  0.00     0.028 H 
ATOM     21  H   LIG d   1       1.586  -4.864 -11.176  0.00  0.00     0.028 H 
ATOM     22  H   LIG d   1       0.742  -3.472 -10.454  0.00  0.00     0.028 H 
ENDBRANCH   7  19
BRANCH  12  23
ATOM     23  C   LIG d   1       2.851   1.080  -9.455  0.00  0.00    -0.021 C 
ATOM     24  H   LIG d   1       1.834   0.917  -9.813  0.00  0.00     0.034 H 
BRANCH  23  25
ATOM     25  C   LIG d   1       2.846   2.175  -8.386  0.00  0.00    -0.059 C 
ATOM     26  H   LIG d   1       2.174   1.888  -7.576  0.00  0.00     0.024 H 
ATOM     27  H   LIG d   1       3.854   2.302  -7.992  0.00  0.00     0.024 H 
ATOM     28  H   LIG d   1       2.505   3.111  -8.826  0.00  0.00     0.024 H 
ENDBRANCH  23  25
BRANCH  23  29
ATOM     29  C   LIG d   1       3.740   1.513 -10.623  0.00  0.00    -0.059 C 
ATOM     30  H   LIG d   1       3.404   1.022 -11.537  0.00  0.00     0.024 H 
ATOM     31  H   LIG d   1       3.677   2.594 -10.746  0.00  0.00     0.024 H 
ATOM     32  H   LIG d   1       4.772   1.231 -10.417  0.00  0.00     0.024 H 
ENDBRANCH  23  29
ENDBRANCH  12  23
BRANCH  17  33
ATOM     33  C   LIG d   1       5.782  -3.131  -6.179  0.00  0.00    -0.039 C 
ATOM     34  H   LIG d   1       6.808  -3.150  -6.544  0.00  0.00     0.028 H 
ATOM     35  H   LIG d   1       5.750  -2.639  -5.207  0.00  0.00     0.028 H 
ATOM     36  H   LIG d   1       5.413  -4.152  -6.082  0.00  0.00     0.028 H 
ENDBRANCH  17  33
ENDBRANCH   1   5
BRANCH   4  37
ATOM     37  O   LIG d   1       7.009  -6.457  -8.352  0.00  0.00    -0.505 OA
ATOM     38  H   LIG d   1       6.843  -7.261  -8.863  0.00  0.00     0.292 HD
ENDBRANCH   4  37
BRANCH   2  39
ATOM     39  O   LIG d   1       3.888  -5.746  -4.827  0.00  0.00    -0.505 OA
ATOM     40  H   LIG d   1       3.519  -4.853  -4.800  0.00  0.00     0.292 HD
ENDBRANCH   2  39
BRANCH   3  41
ATOM     41  C   LIG d   1       6.768  -7.639  -5.110  0.00  0.00    -0.003 A 
ATOM     42  C   LIG d   1       7.961  -7.319  -4.429  0.00  0.00    -0.007 A 
ATOM     43  C   LIG d   1       8.358  -8.546  -3.688  0.00  0.00    -0.014 A 
ATOM     44  C   LIG d   1       8.598  -6.090  -4.454  0.00  0.00    -0.042 A 
ATOM     45  C   LIG d   1       7.399  -9.514  -3.972  0.00  0.00    -0.042 A 
ATOM     46  C   LIG d   1       9.472  -8.730  -2.863  0.00  0.00    -0.050 A 
ATOM     47  C   LIG d   1       6.450  -8.971  -4.821  0.00  0.00    -0.050 A 
ATOM     48  H   LIG d   1       5.589  -9.498  -5.204  0.00  0.00     0.063 H 
ATOM     49  C   LIG d   1      10.453  -7.802  -2.549  0.00  0.00    -0.044 A 
ATOM     50  H   LIG d   1       9.581  -9.708  -2.418  0.00  0.00     0.063 H 
ATOM     51  C   LIG d   1      10.577  -6.482  -2.965  0.00  0.00    -0.058 A 
ATOM     52  C   LIG d   1       9.774  -5.726  -3.796  0.00  0.00    -0.058 A 
ATOM     53  H   LIG d   1      11.440  -5.962  -2.576  0.00  0.00     0.062 H 
ATOM     54  H   LIG d   1      10.101  -4.710  -3.957  0.00  0.00     0.062 H 
BRANCH  45  55
ATOM     55  C   LIG d   1       7.393 -10.925  -3.441  0.00  0.00    -0.039 C 
ATOM     56  H   LIG d   1       6.578 -11.483  -3.902  0.00  0.00     0.028 H 
ATOM     57  H   LIG d   1       8.342 -11.405  -3.677  0.00  0.00     0.028 H 
ATOM     58  H   LIG d   1       7.254 -10.906  -2.360  0.00  0.00     0.028 H 
ENDBRANCH  45  55
BRANCH  49  59
ATOM     59  C   LIG d   1      11.538  -8.294  -1.628  0.00  0.00    -0.021 C 
ATOM     60  H   LIG d   1      11.609  -9.379  -1.698  0.00  0.00     0.034 H 
BRANCH  59  61
ATOM     61  C   LIG d   1      12.874  -7.668  -2.032  0.00  0.00    -0.059 C 
ATOM     62  H   LIG d   1      12.700  -6.878  -2.763  0.00  0.00     0.024 H 
ATOM     63  H   LIG d   1      13.360  -7.249  -1.152  0.00  0.00     0.024 H 
ATOM     64  H   LIG d   1      13.515  -8.433  -2.472  0.00  0.00     0.024 H 
ENDBRANCH  59  61
BRANCH  59  65
ATOM     65  C   LIG d   1      11.204  -7.896  -0.188  0.00  0.00    -0.059 C 
ATOM     66  H   LIG d   1      11.927  -8.348   0.491  0.00  0.00     0.024 H 
ATOM     67  H   LIG d   1      11.243  -6.812  -0.092  0.00  0.00     0.024 H 
ATOM     68  H   LIG d   1      10.203  -8.248   0.063  0.00  0.00     0.024 H 
ENDBRANCH  59  65
ENDBRANCH  49  59
BRANCH  44  69
ATOM     69  C   LIG d   1       7.950  -5.021  -5.298  0.00  0.00    -0.039 C 
ATOM     70  H   LIG d   1       6.892  -4.951  -5.046  0.00  0.00     0.028 H 
ATOM     71  H   LIG d   1       8.433  -4.064  -5.104  0.00  0.00     0.028 H 
ATOM     72  H   LIG d   1       8.057  -5.276  -6.352  0.00  0.00     0.028 H 
ENDBRANCH  44  69
ENDBRANCH   3  41
TORSDOF 14
ENDMDL
