MODEL 1
REMARK VINA RESULT:      -6.2      0.000      0.000
REMARK  3 active torsions:
REMARK  status: ('A' for Active; 'I' for Inactive)
REMARK    1  A    between atoms: C_1  and  C_2 
REMARK    2  A    between atoms: N_9  and  N_10 
REMARK       I    between atoms: N_10  and  C_11 
REMARK       I    between atoms: C_11  and  N_13 
REMARK    3  A    between atoms: C_15  and  C_17 
ROOT
ATOM      1  C   LIG d   1       5.237  -3.022  -4.357  0.00  0.00    -0.050 A 
ATOM      2  C   LIG d   1       4.311  -3.062  -3.329  0.00  0.00    -0.059 A 
ATOM      3  C   LIG d   1       4.092  -1.943  -2.547  0.00  0.00    -0.057 A 
ATOM      4  C   LIG d   1       4.795  -0.776  -2.784  0.00  0.00    -0.035 A 
ATOM      5  C   LIG d   1       5.728  -0.726  -3.818  0.00  0.00     0.001 A 
ATOM      6  C   LIG d   1       5.943  -1.866  -4.606  0.00  0.00    -0.050 A 
ATOM      7  C   LIG d   1       6.354   0.608  -3.889  0.00  0.00     0.067 A 
ATOM      8  N   LIG d   1       7.260   0.980  -4.739  0.00  0.00    -0.183 NA
ATOM      9  C   LIG d   1       5.753   1.464  -2.800  0.00  0.00    -0.002 A 
ATOM     10  C   LIG d   1       4.741   0.560  -2.085  0.00  0.00    -0.013 A 
ATOM     11  H   LIG d   1       5.017   0.445  -1.037  0.00  0.00     0.035 H 
ATOM     12  H   LIG d   1       3.759  -3.970  -3.136  0.00  0.00     0.062 H 
ATOM     13  H   LIG d   1       3.370  -1.981  -1.745  0.00  0.00     0.062 H 
ATOM     14  H   LIG d   1       6.665  -1.837  -5.409  0.00  0.00     0.063 H 
ATOM     15  H   LIG d   1       5.249   2.327  -3.234  0.00  0.00     0.034 H 
ATOM     16  H   LIG d   1       6.528   1.789  -2.105  0.00  0.00     0.034 H 
ENDROOT
BRANCH   8  17
ATOM     17  N   LIG d   1       7.770   2.284  -4.693  0.00  0.00    -0.191 N 
ATOM     18  C   LIG d   1       9.022   2.503  -4.242  0.00  0.00     0.317 C 
ATOM     19  O   LIG d   1       9.465   3.636  -4.203  0.00  0.00    -0.251 OA
ATOM     20  N   LIG d   1       9.782   1.467  -3.835  0.00  0.00    -0.312 N 
ATOM     21  H   LIG d   1       9.429   0.564  -3.867  0.00  0.00     0.146 HD
ATOM     22  H   LIG d   1      10.682   1.625  -3.512  0.00  0.00     0.146 HD
ATOM     23  H   LIG d   1       7.223   3.030  -4.986  0.00  0.00     0.179 HD
ENDBRANCH   8  17
BRANCH  10  24
ATOM     24  C   LIG d   1       3.335   1.156  -2.195  0.00  0.00    -0.058 C 
ATOM     25  H   LIG d   1       3.402   2.175  -2.576  0.00  0.00     0.024 H 
ATOM     26  H   LIG d   1       2.738   0.552  -2.878  0.00  0.00     0.024 H 
ATOM     27  H   LIG d   1       2.866   1.164  -1.212  0.00  0.00     0.024 H 
ENDBRANCH  10  24
BRANCH   1  28
ATOM     28  C   LIG d   1       5.471  -4.244  -5.205  0.00  0.00    -0.040 C 
ATOM     29  H   LIG d   1       5.511  -3.955  -6.255  0.00  0.00     0.028 H 
ATOM     30  H   LIG d   1       6.413  -4.710  -4.920  0.00  0.00     0.028 H 
ATOM     31  H   LIG d   1       4.655  -4.953  -5.054  0.00  0.00     0.028 H 
ENDBRANCH   1  28
TORSDOF 3
ENDMDL
MODEL 2
REMARK VINA RESULT:      -6.0      3.230      4.863
REMARK  3 active torsions:
REMARK  status: ('A' for Active; 'I' for Inactive)
REMARK    1  A    between atoms: C_1  and  C_2 
REMARK    2  A    between atoms: N_9  and  N_10 
REMARK       I    between atoms: N_10  and  C_11 
REMARK       I    between atoms: C_11  and  N_13 
REMARK    3  A    between atoms: C_15  and  C_17 
ROOT
ATOM      1  C   LIG d   1       4.520  -0.145  -2.531  0.00  0.00    -0.050 A 
ATOM      2  C   LIG d   1       4.314  -1.442  -2.095  0.00  0.00    -0.059 A 
ATOM      3  C   LIG d   1       4.327  -2.488  -2.998  0.00  0.00    -0.057 A 
ATOM      4  C   LIG d   1       4.546  -2.249  -4.342  0.00  0.00    -0.035 A 
ATOM      5  C   LIG d   1       4.756  -0.946  -4.790  0.00  0.00     0.001 A 
ATOM      6  C   LIG d   1       4.740   0.110  -3.866  0.00  0.00    -0.050 A 
ATOM      7  C   LIG d   1       4.967  -0.926  -6.250  0.00  0.00     0.067 A 
ATOM      8  N   LIG d   1       5.189   0.128  -6.973  0.00  0.00    -0.183 NA
ATOM      9  C   LIG d   1       4.881  -2.347  -6.754  0.00  0.00    -0.002 A 
ATOM     10  C   LIG d   1       4.608  -3.203  -5.511  0.00  0.00    -0.013 A 
ATOM     11  H   LIG d   1       3.657  -3.725  -5.617  0.00  0.00     0.035 H 
ATOM     12  H   LIG d   1       4.141  -1.637  -1.047  0.00  0.00     0.062 H 
ATOM     13  H   LIG d   1       4.164  -3.498  -2.652  0.00  0.00     0.062 H 
ATOM     14  H   LIG d   1       4.901   1.122  -4.204  0.00  0.00     0.063 H 
ATOM     15  H   LIG d   1       5.824  -2.641  -7.215  0.00  0.00     0.034 H 
ATOM     16  H   LIG d   1       4.064  -2.445  -7.468  0.00  0.00     0.034 H 
ENDROOT
BRANCH   8  17
ATOM     17  N   LIG d   1       5.373   0.001  -8.356  0.00  0.00    -0.191 N 
ATOM     18  C   LIG d   1       4.942   0.973  -9.185  0.00  0.00     0.317 C 
ATOM     19  O   LIG d   1       5.103   0.864 -10.386  0.00  0.00    -0.251 OA
ATOM     20  N   LIG d   1       4.333   2.066  -8.683  0.00  0.00    -0.312 N 
ATOM     21  H   LIG d   1       4.206   2.153  -7.726  0.00  0.00     0.146 HD
ATOM     22  H   LIG d   1       4.024   2.765  -9.280  0.00  0.00     0.146 HD
ATOM     23  H   LIG d   1       5.811  -0.785  -8.718  0.00  0.00     0.179 HD
ENDBRANCH   8  17
BRANCH  10  24
ATOM     24  C   LIG d   1       5.741  -4.212  -5.307  0.00  0.00    -0.058 C 
ATOM     25  H   LIG d   1       6.280  -4.345  -6.245  0.00  0.00     0.024 H 
ATOM     26  H   LIG d   1       6.425  -3.840  -4.545  0.00  0.00     0.024 H 
ATOM     27  H   LIG d   1       5.324  -5.166  -4.988  0.00  0.00     0.024 H 
ENDBRANCH  10  24
BRANCH   1  28
ATOM     28  C   LIG d   1       4.504   0.992  -1.542  0.00  0.00    -0.040 C 
ATOM     29  H   LIG d   1       4.358   0.596  -0.537  0.00  0.00     0.028 H 
ATOM     30  H   LIG d   1       5.452   1.527  -1.588  0.00  0.00     0.028 H 
ATOM     31  H   LIG d   1       3.689   1.674  -1.786  0.00  0.00     0.028 H 
ENDBRANCH   1  28
TORSDOF 3
ENDMDL
MODEL 3
REMARK VINA RESULT:      -6.0      4.309      6.230
REMARK  3 active torsions:
REMARK  status: ('A' for Active; 'I' for Inactive)
REMARK    1  A    between atoms: C_1  and  C_2 
REMARK    2  A    between atoms: N_9  and  N_10 
REMARK       I    between atoms: N_10  and  C_11 
REMARK       I    between atoms: C_11  and  N_13 
REMARK    3  A    between atoms: C_15  and  C_17 
ROOT
ATOM      1  C   LIG d   1       4.673   0.494  -3.068  0.00  0.00    -0.050 A 
ATOM      2  C   LIG d   1       5.981   0.946  -3.045  0.00  0.00    -0.059 A 
ATOM      3  C   LIG d   1       7.010   0.114  -3.446  0.00  0.00    -0.057 A 
ATOM      4  C   LIG d   1       6.743  -1.174  -3.871  0.00  0.00    -0.035 A 
ATOM      5  C   LIG d   1       5.429  -1.636  -3.898  0.00  0.00     0.001 A 
ATOM      6  C   LIG d   1       4.391  -0.786  -3.490  0.00  0.00    -0.050 A 
ATOM      7  C   LIG d   1       5.378  -3.029  -4.383  0.00  0.00     0.067 A 
ATOM      8  N   LIG d   1       4.308  -3.748  -4.526  0.00  0.00    -0.183 NA
ATOM      9  C   LIG d   1       6.791  -3.470  -4.686  0.00  0.00    -0.002 A 
ATOM     10  C   LIG d   1       7.673  -2.261  -4.351  0.00  0.00    -0.013 A 
ATOM     11  H   LIG d   1       8.382  -2.521  -3.565  0.00  0.00     0.035 H 
ATOM     12  H   LIG d   1       6.199   1.951  -2.713  0.00  0.00     0.062 H 
ATOM     13  H   LIG d   1       8.029   0.472  -3.424  0.00  0.00     0.062 H 
ATOM     14  H   LIG d   1       3.370  -1.136  -3.507  0.00  0.00     0.063 H 
ATOM     15  H   LIG d   1       6.887  -3.729  -5.740  0.00  0.00     0.034 H 
ATOM     16  H   LIG d   1       7.061  -4.321  -4.061  0.00  0.00     0.034 H 
ENDROOT
BRANCH   8  17
ATOM     17  N   LIG d   1       4.406  -5.063  -4.999  0.00  0.00    -0.191 N 
ATOM     18  C   LIG d   1       3.993  -5.363  -6.248  0.00  0.00     0.317 C 
ATOM     19  O   LIG d   1       4.079  -6.504  -6.659  0.00  0.00    -0.251 OA
ATOM     20  N   LIG d   1       3.486  -4.397  -7.040  0.00  0.00    -0.312 N 
ATOM     21  H   LIG d   1       3.418  -3.486  -6.711  0.00  0.00     0.146 HD
ATOM     22  H   LIG d   1       3.190  -4.613  -7.937  0.00  0.00     0.146 HD
ATOM     23  H   LIG d   1       4.771  -5.758  -4.430  0.00  0.00     0.179 HD
ENDBRANCH   8  17
BRANCH  10  24
ATOM     24  C   LIG d   1       8.424  -1.797  -5.602  0.00  0.00    -0.058 C 
ATOM     25  H   LIG d   1       8.919  -0.848  -5.396  0.00  0.00     0.024 H 
ATOM     26  H   LIG d   1       9.170  -2.544  -5.875  0.00  0.00     0.024 H 
ATOM     27  H   LIG d   1       7.719  -1.670  -6.423  0.00  0.00     0.024 H 
ENDBRANCH  10  24
BRANCH   1  28
ATOM     28  C   LIG d   1       3.556   1.406  -2.631  0.00  0.00    -0.040 C 
ATOM     29  H   LIG d   1       2.601   0.988  -2.949  0.00  0.00     0.028 H 
ATOM     30  H   LIG d   1       3.569   1.500  -1.546  0.00  0.00     0.028 H 
ATOM     31  H   LIG d   1       3.692   2.389  -3.083  0.00  0.00     0.028 H 
ENDBRANCH   1  28
TORSDOF 3
ENDMDL
MODEL 4
REMARK VINA RESULT:      -5.9      3.446      4.112
REMARK  3 active torsions:
REMARK  status: ('A' for Active; 'I' for Inactive)
REMARK    1  A    between atoms: C_1  and  C_2 
REMARK    2  A    between atoms: N_9  and  N_10 
REMARK       I    between atoms: N_10  and  C_11 
REMARK       I    between atoms: C_11  and  N_13 
REMARK    3  A    between atoms: C_15  and  C_17 
ROOT
ATOM      1  C   LIG d   1       3.485  -0.102  -6.681  0.00  0.00    -0.050 A 
ATOM      2  C   LIG d   1       2.507   0.452  -5.873  0.00  0.00    -0.059 A 
ATOM      3  C   LIG d   1       2.636   0.407  -4.497  0.00  0.00    -0.057 A 
ATOM      4  C   LIG d   1       3.740  -0.190  -3.917  0.00  0.00    -0.035 A 
ATOM      5  C   LIG d   1       4.730  -0.749  -4.723  0.00  0.00     0.001 A 
ATOM      6  C   LIG d   1       4.591  -0.699  -6.118  0.00  0.00    -0.050 A 
ATOM      7  C   LIG d   1       5.807  -1.326  -3.898  0.00  0.00     0.067 A 
ATOM      8  N   LIG d   1       6.872  -1.920  -4.341  0.00  0.00    -0.183 NA
ATOM      9  C   LIG d   1       5.454  -1.105  -2.446  0.00  0.00    -0.002 A 
ATOM     10  C   LIG d   1       4.110  -0.366  -2.464  0.00  0.00    -0.013 A 
ATOM     11  H   LIG d   1       3.350  -0.958  -1.954  0.00  0.00     0.035 H 
ATOM     12  H   LIG d   1       1.641   0.919  -6.318  0.00  0.00     0.062 H 
ATOM     13  H   LIG d   1       1.869   0.840  -3.871  0.00  0.00     0.062 H 
ATOM     14  H   LIG d   1       5.352  -1.130  -6.751  0.00  0.00     0.063 H 
ATOM     15  H   LIG d   1       6.215  -0.493  -1.962  0.00  0.00     0.034 H 
ATOM     16  H   LIG d   1       5.354  -2.061  -1.932  0.00  0.00     0.034 H 
ENDROOT
BRANCH   8  17
ATOM     17  N   LIG d   1       7.819  -2.424  -3.440  0.00  0.00    -0.191 N 
ATOM     18  C   LIG d   1       8.480  -3.565  -3.724  0.00  0.00     0.317 C 
ATOM     19  O   LIG d   1       9.302  -4.002  -2.942  0.00  0.00    -0.251 OA
ATOM     20  N   LIG d   1       8.227  -4.221  -4.875  0.00  0.00    -0.312 N 
ATOM     21  H   LIG d   1       7.571  -3.871  -5.498  0.00  0.00     0.146 HD
ATOM     22  H   LIG d   1       8.703  -5.041  -5.079  0.00  0.00     0.146 HD
ATOM     23  H   LIG d   1       8.001  -1.953  -2.612  0.00  0.00     0.179 HD
ENDBRANCH   8  17
BRANCH  10  24
ATOM     24  C   LIG d   1       4.252   1.000  -1.788  0.00  0.00    -0.058 C 
ATOM     25  H   LIG d   1       3.319   1.553  -1.889  0.00  0.00     0.024 H 
ATOM     26  H   LIG d   1       4.479   0.860  -0.731  0.00  0.00     0.024 H 
ATOM     27  H   LIG d   1       5.059   1.558  -2.263  0.00  0.00     0.024 H 
ENDBRANCH  10  24
BRANCH   1  28
ATOM     28  C   LIG d   1       3.339  -0.050  -8.179  0.00  0.00    -0.040 C 
ATOM     29  H   LIG d   1       4.322  -0.127  -8.643  0.00  0.00     0.028 H 
ATOM     30  H   LIG d   1       2.714  -0.878  -8.512  0.00  0.00     0.028 H 
ATOM     31  H   LIG d   1       2.875   0.894  -8.466  0.00  0.00     0.028 H 
ENDBRANCH   1  28
TORSDOF 3
ENDMDL
MODEL 5
REMARK VINA RESULT:      -5.6      5.560      6.433
REMARK  3 active torsions:
REMARK  status: ('A' for Active; 'I' for Inactive)
REMARK    1  A    between atoms: C_1  and  C_2 
REMARK    2  A    between atoms: N_9  and  N_10 
REMARK       I    between atoms: N_10  and  C_11 
REMARK       I    between atoms: C_11  and  N_13 
REMARK    3  A    between atoms: C_15  and  C_17 
ROOT
ATOM      1  C   LIG d   1       3.005  -2.522  -9.961  0.00  0.00    -0.050 A 
ATOM      2  C   LIG d   1       2.710  -1.697 -11.032  0.00  0.00    -0.059 A 
ATOM      3  C   LIG d   1       2.570  -0.335 -10.841  0.00  0.00    -0.057 A 
ATOM      4  C   LIG d   1       2.723   0.213  -9.581  0.00  0.00    -0.035 A 
ATOM      5  C   LIG d   1       3.022  -0.610  -8.497  0.00  0.00     0.001 A 
ATOM      6  C   LIG d   1       3.162  -1.991  -8.700  0.00  0.00    -0.050 A 
ATOM      7  C   LIG d   1       3.140   0.183  -7.259  0.00  0.00     0.067 A 
ATOM      8  N   LIG d   1       3.409  -0.283  -6.078  0.00  0.00    -0.183 NA
ATOM      9  C   LIG d   1       2.893   1.632  -7.606  0.00  0.00    -0.002 A 
ATOM     10  C   LIG d   1       2.623   1.646  -9.116  0.00  0.00    -0.013 A 
ATOM     11  H   LIG d   1       1.624   2.034  -9.314  0.00  0.00     0.035 H 
ATOM     12  H   LIG d   1       2.588  -2.118 -12.019  0.00  0.00     0.062 H 
ATOM     13  H   LIG d   1       2.339   0.304 -11.680  0.00  0.00     0.062 H 
ATOM     14  H   LIG d   1       3.392  -2.637  -7.867  0.00  0.00     0.063 H 
ATOM     15  H   LIG d   1       3.774   2.230  -7.374  0.00  0.00     0.034 H 
ATOM     16  H   LIG d   1       2.026   2.007  -7.063  0.00  0.00     0.034 H 
ENDROOT
BRANCH   8  17
ATOM     17  N   LIG d   1       3.492   0.588  -4.984  0.00  0.00    -0.191 N 
ATOM     18  C   LIG d   1       3.157   0.156  -3.752  0.00  0.00     0.317 C 
ATOM     19  O   LIG d   1       3.230   0.912  -2.801  0.00  0.00    -0.251 OA
ATOM     20  N   LIG d   1       2.741  -1.114  -3.573  0.00  0.00    -0.312 N 
ATOM     21  H   LIG d   1       2.683  -1.716  -4.331  0.00  0.00     0.146 HD
ATOM     22  H   LIG d   1       2.500  -1.424  -2.687  0.00  0.00     0.146 HD
ATOM     23  H   LIG d   1       3.791   1.502  -5.112  0.00  0.00     0.179 HD
ENDBRANCH   8  17
BRANCH  10  24
ATOM     24  C   LIG d   1       3.670   2.505  -9.829  0.00  0.00    -0.058 C 
ATOM     25  H   LIG d   1       4.628   2.407  -9.317  0.00  0.00     0.024 H 
ATOM     26  H   LIG d   1       3.773   2.170 -10.861  0.00  0.00     0.024 H 
ATOM     27  H   LIG d   1       3.355   3.548  -9.815  0.00  0.00     0.024 H 
ENDBRANCH  10  24
BRANCH   1  28
ATOM     28  C   LIG d   1       3.156  -4.006 -10.176  0.00  0.00    -0.040 C 
ATOM     29  H   LIG d   1       2.500  -4.541  -9.489  0.00  0.00     0.028 H 
ATOM     30  H   LIG d   1       2.889  -4.254 -11.202  0.00  0.00     0.028 H 
ATOM     31  H   LIG d   1       4.191  -4.296  -9.990  0.00  0.00     0.028 H 
ENDBRANCH   1  28
TORSDOF 3
ENDMDL
MODEL 6
REMARK VINA RESULT:      -5.4      3.899      5.522
REMARK  3 active torsions:
REMARK  status: ('A' for Active; 'I' for Inactive)
REMARK    1  A    between atoms: C_1  and  C_2 
REMARK    2  A    between atoms: N_9  and  N_10 
REMARK       I    between atoms: N_10  and  C_11 
REMARK       I    between atoms: C_11  and  N_13 
REMARK    3  A    between atoms: C_15  and  C_17 
ROOT
ATOM      1  C   LIG d   1       7.686   0.955  -4.993  0.00  0.00    -0.050 A 
ATOM      2  C   LIG d   1       7.313   1.601  -3.827  0.00  0.00    -0.059 A 
ATOM      3  C   LIG d   1       6.202   1.177  -3.124  0.00  0.00    -0.057 A 
ATOM      4  C   LIG d   1       5.454   0.106  -3.577  0.00  0.00    -0.035 A 
ATOM      5  C   LIG d   1       5.823  -0.552  -4.748  0.00  0.00     0.001 A 
ATOM      6  C   LIG d   1       6.952  -0.115  -5.456  0.00  0.00    -0.050 A 
ATOM      7  C   LIG d   1       4.891  -1.657  -5.040  0.00  0.00     0.067 A 
ATOM      8  N   LIG d   1       4.955  -2.461  -6.056  0.00  0.00    -0.183 NA
ATOM      9  C   LIG d   1       3.847  -1.688  -3.948  0.00  0.00    -0.002 A 
ATOM     10  C   LIG d   1       4.218  -0.541  -3.000  0.00  0.00    -0.013 A 
ATOM     11  H   LIG d   1       3.405   0.183  -2.952  0.00  0.00     0.035 H 
ATOM     12  H   LIG d   1       7.891   2.440  -3.468  0.00  0.00     0.062 H 
ATOM     13  H   LIG d   1       5.915   1.687  -2.215  0.00  0.00     0.062 H 
ATOM     14  H   LIG d   1       7.246  -0.617  -6.365  0.00  0.00     0.063 H 
ATOM     15  H   LIG d   1       3.882  -2.641  -3.421  0.00  0.00     0.034 H 
ATOM     16  H   LIG d   1       2.855  -1.526  -4.370  0.00  0.00     0.034 H 
ENDROOT
BRANCH   8  17
ATOM     17  N   LIG d   1       3.998  -3.472  -6.210  0.00  0.00    -0.191 N 
ATOM     18  C   LIG d   1       4.352  -4.765  -6.061  0.00  0.00     0.317 C 
ATOM     19  O   LIG d   1       3.521  -5.643  -6.194  0.00  0.00    -0.251 OA
ATOM     20  N   LIG d   1       5.628  -5.083  -5.764  0.00  0.00    -0.312 N 
ATOM     21  H   LIG d   1       6.291  -4.383  -5.657  0.00  0.00     0.146 HD
ATOM     22  H   LIG d   1       5.882  -6.013  -5.656  0.00  0.00     0.146 HD
ATOM     23  H   LIG d   1       3.080  -3.243  -6.424  0.00  0.00     0.179 HD
ENDBRANCH   8  17
BRANCH  10  24
ATOM     24  C   LIG d   1       4.514  -1.090  -1.602  0.00  0.00    -0.058 C 
ATOM     25  H   LIG d   1       4.464  -0.279  -0.876  0.00  0.00     0.024 H 
ATOM     26  H   LIG d   1       3.777  -1.852  -1.348  0.00  0.00     0.024 H 
ATOM     27  H   LIG d   1       5.511  -1.530  -1.588  0.00  0.00     0.024 H 
ENDBRANCH  10  24
BRANCH   1  28
ATOM     28  C   LIG d   1       8.899   1.422  -5.756  0.00  0.00    -0.040 C 
ATOM     29  H   LIG d   1       9.411   2.195  -5.184  0.00  0.00     0.028 H 
ATOM     30  H   LIG d   1       9.573   0.581  -5.916  0.00  0.00     0.028 H 
ATOM     31  H   LIG d   1       8.587   1.828  -6.719  0.00  0.00     0.028 H 
ENDBRANCH   1  28
TORSDOF 3
ENDMDL
MODEL 7
REMARK VINA RESULT:      -5.1      8.505     10.135
REMARK  3 active torsions:
REMARK  status: ('A' for Active; 'I' for Inactive)
REMARK    1  A    between atoms: C_1  and  C_2 
REMARK    2  A    between atoms: N_9  and  N_10 
REMARK       I    between atoms: N_10  and  C_11 
REMARK       I    between atoms: C_11  and  N_13 
REMARK    3  A    between atoms: C_15  and  C_17 
ROOT
ATOM      1  C   LIG d   1       9.688   6.216  -3.126  0.00  0.00    -0.050 A 
ATOM      2  C   LIG d   1      10.239   5.042  -2.642  0.00  0.00    -0.059 A 
ATOM      3  C   LIG d   1      10.866   5.026  -1.410  0.00  0.00    -0.057 A 
ATOM      4  C   LIG d   1      10.948   6.179  -0.652  0.00  0.00    -0.035 A 
ATOM      5  C   LIG d   1      10.394   7.365  -1.131  0.00  0.00     0.001 A 
ATOM      6  C   LIG d   1       9.761   7.372  -2.382  0.00  0.00    -0.050 A 
ATOM      7  C   LIG d   1      10.596   8.460  -0.164  0.00  0.00     0.067 A 
ATOM      8  N   LIG d   1      10.201   9.687  -0.308  0.00  0.00    -0.183 NA
ATOM      9  C   LIG d   1      11.343   7.902   1.025  0.00  0.00    -0.002 A 
ATOM     10  C   LIG d   1      11.569   6.419   0.703  0.00  0.00    -0.013 A 
ATOM     11  H   LIG d   1      12.636   6.202   0.669  0.00  0.00     0.035 H 
ATOM     12  H   LIG d   1      10.181   4.137  -3.229  0.00  0.00     0.062 H 
ATOM     13  H   LIG d   1      11.296   4.107  -1.039  0.00  0.00     0.062 H 
ATOM     14  H   LIG d   1       9.330   8.287  -2.762  0.00  0.00     0.063 H 
ATOM     15  H   LIG d   1      10.743   8.006   1.929  0.00  0.00     0.034 H 
ATOM     16  H   LIG d   1      12.298   8.414   1.144  0.00  0.00     0.034 H 
ENDROOT
BRANCH   8  17
ATOM     17  N   LIG d   1      10.462  10.629   0.695  0.00  0.00    -0.191 N 
ATOM     18  C   LIG d   1      10.329  11.946   0.435  0.00  0.00     0.317 C 
ATOM     19  O   LIG d   1      10.554  12.764   1.306  0.00  0.00    -0.251 OA
ATOM     20  N   LIG d   1       9.948  12.355  -0.792  0.00  0.00    -0.312 N 
ATOM     21  H   LIG d   1       9.768  11.702  -1.486  0.00  0.00     0.146 HD
ATOM     22  H   LIG d   1       9.852  13.301  -0.978  0.00  0.00     0.146 HD
ATOM     23  H   LIG d   1      10.736  10.336   1.578  0.00  0.00     0.179 HD
ENDBRANCH   8  17
BRANCH  10  24
ATOM     24  C   LIG d   1      10.888   5.543   1.757  0.00  0.00    -0.058 C 
ATOM     25  H   LIG d   1      10.099   4.957   1.286  0.00  0.00     0.024 H 
ATOM     26  H   LIG d   1      11.624   4.873   2.201  0.00  0.00     0.024 H 
ATOM     27  H   LIG d   1      10.458   6.176   2.533  0.00  0.00     0.024 H 
ENDBRANCH  10  24
BRANCH   1  28
ATOM     28  C   LIG d   1       9.007   6.228  -4.470  0.00  0.00    -0.040 C 
ATOM     29  H   LIG d   1       9.678   6.657  -5.214  0.00  0.00     0.028 H 
ATOM     30  H   LIG d   1       8.750   5.209  -4.756  0.00  0.00     0.028 H 
ATOM     31  H   LIG d   1       8.098   6.828  -4.411  0.00  0.00     0.028 H 
ENDBRANCH   1  28
TORSDOF 3
ENDMDL
MODEL 8
REMARK VINA RESULT:      -5.0      5.819      8.453
REMARK  3 active torsions:
REMARK  status: ('A' for Active; 'I' for Inactive)
REMARK    1  A    between atoms: C_1  and  C_2 
REMARK    2  A    between atoms: N_9  and  N_10 
REMARK       I    between atoms: N_10  and  C_11 
REMARK       I    between atoms: C_11  and  N_13 
REMARK    3  A    between atoms: C_15  and  C_17 
ROOT
ATOM      1  C   LIG d   1       9.586   7.329  -5.513  0.00  0.00    -0.050 A 
ATOM      2  C   LIG d   1       9.595   6.254  -6.384  0.00  0.00    -0.059 A 
ATOM      3  C   LIG d   1       9.825   4.977  -5.908  0.00  0.00    -0.057 A 
ATOM      4  C   LIG d   1      10.047   4.762  -4.561  0.00  0.00    -0.035 A 
ATOM      5  C   LIG d   1      10.040   5.839  -3.676  0.00  0.00     0.001 A 
ATOM      6  C   LIG d   1       9.806   7.131  -4.168  0.00  0.00    -0.050 A 
ATOM      7  C   LIG d   1      10.298   5.381  -2.298  0.00  0.00     0.067 A 
ATOM      8  N   LIG d   1      10.355   6.133  -1.243  0.00  0.00    -0.183 NA
ATOM      9  C   LIG d   1      10.482   3.882  -2.330  0.00  0.00    -0.002 A 
ATOM     10  C   LIG d   1      10.318   3.485  -3.803  0.00  0.00    -0.013 A 
ATOM     11  H   LIG d   1      11.233   3.020  -4.169  0.00  0.00     0.035 H 
ATOM     12  H   LIG d   1       9.422   6.414  -7.438  0.00  0.00     0.062 H 
ATOM     13  H   LIG d   1       9.831   4.142  -6.594  0.00  0.00     0.062 H 
ATOM     14  H   LIG d   1       9.798   7.972  -3.490  0.00  0.00     0.063 H 
ATOM     15  H   LIG d   1       9.720   3.395  -1.721  0.00  0.00     0.034 H 
ATOM     16  H   LIG d   1      11.478   3.617  -1.975  0.00  0.00     0.034 H 
ENDROOT
BRANCH   8  17
ATOM     17  N   LIG d   1      10.609   5.562   0.011  0.00  0.00    -0.191 N 
ATOM     18  C   LIG d   1      11.024   6.337   1.033  0.00  0.00     0.317 C 
ATOM     19  O   LIG d   1      11.244   5.842   2.122  0.00  0.00    -0.251 OA
ATOM     20  N   LIG d   1      11.195   7.662   0.848  0.00  0.00    -0.312 N 
ATOM     21  H   LIG d   1      11.020   8.056  -0.021  0.00  0.00     0.146 HD
ATOM     22  H   LIG d   1      11.493   8.219   1.583  0.00  0.00     0.146 HD
ATOM     23  H   LIG d   1      10.486   4.609   0.145  0.00  0.00     0.179 HD
ENDBRANCH   8  17
BRANCH  10  24
ATOM     24  C   LIG d   1       9.140   2.520  -3.960  0.00  0.00    -0.058 C 
ATOM     25  H   LIG d   1       9.207   1.741  -3.200  0.00  0.00     0.024 H 
ATOM     26  H   LIG d   1       8.205   3.067  -3.839  0.00  0.00     0.024 H 
ATOM     27  H   LIG d   1       9.171   2.067  -4.950  0.00  0.00     0.024 H 
ENDBRANCH  10  24
BRANCH   1  28
ATOM     28  C   LIG d   1       9.335   8.719  -6.037  0.00  0.00    -0.040 C 
ATOM     29  H   LIG d   1       9.236   9.411  -5.200  0.00  0.00     0.028 H 
ATOM     30  H   LIG d   1      10.169   9.026  -6.666  0.00  0.00     0.028 H 
ATOM     31  H   LIG d   1       8.416   8.725  -6.624  0.00  0.00     0.028 H 
ENDBRANCH   1  28
TORSDOF 3
ENDMDL
MODEL 9
REMARK VINA RESULT:      -4.9      4.705      5.940
REMARK  3 active torsions:
REMARK  status: ('A' for Active; 'I' for Inactive)
REMARK    1  A    between atoms: C_1  and  C_2 
REMARK    2  A    between atoms: N_9  and  N_10 
REMARK       I    between atoms: N_10  and  C_11 
REMARK       I    between atoms: C_11  and  N_13 
REMARK    3  A    between atoms: C_15  and  C_17 
ROOT
ATOM      1  C   LIG d   1       2.405  -1.014  -9.693  0.00  0.00    -0.050 A 
ATOM      2  C   LIG d   1       3.474  -1.752 -10.172  0.00  0.00    -0.059 A 
ATOM      3  C   LIG d   1       4.596  -1.938  -9.386  0.00  0.00    -0.057 A 
ATOM      4  C   LIG d   1       4.661  -1.390  -8.119  0.00  0.00    -0.035 A 
ATOM      5  C   LIG d   1       3.589  -0.647  -7.628  0.00  0.00     0.001 A 
ATOM      6  C   LIG d   1       2.455  -0.463  -8.432  0.00  0.00    -0.050 A 
ATOM      7  C   LIG d   1       3.874  -0.162  -6.264  0.00  0.00     0.067 A 
ATOM      8  N   LIG d   1       3.082   0.557  -5.530  0.00  0.00    -0.183 NA
ATOM      9  C   LIG d   1       5.248  -0.650  -5.872  0.00  0.00    -0.002 A 
ATOM     10  C   LIG d   1       5.755  -1.448  -7.080  0.00  0.00    -0.013 A 
ATOM     11  H   LIG d   1       6.666  -0.995  -7.472  0.00  0.00     0.035 H 
ATOM     12  H   LIG d   1       3.432  -2.182 -11.161  0.00  0.00     0.062 H 
ATOM     13  H   LIG d   1       5.428  -2.514  -9.766  0.00  0.00     0.062 H 
ATOM     14  H   LIG d   1       1.620   0.112  -8.061  0.00  0.00     0.063 H 
ATOM     15  H   LIG d   1       5.184  -1.293  -4.995  0.00  0.00     0.034 H 
ATOM     16  H   LIG d   1       5.906   0.196  -5.674  0.00  0.00     0.034 H 
ENDROOT
BRANCH   8  17
ATOM     17  N   LIG d   1       3.482   0.950  -4.246  0.00  0.00    -0.191 N 
ATOM     18  C   LIG d   1       3.087   0.239  -3.171  0.00  0.00     0.317 C 
ATOM     19  O   LIG d   1       3.435   0.579  -2.056  0.00  0.00    -0.251 OA
ATOM     20  N   LIG d   1       2.307  -0.849  -3.331  0.00  0.00    -0.312 N 
ATOM     21  H   LIG d   1       2.030  -1.120  -4.220  0.00  0.00     0.146 HD
ATOM     22  H   LIG d   1       2.024  -1.360  -2.557  0.00  0.00     0.146 HD
ATOM     23  H   LIG d   1       4.043   1.732  -4.130  0.00  0.00     0.179 HD
ENDBRANCH   8  17
BRANCH  10  24
ATOM     24  C   LIG d   1       6.022  -2.900  -6.676  0.00  0.00    -0.058 C 
ATOM     25  H   LIG d   1       7.069  -3.010  -6.393  0.00  0.00     0.024 H 
ATOM     26  H   LIG d   1       5.388  -3.164  -5.831  0.00  0.00     0.024 H 
ATOM     27  H   LIG d   1       5.801  -3.557  -7.517  0.00  0.00     0.024 H 
ENDBRANCH  10  24
BRANCH   1  28
ATOM     28  C   LIG d   1       1.185  -0.814 -10.554  0.00  0.00    -0.040 C 
ATOM     29  H   LIG d   1       0.404  -1.507 -10.242  0.00  0.00     0.028 H 
ATOM     30  H   LIG d   1       0.828   0.209 -10.446  0.00  0.00     0.028 H 
ATOM     31  H   LIG d   1       1.442  -1.002 -11.597  0.00  0.00     0.028 H 
ENDBRANCH   1  28
TORSDOF 3
ENDMDL
