MODEL 1
REMARK VINA RESULT:      -6.6      0.000      0.000
REMARK  13 active torsions:
REMARK  status: ('A' for Active; 'I' for Inactive)
REMARK    1  A    between atoms: C_1  and  C_2 
REMARK    2  A    between atoms: C_2  and  C_3 
REMARK    3  A    between atoms: C_2  and  C_4 
REMARK    4  A    between atoms: C_2  and  C_5 
REMARK    5  A    between atoms: C_8  and  C_11 
REMARK    6  A    between atoms: C_11  and  N_12 
REMARK    7  A    between atoms: N_12  and  C_13 
REMARK    8  A    between atoms: N_12  and  S_25 
REMARK    9  A    between atoms: C_13  and  C_14 
REMARK   10  A    between atoms: C_18  and  O_20 
REMARK   11  A    between atoms: O_20  and  C_21 
REMARK   12  A    between atoms: C_21  and  C_22 
REMARK   13  A    between atoms: S_25  and  C_28 
ROOT
ATOM      1  N   LIG d   1       3.611  -0.079  -9.164  0.00  0.00    -0.168 N 
ENDROOT
BRANCH   1   2
ATOM      2  C   LIG d   1       2.516  -0.026  -8.193  0.00  0.00     0.046 C 
ATOM      3  H   LIG d   1       1.798  -0.815  -8.411  0.00  0.00     0.049 H 
ATOM      4  H   LIG d   1       2.022   0.944  -8.256  0.00  0.00     0.049 H 
BRANCH   2   5
ATOM      5  C   LIG d   1       3.069  -0.218  -6.804  0.00  0.00    -0.032 A 
ATOM      6  C   LIG d   1       4.104  -1.108  -6.589  0.00  0.00    -0.057 A 
ATOM      7  C   LIG d   1       4.612  -1.283  -5.314  0.00  0.00    -0.058 A 
ATOM      8  H   LIG d   1       4.517  -1.666  -7.416  0.00  0.00     0.062 H 
ATOM      9  C   LIG d   1       4.085  -0.568  -4.256  0.00  0.00    -0.042 A 
ATOM     10  H   LIG d   1       5.421  -1.978  -5.147  0.00  0.00     0.062 H 
ATOM     11  C   LIG d   1       3.046   0.319  -4.470  0.00  0.00    -0.058 A 
ATOM     12  C   LIG d   1       2.541   0.497  -5.745  0.00  0.00    -0.057 A 
ATOM     13  H   LIG d   1       2.631   0.875  -3.643  0.00  0.00     0.062 H 
ATOM     14  H   LIG d   1       1.732   1.193  -5.913  0.00  0.00     0.062 H 
BRANCH   9  15
ATOM     15  C   LIG d   1       4.638  -0.758  -2.868  0.00  0.00    -0.013 C 
BRANCH  15  16
ATOM     16  C   LIG d   1       3.979  -1.978  -2.219  0.00  0.00    -0.056 C 
ATOM     17  H   LIG d   1       3.126  -2.292  -2.821  0.00  0.00     0.024 H 
ATOM     18  H   LIG d   1       4.701  -2.791  -2.158  0.00  0.00     0.024 H 
ATOM     19  H   LIG d   1       3.639  -1.716  -1.217  0.00  0.00     0.024 H 
ENDBRANCH  15  16
BRANCH  15  20
ATOM     20  C   LIG d   1       4.347   0.487  -2.027  0.00  0.00    -0.056 C 
ATOM     21  H   LIG d   1       3.285   0.725  -2.087  0.00  0.00     0.024 H 
ATOM     22  H   LIG d   1       4.618   0.296  -0.988  0.00  0.00     0.024 H 
ATOM     23  H   LIG d   1       4.930   1.326  -2.406  0.00  0.00     0.024 H 
ENDBRANCH  15  20
BRANCH  15  24
ATOM     24  C   LIG d   1       6.150  -0.977  -2.947  0.00  0.00    -0.056 C 
ATOM     25  H   LIG d   1       6.592  -0.813  -1.965  0.00  0.00     0.024 H 
ATOM     26  H   LIG d   1       6.353  -1.997  -3.270  0.00  0.00     0.024 H 
ATOM     27  H   LIG d   1       6.582  -0.276  -3.662  0.00  0.00     0.024 H 
ENDBRANCH  15  24
ENDBRANCH   9  15
ENDBRANCH   2   5
ENDBRANCH   1   2
BRANCH   1  28
ATOM     28  C   LIG d   1       3.942  -1.344  -9.826  0.00  0.00     0.046 C 
ATOM     29  H   LIG d   1       4.733  -1.175 -10.557  0.00  0.00     0.049 H 
ATOM     30  H   LIG d   1       4.283  -2.064  -9.082  0.00  0.00     0.049 H 
BRANCH  28  31
ATOM     31  C   LIG d   1       2.720  -1.882 -10.524  0.00  0.00    -0.028 A 
ATOM     32  C   LIG d   1       2.165  -3.081 -10.117  0.00  0.00    -0.015 A 
ATOM     33  C   LIG d   1       1.037  -3.573 -10.757  0.00  0.00     0.121 A 
ATOM     34  H   LIG d   1       2.608  -3.631  -9.300  0.00  0.00     0.066 H 
ATOM     35  C   LIG d   1       0.475  -2.867 -11.810  0.00  0.00    -0.020 A 
ATOM     36  C   LIG d   1       1.037  -1.671 -12.216  0.00  0.00    -0.058 A 
ATOM     37  H   LIG d   1      -0.402  -3.250 -12.312  0.00  0.00     0.065 H 
ATOM     38  C   LIG d   1       2.158  -1.179 -11.574  0.00  0.00    -0.057 A 
ATOM     39  H   LIG d   1       0.600  -1.120 -13.035  0.00  0.00     0.062 H 
ATOM     40  H   LIG d   1       2.595  -0.244 -11.892  0.00  0.00     0.062 H 
BRANCH  33  41
ATOM     41  O   LIG d   1       0.486  -4.749 -10.356  0.00  0.00    -0.486 OA
BRANCH  41  42
ATOM     42  C   LIG d   1      -0.922  -4.903 -10.540  0.00  0.00     0.129 C 
ATOM     43  H   LIG d   1      -1.413  -3.939 -10.406  0.00  0.00     0.076 H 
ATOM     44  H   LIG d   1      -1.118  -5.273 -11.547  0.00  0.00     0.076 H 
BRANCH  42  45
ATOM     45  C   LIG d   1      -1.458  -5.886  -9.532  0.00  0.00     0.079 C 
ATOM     46  O   LIG d   1      -0.803  -6.870  -9.234  0.00  0.00    -0.546 OA
ATOM     47  O   LIG d   1      -2.545  -5.696  -9.013  0.00  0.00    -0.546 OA
ENDBRANCH  42  45
ENDBRANCH  41  42
ENDBRANCH  33  41
ENDBRANCH  28  31
ENDBRANCH   1  28
BRANCH   1  48
ATOM     48  S   LIG d   1       4.474   1.290  -9.517  0.00  0.00     0.063 S 
ATOM     49  O   LIG d   1       4.413   1.456 -10.928  0.00  0.00    -0.153 OA
ATOM     50  O   LIG d   1       4.031   2.292  -8.612  0.00  0.00    -0.153 OA
BRANCH  48  51
ATOM     51  C   LIG d   1       6.158   0.960  -9.120  0.00  0.00     0.123 A 
ATOM     52  C   LIG d   1       7.011   0.434 -10.072  0.00  0.00     0.054 A 
ATOM     53  N   LIG d   1       8.275   0.191  -9.784  0.00  0.00    -0.261 NA
ATOM     54  H   LIG d   1       6.640   0.224 -11.064  0.00  0.00     0.085 H 
ATOM     55  C   LIG d   1       8.770   0.425  -8.585  0.00  0.00     0.028 A 
ATOM     56  C   LIG d   1       7.976   0.946  -7.580  0.00  0.00    -0.042 A 
ATOM     57  H   LIG d   1       9.810   0.208  -8.385  0.00  0.00     0.083 H 
ATOM     58  C   LIG d   1       6.644   1.221  -7.847  0.00  0.00    -0.032 A 
ATOM     59  H   LIG d   1       8.388   1.137  -6.600  0.00  0.00     0.063 H 
ATOM     60  H   LIG d   1       5.999   1.628  -7.083  0.00  0.00     0.064 H 
ENDBRANCH  48  51
ENDBRANCH   1  48
TORSDOF 13
ENDMDL
MODEL 2
REMARK VINA RESULT:      -6.4      4.895      7.214
REMARK  13 active torsions:
REMARK  status: ('A' for Active; 'I' for Inactive)
REMARK    1  A    between atoms: C_1  and  C_2 
REMARK    2  A    between atoms: C_2  and  C_3 
REMARK    3  A    between atoms: C_2  and  C_4 
REMARK    4  A    between atoms: C_2  and  C_5 
REMARK    5  A    between atoms: C_8  and  C_11 
REMARK    6  A    between atoms: C_11  and  N_12 
REMARK    7  A    between atoms: N_12  and  C_13 
REMARK    8  A    between atoms: N_12  and  S_25 
REMARK    9  A    between atoms: C_13  and  C_14 
REMARK   10  A    between atoms: C_18  and  O_20 
REMARK   11  A    between atoms: O_20  and  C_21 
REMARK   12  A    between atoms: C_21  and  C_22 
REMARK   13  A    between atoms: S_25  and  C_28 
ROOT
ATOM      1  N   LIG d   1       6.347  -2.819  -5.201  0.00  0.00    -0.168 N 
ENDROOT
BRANCH   1   2
ATOM      2  C   LIG d   1       4.888  -2.731  -5.108  0.00  0.00     0.046 C 
ATOM      3  H   LIG d   1       4.612  -2.243  -4.174  0.00  0.00     0.049 H 
ATOM      4  H   LIG d   1       4.462  -3.734  -5.134  0.00  0.00     0.049 H 
BRANCH   2   5
ATOM      5  C   LIG d   1       4.359  -1.931  -6.270  0.00  0.00    -0.032 A 
ATOM      6  C   LIG d   1       4.225  -2.521  -7.513  0.00  0.00    -0.057 A 
ATOM      7  C   LIG d   1       3.737  -1.786  -8.578  0.00  0.00    -0.058 A 
ATOM      8  H   LIG d   1       4.500  -3.555  -7.651  0.00  0.00     0.062 H 
ATOM      9  C   LIG d   1       3.384  -0.462  -8.400  0.00  0.00    -0.042 A 
ATOM     10  H   LIG d   1       3.633  -2.247  -9.549  0.00  0.00     0.062 H 
ATOM     11  C   LIG d   1       3.522   0.130  -7.158  0.00  0.00    -0.058 A 
ATOM     12  C   LIG d   1       4.006  -0.606  -6.092  0.00  0.00    -0.057 A 
ATOM     13  H   LIG d   1       3.250   1.166  -7.020  0.00  0.00     0.062 H 
ATOM     14  H   LIG d   1       4.110  -0.145  -5.121  0.00  0.00     0.062 H 
BRANCH   9  15
ATOM     15  C   LIG d   1       2.853   0.339  -9.561  0.00  0.00    -0.013 C 
BRANCH  15  16
ATOM     16  C   LIG d   1       3.889   0.352 -10.687  0.00  0.00    -0.056 C 
ATOM     17  H   LIG d   1       4.546  -0.512 -10.586  0.00  0.00     0.024 H 
ATOM     18  H   LIG d   1       3.379   0.310 -11.650  0.00  0.00     0.024 H 
ATOM     19  H   LIG d   1       4.478   1.267 -10.627  0.00  0.00     0.024 H 
ENDBRANCH  15  16
BRANCH  15  20
ATOM     20  C   LIG d   1       2.574   1.773  -9.107  0.00  0.00    -0.056 C 
ATOM     21  H   LIG d   1       1.555   1.843  -8.728  0.00  0.00     0.024 H 
ATOM     22  H   LIG d   1       3.275   2.047  -8.318  0.00  0.00     0.024 H 
ATOM     23  H   LIG d   1       2.696   2.452  -9.951  0.00  0.00     0.024 H 
ENDBRANCH  15  20
BRANCH  15  24
ATOM     24  C   LIG d   1       1.557  -0.296 -10.067  0.00  0.00    -0.056 C 
ATOM     25  H   LIG d   1       0.997  -0.700  -9.224  0.00  0.00     0.024 H 
ATOM     26  H   LIG d   1       0.955   0.458 -10.573  0.00  0.00     0.024 H 
ATOM     27  H   LIG d   1       1.793  -1.100 -10.765  0.00  0.00     0.024 H 
ENDBRANCH  15  24
ENDBRANCH   9  15
ENDBRANCH   2   5
ENDBRANCH   1   2
BRANCH   1  28
ATOM     28  C   LIG d   1       6.966  -3.662  -6.228  0.00  0.00     0.046 C 
ATOM     29  H   LIG d   1       6.395  -3.586  -7.153  0.00  0.00     0.049 H 
ATOM     30  H   LIG d   1       7.989  -3.327  -6.403  0.00  0.00     0.049 H 
BRANCH  28  31
ATOM     31  C   LIG d   1       6.979  -5.095  -5.762  0.00  0.00    -0.028 A 
ATOM     32  C   LIG d   1       5.805  -5.824  -5.739  0.00  0.00    -0.015 A 
ATOM     33  C   LIG d   1       5.819  -7.144  -5.315  0.00  0.00     0.121 A 
ATOM     34  H   LIG d   1       4.879  -5.366  -6.055  0.00  0.00     0.066 H 
ATOM     35  C   LIG d   1       7.009  -7.726  -4.905  0.00  0.00    -0.020 A 
ATOM     36  C   LIG d   1       8.179  -6.992  -4.924  0.00  0.00    -0.058 A 
ATOM     37  H   LIG d   1       7.021  -8.754  -4.571  0.00  0.00     0.065 H 
ATOM     38  C   LIG d   1       8.165  -5.677  -5.352  0.00  0.00    -0.057 A 
ATOM     39  H   LIG d   1       9.106  -7.444  -4.605  0.00  0.00     0.062 H 
ATOM     40  H   LIG d   1       9.080  -5.105  -5.367  0.00  0.00     0.062 H 
BRANCH  33  41
ATOM     41  O   LIG d   1       4.667  -7.865  -5.297  0.00  0.00    -0.486 OA
BRANCH  41  42
ATOM     42  C   LIG d   1       4.787  -9.283  -5.416  0.00  0.00     0.129 C 
ATOM     43  H   LIG d   1       4.206  -9.627  -6.273  0.00  0.00     0.076 H 
ATOM     44  H   LIG d   1       5.835  -9.549  -5.557  0.00  0.00     0.076 H 
BRANCH  42  45
ATOM     45  C   LIG d   1       4.268  -9.939  -4.162  0.00  0.00     0.079 C 
ATOM     46  O   LIG d   1       3.318  -9.456  -3.571  0.00  0.00    -0.546 OA
ATOM     47  O   LIG d   1       4.799 -10.952  -3.739  0.00  0.00    -0.546 OA
ENDBRANCH  42  45
ENDBRANCH  41  42
ENDBRANCH  33  41
ENDBRANCH  28  31
ENDBRANCH   1  28
BRANCH   1  48
ATOM     48  S   LIG d   1       7.298  -1.966  -4.147  0.00  0.00     0.063 S 
ATOM     49  O   LIG d   1       7.762  -2.894  -3.176  0.00  0.00    -0.153 OA
ATOM     50  O   LIG d   1       8.182  -1.185  -4.939  0.00  0.00    -0.153 OA
BRANCH  48  51
ATOM     51  C   LIG d   1       6.247  -0.833  -3.299  0.00  0.00     0.123 A 
ATOM     52  C   LIG d   1       6.411   0.529  -3.463  0.00  0.00     0.054 A 
ATOM     53  N   LIG d   1       5.624   1.383  -2.837  0.00  0.00    -0.261 NA
ATOM     54  H   LIG d   1       7.188   0.899  -4.114  0.00  0.00     0.085 H 
ATOM     55  C   LIG d   1       4.666   0.977  -2.027  0.00  0.00     0.028 A 
ATOM     56  C   LIG d   1       4.446  -0.371  -1.810  0.00  0.00    -0.042 A 
ATOM     57  H   LIG d   1       4.044   1.706  -1.528  0.00  0.00     0.083 H 
ATOM     58  C   LIG d   1       5.249  -1.298  -2.456  0.00  0.00    -0.032 A 
ATOM     59  H   LIG d   1       3.659  -0.697  -1.146  0.00  0.00     0.063 H 
ATOM     60  H   LIG d   1       5.101  -2.357  -2.306  0.00  0.00     0.064 H 
ENDBRANCH  48  51
ENDBRANCH   1  48
TORSDOF 13
ENDMDL
MODEL 3
REMARK VINA RESULT:      -6.4      5.431     10.049
REMARK  13 active torsions:
REMARK  status: ('A' for Active; 'I' for Inactive)
REMARK    1  A    between atoms: C_1  and  C_2 
REMARK    2  A    between atoms: C_2  and  C_3 
REMARK    3  A    between atoms: C_2  and  C_4 
REMARK    4  A    between atoms: C_2  and  C_5 
REMARK    5  A    between atoms: C_8  and  C_11 
REMARK    6  A    between atoms: C_11  and  N_12 
REMARK    7  A    between atoms: N_12  and  C_13 
REMARK    8  A    between atoms: N_12  and  S_25 
REMARK    9  A    between atoms: C_13  and  C_14 
REMARK   10  A    between atoms: C_18  and  O_20 
REMARK   11  A    between atoms: O_20  and  C_21 
REMARK   12  A    between atoms: C_21  and  C_22 
REMARK   13  A    between atoms: S_25  and  C_28 
ROOT
ATOM      1  N   LIG d   1       9.387   1.783  -6.000  0.00  0.00    -0.168 N 
ENDROOT
BRANCH   1   2
ATOM      2  C   LIG d   1       9.502   0.935  -4.811  0.00  0.00     0.046 C 
ATOM      3  H   LIG d   1      10.058   1.465  -4.038  0.00  0.00     0.049 H 
ATOM      4  H   LIG d   1      10.027   0.016  -5.071  0.00  0.00     0.049 H 
BRANCH   2   5
ATOM      5  C   LIG d   1       8.125   0.600  -4.299  0.00  0.00    -0.032 A 
ATOM      6  C   LIG d   1       7.639  -0.689  -4.416  0.00  0.00    -0.057 A 
ATOM      7  C   LIG d   1       6.375  -0.996  -3.945  0.00  0.00    -0.058 A 
ATOM      8  H   LIG d   1       8.245  -1.455  -4.875  0.00  0.00     0.062 H 
ATOM      9  C   LIG d   1       5.600  -0.016  -3.356  0.00  0.00    -0.042 A 
ATOM     10  H   LIG d   1       5.996  -2.003  -4.036  0.00  0.00     0.062 H 
ATOM     11  C   LIG d   1       6.084   1.274  -3.243  0.00  0.00    -0.058 A 
ATOM     12  C   LIG d   1       7.349   1.581  -3.711  0.00  0.00    -0.057 A 
ATOM     13  H   LIG d   1       5.477   2.041  -2.788  0.00  0.00     0.062 H 
ATOM     14  H   LIG d   1       7.729   2.587  -3.619  0.00  0.00     0.062 H 
BRANCH   9  15
ATOM     15  C   LIG d   1       4.223  -0.351  -2.843  0.00  0.00    -0.013 C 
BRANCH  15  16
ATOM     16  C   LIG d   1       3.315  -0.716  -4.019  0.00  0.00    -0.056 C 
ATOM     17  H   LIG d   1       2.735  -1.604  -3.767  0.00  0.00     0.024 H 
ATOM     18  H   LIG d   1       2.640   0.113  -4.228  0.00  0.00     0.024 H 
ATOM     19  H   LIG d   1       3.926  -0.919  -4.899  0.00  0.00     0.024 H 
ENDBRANCH  15  16
BRANCH  15  20
ATOM     20  C   LIG d   1       3.644   0.860  -2.107  0.00  0.00    -0.056 C 
ATOM     21  H   LIG d   1       3.127   0.526  -1.209  0.00  0.00     0.024 H 
ATOM     22  H   LIG d   1       4.452   1.538  -1.831  0.00  0.00     0.024 H 
ATOM     23  H   LIG d   1       2.942   1.379  -2.760  0.00  0.00     0.024 H 
ENDBRANCH  15  20
BRANCH  15  24
ATOM     24  C   LIG d   1       4.314  -1.536  -1.880  0.00  0.00    -0.056 C 
ATOM     25  H   LIG d   1       3.773  -2.385  -2.298  0.00  0.00     0.024 H 
ATOM     26  H   LIG d   1       5.358  -1.807  -1.733  0.00  0.00     0.024 H 
ATOM     27  H   LIG d   1       3.872  -1.261  -0.921  0.00  0.00     0.024 H 
ENDBRANCH  15  24
ENDBRANCH   9  15
ENDBRANCH   2   5
ENDBRANCH   1   2
BRANCH   1  28
ATOM     28  C   LIG d   1       9.338   3.240  -5.858  0.00  0.00     0.046 C 
ATOM     29  H   LIG d   1       9.586   3.707  -6.811  0.00  0.00     0.049 H 
ATOM     30  H   LIG d   1       8.335   3.542  -5.556  0.00  0.00     0.049 H 
BRANCH  28  31
ATOM     31  C   LIG d   1      10.330   3.678  -4.811  0.00  0.00    -0.028 A 
ATOM     32  C   LIG d   1       9.884   4.209  -3.616  0.00  0.00    -0.015 A 
ATOM     33  C   LIG d   1      10.797   4.607  -2.652  0.00  0.00     0.121 A 
ATOM     34  H   LIG d   1       8.824   4.311  -3.433  0.00  0.00     0.066 H 
ATOM     35  C   LIG d   1      12.157   4.481  -2.893  0.00  0.00    -0.020 A 
ATOM     36  C   LIG d   1      12.599   3.954  -4.092  0.00  0.00    -0.058 A 
ATOM     37  H   LIG d   1      12.871   4.794  -2.145  0.00  0.00     0.065 H 
ATOM     38  C   LIG d   1      11.687   3.553  -5.050  0.00  0.00    -0.057 A 
ATOM     39  H   LIG d   1      13.657   3.856  -4.281  0.00  0.00     0.062 H 
ATOM     40  H   LIG d   1      12.033   3.141  -5.986  0.00  0.00     0.062 H 
BRANCH  33  41
ATOM     41  O   LIG d   1      10.361   5.125  -1.473  0.00  0.00    -0.486 OA
BRANCH  41  42
ATOM     42  C   LIG d   1      10.771   6.457  -1.158  0.00  0.00     0.129 C 
ATOM     43  H   LIG d   1      10.896   6.553  -0.079  0.00  0.00     0.076 H 
ATOM     44  H   LIG d   1      11.718   6.672  -1.653  0.00  0.00     0.076 H 
BRANCH  42  45
ATOM     45  C   LIG d   1       9.725   7.432  -1.632  0.00  0.00     0.079 C 
ATOM     46  O   LIG d   1       9.885   8.035  -2.679  0.00  0.00    -0.546 OA
ATOM     47  O   LIG d   1       8.717   7.615  -0.970  0.00  0.00    -0.546 OA
ENDBRANCH  42  45
ENDBRANCH  41  42
ENDBRANCH  33  41
ENDBRANCH  28  31
ENDBRANCH   1  28
BRANCH   1  48
ATOM     48  S   LIG d   1       9.314   1.095  -7.505  0.00  0.00     0.063 S 
ATOM     49  O   LIG d   1      10.088   1.920  -8.366  0.00  0.00    -0.153 OA
ATOM     50  O   LIG d   1       9.582  -0.289  -7.331  0.00  0.00    -0.153 OA
BRANCH  48  51
ATOM     51  C   LIG d   1       7.645   1.221  -8.054  0.00  0.00     0.123 A 
ATOM     52  C   LIG d   1       7.253   2.268  -8.866  0.00  0.00     0.054 A 
ATOM     53  N   LIG d   1       6.006   2.365  -9.286  0.00  0.00    -0.261 NA
ATOM     54  H   LIG d   1       7.975   3.012  -9.164  0.00  0.00     0.085 H 
ATOM     55  C   LIG d   1       5.088   1.483  -8.943  0.00  0.00     0.028 A 
ATOM     56  C   LIG d   1       5.406   0.412  -8.128  0.00  0.00    -0.042 A 
ATOM     57  H   LIG d   1       4.076   1.599  -9.303  0.00  0.00     0.083 H 
ATOM     58  C   LIG d   1       6.707   0.273  -7.672  0.00  0.00    -0.032 A 
ATOM     59  H   LIG d   1       4.649  -0.308  -7.851  0.00  0.00     0.063 H 
ATOM     60  H   LIG d   1       6.985  -0.553  -7.035  0.00  0.00     0.064 H 
ENDBRANCH  48  51
ENDBRANCH   1  48
TORSDOF 13
ENDMDL
MODEL 4
REMARK VINA RESULT:      -6.3      4.361      8.491
REMARK  13 active torsions:
REMARK  status: ('A' for Active; 'I' for Inactive)
REMARK    1  A    between atoms: C_1  and  C_2 
REMARK    2  A    between atoms: C_2  and  C_3 
REMARK    3  A    between atoms: C_2  and  C_4 
REMARK    4  A    between atoms: C_2  and  C_5 
REMARK    5  A    between atoms: C_8  and  C_11 
REMARK    6  A    between atoms: C_11  and  N_12 
REMARK    7  A    between atoms: N_12  and  C_13 
REMARK    8  A    between atoms: N_12  and  S_25 
REMARK    9  A    between atoms: C_13  and  C_14 
REMARK   10  A    between atoms: C_18  and  O_20 
REMARK   11  A    between atoms: O_20  and  C_21 
REMARK   12  A    between atoms: C_21  and  C_22 
REMARK   13  A    between atoms: S_25  and  C_28 
ROOT
ATOM      1  N   LIG d   1       6.382  -3.008  -4.917  0.00  0.00    -0.168 N 
ENDROOT
BRANCH   1   2
ATOM      2  C   LIG d   1       5.015  -3.367  -5.301  0.00  0.00     0.046 C 
ATOM      3  H   LIG d   1       4.372  -3.343  -4.422  0.00  0.00     0.049 H 
ATOM      4  H   LIG d   1       5.010  -4.370  -5.728  0.00  0.00     0.049 H 
BRANCH   2   5
ATOM      5  C   LIG d   1       4.506  -2.383  -6.323  0.00  0.00    -0.032 A 
ATOM      6  C   LIG d   1       4.245  -1.077  -5.955  0.00  0.00    -0.057 A 
ATOM      7  C   LIG d   1       3.779  -0.174  -6.894  0.00  0.00    -0.058 A 
ATOM      8  H   LIG d   1       4.405  -0.761  -4.935  0.00  0.00     0.062 H 
ATOM      9  C   LIG d   1       3.575  -0.578  -8.199  0.00  0.00    -0.042 A 
ATOM     10  H   LIG d   1       3.575   0.847  -6.605  0.00  0.00     0.062 H 
ATOM     11  C   LIG d   1       3.832  -1.886  -8.566  0.00  0.00    -0.058 A 
ATOM     12  C   LIG d   1       4.301  -2.788  -7.629  0.00  0.00    -0.057 A 
ATOM     13  H   LIG d   1       3.669  -2.203  -9.586  0.00  0.00     0.062 H 
ATOM     14  H   LIG d   1       4.506  -3.808  -7.917  0.00  0.00     0.062 H 
BRANCH   9  15
ATOM     15  C   LIG d   1       3.068   0.405  -9.222  0.00  0.00    -0.013 C 
BRANCH  15  16
ATOM     16  C   LIG d   1       2.764   1.740  -8.538  0.00  0.00    -0.056 C 
ATOM     17  H   LIG d   1       2.712   1.592  -7.459  0.00  0.00     0.024 H 
ATOM     18  H   LIG d   1       3.554   2.455  -8.770  0.00  0.00     0.024 H 
ATOM     19  H   LIG d   1       1.809   2.123  -8.899  0.00  0.00     0.024 H 
ENDBRANCH  15  16
BRANCH  15  20
ATOM     20  C   LIG d   1       1.791  -0.141  -9.866  0.00  0.00    -0.056 C 
ATOM     21  H   LIG d   1       1.973  -1.151 -10.231  0.00  0.00     0.024 H 
ATOM     22  H   LIG d   1       0.990  -0.159  -9.126  0.00  0.00     0.024 H 
ATOM     23  H   LIG d   1       1.502   0.501 -10.698  0.00  0.00     0.024 H 
ENDBRANCH  15  20
BRANCH  15  24
ATOM     24  C   LIG d   1       4.133   0.615 -10.300  0.00  0.00    -0.056 C 
ATOM     25  H   LIG d   1       4.374  -0.342 -10.762  0.00  0.00     0.024 H 
ATOM     26  H   LIG d   1       3.754   1.298 -11.058  0.00  0.00     0.024 H 
ATOM     27  H   LIG d   1       5.031   1.036  -9.847  0.00  0.00     0.024 H 
ENDBRANCH  15  24
ENDBRANCH   9  15
ENDBRANCH   2   5
ENDBRANCH   1   2
BRANCH   1  28
ATOM     28  C   LIG d   1       6.695  -2.709  -3.517  0.00  0.00     0.046 C 
ATOM     29  H   LIG d   1       6.270  -3.483  -2.877  0.00  0.00     0.049 H 
ATOM     30  H   LIG d   1       7.777  -2.682  -3.384  0.00  0.00     0.049 H 
BRANCH  28  31
ATOM     31  C   LIG d   1       6.110  -1.372  -3.145  0.00  0.00    -0.028 A 
ATOM     32  C   LIG d   1       6.764  -0.208  -3.502  0.00  0.00    -0.015 A 
ATOM     33  C   LIG d   1       6.222   1.023  -3.163  0.00  0.00     0.121 A 
ATOM     34  H   LIG d   1       7.695  -0.258  -4.047  0.00  0.00     0.066 H 
ATOM     35  C   LIG d   1       5.030   1.083  -2.457  0.00  0.00    -0.020 A 
ATOM     36  C   LIG d   1       4.382  -0.083  -2.097  0.00  0.00    -0.058 A 
ATOM     37  H   LIG d   1       4.608   2.041  -2.189  0.00  0.00     0.065 H 
ATOM     38  C   LIG d   1       4.921  -1.309  -2.440  0.00  0.00    -0.057 A 
ATOM     39  H   LIG d   1       3.454  -0.038  -1.548  0.00  0.00     0.062 H 
ATOM     40  H   LIG d   1       4.413  -2.219  -2.159  0.00  0.00     0.062 H 
BRANCH  33  41
ATOM     41  O   LIG d   1       6.862   2.169  -3.518  0.00  0.00    -0.486 OA
BRANCH  41  42
ATOM     42  C   LIG d   1       7.983   2.041  -4.394  0.00  0.00     0.129 C 
ATOM     43  H   LIG d   1       8.076   1.004  -4.717  0.00  0.00     0.076 H 
ATOM     44  H   LIG d   1       7.838   2.681  -5.265  0.00  0.00     0.076 H 
BRANCH  42  45
ATOM     45  C   LIG d   1       9.237   2.458  -3.670  0.00  0.00     0.079 C 
ATOM     46  O   LIG d   1      10.237   1.764  -3.738  0.00  0.00    -0.546 OA
ATOM     47  O   LIG d   1       9.252   3.488  -3.018  0.00  0.00    -0.546 OA
ENDBRANCH  42  45
ENDBRANCH  41  42
ENDBRANCH  33  41
ENDBRANCH  28  31
ENDBRANCH   1  28
BRANCH   1  48
ATOM     48  S   LIG d   1       7.575  -2.939  -6.064  0.00  0.00     0.063 S 
ATOM     49  O   LIG d   1       7.395  -4.071  -6.905  0.00  0.00    -0.153 OA
ATOM     50  O   LIG d   1       7.578  -1.609  -6.566  0.00  0.00    -0.153 OA
BRANCH  48  51
ATOM     51  C   LIG d   1       9.111  -3.168  -5.232  0.00  0.00     0.123 A 
ATOM     52  C   LIG d   1      10.026  -2.134  -5.156  0.00  0.00     0.054 A 
ATOM     53  N   LIG d   1      11.175  -2.297  -4.530  0.00  0.00    -0.261 NA
ATOM     54  H   LIG d   1       9.797  -1.184  -5.612  0.00  0.00     0.085 H 
ATOM     55  C   LIG d   1      11.501  -3.442  -3.964  0.00  0.00     0.028 A 
ATOM     56  C   LIG d   1      10.638  -4.521  -4.003  0.00  0.00    -0.042 A 
ATOM     57  H   LIG d   1      12.454  -3.538  -3.463  0.00  0.00     0.083 H 
ATOM     58  C   LIG d   1       9.418  -4.388  -4.648  0.00  0.00    -0.032 A 
ATOM     59  H   LIG d   1      10.910  -5.457  -3.537  0.00  0.00     0.063 H 
ATOM     60  H   LIG d   1       8.723  -5.213  -4.695  0.00  0.00     0.064 H 
ENDBRANCH  48  51
ENDBRANCH   1  48
TORSDOF 13
ENDMDL
MODEL 5
REMARK VINA RESULT:      -6.3      4.238      8.215
REMARK  13 active torsions:
REMARK  status: ('A' for Active; 'I' for Inactive)
REMARK    1  A    between atoms: C_1  and  C_2 
REMARK    2  A    between atoms: C_2  and  C_3 
REMARK    3  A    between atoms: C_2  and  C_4 
REMARK    4  A    between atoms: C_2  and  C_5 
REMARK    5  A    between atoms: C_8  and  C_11 
REMARK    6  A    between atoms: C_11  and  N_12 
REMARK    7  A    between atoms: N_12  and  C_13 
REMARK    8  A    between atoms: N_12  and  S_25 
REMARK    9  A    between atoms: C_13  and  C_14 
REMARK   10  A    between atoms: C_18  and  O_20 
REMARK   11  A    between atoms: O_20  and  C_21 
REMARK   12  A    between atoms: C_21  and  C_22 
REMARK   13  A    between atoms: S_25  and  C_28 
ROOT
ATOM      1  N   LIG d   1       5.859  -2.707  -5.802  0.00  0.00    -0.168 N 
ENDROOT
BRANCH   1   2
ATOM      2  C   LIG d   1       7.276  -2.402  -5.592  0.00  0.00     0.046 C 
ATOM      3  H   LIG d   1       7.368  -1.506  -4.979  0.00  0.00     0.049 H 
ATOM      4  H   LIG d   1       7.758  -2.235  -6.555  0.00  0.00     0.049 H 
BRANCH   2   5
ATOM      5  C   LIG d   1       7.940  -3.560  -4.892  0.00  0.00    -0.032 A 
ATOM      6  C   LIG d   1       8.609  -3.356  -3.700  0.00  0.00    -0.057 A 
ATOM      7  C   LIG d   1       9.217  -4.419  -3.058  0.00  0.00    -0.058 A 
ATOM      8  H   LIG d   1       8.656  -2.366  -3.270  0.00  0.00     0.062 H 
ATOM      9  C   LIG d   1       9.156  -5.685  -3.607  0.00  0.00    -0.042 A 
ATOM     10  H   LIG d   1       9.740  -4.259  -2.126  0.00  0.00     0.062 H 
ATOM     11  C   LIG d   1       8.491  -5.889  -4.802  0.00  0.00    -0.058 A 
ATOM     12  C   LIG d   1       7.880  -4.826  -5.442  0.00  0.00    -0.057 A 
ATOM     13  H   LIG d   1       8.446  -6.877  -5.234  0.00  0.00     0.062 H 
ATOM     14  H   LIG d   1       7.356  -4.986  -6.374  0.00  0.00     0.062 H 
BRANCH   9  15
ATOM     15  C   LIG d   1       9.818  -6.843  -2.907  0.00  0.00    -0.013 C 
BRANCH  15  16
ATOM     16  C   LIG d   1       8.893  -8.061  -2.950  0.00  0.00    -0.056 C 
ATOM     17  H   LIG d   1       7.994  -7.854  -2.368  0.00  0.00     0.024 H 
ATOM     18  H   LIG d   1       8.618  -8.273  -3.983  0.00  0.00     0.024 H 
ATOM     19  H   LIG d   1       9.409  -8.923  -2.526  0.00  0.00     0.024 H 
ENDBRANCH  15  16
BRANCH  15  20
ATOM     20  C   LIG d   1      10.100  -6.466  -1.451  0.00  0.00    -0.056 C 
ATOM     21  H   LIG d   1      11.177  -6.409  -1.293  0.00  0.00     0.024 H 
ATOM     22  H   LIG d   1       9.648  -5.499  -1.232  0.00  0.00     0.024 H 
ATOM     23  H   LIG d   1       9.675  -7.223  -0.791  0.00  0.00     0.024 H 
ENDBRANCH  15  20
BRANCH  15  24
ATOM     24  C   LIG d   1      11.135  -7.178  -3.611  0.00  0.00    -0.056 C 
ATOM     25  H   LIG d   1      10.942  -7.386  -4.663  0.00  0.00     0.024 H 
ATOM     26  H   LIG d   1      11.817  -6.333  -3.528  0.00  0.00     0.024 H 
ATOM     27  H   LIG d   1      11.584  -8.055  -3.144  0.00  0.00     0.024 H 
ENDBRANCH  15  24
ENDBRANCH   9  15
ENDBRANCH   2   5
ENDBRANCH   1   2
BRANCH   1  28
ATOM     28  C   LIG d   1       4.980  -2.932  -4.651  0.00  0.00     0.046 C 
ATOM     29  H   LIG d   1       3.965  -3.121  -5.001  0.00  0.00     0.049 H 
ATOM     30  H   LIG d   1       5.336  -3.793  -4.085  0.00  0.00     0.049 H 
BRANCH  28  31
ATOM     31  C   LIG d   1       4.987  -1.712  -3.766  0.00  0.00    -0.028 A 
ATOM     32  C   LIG d   1       5.664  -0.575  -4.164  0.00  0.00    -0.015 A 
ATOM     33  C   LIG d   1       5.666   0.549  -3.351  0.00  0.00     0.121 A 
ATOM     34  H   LIG d   1       6.189  -0.561  -5.108  0.00  0.00     0.066 H 
ATOM     35  C   LIG d   1       4.997   0.525  -2.136  0.00  0.00    -0.020 A 
ATOM     36  C   LIG d   1       4.326  -0.616  -1.741  0.00  0.00    -0.058 A 
ATOM     37  H   LIG d   1       5.000   1.399  -1.500  0.00  0.00     0.065 H 
ATOM     38  C   LIG d   1       4.321  -1.734  -2.555  0.00  0.00    -0.057 A 
ATOM     39  H   LIG d   1       3.805  -0.635  -0.796  0.00  0.00     0.062 H 
ATOM     40  H   LIG d   1       3.795  -2.624  -2.244  0.00  0.00     0.062 H 
BRANCH  33  41
ATOM     41  O   LIG d   1       6.327   1.670  -3.742  0.00  0.00    -0.486 OA
BRANCH  41  42
ATOM     42  C   LIG d   1       7.754   1.603  -3.780  0.00  0.00     0.129 C 
ATOM     43  H   LIG d   1       8.166   2.164  -2.940  0.00  0.00     0.076 H 
ATOM     44  H   LIG d   1       8.070   0.562  -3.712  0.00  0.00     0.076 H 
BRANCH  42  45
ATOM     45  C   LIG d   1       8.252   2.195  -5.073  0.00  0.00     0.079 C 
ATOM     46  O   LIG d   1       7.761   1.845  -6.132  0.00  0.00    -0.546 OA
ATOM     47  O   LIG d   1       9.144   3.026  -5.059  0.00  0.00    -0.546 OA
ENDBRANCH  42  45
ENDBRANCH  41  42
ENDBRANCH  33  41
ENDBRANCH  28  31
ENDBRANCH   1  28
BRANCH   1  48
ATOM     48  S   LIG d   1       5.249  -2.797  -7.339  0.00  0.00     0.063 S 
ATOM     49  O   LIG d   1       6.363  -2.948  -8.209  0.00  0.00    -0.153 OA
ATOM     50  O   LIG d   1       4.182  -3.734  -7.297  0.00  0.00    -0.153 OA
BRANCH  48  51
ATOM     51  C   LIG d   1       4.531  -1.230  -7.706  0.00  0.00     0.123 A 
ATOM     52  C   LIG d   1       5.312  -0.090  -7.723  0.00  0.00     0.054 A 
ATOM     53  N   LIG d   1       4.783   1.085  -8.003  0.00  0.00    -0.261 NA
ATOM     54  H   LIG d   1       6.367  -0.162  -7.507  0.00  0.00     0.085 H 
ATOM     55  C   LIG d   1       3.498   1.222  -8.266  0.00  0.00     0.028 A 
ATOM     56  C   LIG d   1       2.654   0.126  -8.263  0.00  0.00    -0.042 A 
ATOM     57  H   LIG d   1       3.100   2.202  -8.486  0.00  0.00     0.083 H 
ATOM     58  C   LIG d   1       3.175  -1.126  -7.979  0.00  0.00    -0.032 A 
ATOM     59  H   LIG d   1       1.603   0.245  -8.480  0.00  0.00     0.063 H 
ATOM     60  H   LIG d   1       2.541  -2.000  -7.969  0.00  0.00     0.064 H 
ENDBRANCH  48  51
ENDBRANCH   1  48
TORSDOF 13
ENDMDL
MODEL 6
REMARK VINA RESULT:      -6.2      4.145      5.202
REMARK  13 active torsions:
REMARK  status: ('A' for Active; 'I' for Inactive)
REMARK    1  A    between atoms: C_1  and  C_2 
REMARK    2  A    between atoms: C_2  and  C_3 
REMARK    3  A    between atoms: C_2  and  C_4 
REMARK    4  A    between atoms: C_2  and  C_5 
REMARK    5  A    between atoms: C_8  and  C_11 
REMARK    6  A    between atoms: C_11  and  N_12 
REMARK    7  A    between atoms: N_12  and  C_13 
REMARK    8  A    between atoms: N_12  and  S_25 
REMARK    9  A    between atoms: C_13  and  C_14 
REMARK   10  A    between atoms: C_18  and  O_20 
REMARK   11  A    between atoms: O_20  and  C_21 
REMARK   12  A    between atoms: C_21  and  C_22 
REMARK   13  A    between atoms: S_25  and  C_28 
ROOT
ATOM      1  N   LIG d   1       4.964  -3.175  -8.620  0.00  0.00    -0.168 N 
ENDROOT
BRANCH   1   2
ATOM      2  C   LIG d   1       6.067  -2.893  -7.699  0.00  0.00     0.046 C 
ATOM      3  H   LIG d   1       6.768  -2.205  -8.172  0.00  0.00     0.049 H 
ATOM      4  H   LIG d   1       6.580  -3.822  -7.452  0.00  0.00     0.049 H 
BRANCH   2   5
ATOM      5  C   LIG d   1       5.522  -2.269  -6.440  0.00  0.00    -0.032 A 
ATOM      6  C   LIG d   1       4.996  -0.991  -6.473  0.00  0.00    -0.057 A 
ATOM      7  C   LIG d   1       4.495  -0.420  -5.317  0.00  0.00    -0.058 A 
ATOM      8  H   LIG d   1       4.976  -0.440  -7.401  0.00  0.00     0.062 H 
ATOM      9  C   LIG d   1       4.520  -1.127  -4.130  0.00  0.00    -0.042 A 
ATOM     10  H   LIG d   1       4.084   0.578  -5.343  0.00  0.00     0.062 H 
ATOM     11  C   LIG d   1       5.051  -2.403  -4.096  0.00  0.00    -0.058 A 
ATOM     12  C   LIG d   1       5.548  -2.976  -5.252  0.00  0.00    -0.057 A 
ATOM     13  H   LIG d   1       5.074  -2.954  -3.168  0.00  0.00     0.062 H 
ATOM     14  H   LIG d   1       5.958  -3.974  -5.227  0.00  0.00     0.062 H 
BRANCH   9  15
ATOM     15  C   LIG d   1       3.975  -0.505  -2.871  0.00  0.00    -0.013 C 
BRANCH  15  16
ATOM     16  C   LIG d   1       4.523  -1.252  -1.654  0.00  0.00    -0.056 C 
ATOM     17  H   LIG d   1       4.763  -2.278  -1.935  0.00  0.00     0.024 H 
ATOM     18  H   LIG d   1       5.423  -0.753  -1.296  0.00  0.00     0.024 H 
ATOM     19  H   LIG d   1       3.772  -1.259  -0.864  0.00  0.00     0.024 H 
ENDBRANCH  15  16
BRANCH  15  20
ATOM     20  C   LIG d   1       2.447  -0.593  -2.879  0.00  0.00    -0.056 C 
ATOM     21  H   LIG d   1       2.027   0.398  -3.051  0.00  0.00     0.024 H 
ATOM     22  H   LIG d   1       2.126  -1.267  -3.672  0.00  0.00     0.024 H 
ATOM     23  H   LIG d   1       2.100  -0.972  -1.917  0.00  0.00     0.024 H 
ENDBRANCH  15  20
BRANCH  15  24
ATOM     24  C   LIG d   1       4.400   0.963  -2.802  0.00  0.00    -0.056 C 
ATOM     25  H   LIG d   1       5.007   1.124  -1.912  0.00  0.00     0.024 H 
ATOM     26  H   LIG d   1       4.982   1.216  -3.688  0.00  0.00     0.024 H 
ATOM     27  H   LIG d   1       3.513   1.597  -2.757  0.00  0.00     0.024 H 
ENDBRANCH  15  24
ENDBRANCH   9  15
ENDBRANCH   2   5
ENDBRANCH   1   2
BRANCH   1  28
ATOM     28  C   LIG d   1       3.841  -4.010  -8.184  0.00  0.00     0.046 C 
ATOM     29  H   LIG d   1       3.406  -3.589  -7.277  0.00  0.00     0.049 H 
ATOM     30  H   LIG d   1       3.085  -4.041  -8.969  0.00  0.00     0.049 H 
BRANCH  28  31
ATOM     31  C   LIG d   1       4.332  -5.407  -7.905  0.00  0.00    -0.028 A 
ATOM     32  C   LIG d   1       4.238  -5.929  -6.629  0.00  0.00    -0.015 A 
ATOM     33  C   LIG d   1       4.686  -7.217  -6.374  0.00  0.00     0.121 A 
ATOM     34  H   LIG d   1       3.814  -5.336  -5.832  0.00  0.00     0.066 H 
ATOM     35  C   LIG d   1       5.236  -7.974  -7.398  0.00  0.00    -0.020 A 
ATOM     36  C   LIG d   1       5.332  -7.445  -8.670  0.00  0.00    -0.058 A 
ATOM     37  H   LIG d   1       5.588  -8.976  -7.200  0.00  0.00     0.065 H 
ATOM     38  C   LIG d   1       4.881  -6.163  -8.924  0.00  0.00    -0.057 A 
ATOM     39  H   LIG d   1       5.760  -8.034  -9.468  0.00  0.00     0.062 H 
ATOM     40  H   LIG d   1       4.957  -5.752  -9.920  0.00  0.00     0.062 H 
BRANCH  33  41
ATOM     41  O   LIG d   1       4.590  -7.735  -5.121  0.00  0.00    -0.486 OA
BRANCH  41  42
ATOM     42  C   LIG d   1       5.091  -9.058  -4.925  0.00  0.00     0.129 C 
ATOM     43  H   LIG d   1       5.475  -9.445  -5.870  0.00  0.00     0.076 H 
ATOM     44  H   LIG d   1       5.895  -9.037  -4.188  0.00  0.00     0.076 H 
BRANCH  42  45
ATOM     45  C   LIG d   1       3.981  -9.949  -4.431  0.00  0.00     0.079 C 
ATOM     46  O   LIG d   1       3.323  -9.620  -3.459  0.00  0.00    -0.546 OA
ATOM     47  O   LIG d   1       3.740 -10.999  -5.004  0.00  0.00    -0.546 OA
ENDBRANCH  42  45
ENDBRANCH  41  42
ENDBRANCH  33  41
ENDBRANCH  28  31
ENDBRANCH   1  28
BRANCH   1  48
ATOM     48  S   LIG d   1       4.984  -2.551 -10.154  0.00  0.00     0.063 S 
ATOM     49  O   LIG d   1       6.347  -2.495 -10.552  0.00  0.00    -0.153 OA
ATOM     50  O   LIG d   1       4.002  -3.263 -10.894  0.00  0.00    -0.153 OA
BRANCH  48  51
ATOM     51  C   LIG d   1       4.422  -0.884 -10.045  0.00  0.00     0.123 A 
ATOM     52  C   LIG d   1       5.267   0.161 -10.368  0.00  0.00     0.054 A 
ATOM     53  N   LIG d   1       4.851   1.411 -10.294  0.00  0.00    -0.261 NA
ATOM     54  H   LIG d   1       6.277  -0.047 -10.687  0.00  0.00     0.085 H 
ATOM     55  C   LIG d   1       3.629   1.713  -9.903  0.00  0.00     0.028 A 
ATOM     56  C   LIG d   1       2.730   0.720  -9.560  0.00  0.00    -0.042 A 
ATOM     57  H   LIG d   1       3.326   2.749  -9.851  0.00  0.00     0.083 H 
ATOM     58  C   LIG d   1       3.128  -0.605  -9.630  0.00  0.00    -0.032 A 
ATOM     59  H   LIG d   1       1.730   0.975  -9.241  0.00  0.00     0.063 H 
ATOM     60  H   LIG d   1       2.448  -1.402  -9.368  0.00  0.00     0.064 H 
ENDBRANCH  48  51
ENDBRANCH   1  48
TORSDOF 13
ENDMDL
MODEL 7
REMARK VINA RESULT:      -6.1      4.676      9.118
REMARK  13 active torsions:
REMARK  status: ('A' for Active; 'I' for Inactive)
REMARK    1  A    between atoms: C_1  and  C_2 
REMARK    2  A    between atoms: C_2  and  C_3 
REMARK    3  A    between atoms: C_2  and  C_4 
REMARK    4  A    between atoms: C_2  and  C_5 
REMARK    5  A    between atoms: C_8  and  C_11 
REMARK    6  A    between atoms: C_11  and  N_12 
REMARK    7  A    between atoms: N_12  and  C_13 
REMARK    8  A    between atoms: N_12  and  S_25 
REMARK    9  A    between atoms: C_13  and  C_14 
REMARK   10  A    between atoms: C_18  and  O_20 
REMARK   11  A    between atoms: O_20  and  C_21 
REMARK   12  A    between atoms: C_21  and  C_22 
REMARK   13  A    between atoms: S_25  and  C_28 
ROOT
ATOM      1  N   LIG d   1       8.173   0.815  -7.574  0.00  0.00    -0.168 N 
ENDROOT
BRANCH   1   2
ATOM      2  C   LIG d   1       8.398  -0.285  -6.633  0.00  0.00     0.046 C 
ATOM      3  H   LIG d   1       9.348  -0.135  -6.120  0.00  0.00     0.049 H 
ATOM      4  H   LIG d   1       8.423  -1.228  -7.177  0.00  0.00     0.049 H 
BRANCH   2   5
ATOM      5  C   LIG d   1       7.280  -0.318  -5.623  0.00  0.00    -0.032 A 
ATOM      6  C   LIG d   1       7.568  -0.255  -4.272  0.00  0.00    -0.057 A 
ATOM      7  C   LIG d   1       6.542  -0.283  -3.345  0.00  0.00    -0.058 A 
ATOM      8  H   LIG d   1       8.593  -0.182  -3.941  0.00  0.00     0.062 H 
ATOM      9  C   LIG d   1       5.230  -0.375  -3.769  0.00  0.00    -0.042 A 
ATOM     10  H   LIG d   1       6.766  -0.234  -2.290  0.00  0.00     0.062 H 
ATOM     11  C   LIG d   1       4.943  -0.442  -5.120  0.00  0.00    -0.058 A 
ATOM     12  C   LIG d   1       5.968  -0.410  -6.047  0.00  0.00    -0.057 A 
ATOM     13  H   LIG d   1       3.918  -0.518  -5.451  0.00  0.00     0.062 H 
ATOM     14  H   LIG d   1       5.744  -0.458  -7.102  0.00  0.00     0.062 H 
BRANCH   9  15
ATOM     15  C   LIG d   1       4.112  -0.406  -2.759  0.00  0.00    -0.013 C 
BRANCH  15  16
ATOM     16  C   LIG d   1       2.767  -0.315  -3.484  0.00  0.00    -0.056 C 
ATOM     17  H   LIG d   1       2.401  -1.320  -3.696  0.00  0.00     0.024 H 
ATOM     18  H   LIG d   1       2.049   0.209  -2.854  0.00  0.00     0.024 H 
ATOM     19  H   LIG d   1       2.896   0.229  -4.419  0.00  0.00     0.024 H 
ENDBRANCH  15  16
BRANCH  15  20
ATOM     20  C   LIG d   1       4.256   0.778  -1.801  0.00  0.00    -0.056 C 
ATOM     21  H   LIG d   1       4.819   1.574  -2.289  0.00  0.00     0.024 H 
ATOM     22  H   LIG d   1       3.267   1.147  -1.527  0.00  0.00     0.024 H 
ATOM     23  H   LIG d   1       4.785   0.457  -0.903  0.00  0.00     0.024 H 
ENDBRANCH  15  20
BRANCH  15  24
ATOM     24  C   LIG d   1       4.177  -1.713  -1.967  0.00  0.00    -0.056 C 
ATOM     25  H   LIG d   1       4.505  -2.519  -2.623  0.00  0.00     0.024 H 
ATOM     26  H   LIG d   1       4.883  -1.606  -1.145  0.00  0.00     0.024 H 
ATOM     27  H   LIG d   1       3.189  -1.948  -1.570  0.00  0.00     0.024 H 
ENDBRANCH  15  24
ENDBRANCH   9  15
ENDBRANCH   2   5
ENDBRANCH   1   2
BRANCH   1  28
ATOM     28  C   LIG d   1       8.097   2.194  -7.084  0.00  0.00     0.046 C 
ATOM     29  H   LIG d   1       8.110   2.881  -7.931  0.00  0.00     0.049 H 
ATOM     30  H   LIG d   1       7.173   2.329  -6.520  0.00  0.00     0.049 H 
BRANCH  28  31
ATOM     31  C   LIG d   1       9.277   2.476  -6.190  0.00  0.00    -0.028 A 
ATOM     32  C   LIG d   1       9.074   2.966  -4.914  0.00  0.00    -0.015 A 
ATOM     33  C   LIG d   1      10.161   3.221  -4.090  0.00  0.00     0.121 A 
ATOM     34  H   LIG d   1       8.071   3.146  -4.558  0.00  0.00     0.066 H 
ATOM     35  C   LIG d   1      11.448   2.993  -4.553  0.00  0.00    -0.020 A 
ATOM     36  C   LIG d   1      11.645   2.509  -5.832  0.00  0.00    -0.058 A 
ATOM     37  H   LIG d   1      12.296   3.194  -3.914  0.00  0.00     0.065 H 
ATOM     38  C   LIG d   1      10.562   2.251  -6.650  0.00  0.00    -0.057 A 
ATOM     39  H   LIG d   1      12.647   2.331  -6.193  0.00  0.00     0.062 H 
ATOM     40  H   LIG d   1      10.718   1.871  -7.649  0.00  0.00     0.062 H 
BRANCH  33  41
ATOM     41  O   LIG d   1       9.964   3.697  -2.833  0.00  0.00    -0.486 OA
BRANCH  41  42
ATOM     42  C   LIG d   1       9.998   5.115  -2.663  0.00  0.00     0.129 C 
ATOM     43  H   LIG d   1      10.554   5.566  -3.485  0.00  0.00     0.076 H 
ATOM     44  H   LIG d   1       8.979   5.505  -2.657  0.00  0.00     0.076 H 
BRANCH  42  45
ATOM     45  C   LIG d   1      10.671   5.450  -1.357  0.00  0.00     0.079 C 
ATOM     46  O   LIG d   1      10.102   6.157  -0.543  0.00  0.00    -0.546 OA
ATOM     47  O   LIG d   1      11.783   5.013  -1.114  0.00  0.00    -0.546 OA
ENDBRANCH  42  45
ENDBRANCH  41  42
ENDBRANCH  33  41
ENDBRANCH  28  31
ENDBRANCH   1  28
BRANCH   1  48
ATOM     48  S   LIG d   1       8.004   0.500  -9.191  0.00  0.00     0.063 S 
ATOM     49  O   LIG d   1       8.852   1.415  -9.873  0.00  0.00    -0.153 OA
ATOM     50  O   LIG d   1       8.120  -0.907  -9.345  0.00  0.00    -0.153 OA
BRANCH  48  51
ATOM     51  C   LIG d   1       6.351   0.921  -9.633  0.00  0.00     0.123 A 
ATOM     52  C   LIG d   1       5.680   0.196 -10.600  0.00  0.00     0.054 A 
ATOM     53  N   LIG d   1       4.440   0.502 -10.931  0.00  0.00    -0.261 NA
ATOM     54  H   LIG d   1       6.173  -0.631 -11.086  0.00  0.00     0.085 H 
ATOM     55  C   LIG d   1       3.799   1.508 -10.369  0.00  0.00     0.028 A 
ATOM     56  C   LIG d   1       4.409   2.280  -9.398  0.00  0.00    -0.042 A 
ATOM     57  H   LIG d   1       2.786   1.730 -10.670  0.00  0.00     0.083 H 
ATOM     58  C   LIG d   1       5.709   1.986  -9.019  0.00  0.00    -0.032 A 
ATOM     59  H   LIG d   1       3.878   3.102  -8.940  0.00  0.00     0.063 H 
ATOM     60  H   LIG d   1       6.211   2.572  -8.263  0.00  0.00     0.064 H 
ENDBRANCH  48  51
ENDBRANCH   1  48
TORSDOF 13
ENDMDL
MODEL 8
REMARK VINA RESULT:      -6.1      3.450      6.447
REMARK  13 active torsions:
REMARK  status: ('A' for Active; 'I' for Inactive)
REMARK    1  A    between atoms: C_1  and  C_2 
REMARK    2  A    between atoms: C_2  and  C_3 
REMARK    3  A    between atoms: C_2  and  C_4 
REMARK    4  A    between atoms: C_2  and  C_5 
REMARK    5  A    between atoms: C_8  and  C_11 
REMARK    6  A    between atoms: C_11  and  N_12 
REMARK    7  A    between atoms: N_12  and  C_13 
REMARK    8  A    between atoms: N_12  and  S_25 
REMARK    9  A    between atoms: C_13  and  C_14 
REMARK   10  A    between atoms: C_18  and  O_20 
REMARK   11  A    between atoms: O_20  and  C_21 
REMARK   12  A    between atoms: C_21  and  C_22 
REMARK   13  A    between atoms: S_25  and  C_28 
ROOT
ATOM      1  N   LIG d   1       5.676   0.122  -6.642  0.00  0.00    -0.168 N 
ENDROOT
BRANCH   1   2
ATOM      2  C   LIG d   1       6.894  -0.319  -5.958  0.00  0.00     0.046 C 
ATOM      3  H   LIG d   1       7.498  -0.915  -6.641  0.00  0.00     0.049 H 
ATOM      4  H   LIG d   1       6.625  -0.920  -5.090  0.00  0.00     0.049 H 
BRANCH   2   5
ATOM      5  C   LIG d   1       7.681   0.886  -5.511  0.00  0.00    -0.032 A 
ATOM      6  C   LIG d   1       8.307   1.689  -6.445  0.00  0.00    -0.057 A 
ATOM      7  C   LIG d   1       9.028   2.795  -6.034  0.00  0.00    -0.058 A 
ATOM      8  H   LIG d   1       8.232   1.453  -7.496  0.00  0.00     0.062 H 
ATOM      9  C   LIG d   1       9.123   3.097  -4.689  0.00  0.00    -0.042 A 
ATOM     10  H   LIG d   1       9.517   3.423  -6.765  0.00  0.00     0.062 H 
ATOM     11  C   LIG d   1       8.501   2.291  -3.754  0.00  0.00    -0.058 A 
ATOM     12  C   LIG d   1       7.776   1.187  -4.165  0.00  0.00    -0.057 A 
ATOM     13  H   LIG d   1       8.578   2.525  -2.702  0.00  0.00     0.062 H 
ATOM     14  H   LIG d   1       7.287   0.560  -3.435  0.00  0.00     0.062 H 
BRANCH   9  15
ATOM     15  C   LIG d   1       9.909   4.302  -4.241  0.00  0.00    -0.013 C 
BRANCH  15  16
ATOM     16  C   LIG d   1       9.222   5.574  -4.743  0.00  0.00    -0.056 C 
ATOM     17  H   LIG d   1       8.538   5.321  -5.554  0.00  0.00     0.024 H 
ATOM     18  H   LIG d   1       8.666   6.034  -3.927  0.00  0.00     0.024 H 
ATOM     19  H   LIG d   1       9.975   6.272  -5.109  0.00  0.00     0.024 H 
ENDBRANCH  15  16
BRANCH  15  20
ATOM     20  C   LIG d   1      11.327   4.228  -4.811  0.00  0.00    -0.056 C 
ATOM     21  H   LIG d   1      11.662   3.191  -4.817  0.00  0.00     0.024 H 
ATOM     22  H   LIG d   1      11.330   4.617  -5.829  0.00  0.00     0.024 H 
ATOM     23  H   LIG d   1      11.999   4.824  -4.193  0.00  0.00     0.024 H 
ENDBRANCH  15  20
BRANCH  15  24
ATOM     24  C   LIG d   1       9.975   4.328  -2.713  0.00  0.00    -0.056 C 
ATOM     25  H   LIG d   1      10.648   5.122  -2.392  0.00  0.00     0.024 H 
ATOM     26  H   LIG d   1       8.980   4.510  -2.308  0.00  0.00     0.024 H 
ATOM     27  H   LIG d   1      10.345   3.369  -2.348  0.00  0.00     0.024 H 
ENDBRANCH  15  24
ENDBRANCH   9  15
ENDBRANCH   2   5
ENDBRANCH   1   2
BRANCH   1  28
ATOM     28  C   LIG d   1       4.476   0.445  -5.866  0.00  0.00     0.046 C 
ATOM     29  H   LIG d   1       4.544   1.470  -5.501  0.00  0.00     0.049 H 
ATOM     30  H   LIG d   1       3.595   0.343  -6.500  0.00  0.00     0.049 H 
BRANCH  28  31
ATOM     31  C   LIG d   1       4.364  -0.498  -4.695  0.00  0.00    -0.028 A 
ATOM     32  C   LIG d   1       4.402  -1.863  -4.903  0.00  0.00    -0.015 A 
ATOM     33  C   LIG d   1       4.304  -2.730  -3.825  0.00  0.00     0.121 A 
ATOM     34  H   LIG d   1       4.511  -2.255  -5.904  0.00  0.00     0.066 H 
ATOM     35  C   LIG d   1       4.158  -2.225  -2.542  0.00  0.00    -0.020 A 
ATOM     36  C   LIG d   1       4.115  -0.859  -2.340  0.00  0.00    -0.058 A 
ATOM     37  H   LIG d   1       4.078  -2.898  -1.701  0.00  0.00     0.065 H 
ATOM     38  C   LIG d   1       4.218   0.004  -3.415  0.00  0.00    -0.057 A 
ATOM     39  H   LIG d   1       4.002  -0.464  -1.341  0.00  0.00     0.062 H 
ATOM     40  H   LIG d   1       4.186   1.072  -3.255  0.00  0.00     0.062 H 
BRANCH  33  41
ATOM     41  O   LIG d   1       4.347  -4.074  -4.026  0.00  0.00    -0.486 OA
BRANCH  41  42
ATOM     42  C   LIG d   1       5.101  -4.539  -5.146  0.00  0.00     0.129 C 
ATOM     43  H   LIG d   1       5.254  -3.718  -5.848  0.00  0.00     0.076 H 
ATOM     44  H   LIG d   1       6.068  -4.909  -4.805  0.00  0.00     0.076 H 
BRANCH  42  45
ATOM     45  C   LIG d   1       4.352  -5.653  -5.831  0.00  0.00     0.079 C 
ATOM     46  O   LIG d   1       3.311  -5.415  -6.418  0.00  0.00    -0.546 OA
ATOM     47  O   LIG d   1       4.789  -6.791  -5.799  0.00  0.00    -0.546 OA
ENDBRANCH  42  45
ENDBRANCH  41  42
ENDBRANCH  33  41
ENDBRANCH  28  31
ENDBRANCH   1  28
BRANCH   1  48
ATOM     48  S   LIG d   1       5.654   0.255  -8.293  0.00  0.00     0.063 S 
ATOM     49  O   LIG d   1       5.561   1.642  -8.587  0.00  0.00    -0.153 OA
ATOM     50  O   LIG d   1       6.713  -0.559  -8.779  0.00  0.00    -0.153 OA
BRANCH  48  51
ATOM     51  C   LIG d   1       4.154  -0.481  -8.854  0.00  0.00     0.123 A 
ATOM     52  C   LIG d   1       3.989  -1.852  -8.811  0.00  0.00     0.054 A 
ATOM     53  N   LIG d   1       2.867  -2.410  -9.223  0.00  0.00    -0.261 NA
ATOM     54  H   LIG d   1       4.785  -2.474  -8.431  0.00  0.00     0.085 H 
ATOM     55  C   LIG d   1       1.870  -1.690  -9.701  0.00  0.00     0.028 A 
ATOM     56  C   LIG d   1       1.966  -0.313  -9.779  0.00  0.00    -0.042 A 
ATOM     57  H   LIG d   1       0.968  -2.183 -10.034  0.00  0.00     0.083 H 
ATOM     58  C   LIG d   1       3.127   0.309  -9.350  0.00  0.00    -0.032 A 
ATOM     59  H   LIG d   1       1.145   0.270 -10.171  0.00  0.00     0.063 H 
ATOM     60  H   LIG d   1       3.231   1.383  -9.399  0.00  0.00     0.064 H 
ENDBRANCH  48  51
ENDBRANCH   1  48
TORSDOF 13
ENDMDL
MODEL 9
REMARK VINA RESULT:      -6.0      3.944      6.320
REMARK  13 active torsions:
REMARK  status: ('A' for Active; 'I' for Inactive)
REMARK    1  A    between atoms: C_1  and  C_2 
REMARK    2  A    between atoms: C_2  and  C_3 
REMARK    3  A    between atoms: C_2  and  C_4 
REMARK    4  A    between atoms: C_2  and  C_5 
REMARK    5  A    between atoms: C_8  and  C_11 
REMARK    6  A    between atoms: C_11  and  N_12 
REMARK    7  A    between atoms: N_12  and  C_13 
REMARK    8  A    between atoms: N_12  and  S_25 
REMARK    9  A    between atoms: C_13  and  C_14 
REMARK   10  A    between atoms: C_18  and  O_20 
REMARK   11  A    between atoms: O_20  and  C_21 
REMARK   12  A    between atoms: C_21  and  C_22 
REMARK   13  A    between atoms: S_25  and  C_28 
ROOT
ATOM      1  N   LIG d   1       6.477  -2.569  -5.291  0.00  0.00    -0.168 N 
ENDROOT
BRANCH   1   2
ATOM      2  C   LIG d   1       6.914  -2.469  -6.685  0.00  0.00     0.046 C 
ATOM      3  H   LIG d   1       6.973  -3.467  -7.120  0.00  0.00     0.049 H 
ATOM      4  H   LIG d   1       7.895  -1.997  -6.724  0.00  0.00     0.049 H 
BRANCH   2   5
ATOM      5  C   LIG d   1       5.925  -1.640  -7.463  0.00  0.00    -0.032 A 
ATOM      6  C   LIG d   1       5.414  -2.112  -8.657  0.00  0.00    -0.057 A 
ATOM      7  C   LIG d   1       4.506  -1.351  -9.369  0.00  0.00    -0.058 A 
ATOM      8  H   LIG d   1       5.724  -3.075  -9.033  0.00  0.00     0.062 H 
ATOM      9  C   LIG d   1       4.109  -0.118  -8.888  0.00  0.00    -0.042 A 
ATOM     10  H   LIG d   1       4.107  -1.720 -10.303  0.00  0.00     0.062 H 
ATOM     11  C   LIG d   1       4.623   0.357  -7.695  0.00  0.00    -0.058 A 
ATOM     12  C   LIG d   1       5.529  -0.406  -6.981  0.00  0.00    -0.057 A 
ATOM     13  H   LIG d   1       4.316   1.322  -7.321  0.00  0.00     0.062 H 
ATOM     14  H   LIG d   1       5.927  -0.038  -6.047  0.00  0.00     0.062 H 
BRANCH   9  15
ATOM     15  C   LIG d   1       3.119   0.711  -9.664  0.00  0.00    -0.013 C 
BRANCH  15  16
ATOM     16  C   LIG d   1       3.763   1.184 -10.969  0.00  0.00    -0.056 C 
ATOM     17  H   LIG d   1       3.420   2.193 -11.198  0.00  0.00     0.024 H 
ATOM     18  H   LIG d   1       4.847   1.184 -10.860  0.00  0.00     0.024 H 
ATOM     19  H   LIG d   1       3.478   0.512 -11.778  0.00  0.00     0.024 H 
ENDBRANCH  15  16
BRANCH  15  20
ATOM     20  C   LIG d   1       2.705   1.926  -8.830  0.00  0.00    -0.056 C 
ATOM     21  H   LIG d   1       3.591   2.496  -8.554  0.00  0.00     0.024 H 
ATOM     22  H   LIG d   1       2.034   2.556  -9.413  0.00  0.00     0.024 H 
ATOM     23  H   LIG d   1       2.194   1.589  -7.928  0.00  0.00     0.024 H 
ENDBRANCH  15  20
BRANCH  15  24
ATOM     24  C   LIG d   1       1.884  -0.134  -9.981  0.00  0.00    -0.056 C 
ATOM     25  H   LIG d   1       1.276   0.378 -10.727  0.00  0.00     0.024 H 
ATOM     26  H   LIG d   1       2.196  -1.102 -10.370  0.00  0.00     0.024 H 
ATOM     27  H   LIG d   1       1.299  -0.278  -9.072  0.00  0.00     0.024 H 
ENDBRANCH  15  24
ENDBRANCH   9  15
ENDBRANCH   2   5
ENDBRANCH   1   2
BRANCH   1  28
ATOM     28  C   LIG d   1       5.271  -3.331  -4.954  0.00  0.00     0.046 C 
ATOM     29  H   LIG d   1       5.237  -3.500  -3.877  0.00  0.00     0.049 H 
ATOM     30  H   LIG d   1       4.389  -2.769  -5.262  0.00  0.00     0.049 H 
BRANCH  28  31
ATOM     31  C   LIG d   1       5.298  -4.657  -5.669  0.00  0.00    -0.028 A 
ATOM     32  C   LIG d   1       4.311  -4.966  -6.587  0.00  0.00    -0.015 A 
ATOM     33  C   LIG d   1       4.339  -6.184  -7.248  0.00  0.00     0.121 A 
ATOM     34  H   LIG d   1       3.522  -4.257  -6.790  0.00  0.00     0.066 H 
ATOM     35  C   LIG d   1       5.350  -7.095  -6.979  0.00  0.00    -0.020 A 
ATOM     36  C   LIG d   1       6.331  -6.784  -6.058  0.00  0.00    -0.058 A 
ATOM     37  H   LIG d   1       5.372  -8.046  -7.491  0.00  0.00     0.065 H 
ATOM     38  C   LIG d   1       6.305  -5.566  -5.402  0.00  0.00    -0.057 A 
ATOM     39  H   LIG d   1       7.119  -7.491  -5.848  0.00  0.00     0.062 H 
ATOM     40  H   LIG d   1       7.073  -5.324  -4.683  0.00  0.00     0.062 H 
BRANCH  33  41
ATOM     41  O   LIG d   1       3.373  -6.488  -8.155  0.00  0.00    -0.486 OA
BRANCH  41  42
ATOM     42  C   LIG d   1       3.749  -7.331  -9.246  0.00  0.00     0.129 C 
ATOM     43  H   LIG d   1       4.249  -6.735 -10.010  0.00  0.00     0.076 H 
ATOM     44  H   LIG d   1       4.428  -8.106  -8.889  0.00  0.00     0.076 H 
BRANCH  42  45
ATOM     45  C   LIG d   1       2.519  -7.973  -9.833  0.00  0.00     0.079 C 
ATOM     46  O   LIG d   1       1.427  -7.455  -9.674  0.00  0.00    -0.546 OA
ATOM     47  O   LIG d   1       2.616  -9.009 -10.469  0.00  0.00    -0.546 OA
ENDBRANCH  42  45
ENDBRANCH  41  42
ENDBRANCH  33  41
ENDBRANCH  28  31
ENDBRANCH   1  28
BRANCH   1  48
ATOM     48  S   LIG d   1       7.345  -1.822  -4.094  0.00  0.00     0.063 S 
ATOM     49  O   LIG d   1       7.677  -2.827  -3.145  0.00  0.00    -0.153 OA
ATOM     50  O   LIG d   1       8.331  -1.030  -4.743  0.00  0.00    -0.153 OA
BRANCH  48  51
ATOM     51  C   LIG d   1       6.254  -0.702  -3.282  0.00  0.00     0.123 A 
ATOM     52  C   LIG d   1       6.399   0.662  -3.449  0.00  0.00     0.054 A 
ATOM     53  N   LIG d   1       5.582   1.505  -2.849  0.00  0.00    -0.261 NA
ATOM     54  H   LIG d   1       7.188   1.041  -4.081  0.00  0.00     0.085 H 
ATOM     55  C   LIG d   1       4.609   1.088  -2.063  0.00  0.00     0.028 A 
ATOM     56  C   LIG d   1       4.406  -0.262  -1.844  0.00  0.00    -0.042 A 
ATOM     57  H   LIG d   1       3.963   1.810  -1.585  0.00  0.00     0.083 H 
ATOM     58  C   LIG d   1       5.241  -1.179  -2.462  0.00  0.00    -0.032 A 
ATOM     59  H   LIG d   1       3.607  -0.597  -1.200  0.00  0.00     0.063 H 
ATOM     60  H   LIG d   1       5.106  -2.240  -2.311  0.00  0.00     0.064 H 
ENDBRANCH  48  51
ENDBRANCH   1  48
TORSDOF 13
ENDMDL
