MODEL 1
REMARK VINA RESULT:      -6.8      0.000      0.000
REMARK  4 active torsions:
REMARK  status: ('A' for Active; 'I' for Inactive)
REMARK    1  A    between atoms: C_1  and  O_2 
REMARK    2  A    between atoms: O_2  and  C_3 
REMARK    3  A    between atoms: C_6  and  N_9 
REMARK    4  A    between atoms: N_9  and  C_10 
ROOT
ATOM      1  C   LIG d   1       8.834  -4.709  -4.188  0.00  0.00     0.137 C 
ATOM      2  S   LIG d   1       9.712  -4.256  -2.790  0.00  0.00    -0.018 SA
ATOM      3  N   LIG d   1       7.935  -3.859  -4.724  0.00  0.00    -0.308 N 
ATOM      4  C   LIG d   1       7.253  -4.178  -5.987  0.00  0.00     0.019 C 
ATOM      5  C   LIG d   1       5.748  -4.334  -5.711  0.00  0.00     0.004 C 
ATOM      6  C   LIG d   1       5.285  -3.192  -4.839  0.00  0.00     0.023 A 
ATOM      7  C   LIG d   1       6.113  -2.416  -4.106  0.00  0.00    -0.002 A 
ATOM      8  C   LIG d   1       5.292  -1.448  -3.412  0.00  0.00     0.005 A 
ATOM      9  C   LIG d   1       5.593  -0.409  -2.524  0.00  0.00    -0.052 A 
ATOM     10  C   LIG d   1       4.535   0.326  -2.047  0.00  0.00    -0.061 A 
ATOM     11  C   LIG d   1       3.228   0.062  -2.421  0.00  0.00    -0.060 A 
ATOM     12  C   LIG d   1       2.902  -0.958  -3.297  0.00  0.00    -0.038 A 
ATOM     13  C   LIG d   1       3.955  -1.722  -3.797  0.00  0.00     0.047 A 
ATOM     14  N   LIG d   1       3.990  -2.779  -4.661  0.00  0.00    -0.358 N 
ATOM     15  H   LIG d   1       3.215  -3.178  -5.084  0.00  0.00     0.166 HD
ATOM     16  C   LIG d   1       7.613  -2.581  -4.063  0.00  0.00     0.041 C 
ATOM     17  H   LIG d   1       7.413  -3.370  -6.701  0.00  0.00     0.047 H 
ATOM     18  H   LIG d   1       7.651  -5.108  -6.391  0.00  0.00     0.047 H 
ATOM     19  H   LIG d   1       5.565  -5.280  -5.200  0.00  0.00     0.034 H 
ATOM     20  H   LIG d   1       5.201  -4.317  -6.654  0.00  0.00     0.034 H 
ATOM     21  H   LIG d   1       6.609  -0.197  -2.227  0.00  0.00     0.062 H 
ATOM     22  H   LIG d   1       4.730   1.136  -1.360  0.00  0.00     0.062 H 
ATOM     23  H   LIG d   1       2.436   0.674  -2.015  0.00  0.00     0.062 H 
ATOM     24  H   LIG d   1       1.878  -1.154  -3.581  0.00  0.00     0.064 H 
ATOM     25  H   LIG d   1       7.953  -2.603  -3.028  0.00  0.00     0.051 H 
ATOM     26  H   LIG d   1       8.092  -1.759  -4.594  0.00  0.00     0.051 H 
ENDROOT
BRANCH   1  27
ATOM     27  N   LIG d   1       9.045  -5.913  -4.757  0.00  0.00    -0.297 N 
ATOM     28  H   LIG d   1       9.588  -5.982  -5.557  0.00  0.00     0.154 HD
BRANCH  27  29
ATOM     29  C   LIG d   1       8.478  -7.063  -4.192  0.00  0.00     0.033 A 
ATOM     30  C   LIG d   1       7.392  -7.674  -4.804  0.00  0.00    -0.037 A 
ATOM     31  C   LIG d   1       6.834  -8.807  -4.246  0.00  0.00    -0.018 A 
ATOM     32  H   LIG d   1       6.984  -7.263  -5.715  0.00  0.00     0.064 H 
ATOM     33  C   LIG d   1       7.357  -9.335  -3.076  0.00  0.00     0.120 A 
ATOM     34  H   LIG d   1       5.989  -9.283  -4.722  0.00  0.00     0.066 H 
ATOM     35  C   LIG d   1       8.442  -8.724  -2.463  0.00  0.00    -0.018 A 
ATOM     36  C   LIG d   1       9.006  -7.594  -3.023  0.00  0.00    -0.037 A 
ATOM     37  H   LIG d   1       8.850  -9.136  -1.552  0.00  0.00     0.066 H 
ATOM     38  H   LIG d   1       9.854  -7.122  -2.548  0.00  0.00     0.064 H 
BRANCH  33  39
ATOM     39  O   LIG d   1       6.807 -10.450  -2.527  0.00  0.00    -0.495 OA
BRANCH  39  40
ATOM     40  C   LIG d   1       5.397 -10.620  -2.676  0.00  0.00     0.079 C 
ATOM     41  H   LIG d   1       4.947  -9.675  -2.980  0.00  0.00     0.066 H 
ATOM     42  H   LIG d   1       5.200 -11.377  -3.436  0.00  0.00     0.066 H 
ATOM     43  H   LIG d   1       4.966 -10.939  -1.727  0.00  0.00     0.066 H 
ENDBRANCH  39  40
ENDBRANCH  33  39
ENDBRANCH  27  29
ENDBRANCH   1  27
TORSDOF 4
ENDMDL
MODEL 2
REMARK VINA RESULT:      -6.7      6.526      8.778
REMARK  4 active torsions:
REMARK  status: ('A' for Active; 'I' for Inactive)
REMARK    1  A    between atoms: C_1  and  O_2 
REMARK    2  A    between atoms: O_2  and  C_3 
REMARK    3  A    between atoms: C_6  and  N_9 
REMARK    4  A    between atoms: N_9  and  C_10 
ROOT
ATOM      1  C   LIG d   1       4.924  -0.568  -9.916  0.00  0.00     0.137 C 
ATOM      2  S   LIG d   1       5.844  -2.007 -10.032  0.00  0.00    -0.018 SA
ATOM      3  N   LIG d   1       4.792   0.054  -8.728  0.00  0.00    -0.308 N 
ATOM      4  C   LIG d   1       4.104   1.349  -8.625  0.00  0.00     0.019 C 
ATOM      5  C   LIG d   1       2.838   1.171  -7.769  0.00  0.00     0.004 C 
ATOM      6  C   LIG d   1       3.184   0.369  -6.539  0.00  0.00     0.023 A 
ATOM      7  C   LIG d   1       4.292  -0.394  -6.419  0.00  0.00    -0.002 A 
ATOM      8  C   LIG d   1       4.257  -1.000  -5.105  0.00  0.00     0.005 A 
ATOM      9  C   LIG d   1       5.123  -1.872  -4.437  0.00  0.00    -0.052 A 
ATOM     10  C   LIG d   1       4.765  -2.252  -3.168  0.00  0.00    -0.061 A 
ATOM     11  C   LIG d   1       3.602  -1.800  -2.565  0.00  0.00    -0.060 A 
ATOM     12  C   LIG d   1       2.728  -0.937  -3.202  0.00  0.00    -0.038 A 
ATOM     13  C   LIG d   1       3.066  -0.534  -4.492  0.00  0.00     0.047 A 
ATOM     14  N   LIG d   1       2.445   0.291  -5.386  0.00  0.00    -0.358 N 
ATOM     15  H   LIG d   1       1.607   0.753  -5.229  0.00  0.00     0.166 HD
ATOM     16  C   LIG d   1       5.339  -0.542  -7.496  0.00  0.00     0.041 C 
ATOM     17  H   LIG d   1       4.765   2.077  -8.153  0.00  0.00     0.047 H 
ATOM     18  H   LIG d   1       3.828   1.696  -9.621  0.00  0.00     0.047 H 
ATOM     19  H   LIG d   1       2.077   0.643  -8.346  0.00  0.00     0.034 H 
ATOM     20  H   LIG d   1       2.457   2.148  -7.473  0.00  0.00     0.034 H 
ATOM     21  H   LIG d   1       6.031  -2.230  -4.900  0.00  0.00     0.062 H 
ATOM     22  H   LIG d   1       5.410  -2.925  -2.622  0.00  0.00     0.062 H 
ATOM     23  H   LIG d   1       3.371  -2.132  -1.563  0.00  0.00     0.062 H 
ATOM     24  H   LIG d   1       1.825  -0.591  -2.720  0.00  0.00     0.064 H 
ATOM     25  H   LIG d   1       5.554  -1.598  -7.659  0.00  0.00     0.051 H 
ATOM     26  H   LIG d   1       6.249  -0.018  -7.204  0.00  0.00     0.051 H 
ENDROOT
BRANCH   1  27
ATOM     27  N   LIG d   1       4.335  -0.053 -11.015  0.00  0.00    -0.297 N 
ATOM     28  H   LIG d   1       4.668   0.771 -11.401  0.00  0.00     0.154 HD
BRANCH  27  29
ATOM     29  C   LIG d   1       3.244  -0.711 -11.597  0.00  0.00     0.033 A 
ATOM     30  C   LIG d   1       3.377  -1.308 -12.843  0.00  0.00    -0.037 A 
ATOM     31  C   LIG d   1       2.301  -1.955 -13.417  0.00  0.00    -0.018 A 
ATOM     32  H   LIG d   1       4.323  -1.265 -13.364  0.00  0.00     0.064 H 
ATOM     33  C   LIG d   1       1.087  -2.009 -12.749  0.00  0.00     0.120 A 
ATOM     34  H   LIG d   1       2.404  -2.420 -14.387  0.00  0.00     0.066 H 
ATOM     35  C   LIG d   1       0.953  -1.413 -11.504  0.00  0.00    -0.018 A 
ATOM     36  C   LIG d   1       2.030  -0.770 -10.925  0.00  0.00    -0.037 A 
ATOM     37  H   LIG d   1       0.008  -1.456 -10.983  0.00  0.00     0.066 H 
ATOM     38  H   LIG d   1       1.926  -0.310  -9.954  0.00  0.00     0.064 H 
BRANCH  33  39
ATOM     39  O   LIG d   1       0.028  -2.647 -13.314  0.00  0.00    -0.495 OA
BRANCH  39  40
ATOM     40  C   LIG d   1      -1.111  -1.849 -13.641  0.00  0.00     0.079 C 
ATOM     41  H   LIG d   1      -0.990  -0.852 -13.217  0.00  0.00     0.066 H 
ATOM     42  H   LIG d   1      -1.205  -1.774 -14.725  0.00  0.00     0.066 H 
ATOM     43  H   LIG d   1      -2.009  -2.311 -13.231  0.00  0.00     0.066 H 
ENDBRANCH  39  40
ENDBRANCH  33  39
ENDBRANCH  27  29
ENDBRANCH   1  27
TORSDOF 4
ENDMDL
MODEL 3
REMARK VINA RESULT:      -6.5      6.762      9.214
REMARK  4 active torsions:
REMARK  status: ('A' for Active; 'I' for Inactive)
REMARK    1  A    between atoms: C_1  and  O_2 
REMARK    2  A    between atoms: O_2  and  C_3 
REMARK    3  A    between atoms: C_6  and  N_9 
REMARK    4  A    between atoms: N_9  and  C_10 
ROOT
ATOM      1  C   LIG d   1       2.957  -1.602  -9.440  0.00  0.00     0.137 C 
ATOM      2  S   LIG d   1       3.129  -3.303  -9.355  0.00  0.00    -0.018 SA
ATOM      3  N   LIG d   1       3.533  -0.819  -8.506  0.00  0.00    -0.308 N 
ATOM      4  C   LIG d   1       3.496   0.646  -8.621  0.00  0.00     0.019 C 
ATOM      5  C   LIG d   1       2.681   1.215  -7.446  0.00  0.00     0.004 C 
ATOM      6  C   LIG d   1       3.121   0.541  -6.169  0.00  0.00     0.023 A 
ATOM      7  C   LIG d   1       3.802  -0.624  -6.124  0.00  0.00    -0.002 A 
ATOM      8  C   LIG d   1       4.028  -0.936  -4.729  0.00  0.00     0.005 A 
ATOM      9  C   LIG d   1       4.668  -2.001  -4.085  0.00  0.00    -0.052 A 
ATOM     10  C   LIG d   1       4.693  -1.971  -2.713  0.00  0.00    -0.061 A 
ATOM     11  C   LIG d   1       4.115  -0.941  -1.988  0.00  0.00    -0.060 A 
ATOM     12  C   LIG d   1       3.477   0.124  -2.599  0.00  0.00    -0.038 A 
ATOM     13  C   LIG d   1       3.436   0.121  -3.992  0.00  0.00     0.047 A 
ATOM     14  N   LIG d   1       2.900   0.995  -4.894  0.00  0.00    -0.358 N 
ATOM     15  H   LIG d   1       2.433   1.814  -4.667  0.00  0.00     0.166 HD
ATOM     16  C   LIG d   1       4.223  -1.408  -7.344  0.00  0.00     0.041 C 
ATOM     17  H   LIG d   1       4.512   1.041  -8.586  0.00  0.00     0.047 H 
ATOM     18  H   LIG d   1       3.027   0.927  -9.563  0.00  0.00     0.047 H 
ATOM     19  H   LIG d   1       1.620   1.026  -7.612  0.00  0.00     0.034 H 
ATOM     20  H   LIG d   1       2.852   2.288  -7.370  0.00  0.00     0.034 H 
ATOM     21  H   LIG d   1       5.120  -2.808  -4.642  0.00  0.00     0.062 H 
ATOM     22  H   LIG d   1       5.178  -2.776  -2.181  0.00  0.00     0.062 H 
ATOM     23  H   LIG d   1       4.167  -0.969  -0.910  0.00  0.00     0.062 H 
ATOM     24  H   LIG d   1       3.032   0.922  -2.023  0.00  0.00     0.064 H 
ATOM     25  H   LIG d   1       3.932  -2.452  -7.231  0.00  0.00     0.051 H 
ATOM     26  H   LIG d   1       5.302  -1.335  -7.478  0.00  0.00     0.051 H 
ENDROOT
BRANCH   1  27
ATOM     27  N   LIG d   1       2.251  -1.044 -10.444  0.00  0.00    -0.297 N 
ATOM     28  H   LIG d   1       1.417  -0.588 -10.254  0.00  0.00     0.154 HD
BRANCH  27  29
ATOM     29  C   LIG d   1       2.723  -1.125 -11.760  0.00  0.00     0.033 A 
ATOM     30  C   LIG d   1       3.895  -0.471 -12.119  0.00  0.00    -0.037 A 
ATOM     31  C   LIG d   1       4.360  -0.550 -13.417  0.00  0.00    -0.018 A 
ATOM     32  H   LIG d   1       4.441   0.100 -11.383  0.00  0.00     0.064 H 
ATOM     33  C   LIG d   1       3.657  -1.281 -14.362  0.00  0.00     0.120 A 
ATOM     34  H   LIG d   1       5.271  -0.041 -13.696  0.00  0.00     0.066 H 
ATOM     35  C   LIG d   1       2.487  -1.935 -14.005  0.00  0.00    -0.018 A 
ATOM     36  C   LIG d   1       2.023  -1.862 -12.706  0.00  0.00    -0.037 A 
ATOM     37  H   LIG d   1       1.940  -2.506 -14.741  0.00  0.00     0.066 H 
ATOM     38  H   LIG d   1       1.115  -2.375 -12.427  0.00  0.00     0.064 H 
BRANCH  33  39
ATOM     39  O   LIG d   1       4.115  -1.359 -15.640  0.00  0.00    -0.495 OA
BRANCH  39  40
ATOM     40  C   LIG d   1       4.756  -0.199 -16.172  0.00  0.00     0.079 C 
ATOM     41  H   LIG d   1       5.810  -0.413 -16.344  0.00  0.00     0.066 H 
ATOM     42  H   LIG d   1       4.282   0.079 -17.113  0.00  0.00     0.066 H 
ATOM     43  H   LIG d   1       4.663   0.625 -15.463  0.00  0.00     0.066 H 
ENDBRANCH  39  40
ENDBRANCH  33  39
ENDBRANCH  27  29
ENDBRANCH   1  27
TORSDOF 4
ENDMDL
MODEL 4
REMARK VINA RESULT:      -6.5      1.791      2.314
REMARK  4 active torsions:
REMARK  status: ('A' for Active; 'I' for Inactive)
REMARK    1  A    between atoms: C_1  and  O_2 
REMARK    2  A    between atoms: O_2  and  C_3 
REMARK    3  A    between atoms: C_6  and  N_9 
REMARK    4  A    between atoms: N_9  and  C_10 
ROOT
ATOM      1  C   LIG d   1       7.812  -4.323  -5.455  0.00  0.00     0.137 C 
ATOM      2  S   LIG d   1       8.769  -4.427  -4.039  0.00  0.00    -0.018 SA
ATOM      3  N   LIG d   1       7.168  -3.177  -5.750  0.00  0.00    -0.308 N 
ATOM      4  C   LIG d   1       6.434  -3.027  -7.016  0.00  0.00     0.019 C 
ATOM      5  C   LIG d   1       4.938  -2.853  -6.704  0.00  0.00     0.004 C 
ATOM      6  C   LIG d   1       4.781  -1.852  -5.585  0.00  0.00     0.023 A 
ATOM      7  C   LIG d   1       5.776  -1.492  -4.746  0.00  0.00    -0.002 A 
ATOM      8  C   LIG d   1       5.228  -0.525  -3.820  0.00  0.00     0.005 A 
ATOM      9  C   LIG d   1       5.781   0.183  -2.747  0.00  0.00    -0.052 A 
ATOM     10  C   LIG d   1       4.947   1.038  -2.071  0.00  0.00    -0.061 A 
ATOM     11  C   LIG d   1       3.618   1.203  -2.426  0.00  0.00    -0.060 A 
ATOM     12  C   LIG d   1       3.045   0.517  -3.483  0.00  0.00    -0.038 A 
ATOM     13  C   LIG d   1       3.868  -0.359  -4.187  0.00  0.00     0.047 A 
ATOM     14  N   LIG d   1       3.634  -1.174  -5.258  0.00  0.00    -0.358 N 
ATOM     15  H   LIG d   1       2.785  -1.260  -5.717  0.00  0.00     0.166 HD
ATOM     16  C   LIG d   1       7.182  -2.037  -4.816  0.00  0.00     0.041 C 
ATOM     17  H   LIG d   1       6.802  -2.149  -7.548  0.00  0.00     0.047 H 
ATOM     18  H   LIG d   1       6.581  -3.915  -7.630  0.00  0.00     0.047 H 
ATOM     19  H   LIG d   1       4.514  -3.810  -6.399  0.00  0.00     0.034 H 
ATOM     20  H   LIG d   1       4.420  -2.492  -7.592  0.00  0.00     0.034 H 
ATOM     21  H   LIG d   1       6.815   0.060  -2.463  0.00  0.00     0.062 H 
ATOM     22  H   LIG d   1       5.339   1.601  -1.237  0.00  0.00     0.062 H 
ATOM     23  H   LIG d   1       3.008   1.891  -1.859  0.00  0.00     0.062 H 
ATOM     24  H   LIG d   1       2.007   0.655  -3.750  0.00  0.00     0.064 H 
ATOM     25  H   LIG d   1       7.498  -2.372  -3.828  0.00  0.00     0.051 H 
ATOM     26  H   LIG d   1       7.860  -1.267  -5.182  0.00  0.00     0.051 H 
ENDROOT
BRANCH   1  27
ATOM     27  N   LIG d   1       7.709  -5.386  -6.278  0.00  0.00    -0.297 N 
ATOM     28  H   LIG d   1       8.261  -5.438  -7.073  0.00  0.00     0.154 HD
BRANCH  27  29
ATOM     29  C   LIG d   1       6.803  -6.413  -5.984  0.00  0.00     0.033 A 
ATOM     30  C   LIG d   1       7.167  -7.433  -5.115  0.00  0.00    -0.037 A 
ATOM     31  C   LIG d   1       6.274  -8.446  -4.826  0.00  0.00    -0.018 A 
ATOM     32  H   LIG d   1       8.150  -7.434  -4.667  0.00  0.00     0.064 H 
ATOM     33  C   LIG d   1       5.014  -8.445  -5.404  0.00  0.00     0.120 A 
ATOM     34  H   LIG d   1       6.557  -9.239  -4.150  0.00  0.00     0.066 H 
ATOM     35  C   LIG d   1       4.649  -7.426  -6.272  0.00  0.00    -0.018 A 
ATOM     36  C   LIG d   1       5.538  -6.409  -6.558  0.00  0.00    -0.037 A 
ATOM     37  H   LIG d   1       3.666  -7.425  -6.721  0.00  0.00     0.066 H 
ATOM     38  H   LIG d   1       5.252  -5.614  -7.230  0.00  0.00     0.064 H 
BRANCH  33  39
ATOM     39  O   LIG d   1       4.134  -9.442  -5.119  0.00  0.00    -0.495 OA
BRANCH  39  40
ATOM     40  C   LIG d   1       4.102  -9.913  -3.771  0.00  0.00     0.079 C 
ATOM     41  H   LIG d   1       4.241 -10.994  -3.761  0.00  0.00     0.066 H 
ATOM     42  H   LIG d   1       4.900  -9.438  -3.200  0.00  0.00     0.066 H 
ATOM     43  H   LIG d   1       3.139  -9.666  -3.322  0.00  0.00     0.066 H 
ENDBRANCH  39  40
ENDBRANCH  33  39
ENDBRANCH  27  29
ENDBRANCH   1  27
TORSDOF 4
ENDMDL
MODEL 5
REMARK VINA RESULT:      -6.3      5.384      7.324
REMARK  4 active torsions:
REMARK  status: ('A' for Active; 'I' for Inactive)
REMARK    1  A    between atoms: C_1  and  O_2 
REMARK    2  A    between atoms: O_2  and  C_3 
REMARK    3  A    between atoms: C_6  and  N_9 
REMARK    4  A    between atoms: N_9  and  C_10 
ROOT
ATOM      1  C   LIG d   1      10.429   1.994  -4.407  0.00  0.00     0.137 C 
ATOM      2  S   LIG d   1      10.447   3.054  -3.063  0.00  0.00    -0.018 SA
ATOM      3  N   LIG d   1       9.264   1.468  -4.834  0.00  0.00    -0.308 N 
ATOM      4  C   LIG d   1       9.208   0.647  -6.053  0.00  0.00     0.019 C 
ATOM      5  C   LIG d   1       8.793  -0.784  -5.668  0.00  0.00     0.004 C 
ATOM      6  C   LIG d   1       7.625  -0.718  -4.714  0.00  0.00     0.023 A 
ATOM      7  C   LIG d   1       7.280   0.384  -4.015  0.00  0.00    -0.002 A 
ATOM      8  C   LIG d   1       6.121   0.042  -3.218  0.00  0.00     0.005 A 
ATOM      9  C   LIG d   1       5.342   0.770  -2.312  0.00  0.00    -0.052 A 
ATOM     10  C   LIG d   1       4.293   0.109  -1.724  0.00  0.00    -0.061 A 
ATOM     11  C   LIG d   1       4.008  -1.217  -2.005  0.00  0.00    -0.060 A 
ATOM     12  C   LIG d   1       4.761  -1.961  -2.897  0.00  0.00    -0.038 A 
ATOM     13  C   LIG d   1       5.833  -1.316  -3.510  0.00  0.00     0.047 A 
ATOM     14  N   LIG d   1       6.760  -1.741  -4.418  0.00  0.00    -0.358 N 
ATOM     15  H   LIG d   1       6.800  -2.632  -4.798  0.00  0.00     0.166 HD
ATOM     16  C   LIG d   1       8.010   1.703  -4.096  0.00  0.00     0.041 C 
ATOM     17  H   LIG d   1       8.475   1.068  -6.742  0.00  0.00     0.047 H 
ATOM     18  H   LIG d   1      10.189   0.630  -6.527  0.00  0.00     0.047 H 
ATOM     19  H   LIG d   1       9.629  -1.291  -5.186  0.00  0.00     0.034 H 
ATOM     20  H   LIG d   1       8.502  -1.332  -6.564  0.00  0.00     0.034 H 
ATOM     21  H   LIG d   1       5.558   1.804  -2.086  0.00  0.00     0.062 H 
ATOM     22  H   LIG d   1       3.670   0.640  -1.019  0.00  0.00     0.062 H 
ATOM     23  H   LIG d   1       3.168  -1.686  -1.514  0.00  0.00     0.062 H 
ATOM     24  H   LIG d   1       4.528  -2.994  -3.109  0.00  0.00     0.064 H 
ATOM     25  H   LIG d   1       8.233   2.064  -3.092  0.00  0.00     0.051 H 
ATOM     26  H   LIG d   1       7.400   2.433  -4.627  0.00  0.00     0.051 H 
ENDROOT
BRANCH   1  27
ATOM     27  N   LIG d   1      11.579   1.690  -5.042  0.00  0.00    -0.297 N 
ATOM     28  H   LIG d   1      11.744   2.031  -5.934  0.00  0.00     0.154 HD
BRANCH  27  29
ATOM     29  C   LIG d   1      12.533   0.882  -4.412  0.00  0.00     0.033 A 
ATOM     30  C   LIG d   1      13.617   1.462  -3.766  0.00  0.00    -0.037 A 
ATOM     31  C   LIG d   1      14.559   0.665  -3.145  0.00  0.00    -0.018 A 
ATOM     32  H   LIG d   1      13.723   2.537  -3.750  0.00  0.00     0.064 H 
ATOM     33  C   LIG d   1      14.422  -0.714  -3.167  0.00  0.00     0.120 A 
ATOM     34  H   LIG d   1      15.401   1.116  -2.642  0.00  0.00     0.066 H 
ATOM     35  C   LIG d   1      13.340  -1.295  -3.812  0.00  0.00    -0.018 A 
ATOM     36  C   LIG d   1      12.394  -0.500  -4.428  0.00  0.00    -0.037 A 
ATOM     37  H   LIG d   1      13.234  -2.370  -3.828  0.00  0.00     0.066 H 
ATOM     38  H   LIG d   1      11.549  -0.952  -4.926  0.00  0.00     0.064 H 
BRANCH  33  39
ATOM     39  O   LIG d   1      15.349  -1.499  -2.555  0.00  0.00    -0.495 OA
BRANCH  39  40
ATOM     40  C   LIG d   1      15.860  -1.044  -1.301  0.00  0.00     0.079 C 
ATOM     41  H   LIG d   1      15.976   0.040  -1.328  0.00  0.00     0.066 H 
ATOM     42  H   LIG d   1      15.166  -1.316  -0.506  0.00  0.00     0.066 H 
ATOM     43  H   LIG d   1      16.828  -1.508  -1.113  0.00  0.00     0.066 H 
ENDBRANCH  39  40
ENDBRANCH  33  39
ENDBRANCH  27  29
ENDBRANCH   1  27
TORSDOF 4
ENDMDL
MODEL 6
REMARK VINA RESULT:      -5.8      7.028      9.747
REMARK  4 active torsions:
REMARK  status: ('A' for Active; 'I' for Inactive)
REMARK    1  A    between atoms: C_1  and  O_2 
REMARK    2  A    between atoms: O_2  and  C_3 
REMARK    3  A    between atoms: C_6  and  N_9 
REMARK    4  A    between atoms: N_9  and  C_10 
ROOT
ATOM      1  C   LIG d   1       3.183   0.040  -8.613  0.00  0.00     0.137 C 
ATOM      2  S   LIG d   1       3.812   1.603  -8.917  0.00  0.00    -0.018 SA
ATOM      3  N   LIG d   1       3.371  -0.948  -9.510  0.00  0.00    -0.308 N 
ATOM      4  C   LIG d   1       2.941  -2.324  -9.221  0.00  0.00     0.019 C 
ATOM      5  C   LIG d   1       1.834  -2.717 -10.215  0.00  0.00     0.004 C 
ATOM      6  C   LIG d   1       2.252  -2.304 -11.605  0.00  0.00     0.023 A 
ATOM      7  C   LIG d   1       3.220  -1.399 -11.868  0.00  0.00    -0.002 A 
ATOM      8  C   LIG d   1       3.316  -1.277 -13.306  0.00  0.00     0.005 A 
ATOM      9  C   LIG d   1       4.127  -0.502 -14.143  0.00  0.00    -0.052 A 
ATOM     10  C   LIG d   1       3.939  -0.645 -15.495  0.00  0.00    -0.061 A 
ATOM     11  C   LIG d   1       2.995  -1.512 -16.020  0.00  0.00    -0.060 A 
ATOM     12  C   LIG d   1       2.181  -2.291 -15.217  0.00  0.00    -0.038 A 
ATOM     13  C   LIG d   1       2.348  -2.167 -13.839  0.00  0.00     0.047 A 
ATOM     14  N   LIG d   1       1.727  -2.771 -12.783  0.00  0.00    -0.358 N 
ATOM     15  H   LIG d   1       1.021  -3.431 -12.855  0.00  0.00     0.166 HD
ATOM     16  C   LIG d   1       4.019  -0.681 -10.807  0.00  0.00     0.041 C 
ATOM     17  H   LIG d   1       3.788  -3.002  -9.329  0.00  0.00     0.047 H 
ATOM     18  H   LIG d   1       2.556  -2.379  -8.203  0.00  0.00     0.047 H 
ATOM     19  H   LIG d   1       0.906  -2.211  -9.948  0.00  0.00     0.034 H 
ATOM     20  H   LIG d   1       1.683  -3.795 -10.184  0.00  0.00     0.034 H 
ATOM     21  H   LIG d   1       4.864   0.177 -13.742  0.00  0.00     0.062 H 
ATOM     22  H   LIG d   1       4.548  -0.063 -16.172  0.00  0.00     0.062 H 
ATOM     23  H   LIG d   1       2.893  -1.585 -17.093  0.00  0.00     0.062 H 
ATOM     24  H   LIG d   1       1.449  -2.964 -15.638  0.00  0.00     0.064 H 
ATOM     25  H   LIG d   1       4.020   0.390 -11.007  0.00  0.00     0.051 H 
ATOM     26  H   LIG d   1       5.041  -1.058 -10.794  0.00  0.00     0.051 H 
ENDROOT
BRANCH   1  27
ATOM     27  N   LIG d   1       2.505  -0.204  -7.474  0.00  0.00    -0.297 N 
ATOM     28  H   LIG d   1       1.561  -0.422  -7.509  0.00  0.00     0.154 HD
BRANCH  27  29
ATOM     29  C   LIG d   1       3.165  -0.143  -6.240  0.00  0.00     0.033 A 
ATOM     30  C   LIG d   1       4.417  -0.726  -6.092  0.00  0.00    -0.037 A 
ATOM     31  C   LIG d   1       5.067  -0.667  -4.875  0.00  0.00    -0.018 A 
ATOM     32  H   LIG d   1       4.881  -1.227  -6.929  0.00  0.00     0.064 H 
ATOM     33  C   LIG d   1       4.470  -0.025  -3.801  0.00  0.00     0.120 A 
ATOM     34  H   LIG d   1       6.040  -1.120  -4.760  0.00  0.00     0.066 H 
ATOM     35  C   LIG d   1       3.219   0.558  -3.948  0.00  0.00    -0.018 A 
ATOM     36  C   LIG d   1       2.570   0.505  -5.165  0.00  0.00    -0.037 A 
ATOM     37  H   LIG d   1       2.755   1.059  -3.111  0.00  0.00     0.066 H 
ATOM     38  H   LIG d   1       1.599   0.963  -5.281  0.00  0.00     0.064 H 
BRANCH  33  39
ATOM     39  O   LIG d   1       5.110   0.035  -2.603  0.00  0.00    -0.495 OA
BRANCH  39  40
ATOM     40  C   LIG d   1       4.543   0.886  -1.605  0.00  0.00     0.079 C 
ATOM     41  H   LIG d   1       3.730   1.465  -2.042  0.00  0.00     0.066 H 
ATOM     42  H   LIG d   1       4.158   0.279  -0.786  0.00  0.00     0.066 H 
ATOM     43  H   LIG d   1       5.309   1.562  -1.226  0.00  0.00     0.066 H 
ENDBRANCH  39  40
ENDBRANCH  33  39
ENDBRANCH  27  29
ENDBRANCH   1  27
TORSDOF 4
ENDMDL
MODEL 7
REMARK VINA RESULT:      -5.7      6.867      9.740
REMARK  4 active torsions:
REMARK  status: ('A' for Active; 'I' for Inactive)
REMARK    1  A    between atoms: C_1  and  O_2 
REMARK    2  A    between atoms: O_2  and  C_3 
REMARK    3  A    between atoms: C_6  and  N_9 
REMARK    4  A    between atoms: N_9  and  C_10 
ROOT
ATOM      1  C   LIG d   1       8.124   1.556  -7.942  0.00  0.00     0.137 C 
ATOM      2  S   LIG d   1       6.781   2.014  -8.901  0.00  0.00    -0.018 SA
ATOM      3  N   LIG d   1       7.992   0.584  -7.018  0.00  0.00    -0.308 N 
ATOM      4  C   LIG d   1       9.156   0.095  -6.264  0.00  0.00     0.019 C 
ATOM      5  C   LIG d   1       8.959   0.433  -4.776  0.00  0.00     0.004 C 
ATOM      6  C   LIG d   1       7.553   0.066  -4.368  0.00  0.00     0.023 A 
ATOM      7  C   LIG d   1       6.541  -0.133  -5.240  0.00  0.00    -0.002 A 
ATOM      8  C   LIG d   1       5.364  -0.459  -4.463  0.00  0.00     0.005 A 
ATOM      9  C   LIG d   1       4.044  -0.758  -4.818  0.00  0.00    -0.052 A 
ATOM     10  C   LIG d   1       3.170  -1.022  -3.793  0.00  0.00    -0.061 A 
ATOM     11  C   LIG d   1       3.564  -0.996  -2.465  0.00  0.00    -0.060 A 
ATOM     12  C   LIG d   1       4.862  -0.704  -2.086  0.00  0.00    -0.038 A 
ATOM     13  C   LIG d   1       5.772  -0.432  -3.105  0.00  0.00     0.047 A 
ATOM     14  N   LIG d   1       7.100  -0.113  -3.087  0.00  0.00    -0.358 N 
ATOM     15  H   LIG d   1       7.641  -0.028  -2.287  0.00  0.00     0.166 HD
ATOM     16  C   LIG d   1       6.678  -0.024  -6.739  0.00  0.00     0.041 C 
ATOM     17  H   LIG d   1       9.242  -0.985  -6.385  0.00  0.00     0.047 H 
ATOM     18  H   LIG d   1      10.060   0.579  -6.634  0.00  0.00     0.047 H 
ATOM     19  H   LIG d   1       9.118   1.501  -4.619  0.00  0.00     0.034 H 
ATOM     20  H   LIG d   1       9.672  -0.132  -4.176  0.00  0.00     0.034 H 
ATOM     21  H   LIG d   1       3.728  -0.779  -5.850  0.00  0.00     0.062 H 
ATOM     22  H   LIG d   1       2.142  -1.257  -4.029  0.00  0.00     0.062 H 
ATOM     23  H   LIG d   1       2.833  -1.214  -1.700  0.00  0.00     0.062 H 
ATOM     24  H   LIG d   1       5.157  -0.688  -1.047  0.00  0.00     0.064 H 
ATOM     25  H   LIG d   1       5.885   0.609  -7.138  0.00  0.00     0.051 H 
ATOM     26  H   LIG d   1       6.625  -1.014  -7.190  0.00  0.00     0.051 H 
ENDROOT
BRANCH   1  27
ATOM     27  N   LIG d   1       9.314   2.164  -8.115  0.00  0.00    -0.297 N 
ATOM     28  H   LIG d   1      10.050   1.681  -8.524  0.00  0.00     0.154 HD
BRANCH  27  29
ATOM     29  C   LIG d   1       9.489   3.492  -7.705  0.00  0.00     0.033 A 
ATOM     30  C   LIG d   1       9.658   3.786  -6.359  0.00  0.00    -0.037 A 
ATOM     31  C   LIG d   1       9.830   5.095  -5.954  0.00  0.00    -0.018 A 
ATOM     32  H   LIG d   1       9.655   2.991  -5.628  0.00  0.00     0.064 H 
ATOM     33  C   LIG d   1       9.832   6.116  -6.893  0.00  0.00     0.120 A 
ATOM     34  H   LIG d   1       9.962   5.324  -4.908  0.00  0.00     0.066 H 
ATOM     35  C   LIG d   1       9.663   5.823  -8.238  0.00  0.00    -0.018 A 
ATOM     36  C   LIG d   1       9.498   4.514  -8.645  0.00  0.00    -0.037 A 
ATOM     37  H   LIG d   1       9.667   6.618  -8.969  0.00  0.00     0.066 H 
ATOM     38  H   LIG d   1       9.371   4.285  -9.693  0.00  0.00     0.064 H 
BRANCH  33  39
ATOM     39  O   LIG d   1      10.001   7.405  -6.495  0.00  0.00    -0.495 OA
BRANCH  39  40
ATOM     40  C   LIG d   1       9.249   8.402  -7.188  0.00  0.00     0.079 C 
ATOM     41  H   LIG d   1       8.297   7.980  -7.510  0.00  0.00     0.066 H 
ATOM     42  H   LIG d   1       9.066   9.247  -6.523  0.00  0.00     0.066 H 
ATOM     43  H   LIG d   1       9.810   8.741  -8.059  0.00  0.00     0.066 H 
ENDBRANCH  39  40
ENDBRANCH  33  39
ENDBRANCH  27  29
ENDBRANCH   1  27
TORSDOF 4
ENDMDL
MODEL 8
REMARK VINA RESULT:      -5.6      3.612      4.581
REMARK  4 active torsions:
REMARK  status: ('A' for Active; 'I' for Inactive)
REMARK    1  A    between atoms: C_1  and  O_2 
REMARK    2  A    between atoms: O_2  and  C_3 
REMARK    3  A    between atoms: C_6  and  N_9 
REMARK    4  A    between atoms: N_9  and  C_10 
ROOT
ATOM      1  C   LIG d   1       7.885  -1.994  -4.898  0.00  0.00     0.137 C 
ATOM      2  S   LIG d   1       9.284  -1.298  -5.598  0.00  0.00    -0.018 SA
ATOM      3  N   LIG d   1       6.735  -2.043  -5.598  0.00  0.00    -0.308 N 
ATOM      4  C   LIG d   1       5.553  -2.736  -5.063  0.00  0.00     0.019 C 
ATOM      5  C   LIG d   1       4.436  -1.704  -4.831  0.00  0.00     0.004 C 
ATOM      6  C   LIG d   1       4.335  -0.807  -6.040  0.00  0.00     0.023 A 
ATOM      7  C   LIG d   1       5.309  -0.674  -6.967  0.00  0.00    -0.002 A 
ATOM      8  C   LIG d   1       4.835   0.273  -7.954  0.00  0.00     0.005 A 
ATOM      9  C   LIG d   1       5.404   0.793  -9.121  0.00  0.00    -0.052 A 
ATOM     10  C   LIG d   1       4.650   1.695  -9.831  0.00  0.00    -0.061 A 
ATOM     11  C   LIG d   1       3.385   2.080  -9.420  0.00  0.00    -0.060 A 
ATOM     12  C   LIG d   1       2.797   1.581  -8.271  0.00  0.00    -0.038 A 
ATOM     13  C   LIG d   1       3.539   0.664  -7.530  0.00  0.00     0.047 A 
ATOM     14  N   LIG d   1       3.270  -0.010  -6.373  0.00  0.00    -0.358 N 
ATOM     15  H   LIG d   1       2.449   0.065  -5.863  0.00  0.00     0.166 HD
ATOM     16  C   LIG d   1       6.626  -1.409  -6.924  0.00  0.00     0.041 C 
ATOM     17  H   LIG d   1       5.216  -3.487  -5.778  0.00  0.00     0.047 H 
ATOM     18  H   LIG d   1       5.810  -3.218  -4.119  0.00  0.00     0.047 H 
ATOM     19  H   LIG d   1       4.669  -1.104  -3.950  0.00  0.00     0.034 H 
ATOM     20  H   LIG d   1       3.489  -2.221  -4.679  0.00  0.00     0.034 H 
ATOM     21  H   LIG d   1       6.390   0.499  -9.448  0.00  0.00     0.062 H 
ATOM     22  H   LIG d   1       5.058   2.117 -10.738  0.00  0.00     0.062 H 
ATOM     23  H   LIG d   1       2.836   2.793 -10.019  0.00  0.00     0.062 H 
ATOM     24  H   LIG d   1       1.809   1.889  -7.962  0.00  0.00     0.064 H 
ATOM     25  H   LIG d   1       7.447  -0.705  -7.066  0.00  0.00     0.051 H 
ATOM     26  H   LIG d   1       6.652  -2.171  -7.702  0.00  0.00     0.051 H 
ENDROOT
BRANCH   1  27
ATOM     27  N   LIG d   1       7.936  -2.497  -3.648  0.00  0.00    -0.297 N 
ATOM     28  H   LIG d   1       7.536  -2.009  -2.912  0.00  0.00     0.154 HD
BRANCH  27  29
ATOM     29  C   LIG d   1       8.565  -3.727  -3.414  0.00  0.00     0.033 A 
ATOM     30  C   LIG d   1       9.296  -3.922  -2.250  0.00  0.00    -0.037 A 
ATOM     31  C   LIG d   1       9.917  -5.133  -2.019  0.00  0.00    -0.018 A 
ATOM     32  H   LIG d   1       9.380  -3.125  -1.525  0.00  0.00     0.064 H 
ATOM     33  C   LIG d   1       9.811  -6.155  -2.951  0.00  0.00     0.120 A 
ATOM     34  H   LIG d   1      10.485  -5.286  -1.114  0.00  0.00     0.066 H 
ATOM     35  C   LIG d   1       9.081  -5.961  -4.114  0.00  0.00    -0.018 A 
ATOM     36  C   LIG d   1       8.454  -4.752  -4.344  0.00  0.00    -0.037 A 
ATOM     37  H   LIG d   1       8.997  -6.758  -4.839  0.00  0.00     0.066 H 
ATOM     38  H   LIG d   1       7.882  -4.603  -5.248  0.00  0.00     0.064 H 
BRANCH  33  39
ATOM     39  O   LIG d   1      10.422  -7.348  -2.724  0.00  0.00    -0.495 OA
BRANCH  39  40
ATOM     40  C   LIG d   1      11.010  -7.542  -1.436  0.00  0.00     0.079 C 
ATOM     41  H   LIG d   1      12.076  -7.321  -1.488  0.00  0.00     0.066 H 
ATOM     42  H   LIG d   1      10.535  -6.877  -0.715  0.00  0.00     0.066 H 
ATOM     43  H   LIG d   1      10.868  -8.577  -1.124  0.00  0.00     0.066 H 
ENDBRANCH  39  40
ENDBRANCH  33  39
ENDBRANCH  27  29
ENDBRANCH   1  27
TORSDOF 4
ENDMDL
MODEL 9
REMARK VINA RESULT:      -5.5      5.343      8.770
REMARK  4 active torsions:
REMARK  status: ('A' for Active; 'I' for Inactive)
REMARK    1  A    between atoms: C_1  and  O_2 
REMARK    2  A    between atoms: O_2  and  C_3 
REMARK    3  A    between atoms: C_6  and  N_9 
REMARK    4  A    between atoms: N_9  and  C_10 
ROOT
ATOM      1  C   LIG d   1       8.207   0.436  -5.176  0.00  0.00     0.137 C 
ATOM      2  S   LIG d   1       9.650  -0.061  -5.951  0.00  0.00    -0.018 SA
ATOM      3  N   LIG d   1       7.440  -0.469  -4.536  0.00  0.00    -0.308 N 
ATOM      4  C   LIG d   1       6.259  -0.050  -3.767  0.00  0.00     0.019 C 
ATOM      5  C   LIG d   1       5.001  -0.638  -4.431  0.00  0.00     0.004 C 
ATOM      6  C   LIG d   1       5.249  -2.092  -4.754  0.00  0.00     0.023 A 
ATOM      7  C   LIG d   1       6.476  -2.653  -4.823  0.00  0.00    -0.002 A 
ATOM      8  C   LIG d   1       6.290  -4.048  -5.160  0.00  0.00     0.005 A 
ATOM      9  C   LIG d   1       7.186  -5.104  -5.364  0.00  0.00    -0.052 A 
ATOM     10  C   LIG d   1       6.645  -6.326  -5.678  0.00  0.00    -0.061 A 
ATOM     11  C   LIG d   1       5.278  -6.517  -5.791  0.00  0.00    -0.060 A 
ATOM     12  C   LIG d   1       4.369  -5.492  -5.594  0.00  0.00    -0.038 A 
ATOM     13  C   LIG d   1       4.890  -4.241  -5.274  0.00  0.00     0.047 A 
ATOM     14  N   LIG d   1       4.293  -3.038  -5.020  0.00  0.00    -0.358 N 
ATOM     15  H   LIG d   1       3.337  -2.878  -5.027  0.00  0.00     0.166 HD
ATOM     16  C   LIG d   1       7.764  -1.906  -4.582  0.00  0.00     0.041 C 
ATOM     17  H   LIG d   1       6.339  -0.418  -2.744  0.00  0.00     0.047 H 
ATOM     18  H   LIG d   1       6.195   1.038  -3.761  0.00  0.00     0.047 H 
ATOM     19  H   LIG d   1       4.783  -0.093  -5.350  0.00  0.00     0.034 H 
ATOM     20  H   LIG d   1       4.156  -0.555  -3.748  0.00  0.00     0.034 H 
ATOM     21  H   LIG d   1       8.253  -4.963  -5.278  0.00  0.00     0.062 H 
ATOM     22  H   LIG d   1       7.306  -7.164  -5.842  0.00  0.00     0.062 H 
ATOM     23  H   LIG d   1       4.908  -7.502  -6.040  0.00  0.00     0.062 H 
ATOM     24  H   LIG d   1       3.305  -5.655  -5.685  0.00  0.00     0.064 H 
ATOM     25  H   LIG d   1       8.463  -2.102  -5.395  0.00  0.00     0.051 H 
ATOM     26  H   LIG d   1       8.202  -2.217  -3.633  0.00  0.00     0.051 H 
ENDROOT
BRANCH   1  27
ATOM     27  N   LIG d   1       7.841   1.733  -5.200  0.00  0.00    -0.297 N 
ATOM     28  H   LIG d   1       6.962   1.982  -5.526  0.00  0.00     0.154 HD
BRANCH  27  29
ATOM     29  C   LIG d   1       8.729   2.719  -4.754  0.00  0.00     0.033 A 
ATOM     30  C   LIG d   1       9.168   3.705  -5.629  0.00  0.00    -0.037 A 
ATOM     31  C   LIG d   1      10.044   4.677  -5.190  0.00  0.00    -0.018 A 
ATOM     32  H   LIG d   1       8.824   3.710  -6.653  0.00  0.00     0.064 H 
ATOM     33  C   LIG d   1      10.487   4.670  -3.876  0.00  0.00     0.120 A 
ATOM     34  H   LIG d   1      10.386   5.444  -5.870  0.00  0.00     0.066 H 
ATOM     35  C   LIG d   1      10.049   3.686  -3.001  0.00  0.00    -0.018 A 
ATOM     36  C   LIG d   1       9.168   2.716  -3.437  0.00  0.00    -0.037 A 
ATOM     37  H   LIG d   1      10.393   3.681  -1.978  0.00  0.00     0.066 H 
ATOM     38  H   LIG d   1       8.824   1.953  -2.755  0.00  0.00     0.064 H 
BRANCH  33  39
ATOM     39  O   LIG d   1      11.350   5.628  -3.444  0.00  0.00    -0.495 OA
BRANCH  39  40
ATOM     40  C   LIG d   1      11.729   5.586  -2.067  0.00  0.00     0.079 C 
ATOM     41  H   LIG d   1      11.669   4.559  -1.705  0.00  0.00     0.066 H 
ATOM     42  H   LIG d   1      12.751   5.950  -1.960  0.00  0.00     0.066 H 
ATOM     43  H   LIG d   1      11.057   6.216  -1.485  0.00  0.00     0.066 H 
ENDBRANCH  39  40
ENDBRANCH  33  39
ENDBRANCH  27  29
ENDBRANCH   1  27
TORSDOF 4
ENDMDL
MODEL 10
REMARK VINA RESULT:      -5.4     10.871     12.915
REMARK  4 active torsions:
REMARK  status: ('A' for Active; 'I' for Inactive)
REMARK    1  A    between atoms: C_1  and  O_2 
REMARK    2  A    between atoms: O_2  and  C_3 
REMARK    3  A    between atoms: C_6  and  N_9 
REMARK    4  A    between atoms: N_9  and  C_10 
ROOT
ATOM      1  C   LIG d   1      10.886   6.301  -6.360  0.00  0.00     0.137 C 
ATOM      2  S   LIG d   1      11.549   7.857  -6.625  0.00  0.00    -0.018 SA
ATOM      3  N   LIG d   1      10.222   6.037  -5.218  0.00  0.00    -0.308 N 
ATOM      4  C   LIG d   1       9.548   4.746  -5.017  0.00  0.00     0.019 C 
ATOM      5  C   LIG d   1      10.230   4.006  -3.854  0.00  0.00     0.004 C 
ATOM      6  C   LIG d   1      10.434   4.968  -2.709  0.00  0.00     0.023 A 
ATOM      7  C   LIG d   1      10.400   6.312  -2.835  0.00  0.00    -0.002 A 
ATOM      8  C   LIG d   1      10.644   6.873  -1.524  0.00  0.00     0.005 A 
ATOM      9  C   LIG d   1      10.726   8.188  -1.052  0.00  0.00    -0.052 A 
ATOM     10  C   LIG d   1      10.978   8.353   0.287  0.00  0.00    -0.061 A 
ATOM     11  C   LIG d   1      11.147   7.276   1.142  0.00  0.00    -0.060 A 
ATOM     12  C   LIG d   1      11.071   5.966   0.703  0.00  0.00    -0.038 A 
ATOM     13  C   LIG d   1      10.816   5.767  -0.651  0.00  0.00     0.047 A 
ATOM     14  N   LIG d   1      10.680   4.634  -1.402  0.00  0.00    -0.358 N 
ATOM     15  H   LIG d   1      10.747   3.729  -1.061  0.00  0.00     0.166 HD
ATOM     16  C   LIG d   1      10.148   7.035  -4.136  0.00  0.00     0.041 C 
ATOM     17  H   LIG d   1       8.498   4.917  -4.776  0.00  0.00     0.047 H 
ATOM     18  H   LIG d   1       9.623   4.150  -5.926  0.00  0.00     0.047 H 
ATOM     19  H   LIG d   1      11.196   3.619  -4.182  0.00  0.00     0.034 H 
ATOM     20  H   LIG d   1       9.599   3.179  -3.528  0.00  0.00     0.034 H 
ATOM     21  H   LIG d   1      10.596   9.033  -1.712  0.00  0.00     0.062 H 
ATOM     22  H   LIG d   1      11.048   9.354   0.686  0.00  0.00     0.062 H 
ATOM     23  H   LIG d   1      11.342   7.466   2.188  0.00  0.00     0.062 H 
ATOM     24  H   LIG d   1      11.203   5.135   1.381  0.00  0.00     0.064 H 
ATOM     25  H   LIG d   1      10.908   7.802  -4.286  0.00  0.00     0.051 H 
ATOM     26  H   LIG d   1       9.159   7.491  -4.121  0.00  0.00     0.051 H 
ENDROOT
BRANCH   1  27
ATOM     27  N   LIG d   1      11.022   5.342  -7.297  0.00  0.00    -0.297 N 
ATOM     28  H   LIG d   1      11.533   4.542  -7.101  0.00  0.00     0.154 HD
BRANCH  27  29
ATOM     29  C   LIG d   1      10.426   5.502  -8.555  0.00  0.00     0.033 A 
ATOM     30  C   LIG d   1      11.193   5.385  -9.707  0.00  0.00    -0.037 A 
ATOM     31  C   LIG d   1      10.605   5.543 -10.946  0.00  0.00    -0.018 A 
ATOM     32  H   LIG d   1      12.249   5.171  -9.633  0.00  0.00     0.064 H 
ATOM     33  C   LIG d   1       9.249   5.819 -11.041  0.00  0.00     0.120 A 
ATOM     34  H   LIG d   1      11.201   5.451 -11.842  0.00  0.00     0.066 H 
ATOM     35  C   LIG d   1       8.483   5.936  -9.891  0.00  0.00    -0.018 A 
ATOM     36  C   LIG d   1       9.067   5.772  -8.650  0.00  0.00    -0.037 A 
ATOM     37  H   LIG d   1       7.427   6.150  -9.965  0.00  0.00     0.066 H 
ATOM     38  H   LIG d   1       8.469   5.859  -7.755  0.00  0.00     0.064 H 
BRANCH  33  39
ATOM     39  O   LIG d   1       8.671   5.974 -12.261  0.00  0.00    -0.495 OA
BRANCH  39  40
ATOM     40  C   LIG d   1       9.493   5.734 -13.405  0.00  0.00     0.079 C 
ATOM     41  H   LIG d   1       9.024   6.171 -14.287  0.00  0.00     0.066 H 
ATOM     42  H   LIG d   1      10.472   6.188 -13.250  0.00  0.00     0.066 H 
ATOM     43  H   LIG d   1       9.609   4.660 -13.550  0.00  0.00     0.066 H 
ENDBRANCH  39  40
ENDBRANCH  33  39
ENDBRANCH  27  29
ENDBRANCH   1  27
TORSDOF 4
ENDMDL
