MODEL 1
REMARK VINA RESULT:      -7.2      0.000      0.000
REMARK  2 active torsions:
REMARK  status: ('A' for Active; 'I' for Inactive)
REMARK    1  A    between atoms: C_1  and  C_2 
REMARK    2  A    between atoms: N_20  and  C_21 
ROOT
ATOM      1  C   LIG d   1       3.756   0.072  -5.844  0.00  0.00     0.009 C 
ATOM      2  H   LIG d   1       4.391   0.954  -5.760  0.00  0.00     0.040 H 
ATOM      3  C   LIG d   1       3.985  -0.751  -4.623  0.00  0.00    -0.037 A 
ATOM      4  C   LIG d   1       3.616  -0.062  -3.450  0.00  0.00    -0.058 A 
ATOM      5  C   LIG d   1       3.671  -0.661  -2.217  0.00  0.00    -0.061 A 
ATOM      6  C   LIG d   1       4.088  -1.979  -2.146  0.00  0.00    -0.061 A 
ATOM      7  C   LIG d   1       4.468  -2.623  -3.291  0.00  0.00    -0.058 A 
ATOM      8  C   LIG d   1       4.460  -1.986  -4.559  0.00  0.00    -0.043 A 
ATOM      9  C   LIG d   1       5.126  -2.906  -5.553  0.00  0.00    -0.022 C 
ATOM     10  C   LIG d   1       4.427  -3.044  -6.877  0.00  0.00    -0.008 C 
ATOM     11  C   LIG d   1       4.287  -1.700  -7.586  0.00  0.00     0.024 A 
ATOM     12  C   LIG d   1       3.977  -0.501  -7.199  0.00  0.00    -0.012 A 
ATOM     13  C   LIG d   1       3.869   0.335  -8.406  0.00  0.00     0.004 A 
ATOM     14  C   LIG d   1       3.496   1.668  -8.583  0.00  0.00    -0.052 A 
ATOM     15  C   LIG d   1       3.514   2.142  -9.874  0.00  0.00    -0.061 A 
ATOM     16  C   LIG d   1       3.883   1.343 -10.944  0.00  0.00    -0.060 A 
ATOM     17  C   LIG d   1       4.253   0.017 -10.790  0.00  0.00    -0.038 A 
ATOM     18  C   LIG d   1       4.241  -0.489  -9.490  0.00  0.00     0.049 A 
ATOM     19  N   LIG d   1       4.522  -1.705  -8.968  0.00  0.00    -0.346 N 
ATOM     20  H   LIG d   1       3.281   0.962  -3.523  0.00  0.00     0.062 H 
ATOM     21  H   LIG d   1       3.396  -0.119  -1.325  0.00  0.00     0.062 H 
ATOM     22  H   LIG d   1       4.113  -2.493  -1.196  0.00  0.00     0.062 H 
ATOM     23  H   LIG d   1       4.786  -3.653  -3.228  0.00  0.00     0.062 H 
ATOM     24  H   LIG d   1       6.136  -2.539  -5.737  0.00  0.00     0.032 H 
ATOM     25  H   LIG d   1       5.204  -3.896  -5.104  0.00  0.00     0.032 H 
ATOM     26  H   LIG d   1       4.998  -3.723  -7.511  0.00  0.00     0.033 H 
ATOM     27  H   LIG d   1       3.435  -3.464  -6.712  0.00  0.00     0.033 H 
ATOM     28  H   LIG d   1       3.208   2.294  -7.751  0.00  0.00     0.062 H 
ATOM     29  H   LIG d   1       3.233   3.168 -10.059  0.00  0.00     0.062 H 
ATOM     30  H   LIG d   1       3.880   1.770 -11.936  0.00  0.00     0.062 H 
ATOM     31  H   LIG d   1       4.537  -0.594 -11.633  0.00  0.00     0.064 H 
ENDROOT
BRANCH   1  32
ATOM     32  C   LIG d   1       2.308   0.564  -5.793  0.00  0.00    -0.054 C 
ATOM     33  H   LIG d   1       2.179   1.222  -4.933  0.00  0.00     0.024 H 
ATOM     34  H   LIG d   1       2.077   1.110  -6.707  0.00  0.00     0.024 H 
ATOM     35  H   LIG d   1       1.638  -0.290  -5.700  0.00  0.00     0.024 H 
ENDBRANCH   1  32
BRANCH  19  36
ATOM     36  C   LIG d   1       5.001  -2.858  -9.734  0.00  0.00     0.012 C 
ATOM     37  H   LIG d   1       5.958  -2.615 -10.196  0.00  0.00     0.046 H 
ATOM     38  H   LIG d   1       5.126  -3.711  -9.066  0.00  0.00     0.046 H 
ATOM     39  H   LIG d   1       4.277  -3.107 -10.508  0.00  0.00     0.046 H 
ENDBRANCH  19  36
TORSDOF 2
ENDMDL
MODEL 2
REMARK VINA RESULT:      -6.8      1.944      5.502
REMARK  2 active torsions:
REMARK  status: ('A' for Active; 'I' for Inactive)
REMARK    1  A    between atoms: C_1  and  C_2 
REMARK    2  A    between atoms: N_20  and  C_21 
ROOT
ATOM      1  C   LIG d   1       2.853  -0.205  -6.978  0.00  0.00     0.009 C 
ATOM      2  H   LIG d   1       1.862  -0.246  -6.525  0.00  0.00     0.040 H 
ATOM      3  C   LIG d   1       2.759  -0.885  -8.301  0.00  0.00    -0.037 A 
ATOM      4  C   LIG d   1       1.861  -0.227  -9.165  0.00  0.00    -0.058 A 
ATOM      5  C   LIG d   1       1.679  -0.639 -10.461  0.00  0.00    -0.061 A 
ATOM      6  C   LIG d   1       2.415  -1.718 -10.916  0.00  0.00    -0.061 A 
ATOM      7  C   LIG d   1       3.261  -2.362 -10.056  0.00  0.00    -0.058 A 
ATOM      8  C   LIG d   1       3.410  -1.967  -8.700  0.00  0.00    -0.043 A 
ATOM      9  C   LIG d   1       4.250  -3.005  -7.997  0.00  0.00    -0.022 C 
ATOM     10  C   LIG d   1       5.324  -2.466  -7.094  0.00  0.00    -0.008 C 
ATOM     11  C   LIG d   1       4.745  -1.584  -5.990  0.00  0.00     0.024 A 
ATOM     12  C   LIG d   1       3.824  -0.671  -5.951  0.00  0.00    -0.012 A 
ATOM     13  C   LIG d   1       3.844  -0.085  -4.601  0.00  0.00     0.004 A 
ATOM     14  C   LIG d   1       3.127   0.970  -4.035  0.00  0.00    -0.052 A 
ATOM     15  C   LIG d   1       3.394   1.253  -2.716  0.00  0.00    -0.061 A 
ATOM     16  C   LIG d   1       4.324   0.531  -1.984  0.00  0.00    -0.060 A 
ATOM     17  C   LIG d   1       5.048  -0.516  -2.529  0.00  0.00    -0.038 A 
ATOM     18  C   LIG d   1       4.797  -0.822  -3.866  0.00  0.00     0.049 A 
ATOM     19  N   LIG d   1       5.305  -1.745  -4.716  0.00  0.00    -0.346 N 
ATOM     20  H   LIG d   1       1.302   0.622  -8.799  0.00  0.00     0.062 H 
ATOM     21  H   LIG d   1       0.979  -0.133 -11.110  0.00  0.00     0.062 H 
ATOM     22  H   LIG d   1       2.322  -2.050 -11.940  0.00  0.00     0.062 H 
ATOM     23  H   LIG d   1       3.837  -3.199 -10.420  0.00  0.00     0.062 H 
ATOM     24  H   LIG d   1       3.589  -3.636  -7.402  0.00  0.00     0.032 H 
ATOM     25  H   LIG d   1       4.724  -3.632  -8.753  0.00  0.00     0.032 H 
ATOM     26  H   LIG d   1       5.858  -3.300  -6.638  0.00  0.00     0.033 H 
ATOM     27  H   LIG d   1       6.024  -1.878  -7.687  0.00  0.00     0.033 H 
ATOM     28  H   LIG d   1       2.402   1.535  -4.603  0.00  0.00     0.062 H 
ATOM     29  H   LIG d   1       2.863   2.060  -2.236  0.00  0.00     0.062 H 
ATOM     30  H   LIG d   1       4.491   0.797  -0.951  0.00  0.00     0.062 H 
ATOM     31  H   LIG d   1       5.770  -1.069  -1.947  0.00  0.00     0.064 H 
ENDROOT
BRANCH   1  32
ATOM     32  C   LIG d   1       3.155   1.270  -7.249  0.00  0.00    -0.054 C 
ATOM     33  H   LIG d   1       3.681   1.365  -8.199  0.00  0.00     0.024 H 
ATOM     34  H   LIG d   1       2.221   1.830  -7.292  0.00  0.00     0.024 H 
ATOM     35  H   LIG d   1       3.779   1.666  -6.447  0.00  0.00     0.024 H 
ENDBRANCH   1  32
BRANCH  19  36
ATOM     36  C   LIG d   1       6.295  -2.762  -4.356  0.00  0.00     0.012 C 
ATOM     37  H   LIG d   1       5.794  -3.717  -4.195  0.00  0.00     0.046 H 
ATOM     38  H   LIG d   1       7.019  -2.866  -5.165  0.00  0.00     0.046 H 
ATOM     39  H   LIG d   1       6.810  -2.464  -3.444  0.00  0.00     0.046 H 
ENDBRANCH  19  36
TORSDOF 2
ENDMDL
MODEL 3
REMARK VINA RESULT:      -6.7      1.919      4.468
REMARK  2 active torsions:
REMARK  status: ('A' for Active; 'I' for Inactive)
REMARK    1  A    between atoms: C_1  and  C_2 
REMARK    2  A    between atoms: N_20  and  C_21 
ROOT
ATOM      1  C   LIG d   1       4.869  -2.255  -4.104  0.00  0.00     0.009 C 
ATOM      2  H   LIG d   1       4.382  -3.049  -3.539  0.00  0.00     0.040 H 
ATOM      3  C   LIG d   1       4.385  -0.960  -3.548  0.00  0.00    -0.037 A 
ATOM      4  C   LIG d   1       4.739  -0.806  -2.192  0.00  0.00    -0.058 A 
ATOM      5  C   LIG d   1       4.459   0.346  -1.503  0.00  0.00    -0.061 A 
ATOM      6  C   LIG d   1       3.828   1.377  -2.176  0.00  0.00    -0.061 A 
ATOM      7  C   LIG d   1       3.467   1.200  -3.483  0.00  0.00    -0.058 A 
ATOM      8  C   LIG d   1       3.709  -0.012  -4.181  0.00  0.00    -0.043 A 
ATOM      9  C   LIG d   1       3.008   0.063  -5.515  0.00  0.00    -0.022 C 
ATOM     10  C   LIG d   1       3.807  -0.414  -6.695  0.00  0.00    -0.008 C 
ATOM     11  C   LIG d   1       4.238  -1.870  -6.535  0.00  0.00     0.024 A 
ATOM     12  C   LIG d   1       4.698  -2.574  -5.547  0.00  0.00    -0.012 A 
ATOM     13  C   LIG d   1       5.065  -3.895  -6.083  0.00  0.00     0.004 A 
ATOM     14  C   LIG d   1       5.668  -5.005  -5.488  0.00  0.00    -0.052 A 
ATOM     15  C   LIG d   1       5.860  -6.101  -6.296  0.00  0.00    -0.061 A 
ATOM     16  C   LIG d   1       5.477  -6.109  -7.627  0.00  0.00    -0.060 A 
ATOM     17  C   LIG d   1       4.882  -5.017  -8.236  0.00  0.00    -0.038 A 
ATOM     18  C   LIG d   1       4.677  -3.891  -7.440  0.00  0.00     0.049 A 
ATOM     19  N   LIG d   1       4.148  -2.669  -7.683  0.00  0.00    -0.346 N 
ATOM     20  H   LIG d   1       5.242  -1.615  -1.684  0.00  0.00     0.062 H 
ATOM     21  H   LIG d   1       4.726   0.447  -0.461  0.00  0.00     0.062 H 
ATOM     22  H   LIG d   1       3.621   2.311  -1.674  0.00  0.00     0.062 H 
ATOM     23  H   LIG d   1       2.980   2.012  -4.004  0.00  0.00     0.062 H 
ATOM     24  H   LIG d   1       2.096  -0.531  -5.457  0.00  0.00     0.032 H 
ATOM     25  H   LIG d   1       2.723   1.100  -5.694  0.00  0.00     0.032 H 
ATOM     26  H   LIG d   1       3.201  -0.321  -7.596  0.00  0.00     0.033 H 
ATOM     27  H   LIG d   1       4.694   0.209  -6.798  0.00  0.00     0.033 H 
ATOM     28  H   LIG d   1       5.967  -5.002  -4.451  0.00  0.00     0.062 H 
ATOM     29  H   LIG d   1       6.323  -6.983  -5.879  0.00  0.00     0.062 H 
ATOM     30  H   LIG d   1       5.652  -7.000  -8.213  0.00  0.00     0.062 H 
ATOM     31  H   LIG d   1       4.590  -5.037  -9.275  0.00  0.00     0.064 H 
ENDROOT
BRANCH   1  32
ATOM     32  C   LIG d   1       6.365  -2.347  -3.795  0.00  0.00    -0.054 C 
ATOM     33  H   LIG d   1       6.899  -2.686  -4.684  0.00  0.00     0.024 H 
ATOM     34  H   LIG d   1       6.737  -1.366  -3.500  0.00  0.00     0.024 H 
ATOM     35  H   LIG d   1       6.525  -3.056  -2.984  0.00  0.00     0.024 H 
ENDBRANCH   1  32
BRANCH  19  36
ATOM     36  C   LIG d   1       3.569  -2.243  -8.959  0.00  0.00     0.012 C 
ATOM     37  H   LIG d   1       2.612  -2.744  -9.108  0.00  0.00     0.046 H 
ATOM     38  H   LIG d   1       3.414  -1.164  -8.945  0.00  0.00     0.046 H 
ATOM     39  H   LIG d   1       4.246  -2.503  -9.771  0.00  0.00     0.046 H 
ENDBRANCH  19  36
TORSDOF 2
ENDMDL
MODEL 4
REMARK VINA RESULT:      -6.4      4.536      6.615
REMARK  2 active torsions:
REMARK  status: ('A' for Active; 'I' for Inactive)
REMARK    1  A    between atoms: C_1  and  C_2 
REMARK    2  A    between atoms: N_20  and  C_21 
ROOT
ATOM      1  C   LIG d   1       7.068  -3.159  -4.218  0.00  0.00     0.009 C 
ATOM      2  H   LIG d   1       7.020  -3.596  -3.221  0.00  0.00     0.040 H 
ATOM      3  C   LIG d   1       8.218  -3.795  -4.921  0.00  0.00    -0.037 A 
ATOM      4  C   LIG d   1       8.038  -5.186  -5.066  0.00  0.00    -0.058 A 
ATOM      5  C   LIG d   1       8.940  -5.959  -5.752  0.00  0.00    -0.061 A 
ATOM      6  C   LIG d   1      10.038  -5.339  -6.320  0.00  0.00    -0.061 A 
ATOM      7  C   LIG d   1      10.211  -3.993  -6.146  0.00  0.00    -0.058 A 
ATOM      8  C   LIG d   1       9.305  -3.203  -5.392  0.00  0.00    -0.043 A 
ATOM      9  C   LIG d   1       9.901  -1.825  -5.232  0.00  0.00    -0.022 C 
ATOM     10  C   LIG d   1       8.954  -0.680  -5.455  0.00  0.00    -0.008 C 
ATOM     11  C   LIG d   1       7.767  -0.732  -4.496  0.00  0.00     0.024 A 
ATOM     12  C   LIG d   1       7.002  -1.681  -4.054  0.00  0.00    -0.012 A 
ATOM     13  C   LIG d   1       5.934  -1.051  -3.260  0.00  0.00     0.004 A 
ATOM     14  C   LIG d   1       4.813  -1.583  -2.622  0.00  0.00    -0.052 A 
ATOM     15  C   LIG d   1       4.012  -0.691  -1.948  0.00  0.00    -0.061 A 
ATOM     16  C   LIG d   1       4.300   0.664  -1.902  0.00  0.00    -0.060 A 
ATOM     17  C   LIG d   1       5.405   1.211  -2.532  0.00  0.00    -0.038 A 
ATOM     18  C   LIG d   1       6.232   0.328  -3.224  0.00  0.00     0.049 A 
ATOM     19  N   LIG d   1       7.363   0.494  -3.949  0.00  0.00    -0.346 N 
ATOM     20  H   LIG d   1       7.169  -5.654  -4.627  0.00  0.00     0.062 H 
ATOM     21  H   LIG d   1       8.797  -7.026  -5.846  0.00  0.00     0.062 H 
ATOM     22  H   LIG d   1      10.752  -5.911  -6.894  0.00  0.00     0.062 H 
ATOM     23  H   LIG d   1      11.067  -3.515  -6.598  0.00  0.00     0.062 H 
ATOM     24  H   LIG d   1      10.307  -1.742  -4.224  0.00  0.00     0.032 H 
ATOM     25  H   LIG d   1      10.727  -1.726  -5.937  0.00  0.00     0.032 H 
ATOM     26  H   LIG d   1       9.489   0.258  -5.308  0.00  0.00     0.033 H 
ATOM     27  H   LIG d   1       8.584  -0.720  -6.479  0.00  0.00     0.033 H 
ATOM     28  H   LIG d   1       4.586  -2.639  -2.656  0.00  0.00     0.062 H 
ATOM     29  H   LIG d   1       3.134  -1.057  -1.439  0.00  0.00     0.062 H 
ATOM     30  H   LIG d   1       3.635   1.317  -1.356  0.00  0.00     0.062 H 
ATOM     31  H   LIG d   1       5.615   2.269  -2.488  0.00  0.00     0.064 H 
ENDROOT
BRANCH   1  32
ATOM     32  C   LIG d   1       5.796  -3.589  -4.951  0.00  0.00    -0.054 C 
ATOM     33  H   LIG d   1       5.113  -4.062  -4.246  0.00  0.00     0.024 H 
ATOM     34  H   LIG d   1       5.317  -2.715  -5.392  0.00  0.00     0.024 H 
ATOM     35  H   LIG d   1       6.054  -4.298  -5.738  0.00  0.00     0.024 H 
ENDBRANCH   1  32
BRANCH  19  36
ATOM     36  C   LIG d   1       8.061   1.767  -4.136  0.00  0.00     0.012 C 
ATOM     37  H   LIG d   1       9.078   1.577  -4.479  0.00  0.00     0.046 H 
ATOM     38  H   LIG d   1       7.533   2.366  -4.879  0.00  0.00     0.046 H 
ATOM     39  H   LIG d   1       8.093   2.308  -3.191  0.00  0.00     0.046 H 
ENDBRANCH  19  36
TORSDOF 2
ENDMDL
MODEL 5
REMARK VINA RESULT:      -6.4      4.194      5.538
REMARK  2 active torsions:
REMARK  status: ('A' for Active; 'I' for Inactive)
REMARK    1  A    between atoms: C_1  and  C_2 
REMARK    2  A    between atoms: N_20  and  C_21 
ROOT
ATOM      1  C   LIG d   1       7.063  -1.004  -3.811  0.00  0.00     0.009 C 
ATOM      2  H   LIG d   1       7.792  -0.941  -3.003  0.00  0.00     0.040 H 
ATOM      3  C   LIG d   1       5.745  -0.598  -3.246  0.00  0.00    -0.037 A 
ATOM      4  C   LIG d   1       5.762   0.733  -2.781  0.00  0.00    -0.058 A 
ATOM      5  C   LIG d   1       4.632   1.337  -2.291  0.00  0.00    -0.061 A 
ATOM      6  C   LIG d   1       3.454   0.612  -2.275  0.00  0.00    -0.061 A 
ATOM      7  C   LIG d   1       3.463  -0.687  -2.704  0.00  0.00    -0.058 A 
ATOM      8  C   LIG d   1       4.643  -1.328  -3.161  0.00  0.00    -0.043 A 
ATOM      9  C   LIG d   1       4.339  -2.794  -3.356  0.00  0.00    -0.022 C 
ATOM     10  C   LIG d   1       4.868  -3.402  -4.624  0.00  0.00    -0.008 C 
ATOM     11  C   LIG d   1       6.387  -3.278  -4.721  0.00  0.00     0.024 A 
ATOM     12  C   LIG d   1       7.236  -2.334  -4.455  0.00  0.00    -0.012 A 
ATOM     13  C   LIG d   1       8.559  -2.793  -4.911  0.00  0.00     0.004 A 
ATOM     14  C   LIG d   1       9.803  -2.161  -4.939  0.00  0.00    -0.052 A 
ATOM     15  C   LIG d   1      10.852  -2.900  -5.432  0.00  0.00    -0.061 A 
ATOM     16  C   LIG d   1      10.689  -4.202  -5.876  0.00  0.00    -0.060 A 
ATOM     17  C   LIG d   1       9.463  -4.845  -5.859  0.00  0.00    -0.038 A 
ATOM     18  C   LIG d   1       8.381  -4.117  -5.366  0.00  0.00     0.049 A 
ATOM     19  N   LIG d   1       7.067  -4.402  -5.210  0.00  0.00    -0.346 N 
ATOM     20  H   LIG d   1       6.687   1.290  -2.812  0.00  0.00     0.062 H 
ATOM     21  H   LIG d   1       4.661   2.354  -1.928  0.00  0.00     0.062 H 
ATOM     22  H   LIG d   1       2.538   1.065  -1.926  0.00  0.00     0.062 H 
ATOM     23  H   LIG d   1       2.538  -1.245  -2.694  0.00  0.00     0.062 H 
ATOM     24  H   LIG d   1       4.755  -3.345  -2.512  0.00  0.00     0.032 H 
ATOM     25  H   LIG d   1       3.256  -2.923  -3.342  0.00  0.00     0.032 H 
ATOM     26  H   LIG d   1       4.596  -4.458  -4.653  0.00  0.00     0.033 H 
ATOM     27  H   LIG d   1       4.416  -2.896  -5.476  0.00  0.00     0.033 H 
ATOM     28  H   LIG d   1       9.933  -1.146  -4.595  0.00  0.00     0.062 H 
ATOM     29  H   LIG d   1      11.834  -2.452  -5.473  0.00  0.00     0.062 H 
ATOM     30  H   LIG d   1      11.551  -4.735  -6.251  0.00  0.00     0.062 H 
ATOM     31  H   LIG d   1       9.351  -5.860  -6.209  0.00  0.00     0.064 H 
ENDROOT
BRANCH   1  32
ATOM     32  C   LIG d   1       7.456   0.053  -4.845  0.00  0.00    -0.054 C 
ATOM     33  H   LIG d   1       7.077   1.026  -4.531  0.00  0.00     0.024 H 
ATOM     34  H   LIG d   1       8.542   0.095  -4.927  0.00  0.00     0.024 H 
ATOM     35  H   LIG d   1       7.027  -0.208  -5.812  0.00  0.00     0.024 H 
ENDBRANCH   1  32
BRANCH  19  36
ATOM     36  C   LIG d   1       6.446  -5.694  -5.510  0.00  0.00     0.012 C 
ATOM     37  H   LIG d   1       6.965  -6.160  -6.348  0.00  0.00     0.046 H 
ATOM     38  H   LIG d   1       6.514  -6.341  -4.636  0.00  0.00     0.046 H 
ATOM     39  H   LIG d   1       5.400  -5.543  -5.771  0.00  0.00     0.046 H 
ENDBRANCH  19  36
TORSDOF 2
ENDMDL
MODEL 6
REMARK VINA RESULT:      -6.1      4.234      5.408
REMARK  2 active torsions:
REMARK  status: ('A' for Active; 'I' for Inactive)
REMARK    1  A    between atoms: C_1  and  C_2 
REMARK    2  A    between atoms: N_20  and  C_21 
ROOT
ATOM      1  C   LIG d   1       4.553  -2.243  -4.044  0.00  0.00     0.009 C 
ATOM      2  H   LIG d   1       3.829  -2.229  -4.858  0.00  0.00     0.040 H 
ATOM      3  C   LIG d   1       4.682  -0.844  -3.547  0.00  0.00    -0.037 A 
ATOM      4  C   LIG d   1       3.463  -0.356  -3.034  0.00  0.00    -0.058 A 
ATOM      5  C   LIG d   1       3.373   0.884  -2.453  0.00  0.00    -0.061 A 
ATOM      6  C   LIG d   1       4.520   1.653  -2.366  0.00  0.00    -0.061 A 
ATOM      7  C   LIG d   1       5.688   1.175  -2.894  0.00  0.00    -0.058 A 
ATOM      8  C   LIG d   1       5.768  -0.086  -3.542  0.00  0.00    -0.043 A 
ATOM      9  C   LIG d   1       7.132  -0.203  -4.178  0.00  0.00    -0.022 C 
ATOM     10  C   LIG d   1       7.825  -1.522  -3.986  0.00  0.00    -0.008 C 
ATOM     11  C   LIG d   1       7.005  -2.680  -4.549  0.00  0.00     0.024 A 
ATOM     12  C   LIG d   1       5.745  -2.989  -4.530  0.00  0.00    -0.012 A 
ATOM     13  C   LIG d   1       5.613  -4.326  -5.132  0.00  0.00     0.004 A 
ATOM     14  C   LIG d   1       4.509  -5.165  -5.300  0.00  0.00    -0.052 A 
ATOM     15  C   LIG d   1       4.745  -6.367  -5.925  0.00  0.00    -0.061 A 
ATOM     16  C   LIG d   1       6.007  -6.730  -6.367  0.00  0.00    -0.060 A 
ATOM     17  C   LIG d   1       7.114  -5.914  -6.206  0.00  0.00    -0.038 A 
ATOM     18  C   LIG d   1       6.903  -4.689  -5.574  0.00  0.00     0.049 A 
ATOM     19  N   LIG d   1       7.723  -3.665  -5.241  0.00  0.00    -0.346 N 
ATOM     20  H   LIG d   1       2.579  -0.973  -3.098  0.00  0.00     0.062 H 
ATOM     21  H   LIG d   1       2.431   1.250  -2.073  0.00  0.00     0.062 H 
ATOM     22  H   LIG d   1       4.494   2.620  -1.887  0.00  0.00     0.062 H 
ATOM     23  H   LIG d   1       6.580   1.778  -2.817  0.00  0.00     0.062 H 
ATOM     24  H   LIG d   1       7.027  -0.024  -5.248  0.00  0.00     0.032 H 
ATOM     25  H   LIG d   1       7.770   0.580  -3.766  0.00  0.00     0.032 H 
ATOM     26  H   LIG d   1       8.791  -1.494  -4.491  0.00  0.00     0.033 H 
ATOM     27  H   LIG d   1       7.987  -1.687  -2.921  0.00  0.00     0.033 H 
ATOM     28  H   LIG d   1       3.525  -4.885  -4.956  0.00  0.00     0.062 H 
ATOM     29  H   LIG d   1       3.922  -7.048  -6.076  0.00  0.00     0.062 H 
ATOM     30  H   LIG d   1       6.133  -7.686  -6.852  0.00  0.00     0.062 H 
ATOM     31  H   LIG d   1       8.092  -6.210  -6.555  0.00  0.00     0.064 H 
ENDROOT
BRANCH   1  32
ATOM     32  C   LIG d   1       3.933  -3.068  -2.915  0.00  0.00    -0.054 C 
ATOM     33  H   LIG d   1       3.378  -3.905  -3.340  0.00  0.00     0.024 H 
ATOM     34  H   LIG d   1       4.722  -3.447  -2.266  0.00  0.00     0.024 H 
ATOM     35  H   LIG d   1       3.256  -2.440  -2.336  0.00  0.00     0.024 H 
ENDBRANCH   1  32
BRANCH  19  36
ATOM     36  C   LIG d   1       9.151  -3.596  -5.558  0.00  0.00     0.012 C 
ATOM     37  H   LIG d   1       9.535  -4.602  -5.727  0.00  0.00     0.046 H 
ATOM     38  H   LIG d   1       9.295  -2.996  -6.457  0.00  0.00     0.046 H 
ATOM     39  H   LIG d   1       9.687  -3.138  -4.727  0.00  0.00     0.046 H 
ENDBRANCH  19  36
TORSDOF 2
ENDMDL
MODEL 7
REMARK VINA RESULT:      -5.7     10.211     11.341
REMARK  2 active torsions:
REMARK  status: ('A' for Active; 'I' for Inactive)
REMARK    1  A    between atoms: C_1  and  C_2 
REMARK    2  A    between atoms: N_20  and  C_21 
ROOT
ATOM      1  C   LIG d   1      10.362   6.552  -3.217  0.00  0.00     0.009 C 
ATOM      2  H   LIG d   1       9.556   5.833  -3.363  0.00  0.00     0.040 H 
ATOM      3  C   LIG d   1      10.507   6.756  -1.748  0.00  0.00    -0.037 A 
ATOM      4  C   LIG d   1      10.864   5.563  -1.086  0.00  0.00    -0.058 A 
ATOM      5  C   LIG d   1      11.124   5.540   0.261  0.00  0.00    -0.061 A 
ATOM      6  C   LIG d   1      11.043   6.727   0.966  0.00  0.00    -0.061 A 
ATOM      7  C   LIG d   1      10.668   7.869   0.313  0.00  0.00    -0.058 A 
ATOM      8  C   LIG d   1      10.348   7.882  -1.070  0.00  0.00    -0.043 A 
ATOM      9  C   LIG d   1       9.784   9.241  -1.410  0.00  0.00    -0.022 C 
ATOM     10  C   LIG d   1      10.303   9.858  -2.678  0.00  0.00    -0.008 C 
ATOM     11  C   LIG d   1      10.023   8.977  -3.893  0.00  0.00     0.024 A 
ATOM     12  C   LIG d   1      10.093   7.703  -4.121  0.00  0.00    -0.012 A 
ATOM     13  C   LIG d   1       9.832   7.499  -5.555  0.00  0.00     0.004 A 
ATOM     14  C   LIG d   1       9.853   6.351  -6.350  0.00  0.00    -0.052 A 
ATOM     15  C   LIG d   1       9.543   6.523  -7.679  0.00  0.00    -0.061 A 
ATOM     16  C   LIG d   1       9.226   7.765  -8.205  0.00  0.00    -0.060 A 
ATOM     17  C   LIG d   1       9.203   8.915  -7.434  0.00  0.00    -0.038 A 
ATOM     18  C   LIG d   1       9.516   8.769  -6.082  0.00  0.00     0.049 A 
ATOM     19  N   LIG d   1       9.604   9.643  -5.053  0.00  0.00    -0.346 N 
ATOM     20  H   LIG d   1      10.935   4.647  -1.653  0.00  0.00     0.062 H 
ATOM     21  H   LIG d   1      11.386   4.618   0.758  0.00  0.00     0.062 H 
ATOM     22  H   LIG d   1      11.272   6.753   2.021  0.00  0.00     0.062 H 
ATOM     23  H   LIG d   1      10.613   8.793   0.869  0.00  0.00     0.062 H 
ATOM     24  H   LIG d   1       8.701   9.151  -1.492  0.00  0.00     0.032 H 
ATOM     25  H   LIG d   1      10.005   9.919  -0.585  0.00  0.00     0.032 H 
ATOM     26  H   LIG d   1       9.825  10.827  -2.824  0.00  0.00     0.033 H 
ATOM     27  H   LIG d   1      11.379  10.005  -2.586  0.00  0.00     0.033 H 
ATOM     28  H   LIG d   1      10.100   5.382  -5.944  0.00  0.00     0.062 H 
ATOM     29  H   LIG d   1       9.547   5.663  -8.332  0.00  0.00     0.062 H 
ATOM     30  H   LIG d   1       8.989   7.839  -9.256  0.00  0.00     0.062 H 
ATOM     31  H   LIG d   1       8.955   9.876  -7.857  0.00  0.00     0.064 H 
ENDROOT
BRANCH   1  32
ATOM     32  C   LIG d   1      11.646   5.881  -3.708  0.00  0.00    -0.054 C 
ATOM     33  H   LIG d   1      11.785   6.094  -4.768  0.00  0.00     0.024 H 
ATOM     34  H   LIG d   1      12.496   6.266  -3.145  0.00  0.00     0.024 H 
ATOM     35  H   LIG d   1      11.572   4.803  -3.562  0.00  0.00     0.024 H 
ENDBRANCH   1  32
BRANCH  19  36
ATOM     36  C   LIG d   1       9.307  11.074  -5.139  0.00  0.00     0.012 C 
ATOM     37  H   LIG d   1       8.758  11.277  -6.058  0.00  0.00     0.046 H 
ATOM     38  H   LIG d   1       8.702  11.371  -4.282  0.00  0.00     0.046 H 
ATOM     39  H   LIG d   1      10.238  11.640  -5.140  0.00  0.00     0.046 H 
ENDBRANCH  19  36
TORSDOF 2
ENDMDL
MODEL 8
REMARK VINA RESULT:      -5.6      3.554      4.422
REMARK  2 active torsions:
REMARK  status: ('A' for Active; 'I' for Inactive)
REMARK    1  A    between atoms: C_1  and  C_2 
REMARK    2  A    between atoms: N_20  and  C_21 
ROOT
ATOM      1  C   LIG d   1       5.944  -0.811  -5.754  0.00  0.00     0.009 C 
ATOM      2  H   LIG d   1       5.112  -0.663  -6.442  0.00  0.00     0.040 H 
ATOM      3  C   LIG d   1       5.368  -0.900  -4.382  0.00  0.00    -0.037 A 
ATOM      4  C   LIG d   1       4.496  -2.000  -4.250  0.00  0.00    -0.058 A 
ATOM      5  C   LIG d   1       3.915  -2.315  -3.048  0.00  0.00    -0.061 A 
ATOM      6  C   LIG d   1       4.215  -1.532  -1.948  0.00  0.00    -0.061 A 
ATOM      7  C   LIG d   1       5.041  -0.453  -2.100  0.00  0.00    -0.058 A 
ATOM      8  C   LIG d   1       5.601  -0.096  -3.355  0.00  0.00    -0.043 A 
ATOM      9  C   LIG d   1       6.281   1.243  -3.204  0.00  0.00    -0.022 C 
ATOM     10  C   LIG d   1       7.639   1.354  -3.839  0.00  0.00    -0.008 C 
ATOM     11  C   LIG d   1       7.586   1.083  -5.340  0.00  0.00     0.024 A 
ATOM     12  C   LIG d   1       6.972   0.214  -6.081  0.00  0.00    -0.012 A 
ATOM     13  C   LIG d   1       7.460   0.388  -7.459  0.00  0.00     0.004 A 
ATOM     14  C   LIG d   1       7.197  -0.317  -8.635  0.00  0.00    -0.052 A 
ATOM     15  C   LIG d   1       7.831   0.131  -9.770  0.00  0.00    -0.061 A 
ATOM     16  C   LIG d   1       8.683   1.223  -9.753  0.00  0.00    -0.060 A 
ATOM     17  C   LIG d   1       8.960   1.933  -8.597  0.00  0.00    -0.038 A 
ATOM     18  C   LIG d   1       8.332   1.498  -7.430  0.00  0.00     0.049 A 
ATOM     19  N   LIG d   1       8.367   1.923  -6.146  0.00  0.00    -0.346 N 
ATOM     20  H   LIG d   1       4.281  -2.609  -5.115  0.00  0.00     0.062 H 
ATOM     21  H   LIG d   1       3.240  -3.154  -2.963  0.00  0.00     0.062 H 
ATOM     22  H   LIG d   1       3.801  -1.770  -0.979  0.00  0.00     0.062 H 
ATOM     23  H   LIG d   1       5.276   0.150  -1.236  0.00  0.00     0.062 H 
ATOM     24  H   LIG d   1       5.636   2.006  -3.641  0.00  0.00     0.032 H 
ATOM     25  H   LIG d   1       6.384   1.457  -2.140  0.00  0.00     0.032 H 
ATOM     26  H   LIG d   1       8.028   2.359  -3.673  0.00  0.00     0.033 H 
ATOM     27  H   LIG d   1       8.309   0.634  -3.371  0.00  0.00     0.033 H 
ATOM     28  H   LIG d   1       6.534  -1.169  -8.651  0.00  0.00     0.062 H 
ATOM     29  H   LIG d   1       7.657  -0.383 -10.703  0.00  0.00     0.062 H 
ATOM     30  H   LIG d   1       9.152   1.531 -10.677  0.00  0.00     0.062 H 
ATOM     31  H   LIG d   1       9.628   2.781  -8.598  0.00  0.00     0.064 H 
ENDROOT
BRANCH   1  32
ATOM     32  C   LIG d   1       6.549  -2.178  -6.079  0.00  0.00    -0.054 C 
ATOM     33  H   LIG d   1       7.590  -2.053  -6.376  0.00  0.00     0.024 H 
ATOM     34  H   LIG d   1       6.496  -2.818  -5.198  0.00  0.00     0.024 H 
ATOM     35  H   LIG d   1       5.991  -2.637  -6.896  0.00  0.00     0.024 H 
ENDBRANCH   1  32
BRANCH  19  36
ATOM     36  C   LIG d   1       9.112   3.090  -5.668  0.00  0.00     0.012 C 
ATOM     37  H   LIG d   1      10.029   3.198  -6.247  0.00  0.00     0.046 H 
ATOM     38  H   LIG d   1       8.501   3.985  -5.786  0.00  0.00     0.046 H 
ATOM     39  H   LIG d   1       9.361   2.957  -4.616  0.00  0.00     0.046 H 
ENDBRANCH  19  36
TORSDOF 2
ENDMDL
MODEL 9
REMARK VINA RESULT:      -5.6      1.723      6.308
REMARK  2 active torsions:
REMARK  status: ('A' for Active; 'I' for Inactive)
REMARK    1  A    between atoms: C_1  and  C_2 
REMARK    2  A    between atoms: N_20  and  C_21 
ROOT
ATOM      1  C   LIG d   1       5.615  -1.049  -8.149  0.00  0.00     0.009 C 
ATOM      2  H   LIG d   1       6.624  -0.639  -8.115  0.00  0.00     0.040 H 
ATOM      3  C   LIG d   1       4.941  -0.458  -9.339  0.00  0.00    -0.037 A 
ATOM      4  C   LIG d   1       5.592  -0.810 -10.539  0.00  0.00    -0.058 A 
ATOM      5  C   LIG d   1       5.095  -0.437 -11.762  0.00  0.00    -0.061 A 
ATOM      6  C   LIG d   1       3.918   0.290 -11.799  0.00  0.00    -0.061 A 
ATOM      7  C   LIG d   1       3.315   0.646 -10.624  0.00  0.00    -0.058 A 
ATOM      8  C   LIG d   1       3.858   0.305  -9.358  0.00  0.00    -0.043 A 
ATOM      9  C   LIG d   1       3.063   1.024  -8.295  0.00  0.00    -0.022 C 
ATOM     10  C   LIG d   1       2.688   0.197  -7.097  0.00  0.00    -0.008 C 
ATOM     11  C   LIG d   1       3.918  -0.362  -6.387  0.00  0.00     0.024 A 
ATOM     12  C   LIG d   1       5.032  -0.892  -6.789  0.00  0.00    -0.012 A 
ATOM     13  C   LIG d   1       5.747  -1.369  -5.594  0.00  0.00     0.004 A 
ATOM     14  C   LIG d   1       6.944  -2.073  -5.447  0.00  0.00    -0.052 A 
ATOM     15  C   LIG d   1       7.332  -2.354  -4.158  0.00  0.00    -0.061 A 
ATOM     16  C   LIG d   1       6.581  -1.960  -3.062  0.00  0.00    -0.060 A 
ATOM     17  C   LIG d   1       5.390  -1.265  -3.188  0.00  0.00    -0.038 A 
ATOM     18  C   LIG d   1       4.972  -0.969  -4.485  0.00  0.00     0.049 A 
ATOM     19  N   LIG d   1       3.888  -0.332  -4.986  0.00  0.00    -0.346 N 
ATOM     20  H   LIG d   1       6.503  -1.388 -10.494  0.00  0.00     0.062 H 
ATOM     21  H   LIG d   1       5.609  -0.704 -12.673  0.00  0.00     0.062 H 
ATOM     22  H   LIG d   1       3.480   0.573 -12.745  0.00  0.00     0.062 H 
ATOM     23  H   LIG d   1       2.393   1.208 -10.661  0.00  0.00     0.062 H 
ATOM     24  H   LIG d   1       3.645   1.879  -7.951  0.00  0.00     0.032 H 
ATOM     25  H   LIG d   1       2.146   1.400  -8.749  0.00  0.00     0.032 H 
ATOM     26  H   LIG d   1       2.126   0.817  -6.398  0.00  0.00     0.033 H 
ATOM     27  H   LIG d   1       2.058  -0.631  -7.420  0.00  0.00     0.033 H 
ATOM     28  H   LIG d   1       7.531  -2.382  -6.299  0.00  0.00     0.062 H 
ATOM     29  H   LIG d   1       8.251  -2.896  -3.995  0.00  0.00     0.062 H 
ATOM     30  H   LIG d   1       6.937  -2.207  -2.073  0.00  0.00     0.062 H 
ATOM     31  H   LIG d   1       4.815  -0.965  -2.325  0.00  0.00     0.064 H 
ENDROOT
BRANCH   1  32
ATOM     32  C   LIG d   1       5.756  -2.550  -8.410  0.00  0.00    -0.054 C 
ATOM     33  H   LIG d   1       6.809  -2.829  -8.361  0.00  0.00     0.024 H 
ATOM     34  H   LIG d   1       5.198  -3.104  -7.656  0.00  0.00     0.024 H 
ATOM     35  H   LIG d   1       5.364  -2.785  -9.399  0.00  0.00     0.024 H 
ENDBRANCH   1  32
BRANCH  19  36
ATOM     36  C   LIG d   1       2.837   0.295  -4.182  0.00  0.00     0.012 C 
ATOM     37  H   LIG d   1       1.898   0.281  -4.736  0.00  0.00     0.046 H 
ATOM     38  H   LIG d   1       2.715  -0.256  -3.249  0.00  0.00     0.046 H 
ATOM     39  H   LIG d   1       3.113   1.326  -3.962  0.00  0.00     0.046 H 
ENDBRANCH  19  36
TORSDOF 2
ENDMDL
MODEL 10
REMARK VINA RESULT:      -5.6     10.093     10.937
REMARK  2 active torsions:
REMARK  status: ('A' for Active; 'I' for Inactive)
REMARK    1  A    between atoms: C_1  and  C_2 
REMARK    2  A    between atoms: N_20  and  C_21 
ROOT
ATOM      1  C   LIG d   1      10.463   8.219  -1.911  0.00  0.00     0.009 C 
ATOM      2  H   LIG d   1      11.317   8.861  -2.122  0.00  0.00     0.040 H 
ATOM      3  C   LIG d   1      10.790   7.444  -0.680  0.00  0.00    -0.037 A 
ATOM      4  C   LIG d   1      10.984   8.287   0.433  0.00  0.00    -0.058 A 
ATOM      5  C   LIG d   1      11.219   7.779   1.686  0.00  0.00    -0.061 A 
ATOM      6  C   LIG d   1      11.249   6.405   1.843  0.00  0.00    -0.061 A 
ATOM      7  C   LIG d   1      11.086   5.603   0.746  0.00  0.00    -0.058 A 
ATOM      8  C   LIG d   1      10.895   6.129  -0.558  0.00  0.00    -0.043 A 
ATOM      9  C   LIG d   1      10.959   4.986  -1.542  0.00  0.00    -0.022 C 
ATOM     10  C   LIG d   1       9.901   4.990  -2.609  0.00  0.00    -0.008 C 
ATOM     11  C   LIG d   1       9.949   6.263  -3.449  0.00  0.00     0.024 A 
ATOM     12  C   LIG d   1      10.115   7.521  -3.178  0.00  0.00    -0.012 A 
ATOM     13  C   LIG d   1       9.906   8.271  -4.427  0.00  0.00     0.004 A 
ATOM     14  C   LIG d   1       9.890   9.640  -4.698  0.00  0.00    -0.052 A 
ATOM     15  C   LIG d   1       9.670  10.002  -6.006  0.00  0.00    -0.061 A 
ATOM     16  C   LIG d   1       9.475   9.062  -7.005  0.00  0.00    -0.060 A 
ATOM     17  C   LIG d   1       9.483   7.699  -6.756  0.00  0.00    -0.038 A 
ATOM     18  C   LIG d   1       9.702   7.305  -5.436  0.00  0.00     0.049 A 
ATOM     19  N   LIG d   1       9.766   6.098  -4.829  0.00  0.00    -0.346 N 
ATOM     20  H   LIG d   1      10.946   9.358   0.297  0.00  0.00     0.062 H 
ATOM     21  H   LIG d   1      11.377   8.436   2.529  0.00  0.00     0.062 H 
ATOM     22  H   LIG d   1      11.399   5.969   2.819  0.00  0.00     0.062 H 
ATOM     23  H   LIG d   1      11.104   4.531   0.877  0.00  0.00     0.062 H 
ATOM     24  H   LIG d   1      11.935   5.007  -2.028  0.00  0.00     0.032 H 
ATOM     25  H   LIG d   1      10.880   4.052  -0.986  0.00  0.00     0.032 H 
ATOM     26  H   LIG d   1      10.049   4.129  -3.260  0.00  0.00     0.033 H 
ATOM     27  H   LIG d   1       8.922   4.912  -2.137  0.00  0.00     0.033 H 
ATOM     28  H   LIG d   1      10.041  10.375  -3.921  0.00  0.00     0.062 H 
ATOM     29  H   LIG d   1       9.650  11.050  -6.263  0.00  0.00     0.062 H 
ATOM     30  H   LIG d   1       9.308   9.404  -8.016  0.00  0.00     0.062 H 
ATOM     31  H   LIG d   1       9.329   6.978  -7.544  0.00  0.00     0.064 H 
ENDROOT
BRANCH   1  32
ATOM     32  C   LIG d   1       9.291   9.140  -1.566  0.00  0.00    -0.054 C 
ATOM     33  H   LIG d   1       8.540   9.083  -2.354  0.00  0.00     0.024 H 
ATOM     34  H   LIG d   1       8.850   8.829  -0.619  0.00  0.00     0.024 H 
ATOM     35  H   LIG d   1       9.650  10.166  -1.480  0.00  0.00     0.024 H 
ENDBRANCH   1  32
BRANCH  19  36
ATOM     36  C   LIG d   1       9.659   4.807  -5.513  0.00  0.00     0.012 C 
ATOM     37  H   LIG d   1      10.494   4.691  -6.204  0.00  0.00     0.046 H 
ATOM     38  H   LIG d   1       9.683   4.003  -4.777  0.00  0.00     0.046 H 
ATOM     39  H   LIG d   1       8.722   4.765  -6.066  0.00  0.00     0.046 H 
ENDBRANCH  19  36
TORSDOF 2
ENDMDL
