MODEL 1
REMARK VINA RESULT:      -4.9      0.000      0.000
REMARK  5 active torsions:
REMARK  status: ('A' for Active; 'I' for Inactive)
REMARK    1  A    between atoms: C_3  and  N_14 
REMARK    2  A    between atoms: N_7  and  C_10 
REMARK    3  A    between atoms: C_10  and  C_11 
REMARK    4  A    between atoms: C_11  and  C_12 
REMARK    5  A    between atoms: C_12  and  O_13 
ROOT
ATOM      1  C   LIG d   1       3.829  -1.996  -2.275  0.00  0.00     0.120 A 
ATOM      2  N   LIG d   1       4.278  -0.813  -1.897  0.00  0.00    -0.219 NA
ATOM      3  C   LIG d   1       4.916  -0.015  -2.747  0.00  0.00     0.147 A 
ATOM      4  C   LIG d   1       5.106  -0.458  -4.067  0.00  0.00     0.147 A 
ATOM      5  C   LIG d   1       4.606  -1.722  -4.421  0.00  0.00     0.165 A 
ATOM      6  N   LIG d   1       3.985  -2.452  -3.500  0.00  0.00    -0.216 NA
ATOM      7  N   LIG d   1       4.930  -1.900  -5.743  0.00  0.00    -0.315 N 
ATOM      8  C   LIG d   1       5.588  -0.780  -6.156  0.00  0.00     0.098 A 
ATOM      9  N   LIG d   1       5.690   0.064  -5.172  0.00  0.00    -0.231 NA
ATOM     10  H   LIG d   1       3.316  -2.613  -1.553  0.00  0.00     0.105 H 
ATOM     11  H   LIG d   1       5.968  -0.618  -7.154  0.00  0.00     0.103 H 
ENDROOT
BRANCH   7  12
ATOM     12  C   LIG d   1       4.619  -3.075  -6.561  0.00  0.00     0.028 C 
ATOM     13  H   LIG d   1       4.874  -2.872  -7.600  0.00  0.00     0.049 H 
ATOM     14  H   LIG d   1       3.554  -3.299  -6.484  0.00  0.00     0.049 H 
BRANCH  12  15
ATOM     15  C   LIG d   1       5.429  -4.273  -6.061  0.00  0.00    -0.012 C 
ATOM     16  H   LIG d   1       5.901  -4.022  -5.111  0.00  0.00     0.030 H 
ATOM     17  H   LIG d   1       6.195  -4.525  -6.792  0.00  0.00     0.030 H 
BRANCH  15  18
ATOM     18  C   LIG d   1       4.498  -5.472  -5.865  0.00  0.00     0.046 C 
ATOM     19  H   LIG d   1       4.821  -6.291  -6.508  0.00  0.00     0.056 H 
ATOM     20  H   LIG d   1       4.530  -5.792  -4.824  0.00  0.00     0.056 H 
BRANCH  18  21
ATOM     21  O   LIG d   1       3.161  -5.098  -6.207  0.00  0.00    -0.395 OA
ATOM     22  H   LIG d   1       3.053  -4.825  -7.128  0.00  0.00     0.209 HD
ENDBRANCH  18  21
ENDBRANCH  15  18
ENDBRANCH  12  15
ENDBRANCH   7  12
BRANCH   3  23
ATOM     23  N   LIG d   1       5.382   1.223  -2.341  0.00  0.00    -0.341 NA
ATOM     24  H   LIG d   1       5.452   1.242  -1.344  0.00  0.00     0.144 HD
ATOM     25  H   LIG d   1       4.879   2.025  -2.556  0.00  0.00     0.144 HD
ENDBRANCH   3  23
TORSDOF 5
ENDMDL
MODEL 2
REMARK VINA RESULT:      -4.8     11.724     13.224
REMARK  5 active torsions:
REMARK  status: ('A' for Active; 'I' for Inactive)
REMARK    1  A    between atoms: C_3  and  N_14 
REMARK    2  A    between atoms: N_7  and  C_10 
REMARK    3  A    between atoms: C_10  and  C_11 
REMARK    4  A    between atoms: C_11  and  C_12 
REMARK    5  A    between atoms: C_12  and  O_13 
ROOT
ATOM      1  C   LIG d   1      11.759   8.902   1.883  0.00  0.00     0.120 A 
ATOM      2  N   LIG d   1      11.634   7.598   2.051  0.00  0.00    -0.219 NA
ATOM      3  C   LIG d   1      10.983   6.848   1.168  0.00  0.00     0.147 A 
ATOM      4  C   LIG d   1      10.426   7.475   0.040  0.00  0.00     0.147 A 
ATOM      5  C   LIG d   1      10.590   8.864  -0.096  0.00  0.00     0.165 A 
ATOM      6  N   LIG d   1      11.252   9.531   0.844  0.00  0.00    -0.216 NA
ATOM      7  N   LIG d   1       9.953   9.207  -1.262  0.00  0.00    -0.315 N 
ATOM      8  C   LIG d   1       9.440   8.064  -1.799  0.00  0.00     0.098 A 
ATOM      9  N   LIG d   1       9.718   7.050  -1.033  0.00  0.00    -0.231 NA
ATOM     10  H   LIG d   1      12.295   9.473   2.625  0.00  0.00     0.105 H 
ATOM     11  H   LIG d   1       8.885   8.009  -2.724  0.00  0.00     0.103 H 
ENDROOT
BRANCH   7  12
ATOM     12  C   LIG d   1       9.850  10.554  -1.829  0.00  0.00     0.028 C 
ATOM     13  H   LIG d   1      10.733  11.132  -1.555  0.00  0.00     0.049 H 
ATOM     14  H   LIG d   1       8.958  11.045  -1.438  0.00  0.00     0.049 H 
BRANCH  12  15
ATOM     15  C   LIG d   1       9.754  10.460  -3.353  0.00  0.00    -0.012 C 
ATOM     16  H   LIG d   1       9.415   9.463  -3.635  0.00  0.00     0.030 H 
ATOM     17  H   LIG d   1      10.733  10.648  -3.791  0.00  0.00     0.030 H 
BRANCH  15  18
ATOM     18  C   LIG d   1       8.757  11.501  -3.866  0.00  0.00     0.046 C 
ATOM     19  H   LIG d   1       9.228  12.485  -3.865  0.00  0.00     0.056 H 
ATOM     20  H   LIG d   1       8.452  11.244  -4.880  0.00  0.00     0.056 H 
BRANCH  18  21
ATOM     21  O   LIG d   1       7.610  11.523  -3.014  0.00  0.00    -0.395 OA
ATOM     22  H   LIG d   1       7.820  11.556  -2.071  0.00  0.00     0.209 HD
ENDBRANCH  18  21
ENDBRANCH  15  18
ENDBRANCH  12  15
ENDBRANCH   7  12
BRANCH   3  23
ATOM     23  N   LIG d   1      10.858   5.483   1.354  0.00  0.00    -0.341 NA
ATOM     24  H   LIG d   1       9.915   5.206   1.170  0.00  0.00     0.144 HD
ATOM     25  H   LIG d   1      11.052   5.091   2.220  0.00  0.00     0.144 HD
ENDBRANCH   3  23
TORSDOF 5
ENDMDL
MODEL 3
REMARK VINA RESULT:      -4.5      2.864      4.829
REMARK  5 active torsions:
REMARK  status: ('A' for Active; 'I' for Inactive)
REMARK    1  A    between atoms: C_3  and  N_14 
REMARK    2  A    between atoms: N_7  and  C_10 
REMARK    3  A    between atoms: C_10  and  C_11 
REMARK    4  A    between atoms: C_11  and  C_12 
REMARK    5  A    between atoms: C_12  and  O_13 
ROOT
ATOM      1  C   LIG d   1       5.407  -2.396  -6.506  0.00  0.00     0.120 A 
ATOM      2  N   LIG d   1       5.241  -1.641  -7.576  0.00  0.00    -0.219 NA
ATOM      3  C   LIG d   1       4.456  -0.570  -7.549  0.00  0.00     0.147 A 
ATOM      4  C   LIG d   1       3.799  -0.252  -6.348  0.00  0.00     0.147 A 
ATOM      5  C   LIG d   1       4.011  -1.084  -5.235  0.00  0.00     0.165 A 
ATOM      6  N   LIG d   1       4.811  -2.138  -5.360  0.00  0.00    -0.216 NA
ATOM      7  N   LIG d   1       3.258  -0.554  -4.218  0.00  0.00    -0.315 N 
ATOM      8  C   LIG d   1       2.632   0.554  -4.708  0.00  0.00     0.098 A 
ATOM      9  N   LIG d   1       2.951   0.729  -5.957  0.00  0.00    -0.231 NA
ATOM     10  H   LIG d   1       6.053  -3.258  -6.571  0.00  0.00     0.105 H 
ATOM     11  H   LIG d   1       1.970   1.192  -4.142  0.00  0.00     0.103 H 
ENDROOT
BRANCH   7  12
ATOM     12  C   LIG d   1       3.152  -1.079  -2.854  0.00  0.00     0.028 C 
ATOM     13  H   LIG d   1       2.984  -2.155  -2.891  0.00  0.00     0.049 H 
ATOM     14  H   LIG d   1       2.317  -0.597  -2.344  0.00  0.00     0.049 H 
BRANCH  12  15
ATOM     15  C   LIG d   1       4.448  -0.790  -2.095  0.00  0.00    -0.012 C 
ATOM     16  H   LIG d   1       5.302  -1.034  -2.727  0.00  0.00     0.030 H 
ATOM     17  H   LIG d   1       4.482  -1.395  -1.190  0.00  0.00     0.030 H 
BRANCH  15  18
ATOM     18  C   LIG d   1       4.499   0.692  -1.719  0.00  0.00     0.046 C 
ATOM     19  H   LIG d   1       3.561   1.171  -2.002  0.00  0.00     0.056 H 
ATOM     20  H   LIG d   1       4.648   0.790  -0.644  0.00  0.00     0.056 H 
BRANCH  18  21
ATOM     21  O   LIG d   1       5.582   1.322  -2.409  0.00  0.00    -0.395 OA
ATOM     22  H   LIG d   1       6.453   1.111  -2.047  0.00  0.00     0.209 HD
ENDBRANCH  18  21
ENDBRANCH  15  18
ENDBRANCH  12  15
ENDBRANCH   7  12
BRANCH   3  23
ATOM     23  N   LIG d   1       4.291   0.216  -8.676  0.00  0.00    -0.341 NA
ATOM     24  H   LIG d   1       3.356   0.114  -9.019  0.00  0.00     0.144 HD
ATOM     25  H   LIG d   1       4.844   0.065  -9.458  0.00  0.00     0.144 HD
ENDBRANCH   3  23
TORSDOF 5
ENDMDL
MODEL 4
REMARK VINA RESULT:      -4.5      2.739      5.066
REMARK  5 active torsions:
REMARK  status: ('A' for Active; 'I' for Inactive)
REMARK    1  A    between atoms: C_3  and  N_14 
REMARK    2  A    between atoms: N_7  and  C_10 
REMARK    3  A    between atoms: C_10  and  C_11 
REMARK    4  A    between atoms: C_11  and  C_12 
REMARK    5  A    between atoms: C_12  and  O_13 
ROOT
ATOM      1  C   LIG d   1       4.029  -0.100  -7.031  0.00  0.00     0.120 A 
ATOM      2  N   LIG d   1       3.909  -1.341  -7.465  0.00  0.00    -0.219 NA
ATOM      3  C   LIG d   1       4.268  -2.373  -6.709  0.00  0.00     0.147 A 
ATOM      4  C   LIG d   1       4.784  -2.117  -5.427  0.00  0.00     0.147 A 
ATOM      5  C   LIG d   1       4.888  -0.780  -5.009  0.00  0.00     0.165 A 
ATOM      6  N   LIG d   1       4.508   0.187  -5.838  0.00  0.00    -0.216 NA
ATOM      7  N   LIG d   1       5.416  -0.819  -3.744  0.00  0.00    -0.315 N 
ATOM      8  C   LIG d   1       5.610  -2.130  -3.423  0.00  0.00     0.098 A 
ATOM      9  N   LIG d   1       5.238  -2.889  -4.412  0.00  0.00    -0.231 NA
ATOM     10  H   LIG d   1       3.726   0.709  -7.677  0.00  0.00     0.105 H 
ATOM     11  H   LIG d   1       6.011  -2.485  -2.485  0.00  0.00     0.103 H 
ENDROOT
BRANCH   7  12
ATOM     12  C   LIG d   1       5.713   0.336  -2.892  0.00  0.00     0.028 C 
ATOM     13  H   LIG d   1       5.722   1.242  -3.498  0.00  0.00     0.049 H 
ATOM     14  H   LIG d   1       6.688   0.201  -2.424  0.00  0.00     0.049 H 
BRANCH  12  15
ATOM     15  C   LIG d   1       4.640   0.457  -1.808  0.00  0.00    -0.012 C 
ATOM     16  H   LIG d   1       5.070   0.925  -0.922  0.00  0.00     0.030 H 
ATOM     17  H   LIG d   1       4.269  -0.534  -1.551  0.00  0.00     0.030 H 
BRANCH  15  18
ATOM     18  C   LIG d   1       3.485   1.315  -2.328  0.00  0.00     0.046 C 
ATOM     19  H   LIG d   1       2.693   0.667  -2.704  0.00  0.00     0.056 H 
ATOM     20  H   LIG d   1       3.097   1.932  -1.517  0.00  0.00     0.056 H 
BRANCH  18  21
ATOM     21  O   LIG d   1       3.954   2.156  -3.384  0.00  0.00    -0.395 OA
ATOM     22  H   LIG d   1       4.613   2.806  -3.106  0.00  0.00     0.209 HD
ENDBRANCH  18  21
ENDBRANCH  15  18
ENDBRANCH  12  15
ENDBRANCH   7  12
BRANCH   3  23
ATOM     23  N   LIG d   1       4.138  -3.670  -7.174  0.00  0.00    -0.341 NA
ATOM     24  H   LIG d   1       4.277  -3.686  -8.164  0.00  0.00     0.144 HD
ATOM     25  H   LIG d   1       3.304  -4.149  -7.048  0.00  0.00     0.144 HD
ENDBRANCH   3  23
TORSDOF 5
ENDMDL
MODEL 5
REMARK VINA RESULT:      -4.4      9.576     11.457
REMARK  5 active torsions:
REMARK  status: ('A' for Active; 'I' for Inactive)
REMARK    1  A    between atoms: C_3  and  N_14 
REMARK    2  A    between atoms: N_7  and  C_10 
REMARK    3  A    between atoms: C_10  and  C_11 
REMARK    4  A    between atoms: C_11  and  C_12 
REMARK    5  A    between atoms: C_12  and  O_13 
ROOT
ATOM      1  C   LIG d   1      11.021   5.992   1.502  0.00  0.00     0.120 A 
ATOM      2  N   LIG d   1      11.466   7.105   2.059  0.00  0.00    -0.219 NA
ATOM      3  C   LIG d   1      11.437   8.261   1.405  0.00  0.00     0.147 A 
ATOM      4  C   LIG d   1      10.921   8.278   0.098  0.00  0.00     0.147 A 
ATOM      5  C   LIG d   1      10.456   7.070  -0.448  0.00  0.00     0.165 A 
ATOM      6  N   LIG d   1      10.530   5.961   0.281  0.00  0.00    -0.216 NA
ATOM      7  N   LIG d   1      10.019   7.370  -1.714  0.00  0.00    -0.315 N 
ATOM      8  C   LIG d   1      10.210   8.707  -1.905  0.00  0.00     0.098 A 
ATOM      9  N   LIG d   1      10.740   9.237  -0.842  0.00  0.00    -0.231 NA
ATOM     10  H   LIG d   1      11.062   5.074   2.068  0.00  0.00     0.105 H 
ATOM     11  H   LIG d   1       9.959   9.245  -2.807  0.00  0.00     0.103 H 
ENDROOT
BRANCH   7  12
ATOM     12  C   LIG d   1       9.447   6.429  -2.679  0.00  0.00     0.028 C 
ATOM     13  H   LIG d   1       8.999   6.982  -3.505  0.00  0.00     0.049 H 
ATOM     14  H   LIG d   1       8.683   5.825  -2.188  0.00  0.00     0.049 H 
BRANCH  12  15
ATOM     15  C   LIG d   1      10.550   5.515  -3.216  0.00  0.00    -0.012 C 
ATOM     16  H   LIG d   1      11.509   5.817  -2.795  0.00  0.00     0.030 H 
ATOM     17  H   LIG d   1      10.590   5.593  -4.302  0.00  0.00     0.030 H 
BRANCH  15  18
ATOM     18  C   LIG d   1      10.251   4.068  -2.819  0.00  0.00     0.046 C 
ATOM     19  H   LIG d   1       9.189   3.965  -2.595  0.00  0.00     0.056 H 
ATOM     20  H   LIG d   1      10.516   3.403  -3.641  0.00  0.00     0.056 H 
BRANCH  18  21
ATOM     21  O   LIG d   1      11.017   3.724  -1.662  0.00  0.00    -0.395 OA
ATOM     22  H   LIG d   1      10.488   3.601  -0.862  0.00  0.00     0.209 HD
ENDBRANCH  18  21
ENDBRANCH  15  18
ENDBRANCH  12  15
ENDBRANCH   7  12
BRANCH   3  23
ATOM     23  N   LIG d   1      11.905   9.420   1.997  0.00  0.00    -0.341 NA
ATOM     24  H   LIG d   1      12.151   9.233   2.948  0.00  0.00     0.144 HD
ATOM     25  H   LIG d   1      11.333  10.202   2.053  0.00  0.00     0.144 HD
ENDBRANCH   3  23
TORSDOF 5
ENDMDL
MODEL 6
REMARK VINA RESULT:      -4.3     11.594     12.604
REMARK  5 active torsions:
REMARK  status: ('A' for Active; 'I' for Inactive)
REMARK    1  A    between atoms: C_3  and  N_14 
REMARK    2  A    between atoms: N_7  and  C_10 
REMARK    3  A    between atoms: C_10  and  C_11 
REMARK    4  A    between atoms: C_11  and  C_12 
REMARK    5  A    between atoms: C_12  and  O_13 
ROOT
ATOM      1  C   LIG d   1      12.660   5.981  -1.797  0.00  0.00     0.120 A 
ATOM      2  N   LIG d   1      12.213   5.453  -0.672  0.00  0.00    -0.219 NA
ATOM      3  C   LIG d   1      11.142   5.945  -0.059  0.00  0.00     0.147 A 
ATOM      4  C   LIG d   1      10.487   7.047  -0.635  0.00  0.00     0.147 A 
ATOM      5  C   LIG d   1      10.999   7.569  -1.835  0.00  0.00     0.165 A 
ATOM      6  N   LIG d   1      12.080   7.013  -2.372  0.00  0.00    -0.216 NA
ATOM      7  N   LIG d   1      10.185   8.624  -2.165  0.00  0.00    -0.315 N 
ATOM      8  C   LIG d   1       9.225   8.716  -1.202  0.00  0.00     0.098 A 
ATOM      9  N   LIG d   1       9.404   7.790  -0.306  0.00  0.00    -0.231 NA
ATOM     10  H   LIG d   1      13.533   5.551  -2.263  0.00  0.00     0.105 H 
ATOM     11  H   LIG d   1       8.432   9.449  -1.187  0.00  0.00     0.103 H 
ENDROOT
BRANCH   7  12
ATOM     12  C   LIG d   1      10.321   9.487  -3.341  0.00  0.00     0.028 C 
ATOM     13  H   LIG d   1       9.647   9.142  -4.125  0.00  0.00     0.049 H 
ATOM     14  H   LIG d   1      11.349   9.450  -3.702  0.00  0.00     0.049 H 
BRANCH  12  15
ATOM     15  C   LIG d   1       9.966  10.926  -2.960  0.00  0.00    -0.012 C 
ATOM     16  H   LIG d   1      10.836  11.566  -3.108  0.00  0.00     0.030 H 
ATOM     17  H   LIG d   1       9.664  10.961  -1.914  0.00  0.00     0.030 H 
BRANCH  15  18
ATOM     18  C   LIG d   1       8.815  11.417  -3.840  0.00  0.00     0.046 C 
ATOM     19  H   LIG d   1       9.063  12.396  -4.250  0.00  0.00     0.056 H 
ATOM     20  H   LIG d   1       8.653  10.712  -4.655  0.00  0.00     0.056 H 
BRANCH  18  21
ATOM     21  O   LIG d   1       7.625  11.519  -3.054  0.00  0.00    -0.395 OA
ATOM     22  H   LIG d   1       7.261  12.413  -3.005  0.00  0.00     0.209 HD
ENDBRANCH  18  21
ENDBRANCH  15  18
ENDBRANCH  12  15
ENDBRANCH   7  12
BRANCH   3  23
ATOM     23  N   LIG d   1      10.682   5.385   1.120  0.00  0.00    -0.341 NA
ATOM     24  H   LIG d   1       9.681   5.376   1.117  0.00  0.00     0.144 HD
ATOM     25  H   LIG d   1      10.909   5.790   1.971  0.00  0.00     0.144 HD
ENDBRANCH   3  23
TORSDOF 5
ENDMDL
MODEL 7
REMARK VINA RESULT:      -4.2     11.082     12.756
REMARK  5 active torsions:
REMARK  status: ('A' for Active; 'I' for Inactive)
REMARK    1  A    between atoms: C_3  and  N_14 
REMARK    2  A    between atoms: N_7  and  C_10 
REMARK    3  A    between atoms: C_10  and  C_11 
REMARK    4  A    between atoms: C_11  and  C_12 
REMARK    5  A    between atoms: C_12  and  O_13 
ROOT
ATOM      1  C   LIG d   1      10.962  10.140   0.738  0.00  0.00     0.120 A 
ATOM      2  N   LIG d   1       9.904  10.566   0.072  0.00  0.00    -0.219 NA
ATOM      3  C   LIG d   1       9.204   9.748  -0.707  0.00  0.00     0.147 A 
ATOM      4  C   LIG d   1       9.615   8.408  -0.809  0.00  0.00     0.147 A 
ATOM      5  C   LIG d   1      10.744   8.002  -0.078  0.00  0.00     0.165 A 
ATOM      6  N   LIG d   1      11.384   8.895   0.671  0.00  0.00    -0.216 NA
ATOM      7  N   LIG d   1      10.920   6.671  -0.362  0.00  0.00    -0.315 N 
ATOM      8  C   LIG d   1       9.928   6.302  -1.222  0.00  0.00     0.098 A 
ATOM      9  N   LIG d   1       9.164   7.323  -1.483  0.00  0.00    -0.231 NA
ATOM     10  H   LIG d   1      11.502  10.838   1.359  0.00  0.00     0.105 H 
ATOM     11  H   LIG d   1       9.797   5.309  -1.626  0.00  0.00     0.103 H 
ENDROOT
BRANCH   7  12
ATOM     12  C   LIG d   1      11.977   5.805   0.166  0.00  0.00     0.028 C 
ATOM     13  H   LIG d   1      11.534   4.887   0.554  0.00  0.00     0.049 H 
ATOM     14  H   LIG d   1      12.503   6.322   0.969  0.00  0.00     0.049 H 
BRANCH  12  15
ATOM     15  C   LIG d   1      12.963   5.463  -0.952  0.00  0.00    -0.012 C 
ATOM     16  H   LIG d   1      12.543   5.765  -1.912  0.00  0.00     0.030 H 
ATOM     17  H   LIG d   1      13.148   4.390  -0.958  0.00  0.00     0.030 H 
BRANCH  15  18
ATOM     18  C   LIG d   1      14.280   6.206  -0.715  0.00  0.00     0.046 C 
ATOM     19  H   LIG d   1      15.024   5.511  -0.325  0.00  0.00     0.056 H 
ATOM     20  H   LIG d   1      14.633   6.628  -1.655  0.00  0.00     0.056 H 
BRANCH  18  21
ATOM     21  O   LIG d   1      14.070   7.257   0.231  0.00  0.00    -0.395 OA
ATOM     22  H   LIG d   1      14.797   7.373   0.857  0.00  0.00     0.209 HD
ENDBRANCH  18  21
ENDBRANCH  15  18
ENDBRANCH  12  15
ENDBRANCH   7  12
BRANCH   3  23
ATOM     23  N   LIG d   1       8.097  10.204  -1.399  0.00  0.00    -0.341 NA
ATOM     24  H   LIG d   1       8.015   9.706  -2.263  0.00  0.00     0.144 HD
ATOM     25  H   LIG d   1       8.039  11.137  -1.661  0.00  0.00     0.144 HD
ENDBRANCH   3  23
TORSDOF 5
ENDMDL
MODEL 8
REMARK VINA RESULT:      -4.1     11.425     13.841
REMARK  5 active torsions:
REMARK  status: ('A' for Active; 'I' for Inactive)
REMARK    1  A    between atoms: C_3  and  N_14 
REMARK    2  A    between atoms: N_7  and  C_10 
REMARK    3  A    between atoms: C_10  and  C_11 
REMARK    4  A    between atoms: C_11  and  C_12 
REMARK    5  A    between atoms: C_12  and  O_13 
ROOT
ATOM      1  C   LIG d   1       9.329   7.509  -1.507  0.00  0.00     0.120 A 
ATOM      2  N   LIG d   1       9.848   6.386  -1.045  0.00  0.00    -0.219 NA
ATOM      3  C   LIG d   1      10.695   6.389  -0.021  0.00  0.00     0.147 A 
ATOM      4  C   LIG d   1      11.030   7.621   0.566  0.00  0.00     0.147 A 
ATOM      5  C   LIG d   1      10.448   8.787   0.042  0.00  0.00     0.165 A 
ATOM      6  N   LIG d   1       9.615   8.685  -0.989  0.00  0.00    -0.216 NA
ATOM      7  N   LIG d   1      10.944   9.826   0.787  0.00  0.00    -0.315 N 
ATOM      8  C   LIG d   1      11.782   9.294   1.722  0.00  0.00     0.098 A 
ATOM      9  N   LIG d   1      11.831   8.001   1.590  0.00  0.00    -0.231 NA
ATOM     10  H   LIG d   1       8.645   7.461  -2.341  0.00  0.00     0.105 H 
ATOM     11  H   LIG d   1      12.325   9.863   2.462  0.00  0.00     0.103 H 
ENDROOT
BRANCH   7  12
ATOM     12  C   LIG d   1      10.628  11.246   0.613  0.00  0.00     0.028 C 
ATOM     13  H   LIG d   1      10.959  11.802   1.490  0.00  0.00     0.049 H 
ATOM     14  H   LIG d   1       9.551  11.365   0.491  0.00  0.00     0.049 H 
BRANCH  12  15
ATOM     15  C   LIG d   1      11.343  11.780  -0.630  0.00  0.00    -0.012 C 
ATOM     16  H   LIG d   1      11.820  10.954  -1.157  0.00  0.00     0.030 H 
ATOM     17  H   LIG d   1      12.099  12.504  -0.330  0.00  0.00     0.030 H 
BRANCH  15  18
ATOM     18  C   LIG d   1      10.326  12.456  -1.552  0.00  0.00     0.046 C 
ATOM     19  H   LIG d   1      10.018  13.407  -1.116  0.00  0.00     0.056 H 
ATOM     20  H   LIG d   1      10.780  12.632  -2.527  0.00  0.00     0.056 H 
BRANCH  18  21
ATOM     21  O   LIG d   1       9.185  11.609  -1.704  0.00  0.00    -0.395 OA
ATOM     22  H   LIG d   1       8.353  12.088  -1.825  0.00  0.00     0.209 HD
ENDBRANCH  18  21
ENDBRANCH  15  18
ENDBRANCH  12  15
ENDBRANCH   7  12
BRANCH   3  23
ATOM     23  N   LIG d   1      11.233   5.207   0.456  0.00  0.00    -0.341 NA
ATOM     24  H   LIG d   1      12.225   5.214   0.322  0.00  0.00     0.144 HD
ATOM     25  H   LIG d   1      10.953   4.358   0.078  0.00  0.00     0.144 HD
ENDBRANCH   3  23
TORSDOF 5
ENDMDL
MODEL 9
REMARK VINA RESULT:      -4.1     12.536     14.007
REMARK  5 active torsions:
REMARK  status: ('A' for Active; 'I' for Inactive)
REMARK    1  A    between atoms: C_3  and  N_14 
REMARK    2  A    between atoms: N_7  and  C_10 
REMARK    3  A    between atoms: C_10  and  C_11 
REMARK    4  A    between atoms: C_11  and  C_12 
REMARK    5  A    between atoms: C_12  and  O_13 
ROOT
ATOM      1  C   LIG d   1      10.516   9.734  -7.401  0.00  0.00     0.120 A 
ATOM      2  N   LIG d   1      10.068  10.855  -7.936  0.00  0.00    -0.219 NA
ATOM      3  C   LIG d   1       9.580  11.832  -7.179  0.00  0.00     0.147 A 
ATOM      4  C   LIG d   1       9.551  11.649  -5.786  0.00  0.00     0.147 A 
ATOM      5  C   LIG d   1      10.044  10.440  -5.266  0.00  0.00     0.165 A 
ATOM      6  N   LIG d   1      10.507   9.518  -6.103  0.00  0.00    -0.216 NA
ATOM      7  N   LIG d   1       9.893  10.525  -3.905  0.00  0.00    -0.315 N 
ATOM      8  C   LIG d   1       9.340  11.741  -3.630  0.00  0.00     0.098 A 
ATOM      9  N   LIG d   1       9.140  12.398  -4.735  0.00  0.00    -0.231 NA
ATOM     10  H   LIG d   1      10.904   8.965  -8.053  0.00  0.00     0.105 H 
ATOM     11  H   LIG d   1       9.103  12.104  -2.641  0.00  0.00     0.103 H 
ENDROOT
BRANCH   7  12
ATOM     12  C   LIG d   1      10.264   9.500  -2.926  0.00  0.00     0.028 C 
ATOM     13  H   LIG d   1      11.342   9.522  -2.767  0.00  0.00     0.049 H 
ATOM     14  H   LIG d   1       9.971   8.518  -3.299  0.00  0.00     0.049 H 
BRANCH  12  15
ATOM     15  C   LIG d   1       9.547   9.776  -1.602  0.00  0.00    -0.012 C 
ATOM     16  H   LIG d   1       8.618  10.310  -1.797  0.00  0.00     0.030 H 
ATOM     17  H   LIG d   1      10.187  10.382  -0.962  0.00  0.00     0.030 H 
BRANCH  15  18
ATOM     18  C   LIG d   1       9.238   8.450  -0.904  0.00  0.00     0.046 C 
ATOM     19  H   LIG d   1       9.771   7.642  -1.406  0.00  0.00     0.056 H 
ATOM     20  H   LIG d   1       9.556   8.504   0.137  0.00  0.00     0.056 H 
BRANCH  18  21
ATOM     21  O   LIG d   1       7.832   8.199  -0.961  0.00  0.00    -0.395 OA
ATOM     22  H   LIG d   1       7.403   8.543  -1.756  0.00  0.00     0.209 HD
ENDBRANCH  18  21
ENDBRANCH  15  18
ENDBRANCH  12  15
ENDBRANCH   7  12
BRANCH   3  23
ATOM     23  N   LIG d   1       9.113  13.003  -7.749  0.00  0.00    -0.341 NA
ATOM     24  H   LIG d   1       9.869  13.480  -8.198  0.00  0.00     0.144 HD
ATOM     25  H   LIG d   1       8.705  13.685  -7.192  0.00  0.00     0.144 HD
ENDBRANCH   3  23
TORSDOF 5
ENDMDL
MODEL 10
REMARK VINA RESULT:      -4.1      3.231      4.240
REMARK  5 active torsions:
REMARK  status: ('A' for Active; 'I' for Inactive)
REMARK    1  A    between atoms: C_3  and  N_14 
REMARK    2  A    between atoms: N_7  and  C_10 
REMARK    3  A    between atoms: C_10  and  C_11 
REMARK    4  A    between atoms: C_11  and  C_12 
REMARK    5  A    between atoms: C_12  and  O_13 
ROOT
ATOM      1  C   LIG d   1       5.892  -2.180  -4.758  0.00  0.00     0.120 A 
ATOM      2  N   LIG d   1       5.652  -1.972  -3.476  0.00  0.00    -0.219 NA
ATOM      3  C   LIG d   1       4.663  -1.179  -3.080  0.00  0.00     0.147 A 
ATOM      4  C   LIG d   1       3.868  -0.560  -4.061  0.00  0.00     0.147 A 
ATOM      5  C   LIG d   1       4.161  -0.817  -5.411  0.00  0.00     0.165 A 
ATOM      6  N   LIG d   1       5.175  -1.621  -5.710  0.00  0.00    -0.216 NA
ATOM      7  N   LIG d   1       3.250  -0.094  -6.139  0.00  0.00    -0.315 N 
ATOM      8  C   LIG d   1       2.445   0.559  -5.253  0.00  0.00     0.098 A 
ATOM      9  N   LIG d   1       2.809   0.284  -4.035  0.00  0.00    -0.231 NA
ATOM     10  H   LIG d   1       6.706  -2.832  -5.036  0.00  0.00     0.105 H 
ATOM     11  H   LIG d   1       1.624   1.207  -5.524  0.00  0.00     0.103 H 
ENDROOT
BRANCH   7  12
ATOM     12  C   LIG d   1       3.156  -0.038  -7.600  0.00  0.00     0.028 C 
ATOM     13  H   LIG d   1       2.286  -0.606  -7.930  0.00  0.00     0.049 H 
ATOM     14  H   LIG d   1       4.058  -0.467  -8.038  0.00  0.00     0.049 H 
BRANCH  12  15
ATOM     15  C   LIG d   1       3.015   1.418  -8.047  0.00  0.00    -0.012 C 
ATOM     16  H   LIG d   1       3.059   2.072  -7.176  0.00  0.00     0.030 H 
ATOM     17  H   LIG d   1       2.059   1.552  -8.553  0.00  0.00     0.030 H 
BRANCH  15  18
ATOM     18  C   LIG d   1       4.153   1.769  -9.007  0.00  0.00     0.046 C 
ATOM     19  H   LIG d   1       4.839   2.462  -8.520  0.00  0.00     0.056 H 
ATOM     20  H   LIG d   1       4.689   0.861  -9.283  0.00  0.00     0.056 H 
BRANCH  18  21
ATOM     21  O   LIG d   1       3.615   2.380 -10.182  0.00  0.00    -0.395 OA
ATOM     22  H   LIG d   1       4.103   3.160 -10.479  0.00  0.00     0.209 HD
ENDBRANCH  18  21
ENDBRANCH  15  18
ENDBRANCH  12  15
ENDBRANCH   7  12
BRANCH   3  23
ATOM     23  N   LIG d   1       4.419  -0.968  -1.735  0.00  0.00    -0.341 NA
ATOM     24  H   LIG d   1       5.117  -0.356  -1.362  0.00  0.00     0.144 HD
ATOM     25  H   LIG d   1       4.413  -1.718  -1.119  0.00  0.00     0.144 HD
ENDBRANCH   3  23
TORSDOF 5
ENDMDL
