MODEL 1
REMARK VINA RESULT:      -6.3      0.000      0.000
REMARK  10 active torsions:
REMARK  status: ('A' for Active; 'I' for Inactive)
REMARK    1  A    between atoms: C_1  and  C_2 
REMARK    2  A    between atoms: C_2  and  C_3 
REMARK    3  A    between atoms: C_3  and  O_4 
REMARK    4  A    between atoms: O_4  and  C_5 
REMARK    5  A    between atoms: C_8  and  C_13 
REMARK    6  A    between atoms: C_10  and  O_11 
REMARK    7  A    between atoms: O_11  and  C_12 
REMARK    8  A    between atoms: C_26  and  C_29 
REMARK    9  A    between atoms: C_29  and  O_31 
REMARK   10  A    between atoms: O_31  and  C_32 
ROOT
ATOM      1  C   LIG d   1       4.944  -2.121  -5.626  0.00  0.00     0.075 C 
ATOM      2  H   LIG d   1       5.936  -1.908  -5.227  0.00  0.00     0.058 H 
ATOM      3  C   LIG d   1       4.673  -1.229  -6.814  0.00  0.00     0.042 A 
ATOM      4  C   LIG d   1       3.873  -0.139  -6.750  0.00  0.00    -0.015 A 
ATOM      5  C   LIG d   1       3.852   0.453  -8.068  0.00  0.00     0.003 A 
ATOM      6  C   LIG d   1       3.209   1.577  -8.597  0.00  0.00    -0.052 A 
ATOM      7  C   LIG d   1       3.422   1.848  -9.926  0.00  0.00    -0.061 A 
ATOM      8  C   LIG d   1       4.233   1.052 -10.718  0.00  0.00    -0.060 A 
ATOM      9  C   LIG d   1       4.882  -0.066 -10.223  0.00  0.00    -0.038 A 
ATOM     10  C   LIG d   1       4.685  -0.365  -8.876  0.00  0.00     0.047 A 
ATOM     11  N   LIG d   1       5.163  -1.369  -8.083  0.00  0.00    -0.356 N 
ATOM     12  H   LIG d   1       5.761  -2.075  -8.376  0.00  0.00     0.166 HD
ATOM     13  C   LIG d   1       3.172   0.305  -5.490  0.00  0.00     0.001 C 
ATOM     14  C   LIG d   1       3.827  -0.416  -4.303  0.00  0.00     0.111 C 
ATOM     15  H   LIG d   1       4.823  -0.009  -4.137  0.00  0.00     0.058 H 
ATOM     16  N   LIG d   1       3.928  -1.854  -4.594  0.00  0.00    -0.292 N 
ATOM     17  H   LIG d   1       2.574   2.202  -7.987  0.00  0.00     0.062 H 
ATOM     18  H   LIG d   1       2.940   2.707 -10.368  0.00  0.00     0.062 H 
ATOM     19  H   LIG d   1       4.363   1.312 -11.758  0.00  0.00     0.062 H 
ATOM     20  H   LIG d   1       5.512  -0.677 -10.850  0.00  0.00     0.064 H 
ATOM     21  H   LIG d   1       3.279   1.383  -5.372  0.00  0.00     0.033 H 
ATOM     22  H   LIG d   1       2.116   0.041  -5.544  0.00  0.00     0.033 H 
ATOM     23  H   LIG d   1       3.032  -2.231  -4.863  0.00  0.00     0.124 HD
ENDROOT
BRANCH   1  24
ATOM     24  C   LIG d   1       4.868  -3.566  -6.049  0.00  0.00    -0.021 A 
ATOM     25  C   LIG d   1       5.713  -4.498  -5.474  0.00  0.00    -0.053 A 
ATOM     26  C   LIG d   1       5.645  -5.824  -5.858  0.00  0.00    -0.016 A 
ATOM     27  H   LIG d   1       6.425  -4.189  -4.723  0.00  0.00     0.062 H 
ATOM     28  C   LIG d   1       4.732  -6.222  -6.820  0.00  0.00     0.162 A 
ATOM     29  H   LIG d   1       6.305  -6.550  -5.407  0.00  0.00     0.066 H 
ATOM     30  C   LIG d   1       3.885  -5.283  -7.403  0.00  0.00     0.162 A 
ATOM     31  C   LIG d   1       3.953  -3.956  -7.009  0.00  0.00    -0.011 A 
ATOM     32  H   LIG d   1       3.294  -3.226  -7.456  0.00  0.00     0.066 H 
BRANCH  28  33
ATOM     33  O   LIG d   1       4.665  -7.526  -7.200  0.00  0.00    -0.488 OA
BRANCH  33  34
ATOM     34  C   LIG d   1       5.545  -8.438  -6.541  0.00  0.00     0.089 C 
ATOM     35  H   LIG d   1       6.107  -7.909  -5.771  0.00  0.00     0.070 H 
ATOM     36  H   LIG d   1       6.237  -8.865  -7.267  0.00  0.00     0.070 H 
BRANCH  34  37
ATOM     37  C   LIG d   1       4.727  -9.559  -5.895  0.00  0.00    -0.021 C 
ATOM     38  H   LIG d   1       5.203 -10.518  -6.097  0.00  0.00     0.029 H 
ATOM     39  H   LIG d   1       3.719  -9.559  -6.311  0.00  0.00     0.029 H 
BRANCH  37  40
ATOM     40  C   LIG d   1       4.656  -9.334  -4.384  0.00  0.00    -0.062 C 
ATOM     41  H   LIG d   1       5.085  -8.361  -4.141  0.00  0.00     0.023 H 
ATOM     42  H   LIG d   1       3.616  -9.364  -4.060  0.00  0.00     0.023 H 
ATOM     43  H   LIG d   1       5.219 -10.116  -3.874  0.00  0.00     0.023 H 
ENDBRANCH  37  40
ENDBRANCH  34  37
ENDBRANCH  33  34
ENDBRANCH  28  33
BRANCH  30  44
ATOM     44  O   LIG d   1       2.990  -5.666  -8.352  0.00  0.00    -0.491 OA
BRANCH  44  45
ATOM     45  C   LIG d   1       3.005  -4.948  -9.587  0.00  0.00     0.079 C 
ATOM     46  H   LIG d   1       2.304  -4.115  -9.531  0.00  0.00     0.066 H 
ATOM     47  H   LIG d   1       4.009  -4.566  -9.773  0.00  0.00     0.066 H 
ATOM     48  H   LIG d   1       2.714  -5.614 -10.398  0.00  0.00     0.066 H 
ENDBRANCH  44  45
ENDBRANCH  30  44
ENDBRANCH   1  24
BRANCH  14  49
ATOM     49  C   LIG d   1       2.987  -0.213  -3.069  0.00  0.00     0.324 C 
ATOM     50  O   LIG d   1       2.058  -0.951  -2.841  0.00  0.00    -0.249 OA
BRANCH  49  51
ATOM     51  O   LIG d   1       3.272   0.788  -2.221  0.00  0.00    -0.467 OA
BRANCH  51  52
ATOM     52  C   LIG d   1       4.619   0.876  -1.749  0.00  0.00     0.082 C 
ATOM     53  H   LIG d   1       4.615   1.048  -0.673  0.00  0.00     0.066 H 
ATOM     54  H   LIG d   1       5.141  -0.057  -1.966  0.00  0.00     0.066 H 
ATOM     55  H   LIG d   1       5.126   1.702  -2.248  0.00  0.00     0.066 H 
ENDBRANCH  51  52
ENDBRANCH  49  51
ENDBRANCH  14  49
TORSDOF 10
ENDMDL
MODEL 2
REMARK VINA RESULT:      -6.2      4.981      8.799
REMARK  10 active torsions:
REMARK  status: ('A' for Active; 'I' for Inactive)
REMARK    1  A    between atoms: C_1  and  C_2 
REMARK    2  A    between atoms: C_2  and  C_3 
REMARK    3  A    between atoms: C_3  and  O_4 
REMARK    4  A    between atoms: O_4  and  C_5 
REMARK    5  A    between atoms: C_8  and  C_13 
REMARK    6  A    between atoms: C_10  and  O_11 
REMARK    7  A    between atoms: O_11  and  C_12 
REMARK    8  A    between atoms: C_26  and  C_29 
REMARK    9  A    between atoms: C_29  and  O_31 
REMARK   10  A    between atoms: O_31  and  C_32 
ROOT
ATOM      1  C   LIG d   1       8.953   0.198  -5.381  0.00  0.00     0.075 C 
ATOM      2  H   LIG d   1       9.807   0.505  -4.777  0.00  0.00     0.058 H 
ATOM      3  C   LIG d   1       7.716   0.144  -4.517  0.00  0.00     0.042 A 
ATOM      4  C   LIG d   1       7.185  -1.015  -4.062  0.00  0.00    -0.015 A 
ATOM      5  C   LIG d   1       6.018  -0.672  -3.281  0.00  0.00     0.003 A 
ATOM      6  C   LIG d   1       5.084  -1.440  -2.577  0.00  0.00    -0.052 A 
ATOM      7  C   LIG d   1       4.079  -0.761  -1.933  0.00  0.00    -0.061 A 
ATOM      8  C   LIG d   1       3.983   0.620  -1.971  0.00  0.00    -0.060 A 
ATOM      9  C   LIG d   1       4.892   1.406  -2.659  0.00  0.00    -0.038 A 
ATOM     10  C   LIG d   1       5.924   0.744  -3.322  0.00  0.00     0.047 A 
ATOM     11  N   LIG d   1       6.967   1.200  -4.076  0.00  0.00    -0.356 N 
ATOM     12  H   LIG d   1       7.149   2.133  -4.270  0.00  0.00     0.166 HD
ATOM     13  C   LIG d   1       7.769  -2.372  -4.363  0.00  0.00     0.001 C 
ATOM     14  C   LIG d   1       9.198  -2.168  -4.885  0.00  0.00     0.111 C 
ATOM     15  H   LIG d   1       9.841  -1.846  -4.067  0.00  0.00     0.058 H 
ATOM     16  N   LIG d   1       9.198  -1.143  -5.939  0.00  0.00    -0.292 N 
ATOM     17  H   LIG d   1       5.150  -2.517  -2.543  0.00  0.00     0.062 H 
ATOM     18  H   LIG d   1       3.340  -1.321  -1.381  0.00  0.00     0.062 H 
ATOM     19  H   LIG d   1       3.171   1.101  -1.447  0.00  0.00     0.062 H 
ATOM     20  H   LIG d   1       4.807   2.481  -2.680  0.00  0.00     0.064 H 
ATOM     21  H   LIG d   1       7.791  -2.972  -3.453  0.00  0.00     0.033 H 
ATOM     22  H   LIG d   1       7.168  -2.873  -5.122  0.00  0.00     0.033 H 
ATOM     23  H   LIG d   1       8.524  -1.364  -6.656  0.00  0.00     0.124 HD
ENDROOT
BRANCH   1  24
ATOM     24  C   LIG d   1       8.745   1.183  -6.503  0.00  0.00    -0.021 A 
ATOM     25  C   LIG d   1       9.506   2.336  -6.558  0.00  0.00    -0.053 A 
ATOM     26  C   LIG d   1       9.320   3.241  -7.586  0.00  0.00    -0.016 A 
ATOM     27  H   LIG d   1      10.248   2.529  -5.798  0.00  0.00     0.062 H 
ATOM     28  C   LIG d   1       8.369   2.994  -8.563  0.00  0.00     0.162 A 
ATOM     29  H   LIG d   1       9.916   4.140  -7.627  0.00  0.00     0.066 H 
ATOM     30  C   LIG d   1       7.599   1.836  -8.505  0.00  0.00     0.162 A 
ATOM     31  C   LIG d   1       7.795   0.930  -7.475  0.00  0.00    -0.011 A 
ATOM     32  H   LIG d   1       7.203   0.028  -7.430  0.00  0.00     0.066 H 
BRANCH  28  33
ATOM     33  O   LIG d   1       8.183   3.885  -9.574  0.00  0.00    -0.488 OA
BRANCH  33  34
ATOM     34  C   LIG d   1       9.253   4.794  -9.841  0.00  0.00     0.089 C 
ATOM     35  H   LIG d   1       9.746   4.511 -10.771  0.00  0.00     0.070 H 
ATOM     36  H   LIG d   1       9.972   4.761  -9.023  0.00  0.00     0.070 H 
BRANCH  34  37
ATOM     37  C   LIG d   1       8.695   6.213  -9.971  0.00  0.00    -0.021 C 
ATOM     38  H   LIG d   1       7.606   6.176  -9.975  0.00  0.00     0.029 H 
ATOM     39  H   LIG d   1       9.046   6.658 -10.902  0.00  0.00     0.029 H 
BRANCH  37  40
ATOM     40  C   LIG d   1       9.171   7.060  -8.789  0.00  0.00    -0.062 C 
ATOM     41  H   LIG d   1      10.254   7.180  -8.842  0.00  0.00     0.023 H 
ATOM     42  H   LIG d   1       8.695   8.039  -8.827  0.00  0.00     0.023 H 
ATOM     43  H   LIG d   1       8.906   6.562  -7.856  0.00  0.00     0.023 H 
ENDBRANCH  37  40
ENDBRANCH  34  37
ENDBRANCH  33  34
ENDBRANCH  28  33
BRANCH  30  44
ATOM     44  O   LIG d   1       6.661   1.592  -9.457  0.00  0.00    -0.491 OA
BRANCH  44  45
ATOM     45  C   LIG d   1       5.301   1.870  -9.116  0.00  0.00     0.079 C 
ATOM     46  H   LIG d   1       4.801   0.943  -8.836  0.00  0.00     0.066 H 
ATOM     47  H   LIG d   1       5.272   2.567  -8.279  0.00  0.00     0.066 H 
ATOM     48  H   LIG d   1       4.794   2.311  -9.974  0.00  0.00     0.066 H 
ENDBRANCH  44  45
ENDBRANCH  30  44
ENDBRANCH   1  24
BRANCH  14  49
ATOM     49  C   LIG d   1       9.716  -3.466  -5.450  0.00  0.00     0.324 C 
ATOM     50  O   LIG d   1       9.683  -3.663  -6.642  0.00  0.00    -0.249 OA
BRANCH  49  51
ATOM     51  O   LIG d   1      10.215  -4.403  -4.629  0.00  0.00    -0.467 OA
BRANCH  51  52
ATOM     52  C   LIG d   1      11.074  -3.955  -3.578  0.00  0.00     0.082 C 
ATOM     53  H   LIG d   1      10.956  -2.880  -3.446  0.00  0.00     0.066 H 
ATOM     54  H   LIG d   1      10.811  -4.465  -2.651  0.00  0.00     0.066 H 
ATOM     55  H   LIG d   1      12.109  -4.178  -3.835  0.00  0.00     0.066 H 
ENDBRANCH  51  52
ENDBRANCH  49  51
ENDBRANCH  14  49
TORSDOF 10
ENDMDL
MODEL 3
REMARK VINA RESULT:      -6.2      7.030      8.601
REMARK  10 active torsions:
REMARK  status: ('A' for Active; 'I' for Inactive)
REMARK    1  A    between atoms: C_1  and  C_2 
REMARK    2  A    between atoms: C_2  and  C_3 
REMARK    3  A    between atoms: C_3  and  O_4 
REMARK    4  A    between atoms: O_4  and  C_5 
REMARK    5  A    between atoms: C_8  and  C_13 
REMARK    6  A    between atoms: C_10  and  O_11 
REMARK    7  A    between atoms: O_11  and  C_12 
REMARK    8  A    between atoms: C_26  and  C_29 
REMARK    9  A    between atoms: C_29  and  O_31 
REMARK   10  A    between atoms: O_31  and  C_32 
ROOT
ATOM      1  C   LIG d   1      10.512   3.893  -4.066  0.00  0.00     0.075 C 
ATOM      2  H   LIG d   1      11.588   3.720  -4.060  0.00  0.00     0.058 H 
ATOM      3  C   LIG d   1      10.172   4.943  -5.097  0.00  0.00     0.042 A 
ATOM      4  C   LIG d   1       9.880   6.225  -4.776  0.00  0.00    -0.015 A 
ATOM      5  C   LIG d   1       9.608   6.923  -6.011  0.00  0.00     0.003 A 
ATOM      6  C   LIG d   1       9.257   8.246  -6.300  0.00  0.00    -0.052 A 
ATOM      7  C   LIG d   1       9.072   8.567  -7.622  0.00  0.00    -0.061 A 
ATOM      8  C   LIG d   1       9.224   7.633  -8.634  0.00  0.00    -0.060 A 
ATOM      9  C   LIG d   1       9.572   6.318  -8.379  0.00  0.00    -0.038 A 
ATOM     10  C   LIG d   1       9.766   5.963  -7.045  0.00  0.00     0.047 A 
ATOM     11  N   LIG d   1      10.108   4.781  -6.454  0.00  0.00    -0.356 N 
ATOM     12  H   LIG d   1      10.279   3.950  -6.925  0.00  0.00     0.166 HD
ATOM     13  C   LIG d   1       9.864   6.744  -3.360  0.00  0.00     0.001 C 
ATOM     14  C   LIG d   1      10.596   5.726  -2.473  0.00  0.00     0.111 C 
ATOM     15  H   LIG d   1      11.663   5.757  -2.690  0.00  0.00     0.058 H 
ATOM     16  N   LIG d   1      10.081   4.375  -2.743  0.00  0.00    -0.292 N 
ATOM     17  H   LIG d   1       9.136   8.981  -5.518  0.00  0.00     0.062 H 
ATOM     18  H   LIG d   1       8.800   9.579  -7.881  0.00  0.00     0.062 H 
ATOM     19  H   LIG d   1       9.065   7.941  -9.656  0.00  0.00     0.062 H 
ATOM     20  H   LIG d   1       9.687   5.599  -9.176  0.00  0.00     0.064 H 
ATOM     21  H   LIG d   1      10.375   7.706  -3.316  0.00  0.00     0.033 H 
ATOM     22  H   LIG d   1       8.835   6.855  -3.020  0.00  0.00     0.033 H 
ATOM     23  H   LIG d   1       9.077   4.350  -2.659  0.00  0.00     0.124 HD
ENDROOT
BRANCH   1  24
ATOM     24  C   LIG d   1       9.794   2.609  -4.395  0.00  0.00    -0.021 A 
ATOM     25  C   LIG d   1      10.505   1.524  -4.871  0.00  0.00    -0.053 A 
ATOM     26  C   LIG d   1       9.852   0.344  -5.172  0.00  0.00    -0.016 A 
ATOM     27  H   LIG d   1      11.574   1.598  -5.007  0.00  0.00     0.062 H 
ATOM     28  C   LIG d   1       8.481   0.247  -4.998  0.00  0.00     0.162 A 
ATOM     29  H   LIG d   1      10.409  -0.502  -5.544  0.00  0.00     0.066 H 
ATOM     30  C   LIG d   1       7.763   1.342  -4.524  0.00  0.00     0.162 A 
ATOM     31  C   LIG d   1       8.425   2.519  -4.217  0.00  0.00    -0.011 A 
ATOM     32  H   LIG d   1       7.872   3.369  -3.844  0.00  0.00     0.066 H 
BRANCH  28  33
ATOM     33  O   LIG d   1       7.835  -0.912  -5.296  0.00  0.00    -0.488 OA
BRANCH  33  34
ATOM     34  C   LIG d   1       8.245  -2.083  -4.585  0.00  0.00     0.089 C 
ATOM     35  H   LIG d   1       9.230  -1.916  -4.148  0.00  0.00     0.070 H 
ATOM     36  H   LIG d   1       8.289  -2.928  -5.271  0.00  0.00     0.070 H 
BRANCH  34  37
ATOM     37  C   LIG d   1       7.237  -2.382  -3.472  0.00  0.00    -0.021 C 
ATOM     38  H   LIG d   1       7.233  -1.561  -2.757  0.00  0.00     0.029 H 
ATOM     39  H   LIG d   1       7.520  -3.304  -2.964  0.00  0.00     0.029 H 
BRANCH  37  40
ATOM     40  C   LIG d   1       5.841  -2.540  -4.077  0.00  0.00    -0.062 C 
ATOM     41  H   LIG d   1       5.572  -3.596  -4.099  0.00  0.00     0.023 H 
ATOM     42  H   LIG d   1       5.118  -1.993  -3.471  0.00  0.00     0.023 H 
ATOM     43  H   LIG d   1       5.838  -2.143  -5.092  0.00  0.00     0.023 H 
ENDBRANCH  37  40
ENDBRANCH  34  37
ENDBRANCH  33  34
ENDBRANCH  28  33
BRANCH  30  44
ATOM     44  O   LIG d   1       6.417   1.254  -4.356  0.00  0.00    -0.491 OA
BRANCH  44  45
ATOM     45  C   LIG d   1       5.940   1.063  -3.022  0.00  0.00     0.079 C 
ATOM     46  H   LIG d   1       5.087   0.385  -3.035  0.00  0.00     0.066 H 
ATOM     47  H   LIG d   1       6.735   0.637  -2.410  0.00  0.00     0.066 H 
ATOM     48  H   LIG d   1       5.635   2.023  -2.605  0.00  0.00     0.066 H 
ENDBRANCH  44  45
ENDBRANCH  30  44
ENDBRANCH   1  24
BRANCH  14  49
ATOM     49  C   LIG d   1      10.368   6.068  -1.024  0.00  0.00     0.324 C 
ATOM     50  O   LIG d   1       9.552   6.908  -0.721  0.00  0.00    -0.249 OA
BRANCH  49  51
ATOM     51  O   LIG d   1      11.069   5.440  -0.068  0.00  0.00    -0.467 OA
BRANCH  51  52
ATOM     52  C   LIG d   1      11.070   6.032   1.233  0.00  0.00     0.082 C 
ATOM     53  H   LIG d   1      10.471   6.942   1.217  0.00  0.00     0.066 H 
ATOM     54  H   LIG d   1      10.645   5.330   1.952  0.00  0.00     0.066 H 
ATOM     55  H   LIG d   1      12.092   6.275   1.522  0.00  0.00     0.066 H 
ENDBRANCH  51  52
ENDBRANCH  49  51
ENDBRANCH  14  49
TORSDOF 10
ENDMDL
MODEL 4
REMARK VINA RESULT:      -6.1      7.124      8.707
REMARK  10 active torsions:
REMARK  status: ('A' for Active; 'I' for Inactive)
REMARK    1  A    between atoms: C_1  and  C_2 
REMARK    2  A    between atoms: C_2  and  C_3 
REMARK    3  A    between atoms: C_3  and  O_4 
REMARK    4  A    between atoms: O_4  and  C_5 
REMARK    5  A    between atoms: C_8  and  C_13 
REMARK    6  A    between atoms: C_10  and  O_11 
REMARK    7  A    between atoms: O_11  and  C_12 
REMARK    8  A    between atoms: C_26  and  C_29 
REMARK    9  A    between atoms: C_29  and  O_31 
REMARK   10  A    between atoms: O_31  and  C_32 
ROOT
ATOM      1  C   LIG d   1      10.356   3.848  -3.892  0.00  0.00     0.075 C 
ATOM      2  H   LIG d   1      11.422   3.617  -3.882  0.00  0.00     0.058 H 
ATOM      3  C   LIG d   1      10.070   4.869  -4.968  0.00  0.00     0.042 A 
ATOM      4  C   LIG d   1       9.850   6.177  -4.703  0.00  0.00    -0.015 A 
ATOM      5  C   LIG d   1       9.610   6.835  -5.968  0.00  0.00     0.003 A 
ATOM      6  C   LIG d   1       9.330   8.161  -6.313  0.00  0.00    -0.052 A 
ATOM      7  C   LIG d   1       9.156   8.433  -7.648  0.00  0.00    -0.061 A 
ATOM      8  C   LIG d   1       9.251   7.448  -8.618  0.00  0.00    -0.060 A 
ATOM      9  C   LIG d   1       9.527   6.128  -8.306  0.00  0.00    -0.038 A 
ATOM     10  C   LIG d   1       9.709   5.823  -6.958  0.00  0.00     0.047 A 
ATOM     11  N   LIG d   1       9.989   4.650  -6.316  0.00  0.00    -0.356 N 
ATOM     12  H   LIG d   1      10.112   3.792  -6.751  0.00  0.00     0.166 HD
ATOM     13  C   LIG d   1       9.870   6.759  -3.311  0.00  0.00     0.001 C 
ATOM     14  C   LIG d   1      10.550   5.743  -2.383  0.00  0.00     0.111 C 
ATOM     15  H   LIG d   1      11.615   5.705  -2.604  0.00  0.00     0.058 H 
ATOM     16  N   LIG d   1       9.960   4.412  -2.591  0.00  0.00    -0.292 N 
ATOM     17  H   LIG d   1       9.253   8.935  -5.565  0.00  0.00     0.062 H 
ATOM     18  H   LIG d   1       8.938   9.446  -7.951  0.00  0.00     0.062 H 
ATOM     19  H   LIG d   1       9.104   7.719  -9.653  0.00  0.00     0.062 H 
ATOM     20  H   LIG d   1       9.599   5.370  -9.071  0.00  0.00     0.064 H 
ATOM     21  H   LIG d   1      10.433   7.692  -3.312  0.00  0.00     0.033 H 
ATOM     22  H   LIG d   1       8.849   6.942  -2.974  0.00  0.00     0.033 H 
ATOM     23  H   LIG d   1       8.956   4.445  -2.503  0.00  0.00     0.124 HD
ENDROOT
BRANCH   1  24
ATOM     24  C   LIG d   1       9.567   2.593  -4.162  0.00  0.00    -0.021 A 
ATOM     25  C   LIG d   1       8.227   2.535  -3.827  0.00  0.00    -0.053 A 
ATOM     26  C   LIG d   1       7.500   1.387  -4.074  0.00  0.00    -0.016 A 
ATOM     27  H   LIG d   1       7.748   3.390  -3.374  0.00  0.00     0.062 H 
ATOM     28  C   LIG d   1       8.113   0.289  -4.656  0.00  0.00     0.162 A 
ATOM     29  H   LIG d   1       6.453   1.344  -3.813  0.00  0.00     0.066 H 
ATOM     30  C   LIG d   1       9.464   0.344  -4.988  0.00  0.00     0.162 A 
ATOM     31  C   LIG d   1      10.186   1.501  -4.744  0.00  0.00    -0.011 A 
ATOM     32  H   LIG d   1      11.233   1.549  -5.005  0.00  0.00     0.066 H 
BRANCH  28  33
ATOM     33  O   LIG d   1       7.399  -0.843  -4.898  0.00  0.00    -0.488 OA
BRANCH  33  34
ATOM     34  C   LIG d   1       6.061  -0.884  -4.399  0.00  0.00     0.089 C 
ATOM     35  H   LIG d   1       5.390  -1.234  -5.184  0.00  0.00     0.070 H 
ATOM     36  H   LIG d   1       5.760   0.114  -4.082  0.00  0.00     0.070 H 
BRANCH  34  37
ATOM     37  C   LIG d   1       5.990  -1.840  -3.206  0.00  0.00    -0.021 C 
ATOM     38  H   LIG d   1       6.853  -1.679  -2.560  0.00  0.00     0.029 H 
ATOM     39  H   LIG d   1       5.993  -2.870  -3.564  0.00  0.00     0.029 H 
BRANCH  37  40
ATOM     40  C   LIG d   1       4.706  -1.577  -2.416  0.00  0.00    -0.062 C 
ATOM     41  H   LIG d   1       4.686  -0.537  -2.092  0.00  0.00     0.023 H 
ATOM     42  H   LIG d   1       3.842  -1.778  -3.050  0.00  0.00     0.023 H 
ATOM     43  H   LIG d   1       4.677  -2.230  -1.544  0.00  0.00     0.023 H 
ENDBRANCH  37  40
ENDBRANCH  34  37
ENDBRANCH  33  34
ENDBRANCH  28  33
BRANCH  30  44
ATOM     44  O   LIG d   1      10.072  -0.731  -5.554  0.00  0.00    -0.491 OA
BRANCH  44  45
ATOM     45  C   LIG d   1      11.399  -1.031  -5.117  0.00  0.00     0.079 C 
ATOM     46  H   LIG d   1      12.040  -1.188  -5.985  0.00  0.00     0.066 H 
ATOM     47  H   LIG d   1      11.784  -0.200  -4.526  0.00  0.00     0.066 H 
ATOM     48  H   LIG d   1      11.385  -1.935  -4.508  0.00  0.00     0.066 H 
ENDBRANCH  44  45
ENDBRANCH  30  44
ENDBRANCH   1  24
BRANCH  14  49
ATOM     49  C   LIG d   1      10.348   6.161  -0.949  0.00  0.00     0.324 C 
ATOM     50  O   LIG d   1       9.590   7.064  -0.683  0.00  0.00    -0.249 OA
BRANCH  49  51
ATOM     51  O   LIG d   1      11.010   5.529   0.033  0.00  0.00    -0.467 OA
BRANCH  51  52
ATOM     52  C   LIG d   1      11.103   6.202   1.290  0.00  0.00     0.082 C 
ATOM     53  H   LIG d   1      12.152   6.335   1.554  0.00  0.00     0.066 H 
ATOM     54  H   LIG d   1      10.621   7.177   1.217  0.00  0.00     0.066 H 
ATOM     55  H   LIG d   1      10.608   5.608   2.058  0.00  0.00     0.066 H 
ENDBRANCH  51  52
ENDBRANCH  49  51
ENDBRANCH  14  49
TORSDOF 10
ENDMDL
MODEL 5
REMARK VINA RESULT:      -6.1      5.135      6.699
REMARK  10 active torsions:
REMARK  status: ('A' for Active; 'I' for Inactive)
REMARK    1  A    between atoms: C_1  and  C_2 
REMARK    2  A    between atoms: C_2  and  C_3 
REMARK    3  A    between atoms: C_3  and  O_4 
REMARK    4  A    between atoms: O_4  and  C_5 
REMARK    5  A    between atoms: C_8  and  C_13 
REMARK    6  A    between atoms: C_10  and  O_11 
REMARK    7  A    between atoms: O_11  and  C_12 
REMARK    8  A    between atoms: C_26  and  C_29 
REMARK    9  A    between atoms: C_29  and  O_31 
REMARK   10  A    between atoms: O_31  and  C_32 
ROOT
ATOM      1  C   LIG d   1       8.596  -2.585  -4.778  0.00  0.00     0.075 C 
ATOM      2  H   LIG d   1       8.346  -2.827  -5.811  0.00  0.00     0.058 H 
ATOM      3  C   LIG d   1       7.422  -1.899  -4.120  0.00  0.00     0.042 A 
ATOM      4  C   LIG d   1       7.374  -0.564  -3.905  0.00  0.00    -0.015 A 
ATOM      5  C   LIG d   1       6.113  -0.281  -3.259  0.00  0.00     0.003 A 
ATOM      6  C   LIG d   1       5.520   0.902  -2.805  0.00  0.00    -0.052 A 
ATOM      7  C   LIG d   1       4.280   0.794  -2.226  0.00  0.00    -0.061 A 
ATOM      8  C   LIG d   1       3.634  -0.424  -2.092  0.00  0.00    -0.060 A 
ATOM      9  C   LIG d   1       4.195  -1.610  -2.534  0.00  0.00    -0.038 A 
ATOM     10  C   LIG d   1       5.454  -1.531  -3.126  0.00  0.00     0.047 A 
ATOM     11  N   LIG d   1       6.275  -2.483  -3.658  0.00  0.00    -0.356 N 
ATOM     12  H   LIG d   1       6.075  -3.432  -3.702  0.00  0.00     0.166 HD
ATOM     13  C   LIG d   1       8.481   0.382  -4.299  0.00  0.00     0.001 C 
ATOM     14  C   LIG d   1       9.400  -0.349  -5.287  0.00  0.00     0.111 C 
ATOM     15  H   LIG d   1       8.886  -0.471  -6.240  0.00  0.00     0.058 H 
ATOM     16  N   LIG d   1       9.751  -1.673  -4.750  0.00  0.00    -0.292 N 
ATOM     17  H   LIG d   1       6.017   1.856  -2.903  0.00  0.00     0.062 H 
ATOM     18  H   LIG d   1       3.793   1.687  -1.863  0.00  0.00     0.062 H 
ATOM     19  H   LIG d   1       2.659  -0.449  -1.628  0.00  0.00     0.062 H 
ATOM     20  H   LIG d   1       3.680  -2.553  -2.425  0.00  0.00     0.064 H 
ATOM     21  H   LIG d   1       8.056   1.266  -4.775  0.00  0.00     0.033 H 
ATOM     22  H   LIG d   1       9.048   0.674  -3.415  0.00  0.00     0.033 H 
ATOM     23  H   LIG d   1      10.127  -1.594  -3.817  0.00  0.00     0.124 HD
ENDROOT
BRANCH   1  24
ATOM     24  C   LIG d   1       8.931  -3.849  -4.028  0.00  0.00    -0.021 A 
ATOM     25  C   LIG d   1       9.432  -3.774  -2.742  0.00  0.00    -0.053 A 
ATOM     26  C   LIG d   1       9.739  -4.930  -2.050  0.00  0.00    -0.016 A 
ATOM     27  H   LIG d   1       9.584  -2.812  -2.277  0.00  0.00     0.062 H 
ATOM     28  C   LIG d   1       9.545  -6.167  -2.644  0.00  0.00     0.162 A 
ATOM     29  H   LIG d   1      10.130  -4.870  -1.045  0.00  0.00     0.066 H 
ATOM     30  C   LIG d   1       9.045  -6.242  -3.941  0.00  0.00     0.162 A 
ATOM     31  C   LIG d   1       8.733  -5.079  -4.627  0.00  0.00    -0.011 A 
ATOM     32  H   LIG d   1       8.340  -5.134  -5.632  0.00  0.00     0.066 H 
BRANCH  28  33
ATOM     33  O   LIG d   1       9.848  -7.306  -1.965  0.00  0.00    -0.488 OA
BRANCH  33  34
ATOM     34  C   LIG d   1      11.202  -7.464  -1.537  0.00  0.00     0.089 C 
ATOM     35  H   LIG d   1      11.725  -6.511  -1.625  0.00  0.00     0.070 H 
ATOM     36  H   LIG d   1      11.696  -8.208  -2.160  0.00  0.00     0.070 H 
BRANCH  34  37
ATOM     37  C   LIG d   1      11.225  -7.924  -0.077  0.00  0.00    -0.021 C 
ATOM     38  H   LIG d   1      10.671  -7.214   0.536  0.00  0.00     0.029 H 
ATOM     39  H   LIG d   1      12.257  -7.978   0.271  0.00  0.00     0.029 H 
BRANCH  37  40
ATOM     40  C   LIG d   1      10.576  -9.306   0.032  0.00  0.00    -0.062 C 
ATOM     41  H   LIG d   1      10.436  -9.721  -0.966  0.00  0.00     0.023 H 
ATOM     42  H   LIG d   1      11.221  -9.965   0.614  0.00  0.00     0.023 H 
ATOM     43  H   LIG d   1       9.609  -9.214   0.526  0.00  0.00     0.023 H 
ENDBRANCH  37  40
ENDBRANCH  34  37
ENDBRANCH  33  34
ENDBRANCH  28  33
BRANCH  30  44
ATOM     44  O   LIG d   1       8.858  -7.452  -4.531  0.00  0.00    -0.491 OA
BRANCH  44  45
ATOM     45  C   LIG d   1       7.508  -7.864  -4.753  0.00  0.00     0.079 C 
ATOM     46  H   LIG d   1       6.833  -7.205  -4.206  0.00  0.00     0.066 H 
ATOM     47  H   LIG d   1       7.282  -7.813  -5.818  0.00  0.00     0.066 H 
ATOM     48  H   LIG d   1       7.379  -8.888  -4.402  0.00  0.00     0.066 H 
ENDBRANCH  44  45
ENDBRANCH  30  44
ENDBRANCH   1  24
BRANCH  14  49
ATOM     49  C   LIG d   1      10.657   0.456  -5.493  0.00  0.00     0.324 C 
ATOM     50  O   LIG d   1      10.717   1.268  -6.386  0.00  0.00    -0.249 OA
BRANCH  49  51
ATOM     51  O   LIG d   1      11.711   0.273  -4.682  0.00  0.00    -0.467 OA
BRANCH  51  52
ATOM     52  C   LIG d   1      12.102   1.379  -3.865  0.00  0.00     0.082 C 
ATOM     53  H   LIG d   1      12.932   1.081  -3.224  0.00  0.00     0.066 H 
ATOM     54  H   LIG d   1      12.414   2.208  -4.501  0.00  0.00     0.066 H 
ATOM     55  H   LIG d   1      11.260   1.691  -3.248  0.00  0.00     0.066 H 
ENDBRANCH  51  52
ENDBRANCH  49  51
ENDBRANCH  14  49
TORSDOF 10
ENDMDL
MODEL 6
REMARK VINA RESULT:      -6.0      2.995      7.982
REMARK  10 active torsions:
REMARK  status: ('A' for Active; 'I' for Inactive)
REMARK    1  A    between atoms: C_1  and  C_2 
REMARK    2  A    between atoms: C_2  and  C_3 
REMARK    3  A    between atoms: C_3  and  O_4 
REMARK    4  A    between atoms: O_4  and  C_5 
REMARK    5  A    between atoms: C_8  and  C_13 
REMARK    6  A    between atoms: C_10  and  O_11 
REMARK    7  A    between atoms: O_11  and  C_12 
REMARK    8  A    between atoms: C_26  and  C_29 
REMARK    9  A    between atoms: C_29  and  O_31 
REMARK   10  A    between atoms: O_31  and  C_32 
ROOT
ATOM      1  C   LIG d   1       5.942  -4.866  -6.125  0.00  0.00     0.075 C 
ATOM      2  H   LIG d   1       6.107  -4.840  -7.203  0.00  0.00     0.058 H 
ATOM      3  C   LIG d   1       7.261  -5.049  -5.414  0.00  0.00     0.042 A 
ATOM      4  C   LIG d   1       7.657  -6.230  -4.886  0.00  0.00    -0.015 A 
ATOM      5  C   LIG d   1       8.956  -6.018  -4.291  0.00  0.00     0.003 A 
ATOM      6  C   LIG d   1       9.841  -6.862  -3.610  0.00  0.00    -0.052 A 
ATOM      7  C   LIG d   1      11.018  -6.307  -3.173  0.00  0.00    -0.061 A 
ATOM      8  C   LIG d   1      11.328  -4.974  -3.389  0.00  0.00    -0.060 A 
ATOM      9  C   LIG d   1      10.473  -4.116  -4.060  0.00  0.00    -0.038 A 
ATOM     10  C   LIG d   1       9.270  -4.652  -4.516  0.00  0.00     0.047 A 
ATOM     11  N   LIG d   1       8.224  -4.101  -5.198  0.00  0.00    -0.356 N 
ATOM     12  H   LIG d   1       8.170  -3.176  -5.485  0.00  0.00     0.166 HD
ATOM     13  C   LIG d   1       6.828  -7.489  -4.952  0.00  0.00     0.001 C 
ATOM     14  C   LIG d   1       5.739  -7.285  -6.014  0.00  0.00     0.111 C 
ATOM     15  H   LIG d   1       6.192  -7.286  -7.004  0.00  0.00     0.058 H 
ATOM     16  N   LIG d   1       5.063  -5.998  -5.787  0.00  0.00    -0.292 N 
ATOM     17  H   LIG d   1       9.608  -7.902  -3.436  0.00  0.00     0.062 H 
ATOM     18  H   LIG d   1      11.724  -6.928  -2.643  0.00  0.00     0.062 H 
ATOM     19  H   LIG d   1      12.268  -4.590  -3.022  0.00  0.00     0.062 H 
ATOM     20  H   LIG d   1      10.726  -3.079  -4.223  0.00  0.00     0.064 H 
ATOM     21  H   LIG d   1       7.462  -8.331  -5.231  0.00  0.00     0.033 H 
ATOM     22  H   LIG d   1       6.367  -7.678  -3.982  0.00  0.00     0.033 H 
ATOM     23  H   LIG d   1       4.733  -5.927  -4.837  0.00  0.00     0.124 HD
ENDROOT
BRANCH   1  24
ATOM     24  C   LIG d   1       5.300  -3.577  -5.680  0.00  0.00    -0.021 A 
ATOM     25  C   LIG d   1       4.913  -3.419  -4.362  0.00  0.00    -0.053 A 
ATOM     26  C   LIG d   1       4.325  -2.238  -3.949  0.00  0.00    -0.016 A 
ATOM     27  H   LIG d   1       5.071  -4.219  -3.655  0.00  0.00     0.062 H 
ATOM     28  C   LIG d   1       4.123  -1.210  -4.856  0.00  0.00     0.162 A 
ATOM     29  H   LIG d   1       4.024  -2.116  -2.919  0.00  0.00     0.066 H 
ATOM     30  C   LIG d   1       4.507  -1.371  -6.184  0.00  0.00     0.162 A 
ATOM     31  C   LIG d   1       5.102  -2.555  -6.590  0.00  0.00    -0.011 A 
ATOM     32  H   LIG d   1       5.406  -2.681  -7.619  0.00  0.00     0.066 H 
BRANCH  28  33
ATOM     33  O   LIG d   1       3.543  -0.048  -4.451  0.00  0.00    -0.488 OA
BRANCH  33  34
ATOM     34  C   LIG d   1       2.940  -0.042  -3.156  0.00  0.00     0.089 C 
ATOM     35  H   LIG d   1       3.171  -0.975  -2.642  0.00  0.00     0.070 H 
ATOM     36  H   LIG d   1       1.860   0.058  -3.259  0.00  0.00     0.070 H 
BRANCH  34  37
ATOM     37  C   LIG d   1       3.485   1.136  -2.345  0.00  0.00    -0.021 C 
ATOM     38  H   LIG d   1       2.855   1.298  -1.471  0.00  0.00     0.029 H 
ATOM     39  H   LIG d   1       3.487   2.034  -2.963  0.00  0.00     0.029 H 
BRANCH  37  40
ATOM     40  C   LIG d   1       4.914   0.826  -1.892  0.00  0.00    -0.062 C 
ATOM     41  H   LIG d   1       5.366   0.112  -2.581  0.00  0.00     0.023 H 
ATOM     42  H   LIG d   1       5.500   1.744  -1.884  0.00  0.00     0.023 H 
ATOM     43  H   LIG d   1       4.892   0.399  -0.890  0.00  0.00     0.023 H 
ENDBRANCH  37  40
ENDBRANCH  34  37
ENDBRANCH  33  34
ENDBRANCH  28  33
BRANCH  30  44
ATOM     44  O   LIG d   1       4.306  -0.368  -7.079  0.00  0.00    -0.491 OA
BRANCH  44  45
ATOM     45  C   LIG d   1       3.181  -0.491  -7.950  0.00  0.00     0.079 C 
ATOM     46  H   LIG d   1       2.871   0.499  -8.285  0.00  0.00     0.066 H 
ATOM     47  H   LIG d   1       3.454  -1.099  -8.813  0.00  0.00     0.066 H 
ATOM     48  H   LIG d   1       2.359  -0.967  -7.416  0.00  0.00     0.066 H 
ENDBRANCH  44  45
ENDBRANCH  30  44
ENDBRANCH   1  24
BRANCH  14  49
ATOM     49  C   LIG d   1       4.732  -8.402  -5.920  0.00  0.00     0.324 C 
ATOM     50  O   LIG d   1       4.319  -8.931  -6.925  0.00  0.00    -0.249 OA
BRANCH  49  51
ATOM     51  O   LIG d   1       4.293  -8.809  -4.719  0.00  0.00    -0.467 OA
BRANCH  51  52
ATOM     52  C   LIG d   1       4.243 -10.219  -4.490  0.00  0.00     0.082 C 
ATOM     53  H   LIG d   1       5.047 -10.705  -5.041  0.00  0.00     0.066 H 
ATOM     54  H   LIG d   1       4.361 -10.419  -3.424  0.00  0.00     0.066 H 
ATOM     55  H   LIG d   1       3.283 -10.609  -4.829  0.00  0.00     0.066 H 
ENDBRANCH  51  52
ENDBRANCH  49  51
ENDBRANCH  14  49
TORSDOF 10
ENDMDL
MODEL 7
REMARK VINA RESULT:      -5.7      4.940      6.123
REMARK  10 active torsions:
REMARK  status: ('A' for Active; 'I' for Inactive)
REMARK    1  A    between atoms: C_1  and  C_2 
REMARK    2  A    between atoms: C_2  and  C_3 
REMARK    3  A    between atoms: C_3  and  O_4 
REMARK    4  A    between atoms: O_4  and  C_5 
REMARK    5  A    between atoms: C_8  and  C_13 
REMARK    6  A    between atoms: C_10  and  O_11 
REMARK    7  A    between atoms: O_11  and  C_12 
REMARK    8  A    between atoms: C_26  and  C_29 
REMARK    9  A    between atoms: C_29  and  O_31 
REMARK   10  A    between atoms: O_31  and  C_32 
ROOT
ATOM      1  C   LIG d   1       8.453  -2.110  -5.118  0.00  0.00     0.075 C 
ATOM      2  H   LIG d   1       8.252  -2.143  -6.189  0.00  0.00     0.058 H 
ATOM      3  C   LIG d   1       7.240  -1.581  -4.391  0.00  0.00     0.042 A 
ATOM      4  C   LIG d   1       7.158  -0.317  -3.916  0.00  0.00    -0.015 A 
ATOM      5  C   LIG d   1       5.865  -0.180  -3.286  0.00  0.00     0.003 A 
ATOM      6  C   LIG d   1       5.232   0.882  -2.632  0.00  0.00    -0.052 A 
ATOM      7  C   LIG d   1       3.970   0.649  -2.144  0.00  0.00    -0.061 A 
ATOM      8  C   LIG d   1       3.341  -0.577  -2.286  0.00  0.00    -0.060 A 
ATOM      9  C   LIG d   1       3.942  -1.646  -2.928  0.00  0.00    -0.038 A 
ATOM     10  C   LIG d   1       5.224  -1.438  -3.434  0.00  0.00     0.047 A 
ATOM     11  N   LIG d   1       6.084  -2.257  -4.108  0.00  0.00    -0.356 N 
ATOM     12  H   LIG d   1       5.904  -3.179  -4.349  0.00  0.00     0.166 HD
ATOM     13  C   LIG d   1       8.263   0.700  -4.062  0.00  0.00     0.001 C 
ATOM     14  C   LIG d   1       9.237   0.190  -5.133  0.00  0.00     0.111 C 
ATOM     15  H   LIG d   1       8.767   0.257  -6.114  0.00  0.00     0.058 H 
ATOM     16  N   LIG d   1       9.589  -1.211  -4.855  0.00  0.00    -0.292 N 
ATOM     17  H   LIG d   1       5.714   1.841  -2.515  0.00  0.00     0.062 H 
ATOM     18  H   LIG d   1       3.451   1.446  -1.632  0.00  0.00     0.062 H 
ATOM     19  H   LIG d   1       2.347  -0.704  -1.881  0.00  0.00     0.062 H 
ATOM     20  H   LIG d   1       3.441  -2.596  -3.033  0.00  0.00     0.064 H 
ATOM     21  H   LIG d   1       7.843   1.657  -4.371  0.00  0.00     0.033 H 
ATOM     22  H   LIG d   1       8.786   0.814  -3.113  0.00  0.00     0.033 H 
ATOM     23  H   LIG d   1       9.922  -1.317  -3.909  0.00  0.00     0.124 HD
ENDROOT
BRANCH   1  24
ATOM     24  C   LIG d   1       8.778  -3.495  -4.621  0.00  0.00    -0.021 A 
ATOM     25  C   LIG d   1       9.296  -3.667  -3.350  0.00  0.00    -0.053 A 
ATOM     26  C   LIG d   1       9.594  -4.935  -2.889  0.00  0.00    -0.016 A 
ATOM     27  H   LIG d   1       9.467  -2.810  -2.717  0.00  0.00     0.062 H 
ATOM     28  C   LIG d   1       9.376  -6.037  -3.700  0.00  0.00     0.162 A 
ATOM     29  H   LIG d   1       9.998  -5.068  -1.897  0.00  0.00     0.066 H 
ATOM     30  C   LIG d   1       8.860  -5.864  -4.982  0.00  0.00     0.162 A 
ATOM     31  C   LIG d   1       8.557  -4.590  -5.435  0.00  0.00    -0.011 A 
ATOM     32  H   LIG d   1       8.151  -4.452  -6.427  0.00  0.00     0.066 H 
BRANCH  28  33
ATOM     33  O   LIG d   1       9.670  -7.286  -3.249  0.00  0.00    -0.488 OA
BRANCH  33  34
ATOM     34  C   LIG d   1       9.031  -7.706  -2.042  0.00  0.00     0.089 C 
ATOM     35  H   LIG d   1       8.192  -7.044  -1.826  0.00  0.00     0.070 H 
ATOM     36  H   LIG d   1       9.745  -7.669  -1.220  0.00  0.00     0.070 H 
BRANCH  34  37
ATOM     37  C   LIG d   1       8.519  -9.139  -2.209  0.00  0.00    -0.021 C 
ATOM     38  H   LIG d   1       8.130  -9.498  -1.257  0.00  0.00     0.029 H 
ATOM     39  H   LIG d   1       9.338  -9.782  -2.533  0.00  0.00     0.029 H 
BRANCH  37  40
ATOM     40  C   LIG d   1       7.405  -9.165  -3.257  0.00  0.00    -0.062 C 
ATOM     41  H   LIG d   1       7.476 -10.083  -3.840  0.00  0.00     0.023 H 
ATOM     42  H   LIG d   1       6.436  -9.124  -2.759  0.00  0.00     0.023 H 
ATOM     43  H   LIG d   1       7.510  -8.306  -3.919  0.00  0.00     0.023 H 
ENDBRANCH  37  40
ENDBRANCH  34  37
ENDBRANCH  33  34
ENDBRANCH  28  33
BRANCH  30  44
ATOM     44  O   LIG d   1       8.648  -6.941  -5.784  0.00  0.00    -0.491 OA
BRANCH  44  45
ATOM     45  C   LIG d   1       9.585  -7.156  -6.841  0.00  0.00     0.079 C 
ATOM     46  H   LIG d   1       9.471  -6.374  -7.592  0.00  0.00     0.066 H 
ATOM     47  H   LIG d   1      10.598  -7.132  -6.440  0.00  0.00     0.066 H 
ATOM     48  H   LIG d   1       9.398  -8.128  -7.298  0.00  0.00     0.066 H 
ENDBRANCH  44  45
ENDBRANCH  30  44
ENDBRANCH   1  24
BRANCH  14  49
ATOM     49  C   LIG d   1      10.486   1.032  -5.116  0.00  0.00     0.324 C 
ATOM     50  O   LIG d   1      10.454   2.171  -5.519  0.00  0.00    -0.249 OA
BRANCH  49  51
ATOM     51  O   LIG d   1      11.636   0.518  -4.652  0.00  0.00    -0.467 OA
BRANCH  51  52
ATOM     52  C   LIG d   1      12.369   1.308  -3.714  0.00  0.00     0.082 C 
ATOM     53  H   LIG d   1      12.621   0.700  -2.845  0.00  0.00     0.066 H 
ATOM     54  H   LIG d   1      13.286   1.670  -4.182  0.00  0.00     0.066 H 
ATOM     55  H   LIG d   1      11.762   2.157  -3.399  0.00  0.00     0.066 H 
ENDBRANCH  51  52
ENDBRANCH  49  51
ENDBRANCH  14  49
TORSDOF 10
ENDMDL
MODEL 8
REMARK VINA RESULT:      -5.7      9.331     13.351
REMARK  10 active torsions:
REMARK  status: ('A' for Active; 'I' for Inactive)
REMARK    1  A    between atoms: C_1  and  C_2 
REMARK    2  A    between atoms: C_2  and  C_3 
REMARK    3  A    between atoms: C_3  and  O_4 
REMARK    4  A    between atoms: O_4  and  C_5 
REMARK    5  A    between atoms: C_8  and  C_13 
REMARK    6  A    between atoms: C_10  and  O_11 
REMARK    7  A    between atoms: O_11  and  C_12 
REMARK    8  A    between atoms: C_26  and  C_29 
REMARK    9  A    between atoms: C_29  and  O_31 
REMARK   10  A    between atoms: O_31  and  C_32 
ROOT
ATOM      1  C   LIG d   1       9.589   5.619  -2.538  0.00  0.00     0.075 C 
ATOM      2  H   LIG d   1       8.567   5.533  -2.169  0.00  0.00     0.058 H 
ATOM      3  C   LIG d   1       9.590   6.345  -3.862  0.00  0.00     0.042 A 
ATOM      4  C   LIG d   1       9.737   5.713  -5.050  0.00  0.00    -0.015 A 
ATOM      5  C   LIG d   1       9.690   6.724  -6.081  0.00  0.00     0.003 A 
ATOM      6  C   LIG d   1       9.786   6.667  -7.475  0.00  0.00    -0.052 A 
ATOM      7  C   LIG d   1       9.696   7.858  -8.154  0.00  0.00    -0.061 A 
ATOM      8  C   LIG d   1       9.519   9.066  -7.500  0.00  0.00    -0.060 A 
ATOM      9  C   LIG d   1       9.420   9.153  -6.122  0.00  0.00    -0.038 A 
ATOM     10  C   LIG d   1       9.507   7.960  -5.407  0.00  0.00     0.047 A 
ATOM     11  N   LIG d   1       9.450   7.690  -4.069  0.00  0.00    -0.356 N 
ATOM     12  H   LIG d   1       9.329   8.352  -3.371  0.00  0.00     0.166 HD
ATOM     13  C   LIG d   1       9.911   4.220  -5.181  0.00  0.00     0.001 C 
ATOM     14  C   LIG d   1       9.499   3.575  -3.850  0.00  0.00     0.111 C 
ATOM     15  H   LIG d   1       8.418   3.645  -3.732  0.00  0.00     0.058 H 
ATOM     16  N   LIG d   1      10.158   4.275  -2.737  0.00  0.00    -0.292 N 
ATOM     17  H   LIG d   1       9.925   5.731  -7.994  0.00  0.00     0.062 H 
ATOM     18  H   LIG d   1       9.767   7.852  -9.231  0.00  0.00     0.062 H 
ATOM     19  H   LIG d   1       9.456   9.972  -8.085  0.00  0.00     0.062 H 
ATOM     20  H   LIG d   1       9.282  10.100  -5.625  0.00  0.00     0.064 H 
ATOM     21  H   LIG d   1       9.277   3.846  -5.984  0.00  0.00     0.033 H 
ATOM     22  H   LIG d   1      10.955   3.989  -5.395  0.00  0.00     0.033 H 
ATOM     23  H   LIG d   1      11.155   4.323  -2.882  0.00  0.00     0.124 HD
ENDROOT
BRANCH   1  24
ATOM     24  C   LIG d   1      10.426   6.380  -1.542  0.00  0.00    -0.021 A 
ATOM     25  C   LIG d   1       9.903   7.492  -0.909  0.00  0.00    -0.053 A 
ATOM     26  C   LIG d   1      10.666   8.192   0.006  0.00  0.00    -0.016 A 
ATOM     27  H   LIG d   1       8.896   7.813  -1.129  0.00  0.00     0.062 H 
ATOM     28  C   LIG d   1      11.958   7.781   0.290  0.00  0.00     0.162 A 
ATOM     29  H   LIG d   1      10.255   9.060   0.500  0.00  0.00     0.066 H 
ATOM     30  C   LIG d   1      12.488   6.665  -0.352  0.00  0.00     0.162 A 
ATOM     31  C   LIG d   1      11.715   5.964  -1.263  0.00  0.00    -0.011 A 
ATOM     32  H   LIG d   1      12.121   5.095  -1.759  0.00  0.00     0.066 H 
BRANCH  28  33
ATOM     33  O   LIG d   1      12.712   8.470   1.189  0.00  0.00    -0.488 OA
BRANCH  33  34
ATOM     34  C   LIG d   1      12.025   9.391   2.039  0.00  0.00     0.089 C 
ATOM     35  H   LIG d   1      12.220   9.138   3.081  0.00  0.00     0.070 H 
ATOM     36  H   LIG d   1      10.954   9.335   1.846  0.00  0.00     0.070 H 
BRANCH  34  37
ATOM     37  C   LIG d   1      12.520  10.811   1.758  0.00  0.00    -0.021 C 
ATOM     38  H   LIG d   1      13.330  10.776   1.030  0.00  0.00     0.029 H 
ATOM     39  H   LIG d   1      12.882  11.260   2.683  0.00  0.00     0.029 H 
BRANCH  37  40
ATOM     40  C   LIG d   1      11.369  11.651   1.199  0.00  0.00    -0.062 C 
ATOM     41  H   LIG d   1      10.713  11.017   0.603  0.00  0.00     0.023 H 
ATOM     42  H   LIG d   1      10.804  12.088   2.023  0.00  0.00     0.023 H 
ATOM     43  H   LIG d   1      11.772  12.447   0.572  0.00  0.00     0.023 H 
ENDBRANCH  37  40
ENDBRANCH  34  37
ENDBRANCH  33  34
ENDBRANCH  28  33
BRANCH  30  44
ATOM     44  O   LIG d   1      13.757   6.261  -0.082  0.00  0.00    -0.491 OA
BRANCH  44  45
ATOM     45  C   LIG d   1      14.463   5.594  -1.130  0.00  0.00     0.079 C 
ATOM     46  H   LIG d   1      13.814   4.847  -1.587  0.00  0.00     0.066 H 
ATOM     47  H   LIG d   1      14.768   6.321  -1.882  0.00  0.00     0.066 H 
ATOM     48  H   LIG d   1      15.346   5.105  -0.719  0.00  0.00     0.066 H 
ENDBRANCH  44  45
ENDBRANCH  30  44
ENDBRANCH   1  24
BRANCH  14  49
ATOM     49  C   LIG d   1       9.913   2.127  -3.845  0.00  0.00     0.324 C 
ATOM     50  O   LIG d   1      11.046   1.822  -3.554  0.00  0.00    -0.249 OA
BRANCH  49  51
ATOM     51  O   LIG d   1       9.023   1.174  -4.164  0.00  0.00    -0.467 OA
BRANCH  51  52
ATOM     52  C   LIG d   1       7.647   1.455  -3.897  0.00  0.00     0.082 C 
ATOM     53  H   LIG d   1       7.571   2.375  -3.317  0.00  0.00     0.066 H 
ATOM     54  H   LIG d   1       7.111   1.574  -4.839  0.00  0.00     0.066 H 
ATOM     55  H   LIG d   1       7.212   0.632  -3.331  0.00  0.00     0.066 H 
ENDBRANCH  51  52
ENDBRANCH  49  51
ENDBRANCH  14  49
TORSDOF 10
ENDMDL
MODEL 9
REMARK VINA RESULT:      -5.6      4.387      5.916
REMARK  10 active torsions:
REMARK  status: ('A' for Active; 'I' for Inactive)
REMARK    1  A    between atoms: C_1  and  C_2 
REMARK    2  A    between atoms: C_2  and  C_3 
REMARK    3  A    between atoms: C_3  and  O_4 
REMARK    4  A    between atoms: O_4  and  C_5 
REMARK    5  A    between atoms: C_8  and  C_13 
REMARK    6  A    between atoms: C_10  and  O_11 
REMARK    7  A    between atoms: O_11  and  C_12 
REMARK    8  A    between atoms: C_26  and  C_29 
REMARK    9  A    between atoms: C_29  and  O_31 
REMARK   10  A    between atoms: O_31  and  C_32 
ROOT
ATOM      1  C   LIG d   1       8.023  -1.519  -5.394  0.00  0.00     0.075 C 
ATOM      2  H   LIG d   1       7.931  -1.328  -6.464  0.00  0.00     0.058 H 
ATOM      3  C   LIG d   1       6.796  -1.005  -4.680  0.00  0.00     0.042 A 
ATOM      4  C   LIG d   1       6.784   0.149  -3.973  0.00  0.00    -0.015 A 
ATOM      5  C   LIG d   1       5.452   0.308  -3.436  0.00  0.00     0.003 A 
ATOM      6  C   LIG d   1       4.857   1.292  -2.640  0.00  0.00    -0.052 A 
ATOM      7  C   LIG d   1       3.535   1.113  -2.313  0.00  0.00    -0.061 A 
ATOM      8  C   LIG d   1       2.813   0.013  -2.746  0.00  0.00    -0.060 A 
ATOM      9  C   LIG d   1       3.374  -0.976  -3.535  0.00  0.00    -0.038 A 
ATOM     10  C   LIG d   1       4.715  -0.820  -3.883  0.00  0.00     0.047 A 
ATOM     11  N   LIG d   1       5.560  -1.589  -4.632  0.00  0.00    -0.356 N 
ATOM     12  H   LIG d   1       5.320  -2.423  -5.065  0.00  0.00     0.166 HD
ATOM     13  C   LIG d   1       7.988   1.045  -3.824  0.00  0.00     0.001 C 
ATOM     14  C   LIG d   1       9.016   0.641  -4.890  0.00  0.00     0.111 C 
ATOM     15  H   LIG d   1       8.656   0.943  -5.874  0.00  0.00     0.058 H 
ATOM     16  N   LIG d   1       9.205  -0.817  -4.866  0.00  0.00    -0.292 N 
ATOM     17  H   LIG d   1       5.412   2.152  -2.297  0.00  0.00     0.062 H 
ATOM     18  H   LIG d   1       3.043   1.852  -1.699  0.00  0.00     0.062 H 
ATOM     19  H   LIG d   1       1.776  -0.077  -2.458  0.00  0.00     0.062 H 
ATOM     20  H   LIG d   1       2.801  -1.828  -3.867  0.00  0.00     0.064 H 
ATOM     21  H   LIG d   1       7.693   2.084  -3.971  0.00  0.00     0.033 H 
ATOM     22  H   LIG d   1       8.420   0.921  -2.830  0.00  0.00     0.033 H 
ATOM     23  H   LIG d   1       9.428  -1.136  -3.936  0.00  0.00     0.124 HD
ENDROOT
BRANCH   1  24
ATOM     24  C   LIG d   1       8.165  -3.000  -5.155  0.00  0.00    -0.021 A 
ATOM     25  C   LIG d   1       7.629  -3.899  -6.058  0.00  0.00    -0.053 A 
ATOM     26  C   LIG d   1       7.758  -5.258  -5.843  0.00  0.00    -0.016 A 
ATOM     27  H   LIG d   1       7.109  -3.539  -6.933  0.00  0.00     0.062 H 
ATOM     28  C   LIG d   1       8.425  -5.723  -4.721  0.00  0.00     0.162 A 
ATOM     29  H   LIG d   1       7.339  -5.959  -6.550  0.00  0.00     0.066 H 
ATOM     30  C   LIG d   1       8.961  -4.818  -3.809  0.00  0.00     0.162 A 
ATOM     31  C   LIG d   1       8.833  -3.457  -4.033  0.00  0.00    -0.011 A 
ATOM     32  H   LIG d   1       9.252  -2.752  -3.330  0.00  0.00     0.066 H 
BRANCH  28  33
ATOM     33  O   LIG d   1       8.552  -7.060  -4.507  0.00  0.00    -0.488 OA
BRANCH  33  34
ATOM     34  C   LIG d   1       7.818  -7.927  -5.374  0.00  0.00     0.089 C 
ATOM     35  H   LIG d   1       8.451  -8.762  -5.674  0.00  0.00     0.070 H 
ATOM     36  H   LIG d   1       7.501  -7.375  -6.258  0.00  0.00     0.070 H 
BRANCH  34  37
ATOM     37  C   LIG d   1       6.587  -8.460  -4.637  0.00  0.00    -0.021 C 
ATOM     38  H   LIG d   1       5.936  -8.975  -5.344  0.00  0.00     0.029 H 
ATOM     39  H   LIG d   1       6.046  -7.629  -4.184  0.00  0.00     0.029 H 
BRANCH  37  40
ATOM     40  C   LIG d   1       7.028  -9.438  -3.546  0.00  0.00    -0.062 C 
ATOM     41  H   LIG d   1       6.955 -10.458  -3.921  0.00  0.00     0.023 H 
ATOM     42  H   LIG d   1       8.060  -9.226  -3.265  0.00  0.00     0.023 H 
ATOM     43  H   LIG d   1       6.383  -9.324  -2.675  0.00  0.00     0.023 H 
ENDBRANCH  37  40
ENDBRANCH  34  37
ENDBRANCH  33  34
ENDBRANCH  28  33
BRANCH  30  44
ATOM     44  O   LIG d   1       9.611  -5.268  -2.703  0.00  0.00    -0.491 OA
BRANCH  44  45
ATOM     45  C   LIG d   1      11.039  -5.220  -2.726  0.00  0.00     0.079 C 
ATOM     46  H   LIG d   1      11.398  -5.541  -3.704  0.00  0.00     0.066 H 
ATOM     47  H   LIG d   1      11.372  -4.200  -2.534  0.00  0.00     0.066 H 
ATOM     48  H   LIG d   1      11.437  -5.882  -1.958  0.00  0.00     0.066 H 
ENDBRANCH  44  45
ENDBRANCH  30  44
ENDBRANCH   1  24
BRANCH  14  49
ATOM     49  C   LIG d   1      10.329   1.321  -4.604  0.00  0.00     0.324 C 
ATOM     50  O   LIG d   1      10.347   2.399  -4.059  0.00  0.00    -0.249 OA
BRANCH  49  51
ATOM     51  O   LIG d   1      11.481   0.728  -4.955  0.00  0.00    -0.467 OA
BRANCH  51  52
ATOM     52  C   LIG d   1      12.533   0.729  -3.987  0.00  0.00     0.082 C 
ATOM     53  H   LIG d   1      12.206   1.265  -3.097  0.00  0.00     0.066 H 
ATOM     54  H   LIG d   1      12.784  -0.298  -3.721  0.00  0.00     0.066 H 
ATOM     55  H   LIG d   1      13.411   1.222  -4.405  0.00  0.00     0.066 H 
ENDBRANCH  51  52
ENDBRANCH  49  51
ENDBRANCH  14  49
TORSDOF 10
ENDMDL
