MODEL 1
REMARK VINA RESULT:      -6.4      0.000      0.000
REMARK  15 active torsions:
REMARK  status: ('A' for Active; 'I' for Inactive)
REMARK    1  A    between atoms: C_1  and  C_2 
REMARK    2  A    between atoms: C_2  and  C_4 
REMARK    3  A    between atoms: C_2  and  C_12 
REMARK    4  A    between atoms: C_5  and  C_6 
REMARK    5  A    between atoms: C_6  and  C_8 
REMARK    6  A    between atoms: C_6  and  C_9 
REMARK    7  A    between atoms: C_9  and  C_10 
REMARK    8  A    between atoms: C_9  and  C_11 
REMARK    9  A    between atoms: C_18  and  C_40 
REMARK   10  A    between atoms: C_27  and  C_39 
REMARK   11  A    between atoms: C_30  and  O_35 
REMARK   12  A    between atoms: C_32  and  C_33 
REMARK   13  A    between atoms: C_32  and  C_34 
REMARK   14  A    between atoms: O_35  and  C_36 
REMARK   15  A    between atoms: C_36  and  C_38 
ROOT
ATOM      1  C   LIG d   1       7.113  -0.787  -5.863  0.00  0.00    -0.029 C 
ATOM      2  H   LIG d   1       7.637  -0.233  -6.639  0.00  0.00     0.031 H 
ATOM      3  C   LIG d   1       5.578  -0.690  -6.077  0.00  0.00    -0.049 C 
ATOM      4  C   LIG d   1       5.030  -2.143  -6.000  0.00  0.00    -0.046 C 
ATOM      5  C   LIG d   1       6.170  -2.899  -5.295  0.00  0.00    -0.014 C 
ATOM      6  H   LIG d   1       6.163  -2.666  -4.221  0.00  0.00     0.035 H 
ATOM      7  C   LIG d   1       7.409  -2.285  -5.991  0.00  0.00    -0.022 C 
ATOM      8  C   LIG d   1       8.696  -2.807  -5.430  0.00  0.00    -0.046 C 
ATOM      9  C   LIG d   1       8.525  -4.185  -4.775  0.00  0.00    -0.045 C 
ATOM     10  C   LIG d   1       7.535  -5.033  -5.562  0.00  0.00    -0.010 C 
ATOM     11  H   LIG d   1       7.857  -4.994  -6.617  0.00  0.00     0.035 H 
ATOM     12  C   LIG d   1       6.177  -4.379  -5.498  0.00  0.00    -0.062 C 
ATOM     13  C   LIG d   1       5.084  -5.094  -5.637  0.00  0.00    -0.062 C 
ATOM     14  C   LIG d   1       5.138  -6.562  -5.672  0.00  0.00    -0.061 C 
ATOM     15  C   LIG d   1       6.251  -7.221  -5.379  0.00  0.00    -0.054 C 
ATOM     16  C   LIG d   1       7.552  -6.489  -5.224  0.00  0.00    -0.004 C 
ATOM     17  C   LIG d   1       8.215  -6.882  -3.922  0.00  0.00    -0.040 C 
ATOM     18  C   LIG d   1       8.399  -8.401  -3.889  0.00  0.00    -0.014 C 
ATOM     19  C   LIG d   1       7.093  -9.154  -4.045  0.00  0.00     0.112 C 
ATOM     20  H   LIG d   1       6.504  -9.023  -3.124  0.00  0.00     0.074 H 
ATOM     21  C   LIG d   1       6.223  -8.725  -5.231  0.00  0.00     0.024 C 
ATOM     22  H   LIG d   1       5.132  -0.083  -5.289  0.00  0.00     0.027 H 
ATOM     23  H   LIG d   1       5.364  -0.259  -7.054  0.00  0.00     0.027 H 
ATOM     24  H   LIG d   1       4.129  -2.168  -5.379  0.00  0.00     0.027 H 
ATOM     25  H   LIG d   1       4.816  -2.545  -6.981  0.00  0.00     0.027 H 
ATOM     26  H   LIG d   1       9.417  -2.913  -6.255  0.00  0.00     0.027 H 
ATOM     27  H   LIG d   1       9.134  -2.126  -4.706  0.00  0.00     0.027 H 
ATOM     28  H   LIG d   1       9.496  -4.682  -4.744  0.00  0.00     0.027 H 
ATOM     29  H   LIG d   1       8.163  -4.051  -3.754  0.00  0.00     0.027 H 
ATOM     30  H   LIG d   1       4.130  -4.595  -5.728  0.00  0.00     0.062 H 
ATOM     31  H   LIG d   1       4.247  -7.083  -5.997  0.00  0.00     0.062 H 
ATOM     32  H   LIG d   1       9.188  -6.393  -3.837  0.00  0.00     0.028 H 
ATOM     33  H   LIG d   1       7.588  -6.570  -3.082  0.00  0.00     0.028 H 
ATOM     34  H   LIG d   1       9.131  -8.737  -4.614  0.00  0.00     0.030 H 
ATOM     35  H   LIG d   1       8.816  -8.659  -2.897  0.00  0.00     0.030 H 
ENDROOT
BRANCH   1  36
ATOM     36  C   LIG d   1       7.473  -0.254  -4.478  0.00  0.00    -0.022 C 
ATOM     37  H   LIG d   1       7.903  -1.057  -3.880  0.00  0.00     0.034 H 
BRANCH  36  38
ATOM     38  C   LIG d   1       8.491   0.879  -4.618  0.00  0.00    -0.059 C 
ATOM     39  H   LIG d   1       7.972   1.838  -4.617  0.00  0.00     0.024 H 
ATOM     40  H   LIG d   1       9.191   0.845  -3.782  0.00  0.00     0.024 H 
ATOM     41  H   LIG d   1       9.038   0.763  -5.553  0.00  0.00     0.024 H 
ENDBRANCH  36  38
BRANCH  36  42
ATOM     42  C   LIG d   1       6.232   0.267  -3.801  0.00  0.00    -0.085 C 
ATOM     43  C   LIG d   1       5.752  -0.347  -2.749  0.00  0.00    -0.085 C 
ATOM     44  H   LIG d   1       6.247  -1.227  -2.366  0.00  0.00     0.057 H 
ATOM     45  H   LIG d   1       5.737   1.148  -4.185  0.00  0.00     0.057 H 
BRANCH  43  46
ATOM     46  C   LIG d   1       4.511   0.174  -2.072  0.00  0.00    -0.023 C 
ATOM     47  H   LIG d   1       4.685   0.248  -0.999  0.00  0.00     0.034 H 
BRANCH  46  48
ATOM     48  C   LIG d   1       4.170   1.558  -2.631  0.00  0.00    -0.059 C 
ATOM     49  H   LIG d   1       4.752   2.315  -2.107  0.00  0.00     0.024 H 
ATOM     50  H   LIG d   1       4.408   1.588  -3.694  0.00  0.00     0.024 H 
ATOM     51  H   LIG d   1       3.107   1.754  -2.491  0.00  0.00     0.024 H 
ENDBRANCH  46  48
BRANCH  46  52
ATOM     52  C   LIG d   1       3.346  -0.783  -2.335  0.00  0.00    -0.041 C 
ATOM     53  H   LIG d   1       2.633  -0.722  -1.512  0.00  0.00     0.030 H 
BRANCH  52  54
ATOM     54  C   LIG d   1       2.651  -0.394  -3.641  0.00  0.00    -0.062 C 
ATOM     55  H   LIG d   1       2.161  -1.271  -4.067  0.00  0.00     0.023 H 
ATOM     56  H   LIG d   1       1.907   0.376  -3.442  0.00  0.00     0.023 H 
ATOM     57  H   LIG d   1       3.390  -0.013  -4.346  0.00  0.00     0.023 H 
ENDBRANCH  52  54
BRANCH  52  58
ATOM     58  C   LIG d   1       3.876  -2.213  -2.444  0.00  0.00    -0.062 C 
ATOM     59  H   LIG d   1       4.114  -2.434  -3.485  0.00  0.00     0.023 H 
ATOM     60  H   LIG d   1       4.775  -2.315  -1.836  0.00  0.00     0.023 H 
ATOM     61  H   LIG d   1       3.117  -2.910  -2.090  0.00  0.00     0.023 H 
ENDBRANCH  52  58
ENDBRANCH  46  52
ENDBRANCH  43  46
ENDBRANCH  36  42
ENDBRANCH   1  36
BRANCH   7  62
ATOM     62  C   LIG d   1       7.368  -2.607  -7.494  0.00  0.00    -0.059 C 
ATOM     63  H   LIG d   1       7.654  -3.647  -7.650  0.00  0.00     0.024 H 
ATOM     64  H   LIG d   1       6.358  -2.449  -7.873  0.00  0.00     0.024 H 
ATOM     65  H   LIG d   1       8.061  -1.956  -8.025  0.00  0.00     0.024 H 
ENDBRANCH   7  62
BRANCH  16  66
ATOM     66  C   LIG d   1       8.483  -7.030  -6.319  0.00  0.00    -0.055 C 
ATOM     67  H   LIG d   1       9.512  -6.755  -6.089  0.00  0.00     0.024 H 
ATOM     68  H   LIG d   1       8.397  -8.117  -6.363  0.00  0.00     0.024 H 
ATOM     69  H   LIG d   1       8.197  -6.604  -7.281  0.00  0.00     0.024 H 
ENDBRANCH  16  66
BRANCH  21  70
ATOM     70  C   LIG d   1       6.625  -9.460  -6.509  0.00  0.00    -0.053 C 
ATOM     71  H   LIG d   1       7.612  -9.123  -6.828  0.00  0.00     0.024 H 
ATOM     72  H   LIG d   1       6.654 -10.534  -6.316  0.00  0.00     0.024 H 
ATOM     73  H   LIG d   1       5.898  -9.251  -7.294  0.00  0.00     0.024 H 
ENDBRANCH  21  70
BRANCH  21  74
ATOM     74  C   LIG d   1       4.779  -9.174  -4.887  0.00  0.00    -0.053 C 
ATOM     75  H   LIG d   1       4.755 -10.257  -4.760  0.00  0.00     0.024 H 
ATOM     76  H   LIG d   1       4.460  -8.694  -3.961  0.00  0.00     0.024 H 
ATOM     77  H   LIG d   1       4.105  -8.888  -5.695  0.00  0.00     0.024 H 
ENDBRANCH  21  74
BRANCH  19  78
ATOM     78  O   LIG d   1       7.377 -10.555  -4.170  0.00  0.00    -0.461 OA
BRANCH  78  79
ATOM     79  C   LIG d   1       6.966 -11.352  -3.169  0.00  0.00     0.304 C 
ATOM     80  O   LIG d   1       7.088 -12.550  -3.263  0.00  0.00    -0.251 OA
BRANCH  79  81
ATOM     81  C   LIG d   1       6.355 -10.751  -1.931  0.00  0.00     0.033 C 
ATOM     82  H   LIG d   1       6.496 -11.430  -1.090  0.00  0.00     0.034 H 
ATOM     83  H   LIG d   1       6.836  -9.798  -1.712  0.00  0.00     0.034 H 
ATOM     84  H   LIG d   1       5.289 -10.590  -2.093  0.00  0.00     0.034 H 
ENDBRANCH  79  81
ENDBRANCH  78  79
ENDBRANCH  19  78
TORSDOF 15
ENDMDL
MODEL 2
REMARK VINA RESULT:      -6.1      8.631     14.072
REMARK  15 active torsions:
REMARK  status: ('A' for Active; 'I' for Inactive)
REMARK    1  A    between atoms: C_1  and  C_2 
REMARK    2  A    between atoms: C_2  and  C_4 
REMARK    3  A    between atoms: C_2  and  C_12 
REMARK    4  A    between atoms: C_5  and  C_6 
REMARK    5  A    between atoms: C_6  and  C_8 
REMARK    6  A    between atoms: C_6  and  C_9 
REMARK    7  A    between atoms: C_9  and  C_10 
REMARK    8  A    between atoms: C_9  and  C_11 
REMARK    9  A    between atoms: C_18  and  C_40 
REMARK   10  A    between atoms: C_27  and  C_39 
REMARK   11  A    between atoms: C_30  and  O_35 
REMARK   12  A    between atoms: C_32  and  C_33 
REMARK   13  A    between atoms: C_32  and  C_34 
REMARK   14  A    between atoms: O_35  and  C_36 
REMARK   15  A    between atoms: C_36  and  C_38 
ROOT
ATOM      1  C   LIG d   1       9.812   2.474  -4.619  0.00  0.00    -0.029 C 
ATOM      2  H   LIG d   1      10.475   1.661  -4.907  0.00  0.00     0.031 H 
ATOM      3  C   LIG d   1       9.858   2.685  -3.081  0.00  0.00    -0.049 C 
ATOM      4  C   LIG d   1      10.085   4.207  -2.853  0.00  0.00    -0.046 C 
ATOM      5  C   LIG d   1       9.688   4.816  -4.208  0.00  0.00    -0.014 C 
ATOM      6  H   LIG d   1       8.594   4.829  -4.306  0.00  0.00     0.035 H 
ATOM      7  C   LIG d   1      10.324   3.800  -5.189  0.00  0.00    -0.022 C 
ATOM      8  C   LIG d   1      10.023   4.125  -6.620  0.00  0.00    -0.046 C 
ATOM      9  C   LIG d   1       9.707   5.613  -6.823  0.00  0.00    -0.045 C 
ATOM     10  C   LIG d   1      10.584   6.474  -5.923  0.00  0.00    -0.010 C 
ATOM     11  H   LIG d   1      11.622   6.136  -6.080  0.00  0.00     0.035 H 
ATOM     12  C   LIG d   1      10.242   6.176  -4.484  0.00  0.00    -0.062 C 
ATOM     13  C   LIG d   1      10.451   7.074  -3.548  0.00  0.00    -0.062 C 
ATOM     14  C   LIG d   1      10.845   8.448  -3.890  0.00  0.00    -0.061 C 
ATOM     15  C   LIG d   1      10.820   8.884  -5.143  0.00  0.00    -0.054 C 
ATOM     16  C   LIG d   1      10.610   7.926  -6.279  0.00  0.00    -0.004 C 
ATOM     17  C   LIG d   1       9.506   8.429  -7.183  0.00  0.00    -0.040 C 
ATOM     18  C   LIG d   1       9.858   9.836  -7.671  0.00  0.00    -0.014 C 
ATOM     19  C   LIG d   1      10.073  10.815  -6.534  0.00  0.00     0.112 C 
ATOM     20  H   LIG d   1       9.099  11.023  -6.066  0.00  0.00     0.074 H 
ATOM     21  C   LIG d   1      11.038  10.349  -5.439  0.00  0.00     0.024 C 
ATOM     22  H   LIG d   1       8.910   2.380  -2.637  0.00  0.00     0.027 H 
ATOM     23  H   LIG d   1      10.678   2.114  -2.651  0.00  0.00     0.027 H 
ATOM     24  H   LIG d   1       9.410   4.569  -2.071  0.00  0.00     0.027 H 
ATOM     25  H   LIG d   1      11.111   4.424  -2.588  0.00  0.00     0.027 H 
ATOM     26  H   LIG d   1      10.910   3.883  -7.225  0.00  0.00     0.027 H 
ATOM     27  H   LIG d   1       9.198   3.534  -7.009  0.00  0.00     0.027 H 
ATOM     28  H   LIG d   1       9.884   5.871  -7.869  0.00  0.00     0.027 H 
ATOM     29  H   LIG d   1       8.656   5.789  -6.588  0.00  0.00     0.027 H 
ATOM     30  H   LIG d   1      10.334   6.798  -2.510  0.00  0.00     0.062 H 
ATOM     31  H   LIG d   1      11.204   9.075  -3.085  0.00  0.00     0.062 H 
ATOM     32  H   LIG d   1       9.394   7.761  -8.040  0.00  0.00     0.028 H 
ATOM     33  H   LIG d   1       8.563   8.456  -6.631  0.00  0.00     0.028 H 
ATOM     34  H   LIG d   1      10.705   9.832  -8.347  0.00  0.00     0.030 H 
ATOM     35  H   LIG d   1       8.999  10.200  -8.267  0.00  0.00     0.030 H 
ENDROOT
BRANCH   1  36
ATOM     36  C   LIG d   1       8.377   2.185  -5.054  0.00  0.00    -0.022 C 
ATOM     37  H   LIG d   1       7.930   3.093  -5.459  0.00  0.00     0.034 H 
BRANCH  36  38
ATOM     38  C   LIG d   1       8.381   1.097  -6.130  0.00  0.00    -0.059 C 
ATOM     39  H   LIG d   1       7.393   0.638  -6.188  0.00  0.00     0.024 H 
ATOM     40  H   LIG d   1       8.632   1.539  -7.094  0.00  0.00     0.024 H 
ATOM     41  H   LIG d   1       9.120   0.337  -5.876  0.00  0.00     0.024 H 
ENDBRANCH  36  38
BRANCH  36  42
ATOM     42  C   LIG d   1       7.576   1.715  -3.868  0.00  0.00    -0.085 C 
ATOM     43  C   LIG d   1       6.658   0.794  -4.021  0.00  0.00    -0.085 C 
ATOM     44  H   LIG d   1       6.477   0.369  -4.997  0.00  0.00     0.057 H 
ATOM     45  H   LIG d   1       7.758   2.141  -2.892  0.00  0.00     0.057 H 
BRANCH  43  46
ATOM     46  C   LIG d   1       5.856   0.325  -2.834  0.00  0.00    -0.023 C 
ATOM     47  H   LIG d   1       6.503   0.262  -1.959  0.00  0.00     0.034 H 
BRANCH  46  48
ATOM     48  C   LIG d   1       4.724   1.317  -2.561  0.00  0.00    -0.059 C 
ATOM     49  H   LIG d   1       4.703   2.071  -3.348  0.00  0.00     0.024 H 
ATOM     50  H   LIG d   1       3.772   0.785  -2.542  0.00  0.00     0.024 H 
ATOM     51  H   LIG d   1       4.889   1.801  -1.597  0.00  0.00     0.024 H 
ENDBRANCH  46  48
BRANCH  46  52
ATOM     52  C   LIG d   1       5.265  -1.055  -3.130  0.00  0.00    -0.041 C 
ATOM     53  H   LIG d   1       4.599  -0.988  -3.991  0.00  0.00     0.030 H 
BRANCH  52  54
ATOM     54  C   LIG d   1       6.395  -2.040  -3.434  0.00  0.00    -0.062 C 
ATOM     55  H   LIG d   1       6.778  -1.855  -4.439  0.00  0.00     0.023 H 
ATOM     56  H   LIG d   1       7.198  -1.905  -2.710  0.00  0.00     0.023 H 
ATOM     57  H   LIG d   1       6.016  -3.059  -3.372  0.00  0.00     0.023 H 
ENDBRANCH  52  54
BRANCH  52  58
ATOM     58  C   LIG d   1       4.476  -1.543  -1.915  0.00  0.00    -0.062 C 
ATOM     59  H   LIG d   1       4.863  -2.511  -1.594  0.00  0.00     0.023 H 
ATOM     60  H   LIG d   1       4.578  -0.824  -1.102  0.00  0.00     0.023 H 
ATOM     61  H   LIG d   1       3.424  -1.643  -2.180  0.00  0.00     0.023 H 
ENDBRANCH  52  58
ENDBRANCH  46  52
ENDBRANCH  43  46
ENDBRANCH  36  42
ENDBRANCH   1  36
BRANCH   7  62
ATOM     62  C   LIG d   1      11.850   3.791  -5.003  0.00  0.00    -0.059 C 
ATOM     63  H   LIG d   1      12.332   3.621  -5.966  0.00  0.00     0.024 H 
ATOM     64  H   LIG d   1      12.174   4.751  -4.601  0.00  0.00     0.024 H 
ATOM     65  H   LIG d   1      12.128   2.996  -4.312  0.00  0.00     0.024 H 
ENDBRANCH   7  62
BRANCH  16  66
ATOM     66  C   LIG d   1      11.882   7.991  -7.137  0.00  0.00    -0.055 C 
ATOM     67  H   LIG d   1      12.059   7.020  -7.599  0.00  0.00     0.024 H 
ATOM     68  H   LIG d   1      11.758   8.746  -7.914  0.00  0.00     0.024 H 
ATOM     69  H   LIG d   1      12.732   8.255  -6.507  0.00  0.00     0.024 H 
ENDBRANCH  16  66
BRANCH  21  70
ATOM     70  C   LIG d   1      12.486  10.680  -5.797  0.00  0.00    -0.053 C 
ATOM     71  H   LIG d   1      13.129  10.474  -4.941  0.00  0.00     0.024 H 
ATOM     72  H   LIG d   1      12.800  10.066  -6.642  0.00  0.00     0.024 H 
ATOM     73  H   LIG d   1      12.564  11.734  -6.064  0.00  0.00     0.024 H 
ENDBRANCH  21  70
BRANCH  21  74
ATOM     74  C   LIG d   1      10.684  11.180  -4.177  0.00  0.00    -0.053 C 
ATOM     75  H   LIG d   1       9.744  10.822  -3.757  0.00  0.00     0.024 H 
ATOM     76  H   LIG d   1      11.476  11.070  -3.435  0.00  0.00     0.024 H 
ATOM     77  H   LIG d   1      10.584  12.230  -4.448  0.00  0.00     0.024 H 
ENDBRANCH  21  74
BRANCH  19  78
ATOM     78  O   LIG d   1      10.557  12.054  -7.074  0.00  0.00    -0.461 OA
BRANCH  78  79
ATOM     79  C   LIG d   1       9.674  13.059  -7.179  0.00  0.00     0.304 C 
ATOM     80  O   LIG d   1       8.933  13.115  -8.132  0.00  0.00    -0.251 OA
BRANCH  79  81
ATOM     81  C   LIG d   1       9.606  14.118  -6.109  0.00  0.00     0.033 C 
ATOM     82  H   LIG d   1      10.342  14.894  -6.319  0.00  0.00     0.034 H 
ATOM     83  H   LIG d   1       8.609  14.559  -6.096  0.00  0.00     0.034 H 
ATOM     84  H   LIG d   1       9.816  13.669  -5.139  0.00  0.00     0.034 H 
ENDBRANCH  79  81
ENDBRANCH  78  79
ENDBRANCH  19  78
TORSDOF 15
ENDMDL
MODEL 3
REMARK VINA RESULT:      -5.9      6.299     10.615
REMARK  15 active torsions:
REMARK  status: ('A' for Active; 'I' for Inactive)
REMARK    1  A    between atoms: C_1  and  C_2 
REMARK    2  A    between atoms: C_2  and  C_4 
REMARK    3  A    between atoms: C_2  and  C_12 
REMARK    4  A    between atoms: C_5  and  C_6 
REMARK    5  A    between atoms: C_6  and  C_8 
REMARK    6  A    between atoms: C_6  and  C_9 
REMARK    7  A    between atoms: C_9  and  C_10 
REMARK    8  A    between atoms: C_9  and  C_11 
REMARK    9  A    between atoms: C_18  and  C_40 
REMARK   10  A    between atoms: C_27  and  C_39 
REMARK   11  A    between atoms: C_30  and  O_35 
REMARK   12  A    between atoms: C_32  and  C_33 
REMARK   13  A    between atoms: C_32  and  C_34 
REMARK   14  A    between atoms: O_35  and  C_36 
REMARK   15  A    between atoms: C_36  and  C_38 
ROOT
ATOM      1  C   LIG d   1       6.839  -1.839  -5.840  0.00  0.00    -0.029 C 
ATOM      2  H   LIG d   1       7.190  -2.835  -6.102  0.00  0.00     0.031 H 
ATOM      3  C   LIG d   1       7.072  -1.567  -4.329  0.00  0.00    -0.049 C 
ATOM      4  C   LIG d   1       7.781  -0.185  -4.235  0.00  0.00    -0.046 C 
ATOM      5  C   LIG d   1       7.487   0.441  -5.610  0.00  0.00    -0.014 C 
ATOM      6  H   LIG d   1       6.448   0.795  -5.644  0.00  0.00     0.035 H 
ATOM      7  C   LIG d   1       7.693  -0.778  -6.542  0.00  0.00    -0.022 C 
ATOM      8  C   LIG d   1       7.395  -0.457  -7.974  0.00  0.00    -0.046 C 
ATOM      9  C   LIG d   1       7.545   1.041  -8.276  0.00  0.00    -0.045 C 
ATOM     10  C   LIG d   1       8.716   1.629  -7.499  0.00  0.00    -0.010 C 
ATOM     11  H   LIG d   1       9.581   0.970  -7.689  0.00  0.00     0.035 H 
ATOM     12  C   LIG d   1       8.415   1.537  -6.024  0.00  0.00    -0.062 C 
ATOM     13  C   LIG d   1       8.969   2.373  -5.176  0.00  0.00    -0.062 C 
ATOM     14  C   LIG d   1       9.743   3.529  -5.648  0.00  0.00    -0.061 C 
ATOM     15  C   LIG d   1       9.755   3.879  -6.927  0.00  0.00    -0.054 C 
ATOM     16  C   LIG d   1       9.166   2.974  -7.970  0.00  0.00    -0.004 C 
ATOM     17  C   LIG d   1       8.206   3.750  -8.845  0.00  0.00    -0.040 C 
ATOM     18  C   LIG d   1       8.940   4.943  -9.462  0.00  0.00    -0.014 C 
ATOM     19  C   LIG d   1       9.541   5.865  -8.421  0.00  0.00     0.112 C 
ATOM     20  H   LIG d   1       8.721   6.398  -7.915  0.00  0.00     0.074 H 
ATOM     21  C   LIG d   1      10.396   5.180  -7.350  0.00  0.00     0.024 C 
ATOM     22  H   LIG d   1       6.115  -1.529  -3.809  0.00  0.00     0.027 H 
ATOM     23  H   LIG d   1       7.704  -2.343  -3.903  0.00  0.00     0.027 H 
ATOM     24  H   LIG d   1       7.318   0.416  -3.446  0.00  0.00     0.027 H 
ATOM     25  H   LIG d   1       8.841  -0.290  -4.049  0.00  0.00     0.027 H 
ATOM     26  H   LIG d   1       8.110  -1.002  -8.609  0.00  0.00     0.027 H 
ATOM     27  H   LIG d   1       6.398  -0.776  -8.267  0.00  0.00     0.027 H 
ATOM     28  H   LIG d   1       7.709   1.169  -9.347  0.00  0.00     0.027 H 
ATOM     29  H   LIG d   1       6.624   1.555  -7.995  0.00  0.00     0.027 H 
ATOM     30  H   LIG d   1       8.854   2.208  -4.114  0.00  0.00     0.062 H 
ATOM     31  H   LIG d   1      10.344   4.055  -4.917  0.00  0.00     0.062 H 
ATOM     32  H   LIG d   1       7.822   3.105  -9.639  0.00  0.00     0.028 H 
ATOM     33  H   LIG d   1       7.366   4.107  -8.243  0.00  0.00     0.028 H 
ATOM     34  H   LIG d   1       9.686   4.631 -10.184  0.00  0.00     0.030 H 
ATOM     35  H   LIG d   1       8.193   5.526 -10.034  0.00  0.00     0.030 H 
ENDROOT
BRANCH   1  36
ATOM     36  C   LIG d   1       5.356  -1.682  -6.167  0.00  0.00    -0.022 C 
ATOM     37  H   LIG d   1       5.195  -0.731  -6.677  0.00  0.00     0.034 H 
BRANCH  36  38
ATOM     38  C   LIG d   1       4.911  -2.829  -7.077  0.00  0.00    -0.059 C 
ATOM     39  H   LIG d   1       5.087  -2.557  -8.118  0.00  0.00     0.024 H 
ATOM     40  H   LIG d   1       5.479  -3.727  -6.835  0.00  0.00     0.024 H 
ATOM     41  H   LIG d   1       3.848  -3.021  -6.927  0.00  0.00     0.024 H 
ENDBRANCH  36  38
BRANCH  36  42
ATOM     42  C   LIG d   1       4.553  -1.711  -4.893  0.00  0.00    -0.085 C 
ATOM     43  C   LIG d   1       3.894  -0.647  -4.509  0.00  0.00    -0.085 C 
ATOM     44  H   LIG d   1       3.924   0.251  -5.108  0.00  0.00     0.057 H 
ATOM     45  H   LIG d   1       4.523  -2.611  -4.294  0.00  0.00     0.057 H 
BRANCH  43  46
ATOM     46  C   LIG d   1       3.091  -0.677  -3.234  0.00  0.00    -0.023 C 
ATOM     47  H   LIG d   1       2.030  -0.741  -3.473  0.00  0.00     0.034 H 
BRANCH  46  48
ATOM     48  C   LIG d   1       3.502  -1.895  -2.403  0.00  0.00    -0.059 C 
ATOM     49  H   LIG d   1       3.376  -1.671  -1.344  0.00  0.00     0.024 H 
ATOM     50  H   LIG d   1       2.874  -2.745  -2.671  0.00  0.00     0.024 H 
ATOM     51  H   LIG d   1       4.546  -2.136  -2.604  0.00  0.00     0.024 H 
ENDBRANCH  46  48
BRANCH  46  52
ATOM     52  C   LIG d   1       3.357   0.600  -2.433  0.00  0.00    -0.041 C 
ATOM     53  H   LIG d   1       2.558   0.746  -1.707  0.00  0.00     0.030 H 
BRANCH  52  54
ATOM     54  C   LIG d   1       4.694   0.474  -1.702  0.00  0.00    -0.062 C 
ATOM     55  H   LIG d   1       4.592   0.862  -0.688  0.00  0.00     0.023 H 
ATOM     56  H   LIG d   1       4.988  -0.575  -1.661  0.00  0.00     0.023 H 
ATOM     57  H   LIG d   1       5.455   1.044  -2.234  0.00  0.00     0.023 H 
ENDBRANCH  52  54
BRANCH  52  58
ATOM     58  C   LIG d   1       3.406   1.796  -3.384  0.00  0.00    -0.062 C 
ATOM     59  H   LIG d   1       2.694   1.645  -4.196  0.00  0.00     0.023 H 
ATOM     60  H   LIG d   1       3.148   2.704  -2.840  0.00  0.00     0.023 H 
ATOM     61  H   LIG d   1       4.410   1.893  -3.796  0.00  0.00     0.023 H 
ENDBRANCH  52  58
ENDBRANCH  46  52
ENDBRANCH  43  46
ENDBRANCH  36  42
ENDBRANCH   1  36
BRANCH   7  62
ATOM     62  C   LIG d   1       9.149  -1.261  -6.445  0.00  0.00    -0.059 C 
ATOM     63  H   LIG d   1       9.239  -1.986  -5.636  0.00  0.00     0.024 H 
ATOM     64  H   LIG d   1       9.441  -1.730  -7.385  0.00  0.00     0.024 H 
ATOM     65  H   LIG d   1       9.802  -0.412  -6.245  0.00  0.00     0.024 H 
ENDBRANCH   7  62
BRANCH  16  66
ATOM     66  C   LIG d   1      10.321   2.583  -8.903  0.00  0.00    -0.055 C 
ATOM     67  H   LIG d   1      11.134   2.157  -8.315  0.00  0.00     0.024 H 
ATOM     68  H   LIG d   1       9.970   1.846  -9.626  0.00  0.00     0.024 H 
ATOM     69  H   LIG d   1      10.678   3.468  -9.430  0.00  0.00     0.024 H 
ENDBRANCH  16  66
BRANCH  21  70
ATOM     70  C   LIG d   1      11.841   5.013  -7.817  0.00  0.00    -0.053 C 
ATOM     71  H   LIG d   1      12.410   5.909  -7.568  0.00  0.00     0.024 H 
ATOM     72  H   LIG d   1      12.287   4.151  -7.319  0.00  0.00     0.024 H 
ATOM     73  H   LIG d   1      11.860   4.860  -8.896  0.00  0.00     0.024 H 
ENDBRANCH  21  70
BRANCH  21  74
ATOM     74  C   LIG d   1      10.422   6.150  -6.139  0.00  0.00    -0.053 C 
ATOM     75  H   LIG d   1       9.453   6.642  -6.046  0.00  0.00     0.024 H 
ATOM     76  H   LIG d   1      10.632   5.589  -5.228  0.00  0.00     0.024 H 
ATOM     77  H   LIG d   1      11.197   6.901  -6.290  0.00  0.00     0.024 H 
ENDBRANCH  21  74
BRANCH  19  78
ATOM     78  O   LIG d   1      10.343   6.853  -9.084  0.00  0.00    -0.461 OA
BRANCH  78  79
ATOM     79  C   LIG d   1       9.792   8.065  -9.264  0.00  0.00     0.304 C 
ATOM     80  O   LIG d   1      10.062   8.710 -10.249  0.00  0.00    -0.251 OA
BRANCH  79  81
ATOM     81  C   LIG d   1       8.839   8.619  -8.237  0.00  0.00     0.033 C 
ATOM     82  H   LIG d   1       7.849   8.724  -8.681  0.00  0.00     0.034 H 
ATOM     83  H   LIG d   1       8.785   7.940  -7.386  0.00  0.00     0.034 H 
ATOM     84  H   LIG d   1       9.193   9.594  -7.901  0.00  0.00     0.034 H 
ENDBRANCH  79  81
ENDBRANCH  78  79
ENDBRANCH  19  78
TORSDOF 15
ENDMDL
MODEL 4
REMARK VINA RESULT:      -5.6      7.323     12.240
REMARK  15 active torsions:
REMARK  status: ('A' for Active; 'I' for Inactive)
REMARK    1  A    between atoms: C_1  and  C_2 
REMARK    2  A    between atoms: C_2  and  C_4 
REMARK    3  A    between atoms: C_2  and  C_12 
REMARK    4  A    between atoms: C_5  and  C_6 
REMARK    5  A    between atoms: C_6  and  C_8 
REMARK    6  A    between atoms: C_6  and  C_9 
REMARK    7  A    between atoms: C_9  and  C_10 
REMARK    8  A    between atoms: C_9  and  C_11 
REMARK    9  A    between atoms: C_18  and  C_40 
REMARK   10  A    between atoms: C_27  and  C_39 
REMARK   11  A    between atoms: C_30  and  O_35 
REMARK   12  A    between atoms: C_32  and  C_33 
REMARK   13  A    between atoms: C_32  and  C_34 
REMARK   14  A    between atoms: O_35  and  C_36 
REMARK   15  A    between atoms: C_36  and  C_38 
ROOT
ATOM      1  C   LIG d   1       8.761   1.025  -4.786  0.00  0.00    -0.029 C 
ATOM      2  H   LIG d   1       9.340   0.106  -4.734  0.00  0.00     0.031 H 
ATOM      3  C   LIG d   1       8.845   1.790  -3.437  0.00  0.00    -0.049 C 
ATOM      4  C   LIG d   1       9.218   3.259  -3.787  0.00  0.00    -0.046 C 
ATOM      5  C   LIG d   1       8.866   3.352  -5.281  0.00  0.00    -0.014 C 
ATOM      6  H   LIG d   1       7.776   3.428  -5.403  0.00  0.00     0.035 H 
ATOM      7  C   LIG d   1       9.390   1.989  -5.796  0.00  0.00    -0.022 C 
ATOM      8  C   LIG d   1       9.105   1.782  -7.252  0.00  0.00    -0.046 C 
ATOM      9  C   LIG d   1       8.929   3.109  -8.003  0.00  0.00    -0.045 C 
ATOM     10  C   LIG d   1       9.894   4.159  -7.468  0.00  0.00    -0.010 C 
ATOM     11  H   LIG d   1      10.894   3.692  -7.462  0.00  0.00     0.035 H 
ATOM     12  C   LIG d   1       9.543   4.453  -6.031  0.00  0.00    -0.062 C 
ATOM     13  C   LIG d   1       9.847   5.612  -5.493  0.00  0.00    -0.062 C 
ATOM     14  C   LIG d   1      10.365   6.716  -6.312  0.00  0.00    -0.061 C 
ATOM     15  C   LIG d   1      10.367   6.652  -7.638  0.00  0.00    -0.054 C 
ATOM     16  C   LIG d   1      10.054   5.363  -8.339  0.00  0.00    -0.004 C 
ATOM     17  C   LIG d   1       8.992   5.592  -9.392  0.00  0.00    -0.040 C 
ATOM     18  C   LIG d   1       9.470   6.676 -10.361  0.00  0.00    -0.014 C 
ATOM     19  C   LIG d   1       9.791   7.984  -9.666  0.00  0.00     0.112 C 
ATOM     20  H   LIG d   1       8.846   8.442  -9.334  0.00  0.00     0.074 H 
ATOM     21  C   LIG d   1      10.720   7.874  -8.453  0.00  0.00     0.024 C 
ATOM     22  H   LIG d   1       7.878   1.762  -2.935  0.00  0.00     0.027 H 
ATOM     23  H   LIG d   1       9.613   1.348  -2.805  0.00  0.00     0.027 H 
ATOM     24  H   LIG d   1       8.590   3.948  -3.213  0.00  0.00     0.027 H 
ATOM     25  H   LIG d   1      10.264   3.464  -3.598  0.00  0.00     0.027 H 
ATOM     26  H   LIG d   1       9.957   1.250  -7.701  0.00  0.00     0.027 H 
ATOM     27  H   LIG d   1       8.223   1.168  -7.413  0.00  0.00     0.027 H 
ATOM     28  H   LIG d   1       9.117   2.940  -9.065  0.00  0.00     0.027 H 
ATOM     29  H   LIG d   1       7.902   3.457  -7.877  0.00  0.00     0.027 H 
ATOM     30  H   LIG d   1       9.716   5.755  -4.430  0.00  0.00     0.062 H 
ATOM     31  H   LIG d   1      10.792   7.562  -5.791  0.00  0.00     0.062 H 
ATOM     32  H   LIG d   1       8.806   4.666  -9.941  0.00  0.00     0.028 H 
ATOM     33  H   LIG d   1       8.062   5.911  -8.913  0.00  0.00     0.028 H 
ATOM     34  H   LIG d   1      10.305   6.341 -10.965  0.00  0.00     0.030 H 
ATOM     35  H   LIG d   1       8.643   6.869 -11.070  0.00  0.00     0.030 H 
ENDROOT
BRANCH   1  36
ATOM     36  C   LIG d   1       7.300   0.728  -5.117  0.00  0.00    -0.022 C 
ATOM     37  H   LIG d   1       6.917   1.496  -5.790  0.00  0.00     0.034 H 
BRANCH  36  38
ATOM     38  C   LIG d   1       7.200  -0.640  -5.795  0.00  0.00    -0.059 C 
ATOM     39  H   LIG d   1       8.192  -1.087  -5.862  0.00  0.00     0.024 H 
ATOM     40  H   LIG d   1       6.548  -1.289  -5.210  0.00  0.00     0.024 H 
ATOM     41  H   LIG d   1       6.787  -0.520  -6.796  0.00  0.00     0.024 H 
ENDBRANCH  36  38
BRANCH  36  42
ATOM     42  C   LIG d   1       6.488   0.721  -3.849  0.00  0.00    -0.085 C 
ATOM     43  C   LIG d   1       5.856  -0.365  -3.480  0.00  0.00    -0.085 C 
ATOM     44  H   LIG d   1       5.920  -1.257  -4.086  0.00  0.00     0.057 H 
ATOM     45  H   LIG d   1       6.424   1.614  -3.243  0.00  0.00     0.057 H 
BRANCH  43  46
ATOM     46  C   LIG d   1       5.043  -0.371  -2.212  0.00  0.00    -0.023 C 
ATOM     47  H   LIG d   1       5.668  -0.695  -1.380  0.00  0.00     0.034 H 
BRANCH  46  48
ATOM     48  C   LIG d   1       4.518   1.040  -1.937  0.00  0.00    -0.059 C 
ATOM     49  H   LIG d   1       5.324   1.656  -1.538  0.00  0.00     0.024 H 
ATOM     50  H   LIG d   1       4.152   1.478  -2.866  0.00  0.00     0.024 H 
ATOM     51  H   LIG d   1       3.705   0.990  -1.213  0.00  0.00     0.024 H 
ENDBRANCH  46  48
BRANCH  46  52
ATOM     52  C   LIG d   1       3.863  -1.333  -2.366  0.00  0.00    -0.041 C 
ATOM     53  H   LIG d   1       3.540  -1.673  -1.382  0.00  0.00     0.030 H 
BRANCH  52  54
ATOM     54  C   LIG d   1       2.706  -0.613  -3.062  0.00  0.00    -0.062 C 
ATOM     55  H   LIG d   1       3.087   0.266  -3.585  0.00  0.00     0.023 H 
ATOM     56  H   LIG d   1       2.238  -1.287  -3.779  0.00  0.00     0.023 H 
ATOM     57  H   LIG d   1       1.971  -0.304  -2.319  0.00  0.00     0.023 H 
ENDBRANCH  52  54
BRANCH  52  58
ATOM     58  C   LIG d   1       4.293  -2.537  -3.205  0.00  0.00    -0.062 C 
ATOM     59  H   LIG d   1       4.039  -2.361  -4.251  0.00  0.00     0.023 H 
ATOM     60  H   LIG d   1       5.369  -2.679  -3.112  0.00  0.00     0.023 H 
ATOM     61  H   LIG d   1       3.777  -3.430  -2.852  0.00  0.00     0.023 H 
ENDBRANCH  52  58
ENDBRANCH  46  52
ENDBRANCH  43  46
ENDBRANCH  36  42
ENDBRANCH   1  36
BRANCH   7  62
ATOM     62  C   LIG d   1      10.910   1.909  -5.583  0.00  0.00    -0.059 C 
ATOM     63  H   LIG d   1      11.230   0.867  -5.632  0.00  0.00     0.024 H 
ATOM     64  H   LIG d   1      11.418   2.480  -6.361  0.00  0.00     0.024 H 
ATOM     65  H   LIG d   1      11.164   2.320  -4.607  0.00  0.00     0.024 H 
ENDBRANCH   7  62
BRANCH  16  66
ATOM     66  C   LIG d   1      11.316   4.985  -9.128  0.00  0.00    -0.055 C 
ATOM     67  H   LIG d   1      11.155   4.035  -9.636  0.00  0.00     0.024 H 
ATOM     68  H   LIG d   1      11.530   5.760  -9.864  0.00  0.00     0.024 H 
ATOM     69  H   LIG d   1      12.159   4.894  -8.442  0.00  0.00     0.024 H 
ENDBRANCH  16  66
BRANCH  21  70
ATOM     70  C   LIG d   1      12.189   7.912  -8.873  0.00  0.00    -0.053 C 
ATOM     71  H   LIG d   1      12.571   6.893  -8.952  0.00  0.00     0.024 H 
ATOM     72  H   LIG d   1      12.277   8.407  -9.841  0.00  0.00     0.024 H 
ATOM     73  H   LIG d   1      12.767   8.460  -8.129  0.00  0.00     0.024 H 
ENDBRANCH  21  70
BRANCH  21  74
ATOM     74  C   LIG d   1      10.462   9.145  -7.601  0.00  0.00    -0.053 C 
ATOM     75  H   LIG d   1      11.019   9.076  -6.666  0.00  0.00     0.024 H 
ATOM     76  H   LIG d   1      10.789  10.026  -8.154  0.00  0.00     0.024 H 
ATOM     77  H   LIG d   1       9.397   9.227  -7.383  0.00  0.00     0.024 H 
ENDBRANCH  21  74
BRANCH  19  78
ATOM     78  O   LIG d   1      10.384   8.881 -10.617  0.00  0.00    -0.461 OA
BRANCH  78  79
ATOM     79  C   LIG d   1      10.299   8.540 -11.913  0.00  0.00     0.304 C 
ATOM     80  O   LIG d   1       9.360   8.915 -12.575  0.00  0.00    -0.251 OA
BRANCH  79  81
ATOM     81  C   LIG d   1      11.372   7.689 -12.540  0.00  0.00     0.033 C 
ATOM     82  H   LIG d   1      10.965   7.175 -13.411  0.00  0.00     0.034 H 
ATOM     83  H   LIG d   1      12.204   8.322 -12.850  0.00  0.00     0.034 H 
ATOM     84  H   LIG d   1      11.725   6.956 -11.816  0.00  0.00     0.034 H 
ENDBRANCH  79  81
ENDBRANCH  78  79
ENDBRANCH  19  78
TORSDOF 15
ENDMDL
MODEL 5
REMARK VINA RESULT:      -5.5      3.319      8.624
REMARK  15 active torsions:
REMARK  status: ('A' for Active; 'I' for Inactive)
REMARK    1  A    between atoms: C_1  and  C_2 
REMARK    2  A    between atoms: C_2  and  C_4 
REMARK    3  A    between atoms: C_2  and  C_12 
REMARK    4  A    between atoms: C_5  and  C_6 
REMARK    5  A    between atoms: C_6  and  C_8 
REMARK    6  A    between atoms: C_6  and  C_9 
REMARK    7  A    between atoms: C_9  and  C_10 
REMARK    8  A    between atoms: C_9  and  C_11 
REMARK    9  A    between atoms: C_18  and  C_40 
REMARK   10  A    between atoms: C_27  and  C_39 
REMARK   11  A    between atoms: C_30  and  O_35 
REMARK   12  A    between atoms: C_32  and  C_33 
REMARK   13  A    between atoms: C_32  and  C_34 
REMARK   14  A    between atoms: O_35  and  C_36 
REMARK   15  A    between atoms: C_36  and  C_38 
ROOT
ATOM      1  C   LIG d   1       6.696  -8.942  -5.893  0.00  0.00    -0.029 C 
ATOM      2  H   LIG d   1       6.557  -9.479  -6.828  0.00  0.00     0.031 H 
ATOM      3  C   LIG d   1       8.200  -8.912  -5.508  0.00  0.00    -0.049 C 
ATOM      4  C   LIG d   1       8.541  -7.431  -5.178  0.00  0.00    -0.046 C 
ATOM      5  C   LIG d   1       7.154  -6.810  -4.937  0.00  0.00    -0.014 C 
ATOM      6  H   LIG d   1       6.776  -7.112  -3.950  0.00  0.00     0.035 H 
ATOM      7  C   LIG d   1       6.332  -7.465  -6.074  0.00  0.00    -0.022 C 
ATOM      8  C   LIG d   1       4.886  -7.076  -6.029  0.00  0.00    -0.046 C 
ATOM      9  C   LIG d   1       4.668  -5.736  -5.312  0.00  0.00    -0.045 C 
ATOM     10  C   LIG d   1       5.799  -4.767  -5.632  0.00  0.00    -0.010 C 
ATOM     11  H   LIG d   1       5.903  -4.759  -6.731  0.00  0.00     0.035 H 
ATOM     12  C   LIG d   1       7.086  -5.323  -5.077  0.00  0.00    -0.062 C 
ATOM     13  C   LIG d   1       8.079  -4.522  -4.764  0.00  0.00    -0.062 C 
ATOM     14  C   LIG d   1       7.906  -3.064  -4.767  0.00  0.00    -0.061 C 
ATOM     15  C   LIG d   1       6.709  -2.509  -4.899  0.00  0.00    -0.054 C 
ATOM     16  C   LIG d   1       5.520  -3.342  -5.277  0.00  0.00    -0.004 C 
ATOM     17  C   LIG d   1       4.381  -3.087  -4.314  0.00  0.00    -0.040 C 
ATOM     18  C   LIG d   1       4.058  -1.591  -4.303  0.00  0.00    -0.014 C 
ATOM     19  C   LIG d   1       5.250  -0.736  -3.923  0.00  0.00     0.112 C 
ATOM     20  H   LIG d   1       5.457  -0.885  -2.852  0.00  0.00     0.074 H 
ATOM     21  C   LIG d   1       6.539  -1.020  -4.701  0.00  0.00     0.024 C 
ATOM     22  H   LIG d   1       8.370  -9.536  -4.631  0.00  0.00     0.027 H 
ATOM     23  H   LIG d   1       8.806  -9.260  -6.343  0.00  0.00     0.027 H 
ATOM     24  H   LIG d   1       9.134  -7.382  -4.260  0.00  0.00     0.027 H 
ATOM     25  H   LIG d   1       9.071  -6.950  -5.989  0.00  0.00     0.027 H 
ATOM     26  H   LIG d   1       4.523  -6.969  -7.063  0.00  0.00     0.027 H 
ATOM     27  H   LIG d   1       4.273  -7.835  -5.551  0.00  0.00     0.027 H 
ATOM     28  H   LIG d   1       3.715  -5.315  -5.637  0.00  0.00     0.027 H 
ATOM     29  H   LIG d   1       4.629  -5.911  -4.235  0.00  0.00     0.027 H 
ATOM     30  H   LIG d   1       9.039  -4.943  -4.501  0.00  0.00     0.062 H 
ATOM     31  H   LIG d   1       8.802  -2.459  -4.709  0.00  0.00     0.062 H 
ATOM     32  H   LIG d   1       3.498  -3.650  -4.624  0.00  0.00     0.028 H 
ATOM     33  H   LIG d   1       4.670  -3.408  -3.310  0.00  0.00     0.028 H 
ATOM     34  H   LIG d   1       3.626  -1.262  -5.241  0.00  0.00     0.030 H 
ATOM     35  H   LIG d   1       3.275  -1.431  -3.537  0.00  0.00     0.030 H 
ENDROOT
BRANCH   1  36
ATOM     36  C   LIG d   1       5.892  -9.592  -4.769  0.00  0.00    -0.022 C 
ATOM     37  H   LIG d   1       5.144  -8.887  -4.404  0.00  0.00     0.034 H 
BRANCH  36  38
ATOM     38  C   LIG d   1       5.193 -10.844  -5.301  0.00  0.00    -0.059 C 
ATOM     39  H   LIG d   1       4.269 -10.559  -5.805  0.00  0.00     0.024 H 
ATOM     40  H   LIG d   1       5.848 -11.355  -6.007  0.00  0.00     0.024 H 
ATOM     41  H   LIG d   1       4.963 -11.512  -4.472  0.00  0.00     0.024 H 
ENDBRANCH  36  38
BRANCH  36  42
ATOM     42  C   LIG d   1       6.817  -9.973  -3.643  0.00  0.00    -0.085 C 
ATOM     43  C   LIG d   1       6.547  -9.598  -2.418  0.00  0.00    -0.085 C 
ATOM     44  H   LIG d   1       5.660  -9.016  -2.215  0.00  0.00     0.057 H 
ATOM     45  H   LIG d   1       7.704 -10.555  -3.847  0.00  0.00     0.057 H 
BRANCH  43  46
ATOM     46  C   LIG d   1       7.473  -9.979  -1.292  0.00  0.00    -0.023 C 
ATOM     47  H   LIG d   1       7.352  -9.277  -0.467  0.00  0.00     0.034 H 
BRANCH  46  48
ATOM     48  C   LIG d   1       7.135 -11.393  -0.812  0.00  0.00    -0.059 C 
ATOM     49  H   LIG d   1       7.331 -12.105  -1.613  0.00  0.00     0.024 H 
ATOM     50  H   LIG d   1       7.753 -11.640   0.052  0.00  0.00     0.024 H 
ATOM     51  H   LIG d   1       6.082 -11.439  -0.532  0.00  0.00     0.024 H 
ENDBRANCH  46  48
BRANCH  46  52
ATOM     52  C   LIG d   1       8.921  -9.941  -1.786  0.00  0.00    -0.041 C 
ATOM     53  H   LIG d   1       8.962 -10.294  -2.816  0.00  0.00     0.030 H 
BRANCH  52  54
ATOM     54  C   LIG d   1       9.445  -8.505  -1.717  0.00  0.00    -0.062 C 
ATOM     55  H   LIG d   1       9.512  -8.094  -2.725  0.00  0.00     0.023 H 
ATOM     56  H   LIG d   1       8.763  -7.898  -1.122  0.00  0.00     0.023 H 
ATOM     57  H   LIG d   1      10.433  -8.500  -1.256  0.00  0.00     0.023 H 
ENDBRANCH  52  54
BRANCH  52  58
ATOM     58  C   LIG d   1       9.785 -10.843  -0.903  0.00  0.00    -0.062 C 
ATOM     59  H   LIG d   1       9.610 -11.886  -1.168  0.00  0.00     0.023 H 
ATOM     60  H   LIG d   1      10.836 -10.601  -1.055  0.00  0.00     0.023 H 
ATOM     61  H   LIG d   1       9.524 -10.685   0.143  0.00  0.00     0.023 H 
ENDBRANCH  52  58
ENDBRANCH  46  52
ENDBRANCH  43  46
ENDBRANCH  36  42
ENDBRANCH   1  36
BRANCH   7  62
ATOM     62  C   LIG d   1       6.908  -7.041  -7.435  0.00  0.00    -0.059 C 
ATOM     63  H   LIG d   1       7.987  -6.915  -7.350  0.00  0.00     0.024 H 
ATOM     64  H   LIG d   1       6.691  -7.809  -8.177  0.00  0.00     0.024 H 
ATOM     65  H   LIG d   1       6.455  -6.099  -7.744  0.00  0.00     0.024 H 
ENDBRANCH   7  62
BRANCH  16  66
ATOM     66  C   LIG d   1       5.025  -2.799  -6.626  0.00  0.00    -0.055 C 
ATOM     67  H   LIG d   1       4.772  -1.744  -6.522  0.00  0.00     0.024 H 
ATOM     68  H   LIG d   1       5.811  -2.913  -7.373  0.00  0.00     0.024 H 
ATOM     69  H   LIG d   1       4.143  -3.356  -6.940  0.00  0.00     0.024 H 
ENDBRANCH  16  66
BRANCH  21  70
ATOM     70  C   LIG d   1       6.582  -0.232  -6.010  0.00  0.00    -0.053 C 
ATOM     71  H   LIG d   1       7.263   0.613  -5.904  0.00  0.00     0.024 H 
ATOM     72  H   LIG d   1       6.933  -0.881  -6.813  0.00  0.00     0.024 H 
ATOM     73  H   LIG d   1       5.583   0.134  -6.248  0.00  0.00     0.024 H 
ENDBRANCH  21  70
BRANCH  21  74
ATOM     74  C   LIG d   1       7.698  -0.490  -3.816  0.00  0.00    -0.053 C 
ATOM     75  H   LIG d   1       8.516  -1.210  -3.818  0.00  0.00     0.024 H 
ATOM     76  H   LIG d   1       8.052   0.462  -4.213  0.00  0.00     0.024 H 
ATOM     77  H   LIG d   1       7.341  -0.348  -2.796  0.00  0.00     0.024 H 
ENDBRANCH  21  74
BRANCH  19  78
ATOM     78  O   LIG d   1       4.905   0.646  -4.099  0.00  0.00    -0.461 OA
BRANCH  78  79
ATOM     79  C   LIG d   1       4.330   1.268  -3.057  0.00  0.00     0.304 C 
ATOM     80  O   LIG d   1       3.543   2.165  -3.248  0.00  0.00    -0.251 OA
BRANCH  79  81
ATOM     81  C   LIG d   1       4.668   0.850  -1.650  0.00  0.00     0.033 C 
ATOM     82  H   LIG d   1       4.201  -0.112  -1.435  0.00  0.00     0.034 H 
ATOM     83  H   LIG d   1       5.750   0.759  -1.546  0.00  0.00     0.034 H 
ATOM     84  H   LIG d   1       4.299   1.598  -0.949  0.00  0.00     0.034 H 
ENDBRANCH  79  81
ENDBRANCH  78  79
ENDBRANCH  19  78
TORSDOF 15
ENDMDL
MODEL 6
REMARK VINA RESULT:      -5.5      1.464      2.337
REMARK  15 active torsions:
REMARK  status: ('A' for Active; 'I' for Inactive)
REMARK    1  A    between atoms: C_1  and  C_2 
REMARK    2  A    between atoms: C_2  and  C_4 
REMARK    3  A    between atoms: C_2  and  C_12 
REMARK    4  A    between atoms: C_5  and  C_6 
REMARK    5  A    between atoms: C_6  and  C_8 
REMARK    6  A    between atoms: C_6  and  C_9 
REMARK    7  A    between atoms: C_9  and  C_10 
REMARK    8  A    between atoms: C_9  and  C_11 
REMARK    9  A    between atoms: C_18  and  C_40 
REMARK   10  A    between atoms: C_27  and  C_39 
REMARK   11  A    between atoms: C_30  and  O_35 
REMARK   12  A    between atoms: C_32  and  C_33 
REMARK   13  A    between atoms: C_32  and  C_34 
REMARK   14  A    between atoms: O_35  and  C_36 
REMARK   15  A    between atoms: C_36  and  C_38 
ROOT
ATOM      1  C   LIG d   1       6.456  -3.096  -6.917  0.00  0.00    -0.029 C 
ATOM      2  H   LIG d   1       6.924  -2.752  -7.837  0.00  0.00     0.031 H 
ATOM      3  C   LIG d   1       4.913  -3.140  -7.082  0.00  0.00    -0.049 C 
ATOM      4  C   LIG d   1       4.458  -4.542  -6.585  0.00  0.00    -0.046 C 
ATOM      5  C   LIG d   1       5.661  -5.014  -5.752  0.00  0.00    -0.014 C 
ATOM      6  H   LIG d   1       5.671  -4.495  -4.783  0.00  0.00     0.035 H 
ATOM      7  C   LIG d   1       6.840  -4.554  -6.643  0.00  0.00    -0.022 C 
ATOM      8  C   LIG d   1       8.172  -4.835  -6.018  0.00  0.00    -0.046 C 
ATOM      9  C   LIG d   1       8.104  -5.986  -5.003  0.00  0.00    -0.045 C 
ATOM     10  C   LIG d   1       7.146  -7.067  -5.484  0.00  0.00    -0.010 C 
ATOM     11  H   LIG d   1       7.435  -7.304  -6.522  0.00  0.00     0.035 H 
ATOM     12  C   LIG d   1       5.753  -6.491  -5.542  0.00  0.00    -0.062 C 
ATOM     13  C   LIG d   1       4.702  -7.271  -5.431  0.00  0.00    -0.062 C 
ATOM     14  C   LIG d   1       4.845  -8.687  -5.066  0.00  0.00    -0.061 C 
ATOM     15  C   LIG d   1       6.004  -9.182  -4.653  0.00  0.00    -0.054 C 
ATOM     16  C   LIG d   1       7.261  -8.371  -4.761  0.00  0.00    -0.004 C 
ATOM     17  C   LIG d   1       7.983  -8.355  -3.432  0.00  0.00    -0.040 C 
ATOM     18  C   LIG d   1       8.261  -9.794  -2.993  0.00  0.00    -0.014 C 
ATOM     19  C   LIG d   1       7.000 -10.626  -2.879  0.00  0.00     0.112 C 
ATOM     20  H   LIG d   1       6.431 -10.277  -2.004  0.00  0.00     0.074 H 
ATOM     21  C   LIG d   1       6.072 -10.586  -4.098  0.00  0.00     0.024 C 
ATOM     22  H   LIG d   1       4.454  -2.363  -6.471  0.00  0.00     0.027 H 
ATOM     23  H   LIG d   1       4.646  -3.007  -8.128  0.00  0.00     0.027 H 
ATOM     24  H   LIG d   1       3.577  -4.440  -5.943  0.00  0.00     0.027 H 
ATOM     25  H   LIG d   1       4.241  -5.209  -7.409  0.00  0.00     0.027 H 
ATOM     26  H   LIG d   1       8.875  -5.127  -6.813  0.00  0.00     0.027 H 
ATOM     27  H   LIG d   1       8.588  -3.958  -5.528  0.00  0.00     0.027 H 
ATOM     28  H   LIG d   1       9.104  -6.404  -4.880  0.00  0.00     0.027 H 
ATOM     29  H   LIG d   1       7.764  -5.594  -4.043  0.00  0.00     0.027 H 
ATOM     30  H   LIG d   1       3.717  -6.866  -5.614  0.00  0.00     0.062 H 
ATOM     31  H   LIG d   1       3.978  -9.322  -5.196  0.00  0.00     0.062 H 
ATOM     32  H   LIG d   1       8.927  -7.812  -3.527  0.00  0.00     0.028 H 
ATOM     33  H   LIG d   1       7.363  -7.855  -2.683  0.00  0.00     0.028 H 
ATOM     34  H   LIG d   1       8.991 -10.280  -3.630  0.00  0.00     0.030 H 
ATOM     35  H   LIG d   1       8.721  -9.747  -1.988  0.00  0.00     0.030 H 
ENDROOT
BRANCH   1  36
ATOM     36  C   LIG d   1       6.822  -2.184  -5.749  0.00  0.00    -0.022 C 
ATOM     37  H   LIG d   1       7.051  -2.790  -4.872  0.00  0.00     0.034 H 
BRANCH  36  38
ATOM     38  C   LIG d   1       8.046  -1.345  -6.120  0.00  0.00    -0.059 C 
ATOM     39  H   LIG d   1       8.411  -0.821  -5.236  0.00  0.00     0.024 H 
ATOM     40  H   LIG d   1       8.831  -1.997  -6.505  0.00  0.00     0.024 H 
ATOM     41  H   LIG d   1       7.771  -0.619  -6.885  0.00  0.00     0.024 H 
ENDBRANCH  36  38
BRANCH  36  42
ATOM     42  C   LIG d   1       5.663  -1.271  -5.440  0.00  0.00    -0.085 C 
ATOM     43  C   LIG d   1       5.487  -0.825  -4.222  0.00  0.00    -0.085 C 
ATOM     44  H   LIG d   1       6.173  -1.110  -3.438  0.00  0.00     0.057 H 
ATOM     45  H   LIG d   1       4.977  -0.987  -6.225  0.00  0.00     0.057 H 
BRANCH  43  46
ATOM     46  C   LIG d   1       4.327   0.087  -3.914  0.00  0.00    -0.023 C 
ATOM     47  H   LIG d   1       4.634   1.124  -4.049  0.00  0.00     0.034 H 
BRANCH  46  48
ATOM     48  C   LIG d   1       3.166  -0.229  -4.860  0.00  0.00    -0.059 C 
ATOM     49  H   LIG d   1       3.406  -1.115  -5.447  0.00  0.00     0.024 H 
ATOM     50  H   LIG d   1       2.263  -0.413  -4.277  0.00  0.00     0.024 H 
ATOM     51  H   LIG d   1       3.002   0.617  -5.528  0.00  0.00     0.024 H 
ENDBRANCH  46  48
BRANCH  46  52
ATOM     52  C   LIG d   1       3.879  -0.128  -2.467  0.00  0.00    -0.041 C 
ATOM     53  H   LIG d   1       2.797  -0.017  -2.401  0.00  0.00     0.030 H 
BRANCH  52  54
ATOM     54  C   LIG d   1       4.276  -1.534  -2.014  0.00  0.00    -0.062 C 
ATOM     55  H   LIG d   1       4.409  -2.173  -2.887  0.00  0.00     0.023 H 
ATOM     56  H   LIG d   1       5.209  -1.485  -1.454  0.00  0.00     0.023 H 
ATOM     57  H   LIG d   1       3.492  -1.946  -1.378  0.00  0.00     0.023 H 
ENDBRANCH  52  54
BRANCH  52  58
ATOM     58  C   LIG d   1       4.552   0.908  -1.565  0.00  0.00    -0.062 C 
ATOM     59  H   LIG d   1       4.050   0.929  -0.597  0.00  0.00     0.023 H 
ATOM     60  H   LIG d   1       5.600   0.642  -1.426  0.00  0.00     0.023 H 
ATOM     61  H   LIG d   1       4.486   1.892  -2.030  0.00  0.00     0.023 H 
ENDBRANCH  52  58
ENDBRANCH  46  52
ENDBRANCH  43  46
ENDBRANCH  36  42
ENDBRANCH   1  36
BRANCH   7  62
ATOM     62  C   LIG d   1       6.776  -5.280  -7.997  0.00  0.00    -0.059 C 
ATOM     63  H   LIG d   1       5.830  -5.815  -8.078  0.00  0.00     0.024 H 
ATOM     64  H   LIG d   1       6.850  -4.551  -8.805  0.00  0.00     0.024 H 
ATOM     65  H   LIG d   1       7.600  -5.988  -8.070  0.00  0.00     0.024 H 
ENDBRANCH   7  62
BRANCH  16  66
ATOM     66  C   LIG d   1       8.192  -9.144  -5.706  0.00  0.00    -0.055 C 
ATOM     67  H   LIG d   1       7.653  -9.989  -6.136  0.00  0.00     0.024 H 
ATOM     68  H   LIG d   1       8.528  -8.483  -6.506  0.00  0.00     0.024 H 
ATOM     69  H   LIG d   1       9.055  -9.508  -5.149  0.00  0.00     0.024 H 
ENDBRANCH  16  66
BRANCH  21  70
ATOM     70  C   LIG d   1       6.482 -11.624  -5.142  0.00  0.00    -0.053 C 
ATOM     71  H   LIG d   1       7.147 -12.357  -4.684  0.00  0.00     0.024 H 
ATOM     72  H   LIG d   1       5.593 -12.129  -5.522  0.00  0.00     0.024 H 
ATOM     73  H   LIG d   1       6.999 -11.129  -5.965  0.00  0.00     0.024 H 
ENDBRANCH  21  70
BRANCH  21  74
ATOM     74  C   LIG d   1       4.668 -10.996  -3.580  0.00  0.00    -0.053 C 
ATOM     75  H   LIG d   1       4.775 -11.732  -2.783  0.00  0.00     0.024 H 
ATOM     76  H   LIG d   1       4.152 -10.117  -3.195  0.00  0.00     0.024 H 
ATOM     77  H   LIG d   1       4.090 -11.428  -4.398  0.00  0.00     0.024 H 
ENDBRANCH  21  74
BRANCH  19  78
ATOM     78  O   LIG d   1       7.365 -11.992  -2.628  0.00  0.00    -0.461 OA
BRANCH  78  79
ATOM     79  C   LIG d   1       7.266 -12.426  -1.361  0.00  0.00     0.304 C 
ATOM     80  O   LIG d   1       6.499 -11.888  -0.597  0.00  0.00    -0.251 OA
BRANCH  79  81
ATOM     81  C   LIG d   1       8.109 -13.582  -0.892  0.00  0.00     0.033 C 
ATOM     82  H   LIG d   1       8.916 -13.755  -1.604  0.00  0.00     0.034 H 
ATOM     83  H   LIG d   1       8.533 -13.351   0.086  0.00  0.00     0.034 H 
ATOM     84  H   LIG d   1       7.491 -14.476  -0.817  0.00  0.00     0.034 H 
ENDBRANCH  79  81
ENDBRANCH  78  79
ENDBRANCH  19  78
TORSDOF 15
ENDMDL
MODEL 7
REMARK VINA RESULT:      -5.1      5.091      8.848
REMARK  15 active torsions:
REMARK  status: ('A' for Active; 'I' for Inactive)
REMARK    1  A    between atoms: C_1  and  C_2 
REMARK    2  A    between atoms: C_2  and  C_4 
REMARK    3  A    between atoms: C_2  and  C_12 
REMARK    4  A    between atoms: C_5  and  C_6 
REMARK    5  A    between atoms: C_6  and  C_8 
REMARK    6  A    between atoms: C_6  and  C_9 
REMARK    7  A    between atoms: C_9  and  C_10 
REMARK    8  A    between atoms: C_9  and  C_11 
REMARK    9  A    between atoms: C_18  and  C_40 
REMARK   10  A    between atoms: C_27  and  C_39 
REMARK   11  A    between atoms: C_30  and  O_35 
REMARK   12  A    between atoms: C_32  and  C_33 
REMARK   13  A    between atoms: C_32  and  C_34 
REMARK   14  A    between atoms: O_35  and  C_36 
REMARK   15  A    between atoms: C_36  and  C_38 
ROOT
ATOM      1  C   LIG d   1      11.908   4.829  -5.148  0.00  0.00    -0.029 C 
ATOM      2  H   LIG d   1      12.960   4.642  -4.943  0.00  0.00     0.031 H 
ATOM      3  C   LIG d   1      11.712   5.212  -6.640  0.00  0.00    -0.049 C 
ATOM      4  C   LIG d   1      10.561   4.313  -7.177  0.00  0.00    -0.046 C 
ATOM      5  C   LIG d   1       9.875   3.833  -5.886  0.00  0.00    -0.014 C 
ATOM      6  H   LIG d   1       9.264   4.644  -5.466  0.00  0.00     0.035 H 
ATOM      7  C   LIG d   1      11.102   3.536  -4.990  0.00  0.00    -0.022 C 
ATOM      8  C   LIG d   1      10.709   3.106  -3.610  0.00  0.00    -0.046 C 
ATOM      9  C   LIG d   1       9.299   2.498  -3.572  0.00  0.00    -0.045 C 
ATOM     10  C   LIG d   1       9.038   1.673  -4.826  0.00  0.00    -0.010 C 
ATOM     11  H   LIG d   1       9.898   0.990  -4.937  0.00  0.00     0.035 H 
ATOM     12  C   LIG d   1       9.055   2.592  -6.022  0.00  0.00    -0.062 C 
ATOM     13  C   LIG d   1       8.393   2.279  -7.114  0.00  0.00    -0.062 C 
ATOM     14  C   LIG d   1       7.475   1.132  -7.141  0.00  0.00    -0.061 C 
ATOM     15  C   LIG d   1       7.136   0.490  -6.031  0.00  0.00    -0.054 C 
ATOM     16  C   LIG d   1       7.853   0.766  -4.742  0.00  0.00    -0.004 C 
ATOM     17  C   LIG d   1       6.852   1.048  -3.643  0.00  0.00    -0.040 C 
ATOM     18  C   LIG d   1       5.887  -0.135  -3.526  0.00  0.00    -0.014 C 
ATOM     19  C   LIG d   1       5.156  -0.425  -4.821  0.00  0.00     0.112 C 
ATOM     20  H   LIG d   1       4.431   0.383  -4.999  0.00  0.00     0.074 H 
ATOM     21  C   LIG d   1       6.043  -0.553  -6.064  0.00  0.00     0.024 C 
ATOM     22  H   LIG d   1      11.430   6.262  -6.718  0.00  0.00     0.027 H 
ATOM     23  H   LIG d   1      12.627   5.024  -7.198  0.00  0.00     0.027 H 
ATOM     24  H   LIG d   1       9.863   4.916  -7.767  0.00  0.00     0.027 H 
ATOM     25  H   LIG d   1      10.938   3.492  -7.772  0.00  0.00     0.027 H 
ATOM     26  H   LIG d   1      11.418   2.335  -3.271  0.00  0.00     0.027 H 
ATOM     27  H   LIG d   1      10.758   3.924  -2.896  0.00  0.00     0.027 H 
ATOM     28  H   LIG d   1       9.214   1.865  -2.687  0.00  0.00     0.027 H 
ATOM     29  H   LIG d   1       8.566   3.303  -3.503  0.00  0.00     0.027 H 
ATOM     30  H   LIG d   1       8.528   2.874  -8.006  0.00  0.00     0.062 H 
ATOM     31  H   LIG d   1       7.127   0.800  -8.110  0.00  0.00     0.062 H 
ATOM     32  H   LIG d   1       7.372   1.191  -2.693  0.00  0.00     0.028 H 
ATOM     33  H   LIG d   1       6.292   1.957  -3.879  0.00  0.00     0.028 H 
ATOM     34  H   LIG d   1       6.379  -1.024  -3.148  0.00  0.00     0.030 H 
ATOM     35  H   LIG d   1       5.128   0.136  -2.767  0.00  0.00     0.030 H 
ENDROOT
BRANCH   1  36
ATOM     36  C   LIG d   1      11.372   5.946  -4.256  0.00  0.00    -0.022 C 
ATOM     37  H   LIG d   1      10.534   5.570  -3.668  0.00  0.00     0.034 H 
BRANCH  36  38
ATOM     38  C   LIG d   1      12.480   6.425  -3.316  0.00  0.00    -0.059 C 
ATOM     39  H   LIG d   1      12.046   6.706  -2.356  0.00  0.00     0.024 H 
ATOM     40  H   LIG d   1      13.203   5.622  -3.167  0.00  0.00     0.024 H 
ATOM     41  H   LIG d   1      12.981   7.287  -3.755  0.00  0.00     0.024 H 
ENDBRANCH  36  38
BRANCH  36  42
ATOM     42  C   LIG d   1      10.908   7.096  -5.113  0.00  0.00    -0.085 C 
ATOM     43  C   LIG d   1       9.652   7.465  -5.091  0.00  0.00    -0.085 C 
ATOM     44  H   LIG d   1       8.949   6.946  -4.458  0.00  0.00     0.057 H 
ATOM     45  H   LIG d   1      11.613   7.615  -5.747  0.00  0.00     0.057 H 
BRANCH  43  46
ATOM     46  C   LIG d   1       9.189   8.615  -5.948  0.00  0.00    -0.023 C 
ATOM     47  H   LIG d   1       8.118   8.527  -6.128  0.00  0.00     0.034 H 
BRANCH  46  48
ATOM     48  C   LIG d   1       9.480   9.934  -5.230  0.00  0.00    -0.059 C 
ATOM     49  H   LIG d   1      10.213   9.765  -4.440  0.00  0.00     0.024 H 
ATOM     50  H   LIG d   1       9.877  10.656  -5.944  0.00  0.00     0.024 H 
ATOM     51  H   LIG d   1       8.559  10.321  -4.795  0.00  0.00     0.024 H 
ENDBRANCH  46  48
BRANCH  46  52
ATOM     52  C   LIG d   1       9.934   8.587  -7.285  0.00  0.00    -0.041 C 
ATOM     53  H   LIG d   1      10.859   8.022  -7.174  0.00  0.00     0.030 H 
BRANCH  52  54
ATOM     54  C   LIG d   1       9.054   7.922  -8.345  0.00  0.00    -0.062 C 
ATOM     55  H   LIG d   1       8.362   7.232  -7.862  0.00  0.00     0.023 H 
ATOM     56  H   LIG d   1       8.490   8.686  -8.880  0.00  0.00     0.023 H 
ATOM     57  H   LIG d   1       9.682   7.375  -9.048  0.00  0.00     0.023 H 
ENDBRANCH  52  54
BRANCH  52  58
ATOM     58  C   LIG d   1      10.260  10.017  -7.716  0.00  0.00    -0.062 C 
ATOM     59  H   LIG d   1      10.029  10.140  -8.775  0.00  0.00     0.023 H 
ATOM     60  H   LIG d   1       9.666  10.718  -7.131  0.00  0.00     0.023 H 
ATOM     61  H   LIG d   1      11.320  10.214  -7.551  0.00  0.00     0.023 H 
ENDBRANCH  52  58
ENDBRANCH  46  52
ENDBRANCH  43  46
ENDBRANCH  36  42
ENDBRANCH   1  36
BRANCH   7  62
ATOM     62  C   LIG d   1      11.946   2.419  -5.625  0.00  0.00    -0.059 C 
ATOM     63  H   LIG d   1      13.004   2.628  -5.466  0.00  0.00     0.024 H 
ATOM     64  H   LIG d   1      11.692   1.464  -5.164  0.00  0.00     0.024 H 
ATOM     65  H   LIG d   1      11.742   2.372  -6.694  0.00  0.00     0.024 H 
ENDBRANCH   7  62
BRANCH  16  66
ATOM     66  C   LIG d   1       8.526  -0.552  -4.333  0.00  0.00    -0.055 C 
ATOM     67  H   LIG d   1       8.172  -0.850  -3.347  0.00  0.00     0.024 H 
ATOM     68  H   LIG d   1       8.276  -1.327  -5.059  0.00  0.00     0.024 H 
ATOM     69  H   LIG d   1       9.607  -0.415  -4.307  0.00  0.00     0.024 H 
ENDBRANCH  16  66
BRANCH  21  70
ATOM     70  C   LIG d   1       6.577  -1.976  -6.221  0.00  0.00    -0.053 C 
ATOM     71  H   LIG d   1       6.074  -2.462  -7.058  0.00  0.00     0.024 H 
ATOM     72  H   LIG d   1       7.650  -1.942  -6.414  0.00  0.00     0.024 H 
ATOM     73  H   LIG d   1       6.389  -2.539  -5.307  0.00  0.00     0.024 H 
ENDBRANCH  21  70
BRANCH  21  74
ATOM     74  C   LIG d   1       5.118  -0.280  -7.279  0.00  0.00    -0.053 C 
ATOM     75  H   LIG d   1       4.090  -0.528  -7.016  0.00  0.00     0.024 H 
ATOM     76  H   LIG d   1       5.178   0.775  -7.552  0.00  0.00     0.024 H 
ATOM     77  H   LIG d   1       5.435  -0.892  -8.123  0.00  0.00     0.024 H 
ENDBRANCH  21  74
BRANCH  19  78
ATOM     78  O   LIG d   1       4.406  -1.640  -4.668  0.00  0.00    -0.461 OA
BRANCH  78  79
ATOM     79  C   LIG d   1       3.697  -1.780  -3.537  0.00  0.00     0.304 C 
ATOM     80  O   LIG d   1       3.889  -2.732  -2.818  0.00  0.00    -0.251 OA
BRANCH  79  81
ATOM     81  C   LIG d   1       2.661  -0.752  -3.164  0.00  0.00     0.033 C 
ATOM     82  H   LIG d   1       1.694  -1.046  -3.571  0.00  0.00     0.034 H 
ATOM     83  H   LIG d   1       2.591  -0.681  -2.079  0.00  0.00     0.034 H 
ATOM     84  H   LIG d   1       2.948   0.217  -3.572  0.00  0.00     0.034 H 
ENDBRANCH  79  81
ENDBRANCH  78  79
ENDBRANCH  19  78
TORSDOF 15
ENDMDL
MODEL 8
REMARK VINA RESULT:      -5.1      1.710      2.289
REMARK  15 active torsions:
REMARK  status: ('A' for Active; 'I' for Inactive)
REMARK    1  A    between atoms: C_1  and  C_2 
REMARK    2  A    between atoms: C_2  and  C_4 
REMARK    3  A    between atoms: C_2  and  C_12 
REMARK    4  A    between atoms: C_5  and  C_6 
REMARK    5  A    between atoms: C_6  and  C_8 
REMARK    6  A    between atoms: C_6  and  C_9 
REMARK    7  A    between atoms: C_9  and  C_10 
REMARK    8  A    between atoms: C_9  and  C_11 
REMARK    9  A    between atoms: C_18  and  C_40 
REMARK   10  A    between atoms: C_27  and  C_39 
REMARK   11  A    between atoms: C_30  and  O_35 
REMARK   12  A    between atoms: C_32  and  C_33 
REMARK   13  A    between atoms: C_32  and  C_34 
REMARK   14  A    between atoms: O_35  and  C_36 
REMARK   15  A    between atoms: C_36  and  C_38 
ROOT
ATOM      1  C   LIG d   1       7.844  -1.936  -6.114  0.00  0.00    -0.029 C 
ATOM      2  H   LIG d   1       8.517  -1.414  -6.791  0.00  0.00     0.031 H 
ATOM      3  C   LIG d   1       6.524  -2.302  -6.846  0.00  0.00    -0.049 C 
ATOM      4  C   LIG d   1       6.267  -3.810  -6.562  0.00  0.00    -0.046 C 
ATOM      5  C   LIG d   1       7.161  -4.081  -5.339  0.00  0.00    -0.014 C 
ATOM      6  H   LIG d   1       6.693  -3.664  -4.436  0.00  0.00     0.035 H 
ATOM      7  C   LIG d   1       8.437  -3.293  -5.722  0.00  0.00    -0.022 C 
ATOM      8  C   LIG d   1       9.476  -3.331  -4.643  0.00  0.00    -0.046 C 
ATOM      9  C   LIG d   1       9.320  -4.557  -3.732  0.00  0.00    -0.045 C 
ATOM     10  C   LIG d   1       8.889  -5.774  -4.541  0.00  0.00    -0.010 C 
ATOM     11  H   LIG d   1       9.584  -5.845  -5.395  0.00  0.00     0.035 H 
ATOM     12  C   LIG d   1       7.519  -5.515  -5.115  0.00  0.00    -0.062 C 
ATOM     13  C   LIG d   1       6.718  -6.514  -5.409  0.00  0.00    -0.062 C 
ATOM     14  C   LIG d   1       7.051  -7.891  -5.022  0.00  0.00    -0.061 C 
ATOM     15  C   LIG d   1       8.062  -8.156  -4.205  0.00  0.00    -0.054 C 
ATOM     16  C   LIG d   1       9.041  -7.081  -3.831  0.00  0.00    -0.004 C 
ATOM     17  C   LIG d   1       9.204  -7.030  -2.328  0.00  0.00    -0.040 C 
ATOM     18  C   LIG d   1       9.637  -8.408  -1.822  0.00  0.00    -0.014 C 
ATOM     19  C   LIG d   1       8.658  -9.503  -2.192  0.00  0.00     0.112 C 
ATOM     20  H   LIG d   1       7.744  -9.369  -1.594  0.00  0.00     0.074 H 
ATOM     21  C   LIG d   1       8.256  -9.555  -3.670  0.00  0.00     0.024 C 
ATOM     22  H   LIG d   1       5.703  -1.705  -6.450  0.00  0.00     0.027 H 
ATOM     23  H   LIG d   1       6.632  -2.135  -7.916  0.00  0.00     0.027 H 
ATOM     24  H   LIG d   1       5.217  -3.964  -6.296  0.00  0.00     0.027 H 
ATOM     25  H   LIG d   1       6.531  -4.429  -7.409  0.00  0.00     0.027 H 
ATOM     26  H   LIG d   1      10.467  -3.388  -5.118  0.00  0.00     0.027 H 
ATOM     27  H   LIG d   1       9.463  -2.434  -4.030  0.00  0.00     0.027 H 
ATOM     28  H   LIG d   1      10.276  -4.756  -3.244  0.00  0.00     0.027 H 
ATOM     29  H   LIG d   1       8.571  -4.340  -2.968  0.00  0.00     0.027 H 
ATOM     30  H   LIG d   1       5.801  -6.319  -5.947  0.00  0.00     0.062 H 
ATOM     31  H   LIG d   1       6.469  -8.686  -5.469  0.00  0.00     0.062 H 
ATOM     32  H   LIG d   1       9.959  -6.287  -2.061  0.00  0.00     0.028 H 
ATOM     33  H   LIG d   1       8.254  -6.750  -1.865  0.00  0.00     0.028 H 
ATOM     34  H   LIG d   1      10.642  -8.660  -2.140  0.00  0.00     0.030 H 
ATOM     35  H   LIG d   1       9.675  -8.353  -0.717  0.00  0.00     0.030 H 
ENDROOT
BRANCH   1  36
ATOM     36  C   LIG d   1       7.531  -1.078  -4.891  0.00  0.00    -0.022 C 
ATOM     37  H   LIG d   1       7.767  -1.637  -3.985  0.00  0.00     0.034 H 
BRANCH  36  38
ATOM     38  C   LIG d   1       8.373   0.199  -4.935  0.00  0.00    -0.059 C 
ATOM     39  H   LIG d   1       9.244   0.038  -5.571  0.00  0.00     0.024 H 
ATOM     40  H   LIG d   1       7.775   1.016  -5.339  0.00  0.00     0.024 H 
ATOM     41  H   LIG d   1       8.701   0.453  -3.927  0.00  0.00     0.024 H 
ENDBRANCH  36  38
BRANCH  36  42
ATOM     42  C   LIG d   1       6.069  -0.715  -4.891  0.00  0.00    -0.085 C 
ATOM     43  C   LIG d   1       5.608   0.152  -4.024  0.00  0.00    -0.085 C 
ATOM     44  H   LIG d   1       6.277   0.608  -3.310  0.00  0.00     0.057 H 
ATOM     45  H   LIG d   1       5.399  -1.171  -5.607  0.00  0.00     0.057 H 
BRANCH  43  46
ATOM     46  C   LIG d   1       4.145   0.515  -4.025  0.00  0.00    -0.023 C 
ATOM     47  H   LIG d   1       4.035   1.581  -4.217  0.00  0.00     0.034 H 
BRANCH  46  48
ATOM     48  C   LIG d   1       3.425  -0.278  -5.119  0.00  0.00    -0.059 C 
ATOM     49  H   LIG d   1       3.147   0.393  -5.930  0.00  0.00     0.024 H 
ATOM     50  H   LIG d   1       4.090  -1.054  -5.501  0.00  0.00     0.024 H 
ATOM     51  H   LIG d   1       2.529  -0.739  -4.703  0.00  0.00     0.024 H 
ENDBRANCH  46  48
BRANCH  46  52
ATOM     52  C   LIG d   1       3.535   0.175  -2.663  0.00  0.00    -0.041 C 
ATOM     53  H   LIG d   1       2.622   0.754  -2.520  0.00  0.00     0.030 H 
BRANCH  52  54
ATOM     54  C   LIG d   1       3.206  -1.318  -2.610  0.00  0.00    -0.062 C 
ATOM     55  H   LIG d   1       3.475  -1.784  -3.559  0.00  0.00     0.023 H 
ATOM     56  H   LIG d   1       3.771  -1.785  -1.804  0.00  0.00     0.023 H 
ATOM     57  H   LIG d   1       2.140  -1.450  -2.430  0.00  0.00     0.023 H 
ENDBRANCH  52  54
BRANCH  52  58
ATOM     58  C   LIG d   1       4.533   0.518  -1.557  0.00  0.00    -0.062 C 
ATOM     59  H   LIG d   1       4.926   1.522  -1.721  0.00  0.00     0.023 H 
ATOM     60  H   LIG d   1       4.033   0.477  -0.590  0.00  0.00     0.023 H 
ATOM     61  H   LIG d   1       5.353  -0.199  -1.572  0.00  0.00     0.023 H 
ENDBRANCH  52  58
ENDBRANCH  46  52
ENDBRANCH  43  46
ENDBRANCH  36  42
ENDBRANCH   1  36
BRANCH   7  62
ATOM     62  C   LIG d   1       9.044  -3.887  -7.003  0.00  0.00    -0.059 C 
ATOM     63  H   LIG d   1       9.854  -3.246  -7.352  0.00  0.00     0.024 H 
ATOM     64  H   LIG d   1       9.436  -4.883  -6.793  0.00  0.00     0.024 H 
ATOM     65  H   LIG d   1       8.277  -3.954  -7.773  0.00  0.00     0.024 H 
ENDBRANCH   7  62
BRANCH  16  66
ATOM     66  C   LIG d   1      10.407  -7.541  -4.361  0.00  0.00    -0.055 C 
ATOM     67  H   LIG d   1      10.300  -7.890  -5.388  0.00  0.00     0.024 H 
ATOM     68  H   LIG d   1      11.107  -6.705  -4.332  0.00  0.00     0.024 H 
ATOM     69  H   LIG d   1      10.784  -8.352  -3.738  0.00  0.00     0.024 H 
ENDBRANCH  16  66
BRANCH  21  70
ATOM     70  C   LIG d   1       9.253 -10.377  -4.488  0.00  0.00    -0.053 C 
ATOM     71  H   LIG d   1       8.832 -11.363  -4.689  0.00  0.00     0.024 H 
ATOM     72  H   LIG d   1       9.454  -9.869  -5.431  0.00  0.00     0.024 H 
ATOM     73  H   LIG d   1      10.181 -10.486  -3.927  0.00  0.00     0.024 H 
ENDBRANCH  21  70
BRANCH  21  74
ATOM     74  C   LIG d   1       6.901 -10.310  -3.718  0.00  0.00    -0.053 C 
ATOM     75  H   LIG d   1       7.057 -11.355  -3.448  0.00  0.00     0.024 H 
ATOM     76  H   LIG d   1       6.206  -9.853  -3.014  0.00  0.00     0.024 H 
ATOM     77  H   LIG d   1       6.488 -10.253  -4.725  0.00  0.00     0.024 H 
ENDBRANCH  21  74
BRANCH  19  78
ATOM     78  O   LIG d   1       9.221 -10.772  -1.827  0.00  0.00    -0.461 OA
BRANCH  78  79
ATOM     79  C   LIG d   1       8.822 -11.302  -0.659  0.00  0.00     0.304 C 
ATOM     80  O   LIG d   1       7.643 -11.435  -0.428  0.00  0.00    -0.251 OA
BRANCH  79  81
ATOM     81  C   LIG d   1       9.843 -11.730   0.362  0.00  0.00     0.033 C 
ATOM     82  H   LIG d   1      10.735 -11.111   0.266  0.00  0.00     0.034 H 
ATOM     83  H   LIG d   1       9.427 -11.613   1.364  0.00  0.00     0.034 H 
ATOM     84  H   LIG d   1      10.105 -12.775   0.199  0.00  0.00     0.034 H 
ENDBRANCH  79  81
ENDBRANCH  78  79
ENDBRANCH  19  78
TORSDOF 15
ENDMDL
MODEL 9
REMARK VINA RESULT:      -5.1      6.945      8.920
REMARK  15 active torsions:
REMARK  status: ('A' for Active; 'I' for Inactive)
REMARK    1  A    between atoms: C_1  and  C_2 
REMARK    2  A    between atoms: C_2  and  C_4 
REMARK    3  A    between atoms: C_2  and  C_12 
REMARK    4  A    between atoms: C_5  and  C_6 
REMARK    5  A    between atoms: C_6  and  C_8 
REMARK    6  A    between atoms: C_6  and  C_9 
REMARK    7  A    between atoms: C_9  and  C_10 
REMARK    8  A    between atoms: C_9  and  C_11 
REMARK    9  A    between atoms: C_18  and  C_40 
REMARK   10  A    between atoms: C_27  and  C_39 
REMARK   11  A    between atoms: C_30  and  O_35 
REMARK   12  A    between atoms: C_32  and  C_33 
REMARK   13  A    between atoms: C_32  and  C_34 
REMARK   14  A    between atoms: O_35  and  C_36 
REMARK   15  A    between atoms: C_36  and  C_38 
ROOT
ATOM      1  C   LIG d   1       5.605  -1.891  -8.074  0.00  0.00    -0.029 C 
ATOM      2  H   LIG d   1       6.635  -2.203  -8.234  0.00  0.00     0.031 H 
ATOM      3  C   LIG d   1       5.472  -0.357  -8.270  0.00  0.00    -0.049 C 
ATOM      4  C   LIG d   1       4.270  -0.139  -9.234  0.00  0.00    -0.046 C 
ATOM      5  C   LIG d   1       3.521  -1.479  -9.149  0.00  0.00    -0.014 C 
ATOM      6  H   LIG d   1       2.962  -1.535  -8.204  0.00  0.00     0.035 H 
ATOM      7  C   LIG d   1       4.701  -2.482  -9.160  0.00  0.00    -0.022 C 
ATOM      8  C   LIG d   1       4.244  -3.901  -9.014  0.00  0.00    -0.046 C 
ATOM      9  C   LIG d   1       2.793  -4.094  -9.476  0.00  0.00    -0.045 C 
ATOM     10  C   LIG d   1       2.500  -3.229 -10.695  0.00  0.00    -0.010 C 
ATOM     11  H   LIG d   1       3.308  -3.424 -11.420  0.00  0.00     0.035 H 
ATOM     12  C   LIG d   1       2.613  -1.778 -10.298  0.00  0.00    -0.062 C 
ATOM     13  C   LIG d   1       1.955  -0.852 -10.959  0.00  0.00    -0.062 C 
ATOM     14  C   LIG d   1       0.955  -1.210 -11.973  0.00  0.00    -0.061 C 
ATOM     15  C   LIG d   1       0.543  -2.462 -12.127  0.00  0.00    -0.054 C 
ATOM     16  C   LIG d   1       1.248  -3.588 -11.430  0.00  0.00    -0.004 C 
ATOM     17  C   LIG d   1       0.246  -4.450 -10.695  0.00  0.00    -0.040 C 
ATOM     18  C   LIG d   1      -0.807  -4.953 -11.685  0.00  0.00    -0.014 C 
ATOM     19  C   LIG d   1      -1.528  -3.827 -12.397  0.00  0.00     0.112 C 
ATOM     20  H   LIG d   1      -2.186  -3.322 -11.673  0.00  0.00     0.074 H 
ATOM     21  C   LIG d   1      -0.624  -2.767 -13.037  0.00  0.00     0.024 C 
ATOM     22  H   LIG d   1       5.271   0.123  -7.313  0.00  0.00     0.027 H 
ATOM     23  H   LIG d   1       6.384   0.044  -8.711  0.00  0.00     0.027 H 
ATOM     24  H   LIG d   1       3.633   0.668  -8.856  0.00  0.00     0.027 H 
ATOM     25  H   LIG d   1       4.598   0.086 -10.240  0.00  0.00     0.027 H 
ATOM     26  H   LIG d   1       4.886  -4.539  -9.642  0.00  0.00     0.027 H 
ATOM     27  H   LIG d   1       4.338  -4.258  -7.992  0.00  0.00     0.027 H 
ATOM     28  H   LIG d   1       2.640  -5.146  -9.723  0.00  0.00     0.027 H 
ATOM     29  H   LIG d   1       2.121  -3.820  -8.661  0.00  0.00     0.027 H 
ATOM     30  H   LIG d   1       2.155   0.190 -10.753  0.00  0.00     0.062 H 
ATOM     31  H   LIG d   1       0.605  -0.420 -12.624  0.00  0.00     0.062 H 
ATOM     32  H   LIG d   1       0.754  -5.302 -10.235  0.00  0.00     0.028 H 
ATOM     33  H   LIG d   1      -0.238  -3.863  -9.910  0.00  0.00     0.028 H 
ATOM     34  H   LIG d   1      -0.392  -5.660 -12.394  0.00  0.00     0.030 H 
ATOM     35  H   LIG d   1      -1.561  -5.516 -11.102  0.00  0.00     0.030 H 
ENDROOT
BRANCH   1  36
ATOM     36  C   LIG d   1       5.133  -2.272  -6.673  0.00  0.00    -0.022 C 
ATOM     37  H   LIG d   1       4.260  -2.922  -6.748  0.00  0.00     0.034 H 
BRANCH  36  38
ATOM     38  C   LIG d   1       6.255  -3.009  -5.940  0.00  0.00    -0.059 C 
ATOM     39  H   LIG d   1       6.824  -2.301  -5.338  0.00  0.00     0.024 H 
ATOM     40  H   LIG d   1       5.826  -3.774  -5.292  0.00  0.00     0.024 H 
ATOM     41  H   LIG d   1       6.917  -3.480  -6.667  0.00  0.00     0.024 H 
ENDBRANCH  36  38
BRANCH  36  42
ATOM     42  C   LIG d   1       4.768  -1.026  -5.909  0.00  0.00    -0.085 C 
ATOM     43  C   LIG d   1       4.101  -1.118  -4.785  0.00  0.00    -0.085 C 
ATOM     44  H   LIG d   1       3.814  -2.088  -4.406  0.00  0.00     0.057 H 
ATOM     45  H   LIG d   1       5.056  -0.056  -6.288  0.00  0.00     0.057 H 
BRANCH  43  46
ATOM     46  C   LIG d   1       3.736   0.129  -4.021  0.00  0.00    -0.023 C 
ATOM     47  H   LIG d   1       4.523   0.872  -4.141  0.00  0.00     0.034 H 
BRANCH  46  48
ATOM     48  C   LIG d   1       2.418   0.689  -4.562  0.00  0.00    -0.059 C 
ATOM     49  H   LIG d   1       1.886   1.202  -3.761  0.00  0.00     0.024 H 
ATOM     50  H   LIG d   1       2.627   1.392  -5.368  0.00  0.00     0.024 H 
ATOM     51  H   LIG d   1       1.805  -0.129  -4.942  0.00  0.00     0.024 H 
ENDBRANCH  46  48
BRANCH  46  52
ATOM     52  C   LIG d   1       3.576  -0.211  -2.538  0.00  0.00    -0.041 C 
ATOM     53  H   LIG d   1       2.546  -0.025  -2.232  0.00  0.00     0.030 H 
BRANCH  52  54
ATOM     54  C   LIG d   1       3.918  -1.684  -2.312  0.00  0.00    -0.062 C 
ATOM     55  H   LIG d   1       3.449  -2.030  -1.390  0.00  0.00     0.023 H 
ATOM     56  H   LIG d   1       3.549  -2.275  -3.150  0.00  0.00     0.023 H 
ATOM     57  H   LIG d   1       4.999  -1.799  -2.235  0.00  0.00     0.023 H 
ENDBRANCH  52  54
BRANCH  52  58
ATOM     58  C   LIG d   1       4.518   0.665  -1.711  0.00  0.00    -0.062 C 
ATOM     59  H   LIG d   1       3.977   1.077  -0.858  0.00  0.00     0.023 H 
ATOM     60  H   LIG d   1       5.354   0.063  -1.354  0.00  0.00     0.023 H 
ATOM     61  H   LIG d   1       4.895   1.479  -2.329  0.00  0.00     0.023 H 
ENDBRANCH  52  58
ENDBRANCH  46  52
ENDBRANCH  43  46
ENDBRANCH  36  42
ENDBRANCH   1  36
BRANCH   7  62
ATOM     62  C   LIG d   1       5.473  -2.353 -10.484  0.00  0.00    -0.059 C 
ATOM     63  H   LIG d   1       5.760  -3.345 -10.834  0.00  0.00     0.024 H 
ATOM     64  H   LIG d   1       4.838  -1.876 -11.231  0.00  0.00     0.024 H 
ATOM     65  H   LIG d   1       6.366  -1.751 -10.327  0.00  0.00     0.024 H 
ENDBRANCH   7  62
BRANCH  16  66
ATOM     66  C   LIG d   1       1.811  -4.493 -12.535  0.00  0.00    -0.055 C 
ATOM     67  H   LIG d   1       2.307  -5.352 -12.084  0.00  0.00     0.024 H 
ATOM     68  H   LIG d   1       0.996  -4.837 -13.173  0.00  0.00     0.024 H 
ATOM     69  H   LIG d   1       2.528  -3.931 -13.134  0.00  0.00     0.024 H 
ENDBRANCH  16  66
BRANCH  21  70
ATOM     70  C   LIG d   1      -0.195  -3.181 -14.445  0.00  0.00    -0.053 C 
ATOM     71  H   LIG d   1       0.021  -2.290 -15.036  0.00  0.00     0.024 H 
ATOM     72  H   LIG d   1       0.700  -3.801 -14.384  0.00  0.00     0.024 H 
ATOM     73  H   LIG d   1      -0.998  -3.745 -14.919  0.00  0.00     0.024 H 
ENDBRANCH  21  70
BRANCH  21  74
ATOM     74  C   LIG d   1      -1.498  -1.494 -13.187  0.00  0.00    -0.053 C 
ATOM     75  H   LIG d   1      -0.902  -0.693 -13.624  0.00  0.00     0.024 H 
ATOM     76  H   LIG d   1      -2.347  -1.710 -13.837  0.00  0.00     0.024 H 
ATOM     77  H   LIG d   1      -1.860  -1.184 -12.207  0.00  0.00     0.024 H 
ENDBRANCH  21  74
BRANCH  19  78
ATOM     78  O   LIG d   1      -2.369  -4.385 -13.417  0.00  0.00    -0.461 OA
BRANCH  78  79
ATOM     79  C   LIG d   1      -3.650  -4.622 -13.087  0.00  0.00     0.304 C 
ATOM     80  O   LIG d   1      -4.324  -3.739 -12.612  0.00  0.00    -0.251 OA
BRANCH  79  81
ATOM     81  C   LIG d   1      -4.244  -5.988 -13.309  0.00  0.00     0.033 C 
ATOM     82  H   LIG d   1      -3.514  -6.626 -13.807  0.00  0.00     0.034 H 
ATOM     83  H   LIG d   1      -4.515  -6.428 -12.349  0.00  0.00     0.034 H 
ATOM     84  H   LIG d   1      -5.135  -5.900 -13.931  0.00  0.00     0.034 H 
ENDBRANCH  79  81
ENDBRANCH  78  79
ENDBRANCH  19  78
TORSDOF 15
ENDMDL
