MODEL 1
REMARK VINA RESULT:      -6.5      0.000      0.000
REMARK  8 active torsions:
REMARK  status: ('A' for Active; 'I' for Inactive)
REMARK    1  A    between atoms: C_1  and  C_2 
REMARK    2  A    between atoms: C_6  and  N_20 
REMARK    3  A    between atoms: C_10  and  C_11 
REMARK    4  A    between atoms: C_11  and  C_13 
REMARK       I    between atoms: N_20  and  C_21 
REMARK    5  A    between atoms: C_21  and  C_23 
REMARK    6  A    between atoms: C_23  and  C_24 
REMARK    7  A    between atoms: C_23  and  C_25 
REMARK    8  A    between atoms: C_23  and  C_26 
ROOT
ATOM      1  C   LIG d   1       2.163  -1.638 -10.020  0.00  0.00     0.006 A 
ATOM      2  C   LIG d   1       2.673  -0.998  -8.863  0.00  0.00     0.024 A 
ATOM      3  C   LIG d   1       2.569   0.301  -8.351  0.00  0.00    -0.049 A 
ATOM      4  C   LIG d   1       3.190   0.621  -7.180  0.00  0.00    -0.040 A 
ATOM      5  C   LIG d   1       3.931  -0.338  -6.487  0.00  0.00     0.037 A 
ATOM      6  C   LIG d   1       4.045  -1.628  -6.979  0.00  0.00     0.003 A 
ATOM      7  C   LIG d   1       3.419  -1.971  -8.169  0.00  0.00     0.138 A 
ATOM      8  O   LIG d   1       3.351  -3.117  -8.878  0.00  0.00    -0.451 OA
ATOM      9  C   LIG d   1       2.602  -2.926  -9.986  0.00  0.00     0.179 A 
ATOM     10  H   LIG d   1       1.997   1.047  -8.882  0.00  0.00     0.062 H 
ATOM     11  H   LIG d   1       3.109   1.623  -6.786  0.00  0.00     0.064 H 
ATOM     12  H   LIG d   1       4.620  -2.365  -6.437  0.00  0.00     0.067 H 
ENDROOT
BRANCH   5  13
ATOM     13  N   LIG d   1       4.562   0.006  -5.291  0.00  0.00    -0.285 N 
ATOM     14  C   LIG d   1       3.905  -0.125  -4.121  0.00  0.00     0.223 C 
ATOM     15  O   LIG d   1       2.797  -0.619  -4.099  0.00  0.00    -0.275 OA
ATOM     16  H   LIG d   1       5.472   0.339  -5.300  0.00  0.00     0.155 HD
BRANCH  14  17
ATOM     17  C   LIG d   1       4.547   0.341  -2.840  0.00  0.00     0.039 C 
BRANCH  17  18
ATOM     18  C   LIG d   1       5.975   0.810  -3.126  0.00  0.00    -0.052 C 
ATOM     19  H   LIG d   1       6.313   0.388  -4.073  0.00  0.00     0.024 H 
ATOM     20  H   LIG d   1       5.995   1.899  -3.186  0.00  0.00     0.024 H 
ATOM     21  H   LIG d   1       6.635   0.478  -2.325  0.00  0.00     0.024 H 
ENDBRANCH  17  18
BRANCH  17  22
ATOM     22  C   LIG d   1       3.737   1.499  -2.254  0.00  0.00    -0.052 C 
ATOM     23  H   LIG d   1       4.291   2.429  -2.377  0.00  0.00     0.024 H 
ATOM     24  H   LIG d   1       2.783   1.575  -2.775  0.00  0.00     0.024 H 
ATOM     25  H   LIG d   1       3.559   1.318  -1.194  0.00  0.00     0.024 H 
ENDBRANCH  17  22
BRANCH  17  26
ATOM     26  C   LIG d   1       4.582  -0.814  -1.837  0.00  0.00    -0.052 C 
ATOM     27  H   LIG d   1       4.112  -0.500  -0.904  0.00  0.00     0.024 H 
ATOM     28  H   LIG d   1       4.042  -1.667  -2.247  0.00  0.00     0.024 H 
ATOM     29  H   LIG d   1       5.616  -1.097  -1.644  0.00  0.00     0.024 H 
ENDBRANCH  17  26
ENDBRANCH  14  17
ENDBRANCH   5  13
BRANCH   1  30
ATOM     30  C   LIG d   1       1.301  -1.012 -11.085  0.00  0.00    -0.035 C 
ATOM     31  H   LIG d   1       1.632   0.010 -11.266  0.00  0.00     0.028 H 
ATOM     32  H   LIG d   1       1.384  -1.590 -12.006  0.00  0.00     0.028 H 
ATOM     33  H   LIG d   1       0.263  -1.005 -10.753  0.00  0.00     0.028 H 
ENDBRANCH   1  30
BRANCH   9  34
ATOM     34  C   LIG d   1       2.308  -3.947 -10.996  0.00  0.00     0.228 C 
ATOM     35  O   LIG d   1       2.926  -3.964 -12.043  0.00  0.00    -0.283 OA
BRANCH  34  36
ATOM     36  C   LIG d   1       1.259  -4.957 -10.741  0.00  0.00     0.025 A 
ATOM     37  C   LIG d   1       1.602  -6.304 -10.601  0.00  0.00    -0.049 A 
ATOM     38  C   LIG d   1       0.619  -7.241 -10.363  0.00  0.00    -0.043 A 
ATOM     39  H   LIG d   1       2.634  -6.610 -10.681  0.00  0.00     0.062 H 
ATOM     40  C   LIG d   1      -0.706  -6.850 -10.262  0.00  0.00     0.041 A 
ATOM     41  H   LIG d   1       0.883  -8.283 -10.256  0.00  0.00     0.063 H 
ATOM     42  C   LIG d   1      -1.053  -5.515 -10.400  0.00  0.00    -0.043 A 
ATOM     43 CL   LIG d   1      -1.938  -8.035  -9.963  0.00  0.00    -0.084 Cl
ATOM     44  C   LIG d   1      -0.078  -4.568 -10.632  0.00  0.00    -0.049 A 
ATOM     45  H   LIG d   1      -2.087  -5.216 -10.320  0.00  0.00     0.063 H 
ATOM     46  H   LIG d   1      -0.349  -3.527 -10.734  0.00  0.00     0.062 H 
ENDBRANCH  34  36
ENDBRANCH   9  34
TORSDOF 8
ENDMDL
MODEL 2
REMARK VINA RESULT:      -6.4      7.582     10.295
REMARK  8 active torsions:
REMARK  status: ('A' for Active; 'I' for Inactive)
REMARK    1  A    between atoms: C_1  and  C_2 
REMARK    2  A    between atoms: C_6  and  N_20 
REMARK    3  A    between atoms: C_10  and  C_11 
REMARK    4  A    between atoms: C_11  and  C_13 
REMARK       I    between atoms: N_20  and  C_21 
REMARK    5  A    between atoms: C_21  and  C_23 
REMARK    6  A    between atoms: C_23  and  C_24 
REMARK    7  A    between atoms: C_23  and  C_25 
REMARK    8  A    between atoms: C_23  and  C_26 
ROOT
ATOM      1  C   LIG d   1       8.980   2.877  -5.271  0.00  0.00     0.006 A 
ATOM      2  C   LIG d   1       9.409   4.092  -4.680  0.00  0.00     0.024 A 
ATOM      3  C   LIG d   1       9.522   5.408  -5.145  0.00  0.00    -0.049 A 
ATOM      4  C   LIG d   1       9.981   6.386  -4.312  0.00  0.00    -0.040 A 
ATOM      5  C   LIG d   1      10.340   6.084  -2.998  0.00  0.00     0.037 A 
ATOM      6  C   LIG d   1      10.235   4.788  -2.520  0.00  0.00     0.003 A 
ATOM      7  C   LIG d   1       9.770   3.780  -3.354  0.00  0.00     0.138 A 
ATOM      8  O   LIG d   1       9.564   2.459  -3.177  0.00  0.00    -0.451 OA
ATOM      9  C   LIG d   1       9.092   1.913  -4.318  0.00  0.00     0.179 A 
ATOM     10  H   LIG d   1       9.245   5.647  -6.160  0.00  0.00     0.062 H 
ATOM     11  H   LIG d   1      10.067   7.399  -4.672  0.00  0.00     0.064 H 
ATOM     12  H   LIG d   1      10.515   4.562  -1.502  0.00  0.00     0.067 H 
ENDROOT
BRANCH   5  13
ATOM     13  N   LIG d   1      10.809   7.096  -2.159  0.00  0.00    -0.285 N 
ATOM     14  C   LIG d   1       9.953   7.750  -1.349  0.00  0.00     0.223 C 
ATOM     15  O   LIG d   1       8.792   7.405  -1.289  0.00  0.00    -0.275 OA
ATOM     16  H   LIG d   1      11.750   7.328  -2.158  0.00  0.00     0.155 HD
BRANCH  14  17
ATOM     17  C   LIG d   1      10.439   8.910  -0.519  0.00  0.00     0.039 C 
BRANCH  17  18
ATOM     18  C   LIG d   1      11.537   9.658  -1.279  0.00  0.00    -0.052 C 
ATOM     19  H   LIG d   1      12.445   9.054  -1.290  0.00  0.00     0.024 H 
ATOM     20  H   LIG d   1      11.210   9.842  -2.302  0.00  0.00     0.024 H 
ATOM     21  H   LIG d   1      11.738  10.608  -0.785  0.00  0.00     0.024 H 
ENDBRANCH  17  18
BRANCH  17  22
ATOM     22  C   LIG d   1       9.274   9.861  -0.239  0.00  0.00    -0.052 C 
ATOM     23  H   LIG d   1       9.603  10.651   0.435  0.00  0.00     0.024 H 
ATOM     24  H   LIG d   1       8.932  10.303  -1.175  0.00  0.00     0.024 H 
ATOM     25  H   LIG d   1       8.456   9.307   0.222  0.00  0.00     0.024 H 
ENDBRANCH  17  22
BRANCH  17  26
ATOM     26  C   LIG d   1      11.000   8.389   0.806  0.00  0.00    -0.052 C 
ATOM     27  H   LIG d   1      10.194   8.306   1.535  0.00  0.00     0.024 H 
ATOM     28  H   LIG d   1      11.450   7.409   0.649  0.00  0.00     0.024 H 
ATOM     29  H   LIG d   1      11.755   9.081   1.178  0.00  0.00     0.024 H 
ENDBRANCH  17  26
ENDBRANCH  14  17
ENDBRANCH   5  13
BRANCH   1  30
ATOM     30  C   LIG d   1       8.493   2.691  -6.685  0.00  0.00    -0.035 C 
ATOM     31  H   LIG d   1       7.760   3.462  -6.920  0.00  0.00     0.028 H 
ATOM     32  H   LIG d   1       9.336   2.768  -7.372  0.00  0.00     0.028 H 
ATOM     33  H   LIG d   1       8.032   1.708  -6.783  0.00  0.00     0.028 H 
ENDBRANCH   1  30
BRANCH   9  34
ATOM     34  C   LIG d   1       8.753   0.498  -4.503  0.00  0.00     0.228 C 
ATOM     35  O   LIG d   1       9.509  -0.235  -5.111  0.00  0.00    -0.283 OA
BRANCH  34  36
ATOM     36  C   LIG d   1       7.490  -0.037  -3.950  0.00  0.00     0.025 A 
ATOM     37  C   LIG d   1       6.535   0.832  -3.416  0.00  0.00    -0.049 A 
ATOM     38  C   LIG d   1       5.359   0.327  -2.902  0.00  0.00    -0.043 A 
ATOM     39  H   LIG d   1       6.718   1.895  -3.405  0.00  0.00     0.062 H 
ATOM     40  C   LIG d   1       5.125  -1.038  -2.914  0.00  0.00     0.041 A 
ATOM     41  H   LIG d   1       4.621   0.997  -2.488  0.00  0.00     0.063 H 
ATOM     42  C   LIG d   1       6.069  -1.905  -3.442  0.00  0.00    -0.043 A 
ATOM     43 CL   LIG d   1       3.643  -1.667  -2.264  0.00  0.00    -0.084 Cl
ATOM     44  C   LIG d   1       7.245  -1.412  -3.965  0.00  0.00    -0.049 A 
ATOM     45  H   LIG d   1       5.879  -2.968  -3.449  0.00  0.00     0.063 H 
ATOM     46  H   LIG d   1       7.977  -2.088  -4.381  0.00  0.00     0.062 H 
ENDBRANCH  34  36
ENDBRANCH   9  34
TORSDOF 8
ENDMDL
MODEL 3
REMARK VINA RESULT:      -6.3      7.345     12.162
REMARK  8 active torsions:
REMARK  status: ('A' for Active; 'I' for Inactive)
REMARK    1  A    between atoms: C_1  and  C_2 
REMARK    2  A    between atoms: C_6  and  N_20 
REMARK    3  A    between atoms: C_10  and  C_11 
REMARK    4  A    between atoms: C_11  and  C_13 
REMARK       I    between atoms: N_20  and  C_21 
REMARK    5  A    between atoms: C_21  and  C_23 
REMARK    6  A    between atoms: C_23  and  C_24 
REMARK    7  A    between atoms: C_23  and  C_25 
REMARK    8  A    between atoms: C_23  and  C_26 
ROOT
ATOM      1  C   LIG d   1       9.904   3.664  -5.185  0.00  0.00     0.006 A 
ATOM      2  C   LIG d   1       8.955   2.611  -5.181  0.00  0.00     0.024 A 
ATOM      3  C   LIG d   1       8.283   1.910  -6.190  0.00  0.00    -0.049 A 
ATOM      4  C   LIG d   1       7.405   0.920  -5.859  0.00  0.00    -0.040 A 
ATOM      5  C   LIG d   1       7.171   0.601  -4.521  0.00  0.00     0.037 A 
ATOM      6  C   LIG d   1       7.827   1.283  -3.510  0.00  0.00     0.003 A 
ATOM      7  C   LIG d   1       8.724   2.293  -3.828  0.00  0.00     0.138 A 
ATOM      8  O   LIG d   1       9.493   3.113  -3.081  0.00  0.00    -0.451 OA
ATOM      9  C   LIG d   1      10.201   3.935  -3.885  0.00  0.00     0.179 A 
ATOM     10  H   LIG d   1       8.460   2.153  -7.226  0.00  0.00     0.062 H 
ATOM     11  H   LIG d   1       6.887   0.381  -6.638  0.00  0.00     0.064 H 
ATOM     12  H   LIG d   1       7.641   1.030  -2.476  0.00  0.00     0.067 H 
ENDROOT
BRANCH   5  13
ATOM     13  N   LIG d   1       6.269  -0.415  -4.200  0.00  0.00    -0.285 N 
ATOM     14  C   LIG d   1       5.031  -0.104  -3.765  0.00  0.00     0.223 C 
ATOM     15  O   LIG d   1       4.673   1.055  -3.734  0.00  0.00    -0.275 OA
ATOM     16  H   LIG d   1       6.532  -1.344  -4.288  0.00  0.00     0.155 HD
BRANCH  14  17
ATOM     17  C   LIG d   1       4.092  -1.195  -3.321  0.00  0.00     0.039 C 
BRANCH  17  18
ATOM     18  C   LIG d   1       2.646  -0.716  -3.470  0.00  0.00    -0.052 C 
ATOM     19  H   LIG d   1       2.318  -0.257  -2.536  0.00  0.00     0.024 H 
ATOM     20  H   LIG d   1       2.587   0.015  -4.276  0.00  0.00     0.024 H 
ATOM     21  H   LIG d   1       2.004  -1.565  -3.702  0.00  0.00     0.024 H 
ENDBRANCH  17  18
BRANCH  17  22
ATOM     22  C   LIG d   1       4.310  -2.439  -4.185  0.00  0.00    -0.052 C 
ATOM     23  H   LIG d   1       4.965  -3.134  -3.662  0.00  0.00     0.024 H 
ATOM     24  H   LIG d   1       3.351  -2.920  -4.377  0.00  0.00     0.024 H 
ATOM     25  H   LIG d   1       4.766  -2.148  -5.131  0.00  0.00     0.024 H 
ENDBRANCH  17  22
BRANCH  17  26
ATOM     26  C   LIG d   1       4.367  -1.539  -1.855  0.00  0.00    -0.052 C 
ATOM     27  H   LIG d   1       4.768  -0.661  -1.345  0.00  0.00     0.024 H 
ATOM     28  H   LIG d   1       3.439  -1.846  -1.374  0.00  0.00     0.024 H 
ATOM     29  H   LIG d   1       5.091  -2.351  -1.802  0.00  0.00     0.024 H 
ENDBRANCH  17  26
ENDBRANCH  14  17
ENDBRANCH   5  13
BRANCH   1  30
ATOM     30  C   LIG d   1      10.474   4.353  -6.399  0.00  0.00    -0.035 C 
ATOM     31  H   LIG d   1      10.044   3.917  -7.299  0.00  0.00     0.028 H 
ATOM     32  H   LIG d   1      10.235   5.415  -6.358  0.00  0.00     0.028 H 
ATOM     33  H   LIG d   1      11.557   4.223  -6.413  0.00  0.00     0.028 H 
ENDBRANCH   1  30
BRANCH   9  34
ATOM     34  C   LIG d   1      11.143   4.961  -3.429  0.00  0.00     0.228 C 
ATOM     35  O   LIG d   1      12.341   4.747  -3.466  0.00  0.00    -0.283 OA
BRANCH  34  36
ATOM     36  C   LIG d   1      10.639   6.255  -2.924  0.00  0.00     0.025 A 
ATOM     37  C   LIG d   1      10.788   7.413  -3.690  0.00  0.00    -0.049 A 
ATOM     38  C   LIG d   1      10.315   8.618  -3.214  0.00  0.00    -0.043 A 
ATOM     39  H   LIG d   1      11.274   7.366  -4.653  0.00  0.00     0.062 H 
ATOM     40  C   LIG d   1       9.692   8.680  -1.979  0.00  0.00     0.041 A 
ATOM     41  H   LIG d   1      10.431   9.514  -3.805  0.00  0.00     0.063 H 
ATOM     42  C   LIG d   1       9.541   7.535  -1.213  0.00  0.00    -0.043 A 
ATOM     43 CL   LIG d   1       9.099  10.200  -1.385  0.00  0.00    -0.084 Cl
ATOM     44  C   LIG d   1      10.004   6.324  -1.681  0.00  0.00    -0.049 A 
ATOM     45  H   LIG d   1       9.054   7.591  -0.251  0.00  0.00     0.063 H 
ATOM     46  H   LIG d   1       9.881   5.431  -1.086  0.00  0.00     0.062 H 
ENDBRANCH  34  36
ENDBRANCH   9  34
TORSDOF 8
ENDMDL
MODEL 4
REMARK VINA RESULT:      -6.2      5.941      6.842
REMARK  8 active torsions:
REMARK  status: ('A' for Active; 'I' for Inactive)
REMARK    1  A    between atoms: C_1  and  C_2 
REMARK    2  A    between atoms: C_6  and  N_20 
REMARK    3  A    between atoms: C_10  and  C_11 
REMARK    4  A    between atoms: C_11  and  C_13 
REMARK       I    between atoms: N_20  and  C_21 
REMARK    5  A    between atoms: C_21  and  C_23 
REMARK    6  A    between atoms: C_23  and  C_24 
REMARK    7  A    between atoms: C_23  and  C_25 
REMARK    8  A    between atoms: C_23  and  C_26 
ROOT
ATOM      1  C   LIG d   1       6.117  -6.443  -6.345  0.00  0.00     0.006 A 
ATOM      2  C   LIG d   1       6.031  -5.055  -6.073  0.00  0.00     0.024 A 
ATOM      3  C   LIG d   1       6.811  -3.948  -6.430  0.00  0.00    -0.049 A 
ATOM      4  C   LIG d   1       6.460  -2.702  -6.000  0.00  0.00    -0.040 A 
ATOM      5  C   LIG d   1       5.326  -2.522  -5.206  0.00  0.00     0.037 A 
ATOM      6  C   LIG d   1       4.542  -3.605  -4.843  0.00  0.00     0.003 A 
ATOM      7  C   LIG d   1       4.885  -4.880  -5.271  0.00  0.00     0.138 A 
ATOM      8  O   LIG d   1       4.331  -6.096  -5.084  0.00  0.00    -0.451 OA
ATOM      9  C   LIG d   1       5.062  -7.035  -5.723  0.00  0.00     0.179 A 
ATOM     10  H   LIG d   1       7.688  -4.081  -7.044  0.00  0.00     0.062 H 
ATOM     11  H   LIG d   1       7.062  -1.850  -6.276  0.00  0.00     0.064 H 
ATOM     12  H   LIG d   1       3.666  -3.458  -4.228  0.00  0.00     0.067 H 
ENDROOT
BRANCH   5  13
ATOM     13  N   LIG d   1       4.980  -1.241  -4.773  0.00  0.00    -0.285 N 
ATOM     14  C   LIG d   1       5.243  -0.863  -3.507  0.00  0.00     0.223 C 
ATOM     15  O   LIG d   1       5.854  -1.605  -2.767  0.00  0.00    -0.275 OA
ATOM     16  H   LIG d   1       4.550  -0.622  -5.384  0.00  0.00     0.155 HD
BRANCH  14  17
ATOM     17  C   LIG d   1       4.778   0.482  -3.009  0.00  0.00     0.039 C 
BRANCH  17  18
ATOM     18  C   LIG d   1       4.490   0.399  -1.508  0.00  0.00    -0.052 C 
ATOM     19  H   LIG d   1       4.678   1.370  -1.049  0.00  0.00     0.024 H 
ATOM     20  H   LIG d   1       3.448   0.118  -1.354  0.00  0.00     0.024 H 
ATOM     21  H   LIG d   1       5.139  -0.350  -1.054  0.00  0.00     0.024 H 
ENDBRANCH  17  18
BRANCH  17  22
ATOM     22  C   LIG d   1       5.869   1.524  -3.263  0.00  0.00    -0.052 C 
ATOM     23  H   LIG d   1       5.464   2.522  -3.096  0.00  0.00     0.024 H 
ATOM     24  H   LIG d   1       6.701   1.352  -2.581  0.00  0.00     0.024 H 
ATOM     25  H   LIG d   1       6.219   1.440  -4.292  0.00  0.00     0.024 H 
ENDBRANCH  17  22
BRANCH  17  26
ATOM     26  C   LIG d   1       3.503   0.887  -3.752  0.00  0.00    -0.052 C 
ATOM     27  H   LIG d   1       2.681   0.239  -3.443  0.00  0.00     0.024 H 
ATOM     28  H   LIG d   1       3.259   1.922  -3.515  0.00  0.00     0.024 H 
ATOM     29  H   LIG d   1       3.660   0.786  -4.825  0.00  0.00     0.024 H 
ENDBRANCH  17  26
ENDBRANCH  14  17
ENDBRANCH   5  13
BRANCH   1  30
ATOM     30  C   LIG d   1       7.176  -7.131  -7.167  0.00  0.00    -0.035 C 
ATOM     31  H   LIG d   1       7.811  -6.383  -7.641  0.00  0.00     0.028 H 
ATOM     32  H   LIG d   1       7.782  -7.766  -6.520  0.00  0.00     0.028 H 
ATOM     33  H   LIG d   1       6.700  -7.743  -7.934  0.00  0.00     0.028 H 
ENDBRANCH   1  30
BRANCH   9  34
ATOM     34  C   LIG d   1       4.764  -8.470  -5.744  0.00  0.00     0.228 C 
ATOM     35  O   LIG d   1       4.247  -8.971  -6.724  0.00  0.00    -0.283 OA
BRANCH  34  36
ATOM     36  C   LIG d   1       5.093  -9.309  -4.572  0.00  0.00     0.025 A 
ATOM     37  C   LIG d   1       6.387  -9.302  -4.045  0.00  0.00    -0.049 A 
ATOM     38  C   LIG d   1       6.688 -10.086  -2.951  0.00  0.00    -0.043 A 
ATOM     39  H   LIG d   1       7.150  -8.684  -4.494  0.00  0.00     0.062 H 
ATOM     40  C   LIG d   1       5.710 -10.880  -2.375  0.00  0.00     0.041 A 
ATOM     41  H   LIG d   1       7.688 -10.082  -2.544  0.00  0.00     0.063 H 
ATOM     42  C   LIG d   1       4.425 -10.892  -2.893  0.00  0.00    -0.043 A 
ATOM     43 CL   LIG d   1       6.096 -11.865  -0.999  0.00  0.00    -0.084 Cl
ATOM     44  C   LIG d   1       4.110 -10.107  -3.982  0.00  0.00    -0.049 A 
ATOM     45  H   LIG d   1       3.667 -11.513  -2.439  0.00  0.00     0.063 H 
ATOM     46  H   LIG d   1       3.107 -10.114  -4.381  0.00  0.00     0.062 H 
ENDBRANCH  34  36
ENDBRANCH   9  34
TORSDOF 8
ENDMDL
MODEL 5
REMARK VINA RESULT:      -5.9      3.773      8.625
REMARK  8 active torsions:
REMARK  status: ('A' for Active; 'I' for Inactive)
REMARK    1  A    between atoms: C_1  and  C_2 
REMARK    2  A    between atoms: C_6  and  N_20 
REMARK    3  A    between atoms: C_10  and  C_11 
REMARK    4  A    between atoms: C_11  and  C_13 
REMARK       I    between atoms: N_20  and  C_21 
REMARK    5  A    between atoms: C_21  and  C_23 
REMARK    6  A    between atoms: C_23  and  C_24 
REMARK    7  A    between atoms: C_23  and  C_25 
REMARK    8  A    between atoms: C_23  and  C_26 
ROOT
ATOM      1  C   LIG d   1       3.314   0.417  -9.923  0.00  0.00     0.006 A 
ATOM      2  C   LIG d   1       2.809  -0.515 -10.864  0.00  0.00     0.024 A 
ATOM      3  C   LIG d   1       3.069  -0.762 -12.217  0.00  0.00    -0.049 A 
ATOM      4  C   LIG d   1       2.402  -1.758 -12.867  0.00  0.00    -0.040 A 
ATOM      5  C   LIG d   1       1.460  -2.535 -12.191  0.00  0.00     0.037 A 
ATOM      6  C   LIG d   1       1.190  -2.306 -10.851  0.00  0.00     0.003 A 
ATOM      7  C   LIG d   1       1.859  -1.296 -10.175  0.00  0.00     0.138 A 
ATOM      8  O   LIG d   1       1.810  -0.848  -8.904  0.00  0.00    -0.451 OA
ATOM      9  C   LIG d   1       2.677   0.176  -8.746  0.00  0.00     0.179 A 
ATOM     10  H   LIG d   1       3.796  -0.164 -12.745  0.00  0.00     0.062 H 
ATOM     11  H   LIG d   1       2.603  -1.947 -13.910  0.00  0.00     0.064 H 
ATOM     12  H   LIG d   1       0.459  -2.912 -10.335  0.00  0.00     0.067 H 
ENDROOT
BRANCH   5  13
ATOM     13  N   LIG d   1       0.785  -3.551 -12.869  0.00  0.00    -0.285 N 
ATOM     14  C   LIG d   1      -0.422  -3.309 -13.418  0.00  0.00     0.223 C 
ATOM     15  O   LIG d   1      -0.884  -2.188 -13.396  0.00  0.00    -0.275 OA
ATOM     16  H   LIG d   1       1.184  -4.432 -12.946  0.00  0.00     0.155 HD
BRANCH  14  17
ATOM     17  C   LIG d   1      -1.196  -4.431 -14.061  0.00  0.00     0.039 C 
BRANCH  17  18
ATOM     18  C   LIG d   1      -0.363  -5.045 -15.189  0.00  0.00    -0.052 C 
ATOM     19  H   LIG d   1       0.136  -5.943 -14.822  0.00  0.00     0.024 H 
ATOM     20  H   LIG d   1      -1.015  -5.305 -16.022  0.00  0.00     0.024 H 
ATOM     21  H   LIG d   1       0.384  -4.325 -15.523  0.00  0.00     0.024 H 
ENDBRANCH  17  18
BRANCH  17  22
ATOM     22  C   LIG d   1      -1.508  -5.502 -13.015  0.00  0.00    -0.052 C 
ATOM     23  H   LIG d   1      -1.447  -5.065 -12.018  0.00  0.00     0.024 H 
ATOM     24  H   LIG d   1      -2.514  -5.889 -13.180  0.00  0.00     0.024 H 
ATOM     25  H   LIG d   1      -0.787  -6.315 -13.101  0.00  0.00     0.024 H 
ENDBRANCH  17  22
BRANCH  17  26
ATOM     26  C   LIG d   1      -2.505  -3.883 -14.636  0.00  0.00    -0.052 C 
ATOM     27  H   LIG d   1      -2.940  -3.170 -13.933  0.00  0.00     0.024 H 
ATOM     28  H   LIG d   1      -2.304  -3.383 -15.583  0.00  0.00     0.024 H 
ATOM     29  H   LIG d   1      -3.203  -4.703 -14.797  0.00  0.00     0.024 H 
ENDBRANCH  17  26
ENDBRANCH  14  17
ENDBRANCH   5  13
BRANCH   1  30
ATOM     30  C   LIG d   1       4.357   1.474 -10.180  0.00  0.00    -0.035 C 
ATOM     31  H   LIG d   1       4.006   2.150 -10.958  0.00  0.00     0.028 H 
ATOM     32  H   LIG d   1       4.538   2.036  -9.263  0.00  0.00     0.028 H 
ATOM     33  H   LIG d   1       5.283   0.998 -10.503  0.00  0.00     0.028 H 
ENDBRANCH   1  30
BRANCH   9  34
ATOM     34  C   LIG d   1       2.897   0.914  -7.498  0.00  0.00     0.228 C 
ATOM     35  O   LIG d   1       2.869   2.130  -7.497  0.00  0.00    -0.283 OA
BRANCH  34  36
ATOM     36  C   LIG d   1       3.155   0.180  -6.241  0.00  0.00     0.025 A 
ATOM     37  C   LIG d   1       4.155  -0.795  -6.190  0.00  0.00    -0.049 A 
ATOM     38  C   LIG d   1       4.390  -1.476  -5.015  0.00  0.00    -0.043 A 
ATOM     39  H   LIG d   1       4.741  -1.014  -7.070  0.00  0.00     0.062 H 
ATOM     40  C   LIG d   1       3.637  -1.197  -3.887  0.00  0.00     0.041 A 
ATOM     41  H   LIG d   1       5.162  -2.230  -4.975  0.00  0.00     0.063 H 
ATOM     42  C   LIG d   1       2.643  -0.232  -3.930  0.00  0.00    -0.043 A 
ATOM     43 CL   LIG d   1       3.939  -2.059  -2.410  0.00  0.00    -0.084 Cl
ATOM     44  C   LIG d   1       2.403   0.461  -5.098  0.00  0.00    -0.049 A 
ATOM     45  H   LIG d   1       2.061  -0.018  -3.047  0.00  0.00     0.063 H 
ATOM     46  H   LIG d   1       1.632   1.216  -5.129  0.00  0.00     0.062 H 
ENDBRANCH  34  36
ENDBRANCH   9  34
TORSDOF 8
ENDMDL
MODEL 6
REMARK VINA RESULT:      -5.8      3.194      4.513
REMARK  8 active torsions:
REMARK  status: ('A' for Active; 'I' for Inactive)
REMARK    1  A    between atoms: C_1  and  C_2 
REMARK    2  A    between atoms: C_6  and  N_20 
REMARK    3  A    between atoms: C_10  and  C_11 
REMARK    4  A    between atoms: C_11  and  C_13 
REMARK       I    between atoms: N_20  and  C_21 
REMARK    5  A    between atoms: C_21  and  C_23 
REMARK    6  A    between atoms: C_23  and  C_24 
REMARK    7  A    between atoms: C_23  and  C_25 
REMARK    8  A    between atoms: C_23  and  C_26 
ROOT
ATOM      1  C   LIG d   1       3.061  -2.640  -9.821  0.00  0.00     0.006 A 
ATOM      2  C   LIG d   1       3.601  -2.364  -8.540  0.00  0.00     0.024 A 
ATOM      3  C   LIG d   1       4.196  -3.156  -7.550  0.00  0.00    -0.049 A 
ATOM      4  C   LIG d   1       4.628  -2.582  -6.390  0.00  0.00    -0.040 A 
ATOM      5  C   LIG d   1       4.482  -1.210  -6.183  0.00  0.00     0.037 A 
ATOM      6  C   LIG d   1       3.896  -0.411  -7.151  0.00  0.00     0.003 A 
ATOM      7  C   LIG d   1       3.450  -0.978  -8.337  0.00  0.00     0.138 A 
ATOM      8  O   LIG d   1       2.856  -0.469  -9.436  0.00  0.00    -0.451 OA
ATOM      9  C   LIG d   1       2.620  -1.456 -10.327  0.00  0.00     0.179 A 
ATOM     10  H   LIG d   1       4.313  -4.217  -7.705  0.00  0.00     0.062 H 
ATOM     11  H   LIG d   1       5.086  -3.194  -5.628  0.00  0.00     0.064 H 
ATOM     12  H   LIG d   1       3.786   0.651  -6.984  0.00  0.00     0.067 H 
ENDROOT
BRANCH   5  13
ATOM     13  N   LIG d   1       4.929  -0.638  -4.991  0.00  0.00    -0.285 N 
ATOM     14  C   LIG d   1       4.054  -0.377  -3.999  0.00  0.00     0.223 C 
ATOM     15  O   LIG d   1       2.894  -0.714  -4.110  0.00  0.00    -0.275 OA
ATOM     16  H   LIG d   1       5.868  -0.428  -4.875  0.00  0.00     0.155 HD
BRANCH  14  17
ATOM     17  C   LIG d   1       4.517   0.333  -2.753  0.00  0.00     0.039 C 
BRANCH  17  18
ATOM     18  C   LIG d   1       4.573  -0.660  -1.591  0.00  0.00    -0.052 C 
ATOM     19  H   LIG d   1       3.686  -1.294  -1.612  0.00  0.00     0.024 H 
ATOM     20  H   LIG d   1       5.465  -1.279  -1.685  0.00  0.00     0.024 H 
ATOM     21  H   LIG d   1       4.607  -0.115  -0.648  0.00  0.00     0.024 H 
ENDBRANCH  17  18
BRANCH  17  22
ATOM     22  C   LIG d   1       5.909   0.923  -2.989  0.00  0.00    -0.052 C 
ATOM     23  H   LIG d   1       5.843   2.010  -3.018  0.00  0.00     0.024 H 
ATOM     24  H   LIG d   1       6.573   0.622  -2.178  0.00  0.00     0.024 H 
ATOM     25  H   LIG d   1       6.303   0.555  -3.936  0.00  0.00     0.024 H 
ENDBRANCH  17  22
BRANCH  17  26
ATOM     26  C   LIG d   1       3.537   1.459  -2.414  0.00  0.00    -0.052 C 
ATOM     27  H   LIG d   1       2.570   1.032  -2.147  0.00  0.00     0.024 H 
ATOM     28  H   LIG d   1       3.924   2.036  -1.574  0.00  0.00     0.024 H 
ATOM     29  H   LIG d   1       3.419   2.110  -3.279  0.00  0.00     0.024 H 
ENDBRANCH  17  26
ENDBRANCH  14  17
ENDBRANCH   5  13
BRANCH   1  30
ATOM     30  C   LIG d   1       2.989  -3.986 -10.493  0.00  0.00    -0.035 C 
ATOM     31  H   LIG d   1       3.979  -4.441 -10.502  0.00  0.00     0.028 H 
ATOM     32  H   LIG d   1       2.299  -4.629  -9.945  0.00  0.00     0.028 H 
ATOM     33  H   LIG d   1       2.636  -3.862 -11.516  0.00  0.00     0.028 H 
ENDBRANCH   1  30
BRANCH   9  34
ATOM     34  C   LIG d   1       1.987  -1.281 -11.638  0.00  0.00     0.228 C 
ATOM     35  O   LIG d   1       0.786  -1.095 -11.714  0.00  0.00    -0.283 OA
BRANCH  34  36
ATOM     36  C   LIG d   1       2.807  -1.328 -12.866  0.00  0.00     0.025 A 
ATOM     37  C   LIG d   1       4.031  -0.658 -12.919  0.00  0.00    -0.049 A 
ATOM     38  C   LIG d   1       4.792  -0.706 -14.068  0.00  0.00    -0.043 A 
ATOM     39  H   LIG d   1       4.380  -0.102 -12.062  0.00  0.00     0.062 H 
ATOM     40  C   LIG d   1       4.345  -1.418 -15.168  0.00  0.00     0.041 A 
ATOM     41  H   LIG d   1       5.738  -0.188 -14.109  0.00  0.00     0.063 H 
ATOM     42  C   LIG d   1       3.130  -2.085 -15.123  0.00  0.00    -0.043 A 
ATOM     43 CL   LIG d   1       5.307  -1.474 -16.612  0.00  0.00    -0.084 Cl
ATOM     44  C   LIG d   1       2.364  -2.049 -13.978  0.00  0.00    -0.049 A 
ATOM     45  H   LIG d   1       2.787  -2.638 -15.985  0.00  0.00     0.063 H 
ATOM     46  H   LIG d   1       1.421  -2.573 -13.942  0.00  0.00     0.062 H 
ENDBRANCH  34  36
ENDBRANCH   9  34
TORSDOF 8
ENDMDL
MODEL 7
REMARK VINA RESULT:      -5.8      8.036     10.821
REMARK  8 active torsions:
REMARK  status: ('A' for Active; 'I' for Inactive)
REMARK    1  A    between atoms: C_1  and  C_2 
REMARK    2  A    between atoms: C_6  and  N_20 
REMARK    3  A    between atoms: C_10  and  C_11 
REMARK    4  A    between atoms: C_11  and  C_13 
REMARK       I    between atoms: N_20  and  C_21 
REMARK    5  A    between atoms: C_21  and  C_23 
REMARK    6  A    between atoms: C_23  and  C_24 
REMARK    7  A    between atoms: C_23  and  C_25 
REMARK    8  A    between atoms: C_23  and  C_26 
ROOT
ATOM      1  C   LIG d   1       8.419  -4.625  -4.632  0.00  0.00     0.006 A 
ATOM      2  C   LIG d   1       8.912  -5.624  -3.756  0.00  0.00     0.024 A 
ATOM      3  C   LIG d   1       9.007  -7.019  -3.835  0.00  0.00    -0.049 A 
ATOM      4  C   LIG d   1       9.546  -7.723  -2.798  0.00  0.00    -0.040 A 
ATOM      5  C   LIG d   1      10.004  -7.062  -1.658  0.00  0.00     0.037 A 
ATOM      6  C   LIG d   1       9.918  -5.683  -1.562  0.00  0.00     0.003 A 
ATOM      7  C   LIG d   1       9.372  -4.951  -2.607  0.00  0.00     0.138 A 
ATOM      8  O   LIG d   1       9.162  -3.632  -2.798  0.00  0.00    -0.451 OA
ATOM      9  C   LIG d   1       8.592  -3.430  -4.006  0.00  0.00     0.179 A 
ATOM     10  H   LIG d   1       8.655  -7.536  -4.715  0.00  0.00     0.062 H 
ATOM     11  H   LIG d   1       9.618  -8.798  -2.860  0.00  0.00     0.064 H 
ATOM     12  H   LIG d   1      10.275  -5.178  -0.676  0.00  0.00     0.067 H 
ENDROOT
BRANCH   5  13
ATOM     13  N   LIG d   1      10.552  -7.796  -0.605  0.00  0.00    -0.285 N 
ATOM     14  C   LIG d   1      11.874  -8.058  -0.582  0.00  0.00     0.223 C 
ATOM     15  O   LIG d   1      12.600  -7.585  -1.431  0.00  0.00    -0.275 OA
ATOM     16  H   LIG d   1       9.982  -8.119   0.110  0.00  0.00     0.155 HD
BRANCH  14  17
ATOM     17  C   LIG d   1      12.450  -8.937   0.498  0.00  0.00     0.039 C 
BRANCH  17  18
ATOM     18  C   LIG d   1      11.369  -9.892   1.010  0.00  0.00    -0.052 C 
ATOM     19  H   LIG d   1      10.903 -10.398   0.164  0.00  0.00     0.024 H 
ATOM     20  H   LIG d   1      11.821 -10.630   1.671  0.00  0.00     0.024 H 
ATOM     21  H   LIG d   1      10.614  -9.327   1.556  0.00  0.00     0.024 H 
ENDBRANCH  17  18
BRANCH  17  22
ATOM     22  C   LIG d   1      13.619  -9.744  -0.070  0.00  0.00    -0.052 C 
ATOM     23  H   LIG d   1      14.551  -9.391   0.369  0.00  0.00     0.024 H 
ATOM     24  H   LIG d   1      13.482 -10.799   0.170  0.00  0.00     0.024 H 
ATOM     25  H   LIG d   1      13.654  -9.619  -1.152  0.00  0.00     0.024 H 
ENDBRANCH  17  22
BRANCH  17  26
ATOM     26  C   LIG d   1      12.947  -8.064   1.653  0.00  0.00    -0.052 C 
ATOM     27  H   LIG d   1      12.154  -7.956   2.394  0.00  0.00     0.024 H 
ATOM     28  H   LIG d   1      13.815  -8.534   2.116  0.00  0.00     0.024 H 
ATOM     29  H   LIG d   1      13.224  -7.081   1.273  0.00  0.00     0.024 H 
ENDBRANCH  17  26
ENDBRANCH  14  17
ENDBRANCH   5  13
BRANCH   1  30
ATOM     30  C   LIG d   1       7.817  -4.846  -5.996  0.00  0.00    -0.035 C 
ATOM     31  H   LIG d   1       6.790  -5.193  -5.888  0.00  0.00     0.028 H 
ATOM     32  H   LIG d   1       7.829  -3.909  -6.553  0.00  0.00     0.028 H 
ATOM     33  H   LIG d   1       8.400  -5.595  -6.532  0.00  0.00     0.028 H 
ENDBRANCH   1  30
BRANCH   9  34
ATOM     34  C   LIG d   1       8.218  -2.124  -4.558  0.00  0.00     0.228 C 
ATOM     35  O   LIG d   1       8.781  -1.698  -5.549  0.00  0.00    -0.283 OA
BRANCH  34  36
ATOM     36  C   LIG d   1       7.156  -1.326  -3.911  0.00  0.00     0.025 A 
ATOM     37  C   LIG d   1       7.249   0.068  -3.875  0.00  0.00    -0.049 A 
ATOM     38  C   LIG d   1       6.254   0.807  -3.270  0.00  0.00    -0.043 A 
ATOM     39  H   LIG d   1       8.098   0.564  -4.320  0.00  0.00     0.062 H 
ATOM     40  C   LIG d   1       5.166   0.171  -2.698  0.00  0.00     0.041 A 
ATOM     41  H   LIG d   1       6.326   1.884  -3.242  0.00  0.00     0.063 H 
ATOM     42  C   LIG d   1       5.067  -1.211  -2.729  0.00  0.00    -0.043 A 
ATOM     43 CL   LIG d   1       3.918   1.108  -1.937  0.00  0.00    -0.084 Cl
ATOM     44  C   LIG d   1       6.052  -1.961  -3.337  0.00  0.00    -0.049 A 
ATOM     45  H   LIG d   1       4.216  -1.701  -2.281  0.00  0.00     0.063 H 
ATOM     46  H   LIG d   1       5.972  -3.037  -3.365  0.00  0.00     0.062 H 
ENDBRANCH  34  36
ENDBRANCH   9  34
TORSDOF 8
ENDMDL
MODEL 8
REMARK VINA RESULT:      -5.6      7.459     12.309
REMARK  8 active torsions:
REMARK  status: ('A' for Active; 'I' for Inactive)
REMARK    1  A    between atoms: C_1  and  C_2 
REMARK    2  A    between atoms: C_6  and  N_20 
REMARK    3  A    between atoms: C_10  and  C_11 
REMARK    4  A    between atoms: C_11  and  C_13 
REMARK       I    between atoms: N_20  and  C_21 
REMARK    5  A    between atoms: C_21  and  C_23 
REMARK    6  A    between atoms: C_23  and  C_24 
REMARK    7  A    between atoms: C_23  and  C_25 
REMARK    8  A    between atoms: C_23  and  C_26 
ROOT
ATOM      1  C   LIG d   1       9.673   3.970  -5.318  0.00  0.00     0.006 A 
ATOM      2  C   LIG d   1       8.818   2.839  -5.313  0.00  0.00     0.024 A 
ATOM      3  C   LIG d   1       8.297   2.016  -6.318  0.00  0.00    -0.049 A 
ATOM      4  C   LIG d   1       7.479   0.976  -5.989  0.00  0.00    -0.040 A 
ATOM      5  C   LIG d   1       7.156   0.726  -4.654  0.00  0.00     0.037 A 
ATOM      6  C   LIG d   1       7.662   1.530  -3.646  0.00  0.00     0.003 A 
ATOM      7  C   LIG d   1       8.496   2.593  -3.963  0.00  0.00     0.138 A 
ATOM      8  O   LIG d   1       9.126   3.525  -3.219  0.00  0.00    -0.451 OA
ATOM      9  C   LIG d   1       9.831   4.352  -4.021  0.00  0.00     0.179 A 
ATOM     10  H   LIG d   1       8.543   2.204  -7.352  0.00  0.00     0.062 H 
ATOM     11  H   LIG d   1       7.078   0.342  -6.765  0.00  0.00     0.064 H 
ATOM     12  H   LIG d   1       7.408   1.330  -2.615  0.00  0.00     0.067 H 
ENDROOT
BRANCH   5  13
ATOM     13  N   LIG d   1       6.317  -0.342  -4.333  0.00  0.00    -0.285 N 
ATOM     14  C   LIG d   1       5.088  -0.106  -3.831  0.00  0.00     0.223 C 
ATOM     15  O   LIG d   1       4.680   1.032  -3.738  0.00  0.00    -0.275 OA
ATOM     16  H   LIG d   1       6.617  -1.254  -4.469  0.00  0.00     0.155 HD
BRANCH  14  17
ATOM     17  C   LIG d   1       4.221  -1.256  -3.389  0.00  0.00     0.039 C 
BRANCH  17  18
ATOM     18  C   LIG d   1       2.750  -0.910  -3.634  0.00  0.00    -0.052 C 
ATOM     19  H   LIG d   1       2.467  -1.222  -4.639  0.00  0.00     0.024 H 
ATOM     20  H   LIG d   1       2.129  -1.428  -2.903  0.00  0.00     0.024 H 
ATOM     21  H   LIG d   1       2.608   0.165  -3.534  0.00  0.00     0.024 H 
ENDBRANCH  17  18
BRANCH  17  22
ATOM     22  C   LIG d   1       4.590  -2.510  -4.185  0.00  0.00    -0.052 C 
ATOM     23  H   LIG d   1       4.827  -3.320  -3.497  0.00  0.00     0.024 H 
ATOM     24  H   LIG d   1       3.749  -2.802  -4.813  0.00  0.00     0.024 H 
ATOM     25  H   LIG d   1       5.456  -2.299  -4.813  0.00  0.00     0.024 H 
ENDBRANCH  17  22
BRANCH  17  26
ATOM     26  C   LIG d   1       4.442  -1.517  -1.897  0.00  0.00    -0.052 C 
ATOM     27  H   LIG d   1       4.192  -0.619  -1.330  0.00  0.00     0.024 H 
ATOM     28  H   LIG d   1       3.805  -2.340  -1.574  0.00  0.00     0.024 H 
ATOM     29  H   LIG d   1       5.486  -1.775  -1.724  0.00  0.00     0.024 H 
ENDBRANCH  17  26
ENDBRANCH  14  17
ENDBRANCH   5  13
BRANCH   1  30
ATOM     30  C   LIG d   1      10.287   4.624  -6.528  0.00  0.00    -0.035 C 
ATOM     31  H   LIG d   1      11.344   4.810  -6.343  0.00  0.00     0.028 H 
ATOM     32  H   LIG d   1      10.179   3.966  -7.390  0.00  0.00     0.028 H 
ATOM     33  H   LIG d   1       9.781   5.569  -6.725  0.00  0.00     0.028 H 
ENDBRANCH   1  30
BRANCH   9  34
ATOM     34  C   LIG d   1      10.642   5.486  -3.567  0.00  0.00     0.228 C 
ATOM     35  O   LIG d   1      10.205   6.618  -3.649  0.00  0.00    -0.283 OA
BRANCH  34  36
ATOM     36  C   LIG d   1      11.990   5.252  -3.007  0.00  0.00     0.025 A 
ATOM     37  C   LIG d   1      12.406   5.944  -1.867  0.00  0.00    -0.049 A 
ATOM     38  C   LIG d   1      13.664   5.721  -1.349  0.00  0.00    -0.043 A 
ATOM     39  H   LIG d   1      11.743   6.652  -1.393  0.00  0.00     0.062 H 
ATOM     40  C   LIG d   1      14.516   4.814  -1.957  0.00  0.00     0.041 A 
ATOM     41  H   LIG d   1      13.986   6.257  -0.468  0.00  0.00     0.063 H 
ATOM     42  C   LIG d   1      14.110   4.125  -3.089  0.00  0.00    -0.043 A 
ATOM     43 CL   LIG d   1      16.099   4.540  -1.301  0.00  0.00    -0.084 Cl
ATOM     44  C   LIG d   1      12.852   4.334  -3.612  0.00  0.00    -0.049 A 
ATOM     45  H   LIG d   1      14.778   3.419  -3.558  0.00  0.00     0.063 H 
ATOM     46  H   LIG d   1      12.534   3.792  -4.491  0.00  0.00     0.062 H 
ENDBRANCH  34  36
ENDBRANCH   9  34
TORSDOF 8
ENDMDL
MODEL 9
REMARK VINA RESULT:      -5.5      1.491      2.332
REMARK  8 active torsions:
REMARK  status: ('A' for Active; 'I' for Inactive)
REMARK    1  A    between atoms: C_1  and  C_2 
REMARK    2  A    between atoms: C_6  and  N_20 
REMARK    3  A    between atoms: C_10  and  C_11 
REMARK    4  A    between atoms: C_11  and  C_13 
REMARK       I    between atoms: N_20  and  C_21 
REMARK    5  A    between atoms: C_21  and  C_23 
REMARK    6  A    between atoms: C_23  and  C_24 
REMARK    7  A    between atoms: C_23  and  C_25 
REMARK    8  A    between atoms: C_23  and  C_26 
ROOT
ATOM      1  C   LIG d   1       3.651  -2.436 -10.297  0.00  0.00     0.006 A 
ATOM      2  C   LIG d   1       4.128  -1.926  -9.064  0.00  0.00     0.024 A 
ATOM      3  C   LIG d   1       5.300  -2.125  -8.323  0.00  0.00    -0.049 A 
ATOM      4  C   LIG d   1       5.473  -1.472  -7.139  0.00  0.00    -0.040 A 
ATOM      5  C   LIG d   1       4.490  -0.605  -6.659  0.00  0.00     0.037 A 
ATOM      6  C   LIG d   1       3.325  -0.396  -7.378  0.00  0.00     0.003 A 
ATOM      7  C   LIG d   1       3.132  -1.053  -8.585  0.00  0.00     0.138 A 
ATOM      8  O   LIG d   1       2.127  -1.050  -9.486  0.00  0.00    -0.451 OA
ATOM      9  C   LIG d   1       2.430  -1.875 -10.512  0.00  0.00     0.179 A 
ATOM     10  H   LIG d   1       6.064  -2.793  -8.690  0.00  0.00     0.062 H 
ATOM     11  H   LIG d   1       6.377  -1.626  -6.569  0.00  0.00     0.064 H 
ATOM     12  H   LIG d   1       2.568   0.276  -7.000  0.00  0.00     0.067 H 
ENDROOT
BRANCH   5  13
ATOM     13  N   LIG d   1       4.682   0.055  -5.444  0.00  0.00    -0.285 N 
ATOM     14  C   LIG d   1       4.363  -0.557  -4.286  0.00  0.00     0.223 C 
ATOM     15  O   LIG d   1       3.989  -1.710  -4.294  0.00  0.00    -0.275 OA
ATOM     16  H   LIG d   1       5.044   0.955  -5.433  0.00  0.00     0.155 HD
BRANCH  14  17
ATOM     17  C   LIG d   1       4.474   0.192  -2.983  0.00  0.00     0.039 C 
BRANCH  17  18
ATOM     18  C   LIG d   1       3.330   1.202  -2.876  0.00  0.00    -0.052 C 
ATOM     19  H   LIG d   1       2.981   1.462  -3.876  0.00  0.00     0.024 H 
ATOM     20  H   LIG d   1       2.510   0.764  -2.307  0.00  0.00     0.024 H 
ATOM     21  H   LIG d   1       3.684   2.100  -2.371  0.00  0.00     0.024 H 
ENDBRANCH  17  18
BRANCH  17  22
ATOM     22  C   LIG d   1       4.393  -0.797  -1.818  0.00  0.00    -0.052 C 
ATOM     23  H   LIG d   1       3.349  -1.040  -1.620  0.00  0.00     0.024 H 
ATOM     24  H   LIG d   1       4.934  -1.707  -2.076  0.00  0.00     0.024 H 
ATOM     25  H   LIG d   1       4.838  -0.349  -0.930  0.00  0.00     0.024 H 
ENDBRANCH  17  22
BRANCH  17  26
ATOM     26  C   LIG d   1       5.813   0.931  -2.931  0.00  0.00    -0.052 C 
ATOM     27  H   LIG d   1       6.528   0.434  -3.590  0.00  0.00     0.024 H 
ATOM     28  H   LIG d   1       5.672   1.960  -3.258  0.00  0.00     0.024 H 
ATOM     29  H   LIG d   1       6.194   0.921  -1.911  0.00  0.00     0.024 H 
ENDBRANCH  17  26
ENDBRANCH  14  17
ENDBRANCH   5  13
BRANCH   1  30
ATOM     30  C   LIG d   1       4.361  -3.414 -11.198  0.00  0.00    -0.035 C 
ATOM     31  H   LIG d   1       3.629  -3.939 -11.811  0.00  0.00     0.028 H 
ATOM     32  H   LIG d   1       5.056  -2.875 -11.842  0.00  0.00     0.028 H 
ATOM     33  H   LIG d   1       4.910  -4.134 -10.591  0.00  0.00     0.028 H 
ENDBRANCH   1  30
BRANCH   9  34
ATOM     34  C   LIG d   1       1.576  -2.127 -11.677  0.00  0.00     0.228 C 
ATOM     35  O   LIG d   1       1.741  -1.491 -12.701  0.00  0.00    -0.283 OA
BRANCH  34  36
ATOM     36  C   LIG d   1       0.516  -3.154 -11.606  0.00  0.00     0.025 A 
ATOM     37  C   LIG d   1      -0.399  -3.290 -12.653  0.00  0.00    -0.049 A 
ATOM     38  C   LIG d   1      -1.386  -4.251 -12.582  0.00  0.00    -0.043 A 
ATOM     39  H   LIG d   1      -0.334  -2.645 -13.516  0.00  0.00     0.062 H 
ATOM     40  C   LIG d   1      -1.472  -5.079 -11.475  0.00  0.00     0.041 A 
ATOM     41  H   LIG d   1      -2.094  -4.356 -13.391  0.00  0.00     0.063 H 
ATOM     42  C   LIG d   1      -0.568  -4.948 -10.433  0.00  0.00    -0.043 A 
ATOM     43 CL   LIG d   1      -2.717  -6.285 -11.392  0.00  0.00    -0.084 Cl
ATOM     44  C   LIG d   1       0.427  -3.996 -10.495  0.00  0.00    -0.049 A 
ATOM     45  H   LIG d   1      -0.640  -5.597  -9.573  0.00  0.00     0.063 H 
ATOM     46  H   LIG d   1       1.134  -3.899  -9.685  0.00  0.00     0.062 H 
ENDBRANCH  34  36
ENDBRANCH   9  34
TORSDOF 8
ENDMDL
