MODEL 1
REMARK VINA RESULT:      -5.9      0.000      0.000
REMARK  10 active torsions:
REMARK  status: ('A' for Active; 'I' for Inactive)
REMARK    1  A    between atoms: C_1  and  C_2 
REMARK    2  A    between atoms: C_2  and  C_3 
REMARK    3  A    between atoms: C_3  and  CA_4 
REMARK    4  A    between atoms: CA_4  and  C_6 
REMARK    5  A    between atoms: CA_4  and  N_8 
REMARK       I    between atoms: N_8  and  C_9 
REMARK    6  A    between atoms: C_9  and  C_11 
REMARK    7  A    between atoms: C_11  and  C_12 
REMARK    8  A    between atoms: C_13  and  C_26 
REMARK    9  A    between atoms: C_17  and  O_23 
REMARK   10  A    between atoms: O_23  and  C_24 
ROOT
ATOM      1  C   LIG d   1       3.889  -1.136  -8.264  0.00  0.00     0.049 A 
ATOM      2  C   LIG d   1       3.023  -0.643  -9.187  0.00  0.00    -0.029 A 
ATOM      3  C   LIG d   1       2.260  -1.595  -9.997  0.00  0.00     0.022 A 
ATOM      4  C   LIG d   1       1.352  -1.151 -10.967  0.00  0.00    -0.029 A 
ATOM      5  C   LIG d   1       0.655  -2.060 -11.709  0.00  0.00     0.083 A 
ATOM      6  C   LIG d   1       0.835  -3.427 -11.503  0.00  0.00     0.142 A 
ATOM      7  C   LIG d   1       1.733  -3.883 -10.552  0.00  0.00     0.025 A 
ATOM      8  C   LIG d   1       2.450  -2.974  -9.790  0.00  0.00     0.143 A 
ATOM      9  O   LIG d   1       3.328  -3.398  -8.854  0.00  0.00    -0.422 OA
ATOM     10  C   LIG d   1       4.030  -2.531  -8.109  0.00  0.00     0.341 A 
ATOM     11  O   LIG d   1       4.810  -2.959  -7.277  0.00  0.00    -0.245 OA
ATOM     12 CL   LIG d   1      -0.471  -1.510 -12.910  0.00  0.00    -0.080 Cl
ATOM     13  H   LIG d   1       1.205  -0.093 -11.127  0.00  0.00     0.064 H 
ATOM     14  H   LIG d   1       1.871  -4.944 -10.402  0.00  0.00     0.069 H 
ENDROOT
BRANCH   1  15
ATOM     15  C   LIG d   1       4.696  -0.195  -7.407  0.00  0.00     0.056 C 
ATOM     16  H   LIG d   1       5.739  -0.510  -7.403  0.00  0.00     0.041 H 
ATOM     17  H   LIG d   1       4.622   0.816  -7.809  0.00  0.00     0.041 H 
BRANCH  15  18
ATOM     18  C   LIG d   1       4.160  -0.216  -5.998  0.00  0.00     0.218 C 
ATOM     19  N   LIG d   1       4.848  -0.845  -5.025  0.00  0.00    -0.307 N 
ATOM     20  H   LIG d   1       5.688  -1.284  -5.231  0.00  0.00     0.149 HD
ATOM     21  O   LIG d   1       3.111   0.334  -5.740  0.00  0.00    -0.275 OA
BRANCH  19  22
ATOM     22  CA  LIG d   1       4.328  -0.865  -3.655  0.00  0.00     0.063 C 
ATOM     23  HA  LIG d   1       3.405  -0.288  -3.608  0.00  0.00     0.056 H 
BRANCH  22  24
ATOM     24  C   LIG d   1       5.361  -0.252  -2.708  0.00  0.00    -0.029 C 
ATOM     25  H   LIG d   1       5.868  -1.046  -2.160  0.00  0.00     0.029 H 
ATOM     26  H   LIG d   1       6.092   0.315  -3.285  0.00  0.00     0.029 H 
BRANCH  24  27
ATOM     27  C   LIG d   1       4.657   0.681  -1.720  0.00  0.00    -0.054 C 
ATOM     28  H   LIG d   1       4.241   0.095  -0.901  0.00  0.00     0.026 H 
ATOM     29  H   LIG d   1       5.375   1.399  -1.324  0.00  0.00     0.026 H 
BRANCH  27  30
ATOM     30  C   LIG d   1       3.530   1.427  -2.437  0.00  0.00    -0.065 C 
ATOM     31  H   LIG d   1       2.666   0.770  -2.536  0.00  0.00     0.023 H 
ATOM     32  H   LIG d   1       3.253   2.308  -1.860  0.00  0.00     0.023 H 
ATOM     33  H   LIG d   1       3.870   1.733  -3.427  0.00  0.00     0.023 H 
ENDBRANCH  27  30
ENDBRANCH  24  27
ENDBRANCH  22  24
BRANCH  22  34
ATOM     34  C   LIG d   1       4.053  -2.288  -3.243  0.00  0.00     0.062 C 
ATOM     35  O   LIG d   1       3.502  -2.518  -2.193  0.00  0.00    -0.548 OA
ATOM     36  OXT LIG d   1       4.421  -3.301  -4.043  0.00  0.00    -0.548 OA
ENDBRANCH  22  34
ENDBRANCH  19  22
ENDBRANCH  15  18
ENDBRANCH   1  15
BRANCH   2  37
ATOM     37  C   LIG d   1       2.853   0.843  -9.374  0.00  0.00    -0.038 C 
ATOM     38  H   LIG d   1       1.841   1.131  -9.089  0.00  0.00     0.028 H 
ATOM     39  H   LIG d   1       3.571   1.372  -8.746  0.00  0.00     0.028 H 
ATOM     40  H   LIG d   1       3.024   1.100 -10.419  0.00  0.00     0.028 H 
ENDBRANCH   2  37
BRANCH   6  41
ATOM     41  O   LIG d   1       0.129  -4.319 -12.244  0.00  0.00    -0.493 OA
BRANCH  41  42
ATOM     42  C   LIG d   1       0.838  -5.014 -13.272  0.00  0.00     0.079 C 
ATOM     43  H   LIG d   1       1.447  -4.306 -13.836  0.00  0.00     0.066 H 
ATOM     44  H   LIG d   1       1.482  -5.769 -12.822  0.00  0.00     0.066 H 
ATOM     45  H   LIG d   1       0.126  -5.496 -13.943  0.00  0.00     0.066 H 
ENDBRANCH  41  42
ENDBRANCH   6  41
TORSDOF 10
ENDMDL
MODEL 2
REMARK VINA RESULT:      -5.7      2.146      3.078
REMARK  10 active torsions:
REMARK  status: ('A' for Active; 'I' for Inactive)
REMARK    1  A    between atoms: C_1  and  C_2 
REMARK    2  A    between atoms: C_2  and  C_3 
REMARK    3  A    between atoms: C_3  and  CA_4 
REMARK    4  A    between atoms: CA_4  and  C_6 
REMARK    5  A    between atoms: CA_4  and  N_8 
REMARK       I    between atoms: N_8  and  C_9 
REMARK    6  A    between atoms: C_9  and  C_11 
REMARK    7  A    between atoms: C_11  and  C_12 
REMARK    8  A    between atoms: C_13  and  C_26 
REMARK    9  A    between atoms: C_17  and  O_23 
REMARK   10  A    between atoms: O_23  and  C_24 
ROOT
ATOM      1  C   LIG d   1       4.824  -1.061  -7.916  0.00  0.00     0.049 A 
ATOM      2  C   LIG d   1       4.698  -2.347  -8.336  0.00  0.00    -0.029 A 
ATOM      3  C   LIG d   1       3.508  -2.710  -9.108  0.00  0.00     0.022 A 
ATOM      4  C   LIG d   1       3.318  -4.018  -9.569  0.00  0.00    -0.029 A 
ATOM      5  C   LIG d   1       2.199  -4.330 -10.285  0.00  0.00     0.083 A 
ATOM      6  C   LIG d   1       1.246  -3.351 -10.567  0.00  0.00     0.142 A 
ATOM      7  C   LIG d   1       1.415  -2.054 -10.114  0.00  0.00     0.025 A 
ATOM      8  C   LIG d   1       2.546  -1.720  -9.384  0.00  0.00     0.143 A 
ATOM      9  O   LIG d   1       2.733  -0.459  -8.937  0.00  0.00    -0.422 OA
ATOM     10  C   LIG d   1       3.821  -0.121  -8.230  0.00  0.00     0.341 A 
ATOM     11  O   LIG d   1       3.946   1.029  -7.847  0.00  0.00    -0.245 OA
ATOM     12 CL   LIG d   1       1.964  -5.952 -10.857  0.00  0.00    -0.080 Cl
ATOM     13  H   LIG d   1       4.056  -4.779  -9.357  0.00  0.00     0.064 H 
ATOM     14  H   LIG d   1       0.670  -1.302 -10.332  0.00  0.00     0.069 H 
ENDROOT
BRANCH   1  15
ATOM     15  C   LIG d   1       6.031  -0.641  -7.119  0.00  0.00     0.056 C 
ATOM     16  H   LIG d   1       6.878  -1.277  -7.380  0.00  0.00     0.041 H 
ATOM     17  H   LIG d   1       6.273   0.398  -7.346  0.00  0.00     0.041 H 
BRANCH  15  18
ATOM     18  C   LIG d   1       5.734  -0.778  -5.648  0.00  0.00     0.218 C 
ATOM     19  N   LIG d   1       5.049   0.188  -5.006  0.00  0.00    -0.307 N 
ATOM     20  H   LIG d   1       4.746   0.972  -5.491  0.00  0.00     0.149 HD
ATOM     21  O   LIG d   1       6.112  -1.758  -5.041  0.00  0.00    -0.275 OA
BRANCH  19  22
ATOM     22  CA  LIG d   1       4.759   0.056  -3.576  0.00  0.00     0.063 C 
ATOM     23  HA  LIG d   1       5.074  -0.929  -3.231  0.00  0.00     0.056 H 
BRANCH  22  24
ATOM     24  C   LIG d   1       3.257   0.221  -3.342  0.00  0.00    -0.029 C 
ATOM     25  H   LIG d   1       3.088   1.016  -2.614  0.00  0.00     0.029 H 
ATOM     26  H   LIG d   1       2.769   0.480  -4.281  0.00  0.00     0.029 H 
BRANCH  24  27
ATOM     27  C   LIG d   1       2.676  -1.090  -2.810  0.00  0.00    -0.054 C 
ATOM     28  H   LIG d   1       2.048  -0.884  -1.944  0.00  0.00     0.026 H 
ATOM     29  H   LIG d   1       2.078  -1.564  -3.587  0.00  0.00     0.026 H 
BRANCH  27  30
ATOM     30  C   LIG d   1       3.816  -2.025  -2.402  0.00  0.00    -0.065 C 
ATOM     31  H   LIG d   1       3.413  -2.865  -1.837  0.00  0.00     0.023 H 
ATOM     32  H   LIG d   1       4.320  -2.395  -3.294  0.00  0.00     0.023 H 
ATOM     33  H   LIG d   1       4.529  -1.479  -1.782  0.00  0.00     0.023 H 
ENDBRANCH  27  30
ENDBRANCH  24  27
ENDBRANCH  22  24
BRANCH  22  34
ATOM     34  C   LIG d   1       5.506   1.119  -2.812  0.00  0.00     0.062 C 
ATOM     35  O   LIG d   1       5.148   1.428  -1.701  0.00  0.00    -0.548 OA
ATOM     36  OXT LIG d   1       6.569   1.722  -3.367  0.00  0.00    -0.548 OA
ENDBRANCH  22  34
ENDBRANCH  19  22
ENDBRANCH  15  18
ENDBRANCH   1  15
BRANCH   2  37
ATOM     37  C   LIG d   1       5.755  -3.373  -8.015  0.00  0.00    -0.038 C 
ATOM     38  H   LIG d   1       5.472  -4.333  -8.448  0.00  0.00     0.028 H 
ATOM     39  H   LIG d   1       6.710  -3.053  -8.433  0.00  0.00     0.028 H 
ATOM     40  H   LIG d   1       5.846  -3.475  -6.934  0.00  0.00     0.028 H 
ENDBRANCH   2  37
BRANCH   6  41
ATOM     41  O   LIG d   1       0.141  -3.674 -11.286  0.00  0.00    -0.493 OA
BRANCH  41  42
ATOM     42  C   LIG d   1      -0.011  -3.046 -12.561  0.00  0.00     0.079 C 
ATOM     43  H   LIG d   1       0.744  -2.267 -12.673  0.00  0.00     0.066 H 
ATOM     44  H   LIG d   1       0.113  -3.789 -13.348  0.00  0.00     0.066 H 
ATOM     45  H   LIG d   1      -1.004  -2.603 -12.631  0.00  0.00     0.066 H 
ENDBRANCH  41  42
ENDBRANCH   6  41
TORSDOF 10
ENDMDL
MODEL 3
REMARK VINA RESULT:      -5.7      3.034      3.769
REMARK  10 active torsions:
REMARK  status: ('A' for Active; 'I' for Inactive)
REMARK    1  A    between atoms: C_1  and  C_2 
REMARK    2  A    between atoms: C_2  and  C_3 
REMARK    3  A    between atoms: C_3  and  CA_4 
REMARK    4  A    between atoms: CA_4  and  C_6 
REMARK    5  A    between atoms: CA_4  and  N_8 
REMARK       I    between atoms: N_8  and  C_9 
REMARK    6  A    between atoms: C_9  and  C_11 
REMARK    7  A    between atoms: C_11  and  C_12 
REMARK    8  A    between atoms: C_13  and  C_26 
REMARK    9  A    between atoms: C_17  and  O_23 
REMARK   10  A    between atoms: O_23  and  C_24 
ROOT
ATOM      1  C   LIG d   1       3.391   0.650  -8.897  0.00  0.00     0.049 A 
ATOM      2  C   LIG d   1       2.742  -0.151  -9.782  0.00  0.00    -0.029 A 
ATOM      3  C   LIG d   1       3.439  -0.530 -11.012  0.00  0.00     0.022 A 
ATOM      4  C   LIG d   1       2.825  -1.352 -11.965  0.00  0.00    -0.029 A 
ATOM      5  C   LIG d   1       3.497  -1.689 -13.104  0.00  0.00     0.083 A 
ATOM      6  C   LIG d   1       4.795  -1.225 -13.322  0.00  0.00     0.142 A 
ATOM      7  C   LIG d   1       5.415  -0.407 -12.393  0.00  0.00     0.025 A 
ATOM      8  C   LIG d   1       4.746  -0.054 -11.230  0.00  0.00     0.143 A 
ATOM      9  O   LIG d   1       5.334   0.739 -10.309  0.00  0.00    -0.422 OA
ATOM     10  C   LIG d   1       4.701   1.090  -9.180  0.00  0.00     0.341 A 
ATOM     11  O   LIG d   1       5.271   1.808  -8.377  0.00  0.00    -0.245 OA
ATOM     12 CL   LIG d   1       2.737  -2.709 -14.285  0.00  0.00    -0.080 Cl
ATOM     13  H   LIG d   1       1.822  -1.718 -11.799  0.00  0.00     0.064 H 
ATOM     14  H   LIG d   1       6.417  -0.048 -12.571  0.00  0.00     0.069 H 
ENDROOT
BRANCH   1  15
ATOM     15  C   LIG d   1       2.714   1.065  -7.617  0.00  0.00     0.056 C 
ATOM     16  H   LIG d   1       2.834   2.139  -7.474  0.00  0.00     0.041 H 
ATOM     17  H   LIG d   1       1.653   0.822  -7.671  0.00  0.00     0.041 H 
BRANCH  15  18
ATOM     18  C   LIG d   1       3.338   0.332  -6.458  0.00  0.00     0.218 C 
ATOM     19  N   LIG d   1       3.198   0.807  -5.204  0.00  0.00    -0.307 N 
ATOM     20  H   LIG d   1       2.694   1.621  -5.048  0.00  0.00     0.149 HD
ATOM     21  O   LIG d   1       3.968  -0.686  -6.652  0.00  0.00    -0.275 OA
BRANCH  19  22
ATOM     22  CA  LIG d   1       3.804   0.094  -4.077  0.00  0.00     0.063 C 
ATOM     23  HA  LIG d   1       4.632  -0.516  -4.436  0.00  0.00     0.056 H 
BRANCH  22  24
ATOM     24  C   LIG d   1       2.756  -0.805  -3.419  0.00  0.00    -0.029 C 
ATOM     25  H   LIG d   1       2.144  -0.212  -2.739  0.00  0.00     0.029 H 
ATOM     26  H   LIG d   1       2.122  -1.247  -4.187  0.00  0.00     0.029 H 
BRANCH  24  27
ATOM     27  C   LIG d   1       3.457  -1.917  -2.636  0.00  0.00    -0.054 C 
ATOM     28  H   LIG d   1       3.916  -1.497  -1.741  0.00  0.00     0.026 H 
ATOM     29  H   LIG d   1       2.728  -2.674  -2.348  0.00  0.00     0.026 H 
BRANCH  27  30
ATOM     30  C   LIG d   1       4.537  -2.554  -3.511  0.00  0.00    -0.065 C 
ATOM     31  H   LIG d   1       4.199  -3.534  -3.851  0.00  0.00     0.023 H 
ATOM     32  H   LIG d   1       4.729  -1.917  -4.375  0.00  0.00     0.023 H 
ATOM     33  H   LIG d   1       5.455  -2.667  -2.933  0.00  0.00     0.023 H 
ENDBRANCH  27  30
ENDBRANCH  24  27
ENDBRANCH  22  24
BRANCH  22  34
ATOM     34  C   LIG d   1       4.314   1.091  -3.069  0.00  0.00     0.062 C 
ATOM     35  O   LIG d   1       5.423   1.555  -3.186  0.00  0.00    -0.548 OA
ATOM     36  OXT LIG d   1       3.537   1.463  -2.040  0.00  0.00    -0.548 OA
ENDBRANCH  22  34
ENDBRANCH  19  22
ENDBRANCH  15  18
ENDBRANCH   1  15
BRANCH   2  37
ATOM     37  C   LIG d   1       1.342  -0.636  -9.504  0.00  0.00    -0.038 C 
ATOM     38  H   LIG d   1       0.701  -0.400 -10.354  0.00  0.00     0.028 H 
ATOM     39  H   LIG d   1       1.356  -1.715  -9.349  0.00  0.00     0.028 H 
ATOM     40  H   LIG d   1       0.957  -0.144  -8.611  0.00  0.00     0.028 H 
ENDBRANCH   2  37
BRANCH   6  41
ATOM     41  O   LIG d   1       5.453  -1.574 -14.457  0.00  0.00    -0.493 OA
BRANCH  41  42
ATOM     42  C   LIG d   1       5.588  -0.570 -15.464  0.00  0.00     0.079 C 
ATOM     43  H   LIG d   1       5.528  -1.033 -16.449  0.00  0.00     0.066 H 
ATOM     44  H   LIG d   1       4.787   0.161 -15.357  0.00  0.00     0.066 H 
ATOM     45  H   LIG d   1       6.552  -0.072 -15.354  0.00  0.00     0.066 H 
ENDBRANCH  41  42
ENDBRANCH   6  41
TORSDOF 10
ENDMDL
MODEL 4
REMARK VINA RESULT:      -5.6      1.744      2.501
REMARK  10 active torsions:
REMARK  status: ('A' for Active; 'I' for Inactive)
REMARK    1  A    between atoms: C_1  and  C_2 
REMARK    2  A    between atoms: C_2  and  C_3 
REMARK    3  A    between atoms: C_3  and  CA_4 
REMARK    4  A    between atoms: CA_4  and  C_6 
REMARK    5  A    between atoms: CA_4  and  N_8 
REMARK       I    between atoms: N_8  and  C_9 
REMARK    6  A    between atoms: C_9  and  C_11 
REMARK    7  A    between atoms: C_11  and  C_12 
REMARK    8  A    between atoms: C_13  and  C_26 
REMARK    9  A    between atoms: C_17  and  O_23 
REMARK   10  A    between atoms: O_23  and  C_24 
ROOT
ATOM      1  C   LIG d   1       3.608  -0.938  -8.325  0.00  0.00     0.049 A 
ATOM      2  C   LIG d   1       3.799  -2.278  -8.443  0.00  0.00    -0.029 A 
ATOM      3  C   LIG d   1       2.873  -3.036  -9.287  0.00  0.00     0.022 A 
ATOM      4  C   LIG d   1       3.014  -4.420  -9.449  0.00  0.00    -0.029 A 
ATOM      5  C   LIG d   1       2.136  -5.103 -10.240  0.00  0.00     0.083 A 
ATOM      6  C   LIG d   1       1.103  -4.430 -10.893  0.00  0.00     0.142 A 
ATOM      7  C   LIG d   1       0.946  -3.063 -10.740  0.00  0.00     0.025 A 
ATOM      8  C   LIG d   1       1.829  -2.354  -9.939  0.00  0.00     0.143 A 
ATOM      9  O   LIG d   1       1.696  -1.019  -9.779  0.00  0.00    -0.422 OA
ATOM     10  C   LIG d   1       2.541  -0.319  -9.007  0.00  0.00     0.341 A 
ATOM     11  O   LIG d   1       2.382   0.884  -8.892  0.00  0.00    -0.245 OA
ATOM     12 CL   LIG d   1       2.310  -6.818 -10.442  0.00  0.00    -0.080 Cl
ATOM     13  H   LIG d   1       3.814  -4.945  -8.949  0.00  0.00     0.064 H 
ATOM     14  H   LIG d   1       0.141  -2.550 -11.244  0.00  0.00     0.069 H 
ENDROOT
BRANCH   1  15
ATOM     15  C   LIG d   1       4.536  -0.116  -7.469  0.00  0.00     0.056 C 
ATOM     16  H   LIG d   1       5.546  -0.522  -7.533  0.00  0.00     0.041 H 
ATOM     17  H   LIG d   1       4.536   0.917  -7.819  0.00  0.00     0.041 H 
BRANCH  15  18
ATOM     18  C   LIG d   1       4.068  -0.160  -6.037  0.00  0.00     0.218 C 
ATOM     19  N   LIG d   1       4.804  -0.799  -5.106  0.00  0.00    -0.307 N 
ATOM     20  H   LIG d   1       5.636  -1.230  -5.358  0.00  0.00     0.149 HD
ATOM     21  O   LIG d   1       3.029   0.379  -5.721  0.00  0.00    -0.275 OA
BRANCH  19  22
ATOM     22  CA  LIG d   1       4.349  -0.841  -3.714  0.00  0.00     0.063 C 
ATOM     23  HA  LIG d   1       3.428  -0.269  -3.614  0.00  0.00     0.056 H 
BRANCH  22  24
ATOM     24  C   LIG d   1       5.424  -0.239  -2.807  0.00  0.00    -0.029 C 
ATOM     25  H   LIG d   1       5.937  -1.038  -2.271  0.00  0.00     0.029 H 
ATOM     26  H   LIG d   1       6.143   0.313  -3.412  0.00  0.00     0.029 H 
BRANCH  24  27
ATOM     27  C   LIG d   1       4.769   0.711  -1.802  0.00  0.00    -0.054 C 
ATOM     28  H   LIG d   1       4.463   0.150  -0.919  0.00  0.00     0.026 H 
ATOM     29  H   LIG d   1       5.483   1.481  -1.512  0.00  0.00     0.026 H 
BRANCH  27  30
ATOM     30  C   LIG d   1       3.543   1.364  -2.441  0.00  0.00    -0.065 C 
ATOM     31  H   LIG d   1       3.532   2.428  -2.202  0.00  0.00     0.023 H 
ATOM     32  H   LIG d   1       3.585   1.236  -3.523  0.00  0.00     0.023 H 
ATOM     33  H   LIG d   1       2.638   0.896  -2.054  0.00  0.00     0.023 H 
ENDBRANCH  27  30
ENDBRANCH  24  27
ENDBRANCH  22  24
BRANCH  22  34
ATOM     34  C   LIG d   1       4.098  -2.272  -3.312  0.00  0.00     0.062 C 
ATOM     35  O   LIG d   1       4.434  -3.173  -4.043  0.00  0.00    -0.548 OA
ATOM     36  OXT LIG d   1       3.501  -2.546  -2.141  0.00  0.00    -0.548 OA
ENDBRANCH  22  34
ENDBRANCH  19  22
ENDBRANCH  15  18
ENDBRANCH   1  15
BRANCH   2  37
ATOM     37  C   LIG d   1       4.932  -2.965  -7.725  0.00  0.00    -0.038 C 
ATOM     38  H   LIG d   1       4.615  -3.963  -7.419  0.00  0.00     0.028 H 
ATOM     39  H   LIG d   1       5.790  -3.045  -8.393  0.00  0.00     0.028 H 
ATOM     40  H   LIG d   1       5.208  -2.386  -6.844  0.00  0.00     0.028 H 
ENDBRANCH   2  37
BRANCH   6  41
ATOM     41  O   LIG d   1       0.241  -5.122 -11.682  0.00  0.00    -0.493 OA
BRANCH  41  42
ATOM     42  C   LIG d   1      -1.107  -5.241 -11.223  0.00  0.00     0.079 C 
ATOM     43  H   LIG d   1      -1.194  -4.793 -10.233  0.00  0.00     0.066 H 
ATOM     44  H   LIG d   1      -1.772  -4.725 -11.915  0.00  0.00     0.066 H 
ATOM     45  H   LIG d   1      -1.381  -6.295 -11.171  0.00  0.00     0.066 H 
ENDBRANCH  41  42
ENDBRANCH   6  41
TORSDOF 10
ENDMDL
MODEL 5
REMARK VINA RESULT:      -5.5      6.277      9.089
REMARK  10 active torsions:
REMARK  status: ('A' for Active; 'I' for Inactive)
REMARK    1  A    between atoms: C_1  and  C_2 
REMARK    2  A    between atoms: C_2  and  C_3 
REMARK    3  A    between atoms: C_3  and  CA_4 
REMARK    4  A    between atoms: CA_4  and  C_6 
REMARK    5  A    between atoms: CA_4  and  N_8 
REMARK       I    between atoms: N_8  and  C_9 
REMARK    6  A    between atoms: C_9  and  C_11 
REMARK    7  A    between atoms: C_11  and  C_12 
REMARK    8  A    between atoms: C_13  and  C_26 
REMARK    9  A    between atoms: C_17  and  O_23 
REMARK   10  A    between atoms: O_23  and  C_24 
ROOT
ATOM      1  C   LIG d   1       9.295   2.659  -4.737  0.00  0.00     0.049 A 
ATOM      2  C   LIG d   1       9.252   2.725  -6.093  0.00  0.00    -0.029 A 
ATOM      3  C   LIG d   1       9.476   4.025  -6.730  0.00  0.00     0.022 A 
ATOM      4  C   LIG d   1       9.444   4.160  -8.123  0.00  0.00    -0.029 A 
ATOM      5  C   LIG d   1       9.654   5.383  -8.690  0.00  0.00     0.083 A 
ATOM      6  C   LIG d   1       9.908   6.498  -7.891  0.00  0.00     0.142 A 
ATOM      7  C   LIG d   1       9.938   6.383  -6.512  0.00  0.00     0.025 A 
ATOM      8  C   LIG d   1       9.725   5.147  -5.919  0.00  0.00     0.143 A 
ATOM      9  O   LIG d   1       9.755   5.013  -4.575  0.00  0.00    -0.422 OA
ATOM     10  C   LIG d   1       9.551   3.825  -3.986  0.00  0.00     0.341 A 
ATOM     11  O   LIG d   1       9.586   3.750  -2.770  0.00  0.00    -0.245 OA
ATOM     12 CL   LIG d   1       9.615   5.552 -10.417  0.00  0.00    -0.080 Cl
ATOM     13  H   LIG d   1       9.252   3.299  -8.747  0.00  0.00     0.064 H 
ATOM     14  H   LIG d   1      10.130   7.252  -5.899  0.00  0.00     0.069 H 
ENDROOT
BRANCH   1  15
ATOM     15  C   LIG d   1       9.071   1.343  -4.038  0.00  0.00     0.056 C 
ATOM     16  H   LIG d   1       9.513   0.539  -4.626  0.00  0.00     0.041 H 
ATOM     17  H   LIG d   1       9.537   1.371  -3.052  0.00  0.00     0.041 H 
BRANCH  15  18
ATOM     18  C   LIG d   1       7.591   1.101  -3.886  0.00  0.00     0.218 C 
ATOM     19  N   LIG d   1       7.084  -0.129  -4.104  0.00  0.00    -0.307 N 
ATOM     20  H   LIG d   1       7.671  -0.858  -4.359  0.00  0.00     0.149 HD
ATOM     21  O   LIG d   1       6.857   2.011  -3.568  0.00  0.00    -0.275 OA
BRANCH  19  22
ATOM     22  CA  LIG d   1       5.645  -0.365  -3.957  0.00  0.00     0.063 C 
ATOM     23  HA  LIG d   1       5.163   0.543  -3.594  0.00  0.00     0.056 H 
BRANCH  22  24
ATOM     24  C   LIG d   1       5.414  -1.499  -2.957  0.00  0.00    -0.029 C 
ATOM     25  H   LIG d   1       5.090  -2.393  -3.490  0.00  0.00     0.029 H 
ATOM     26  H   LIG d   1       6.342  -1.710  -2.425  0.00  0.00     0.029 H 
BRANCH  24  27
ATOM     27  C   LIG d   1       4.336  -1.083  -1.954  0.00  0.00    -0.054 C 
ATOM     28  H   LIG d   1       3.353  -1.319  -2.359  0.00  0.00     0.026 H 
ATOM     29  H   LIG d   1       4.482  -1.623  -1.019  0.00  0.00     0.026 H 
BRANCH  27  30
ATOM     30  C   LIG d   1       4.433   0.421  -1.695  0.00  0.00    -0.065 C 
ATOM     31  H   LIG d   1       4.925   0.594  -0.738  0.00  0.00     0.023 H 
ATOM     32  H   LIG d   1       5.012   0.891  -2.491  0.00  0.00     0.023 H 
ATOM     33  H   LIG d   1       3.432   0.852  -1.672  0.00  0.00     0.023 H 
ENDBRANCH  27  30
ENDBRANCH  24  27
ENDBRANCH  22  24
BRANCH  22  34
ATOM     34  C   LIG d   1       5.060  -0.746  -5.292  0.00  0.00     0.062 C 
ATOM     35  O   LIG d   1       4.607  -1.854  -5.459  0.00  0.00    -0.548 OA
ATOM     36  OXT LIG d   1       5.043   0.144  -6.297  0.00  0.00    -0.548 OA
ENDBRANCH  22  34
ENDBRANCH  19  22
ENDBRANCH  15  18
ENDBRANCH   1  15
BRANCH   2  37
ATOM     37  C   LIG d   1       8.981   1.494  -6.920  0.00  0.00    -0.038 C 
ATOM     38  H   LIG d   1       8.252   0.866  -6.408  0.00  0.00     0.028 H 
ATOM     39  H   LIG d   1       8.586   1.790  -7.892  0.00  0.00     0.028 H 
ATOM     40  H   LIG d   1       9.907   0.938  -7.058  0.00  0.00     0.028 H 
ENDBRANCH   2  37
BRANCH   6  41
ATOM     41  O   LIG d   1      10.122   7.708  -8.470  0.00  0.00    -0.493 OA
BRANCH  41  42
ATOM     42  C   LIG d   1       9.112   8.702  -8.289  0.00  0.00     0.079 C 
ATOM     43  H   LIG d   1       8.503   8.770  -9.191  0.00  0.00     0.066 H 
ATOM     44  H   LIG d   1       8.481   8.428  -7.444  0.00  0.00     0.066 H 
ATOM     45  H   LIG d   1       9.582   9.667  -8.095  0.00  0.00     0.066 H 
ENDBRANCH  41  42
ENDBRANCH   6  41
TORSDOF 10
ENDMDL
MODEL 6
REMARK VINA RESULT:      -5.4      6.283      8.710
REMARK  10 active torsions:
REMARK  status: ('A' for Active; 'I' for Inactive)
REMARK    1  A    between atoms: C_1  and  C_2 
REMARK    2  A    between atoms: C_2  and  C_3 
REMARK    3  A    between atoms: C_3  and  CA_4 
REMARK    4  A    between atoms: CA_4  and  C_6 
REMARK    5  A    between atoms: CA_4  and  N_8 
REMARK       I    between atoms: N_8  and  C_9 
REMARK    6  A    between atoms: C_9  and  C_11 
REMARK    7  A    between atoms: C_11  and  C_12 
REMARK    8  A    between atoms: C_13  and  C_26 
REMARK    9  A    between atoms: C_17  and  O_23 
REMARK   10  A    between atoms: O_23  and  C_24 
ROOT
ATOM      1  C   LIG d   1       9.144   2.343  -5.413  0.00  0.00     0.049 A 
ATOM      2  C   LIG d   1       9.437   3.663  -5.279  0.00  0.00    -0.029 A 
ATOM      3  C   LIG d   1       9.563   4.470  -6.494  0.00  0.00     0.022 A 
ATOM      4  C   LIG d   1       9.864   5.836  -6.424  0.00  0.00    -0.029 A 
ATOM      5  C   LIG d   1       9.977   6.565  -7.572  0.00  0.00     0.083 A 
ATOM      6  C   LIG d   1       9.788   5.960  -8.815  0.00  0.00     0.142 A 
ATOM      7  C   LIG d   1       9.494   4.610  -8.902  0.00  0.00     0.025 A 
ATOM      8  C   LIG d   1       9.377   3.854  -7.745  0.00  0.00     0.143 A 
ATOM      9  O   LIG d   1       9.087   2.536  -7.809  0.00  0.00    -0.422 OA
ATOM     10  C   LIG d   1       8.970   1.791  -6.699  0.00  0.00     0.341 A 
ATOM     11  O   LIG d   1       8.708   0.605  -6.805  0.00  0.00    -0.245 OA
ATOM     12 CL   LIG d   1      10.350   8.258  -7.486  0.00  0.00    -0.080 Cl
ATOM     13  H   LIG d   1      10.008   6.310  -5.464  0.00  0.00     0.064 H 
ATOM     14  H   LIG d   1       9.354   4.147  -9.868  0.00  0.00     0.069 H 
ENDROOT
BRANCH   1  15
ATOM     15  C   LIG d   1       9.004   1.473  -4.192  0.00  0.00     0.056 C 
ATOM     16  H   LIG d   1       9.537   0.535  -4.350  0.00  0.00     0.041 H 
ATOM     17  H   LIG d   1       9.424   1.989  -3.328  0.00  0.00     0.041 H 
BRANCH  15  18
ATOM     18  C   LIG d   1       7.545   1.185  -3.944  0.00  0.00     0.218 C 
ATOM     19  N   LIG d   1       7.049  -0.044  -4.188  0.00  0.00    -0.307 N 
ATOM     20  H   LIG d   1       7.632  -0.744  -4.522  0.00  0.00     0.149 HD
ATOM     21  O   LIG d   1       6.817   2.060  -3.527  0.00  0.00    -0.275 OA
BRANCH  19  22
ATOM     22  CA  LIG d   1       5.631  -0.324  -3.947  0.00  0.00     0.063 C 
ATOM     23  HA  LIG d   1       5.143   0.573  -3.567  0.00  0.00     0.056 H 
BRANCH  22  24
ATOM     24  C   LIG d   1       5.501  -1.450  -2.920  0.00  0.00    -0.029 C 
ATOM     25  H   LIG d   1       5.242  -2.378  -3.430  0.00  0.00     0.029 H 
ATOM     26  H   LIG d   1       6.447  -1.575  -2.395  0.00  0.00     0.029 H 
BRANCH  24  27
ATOM     27  C   LIG d   1       4.403  -1.098  -1.914  0.00  0.00    -0.054 C 
ATOM     28  H   LIG d   1       3.440  -1.437  -2.294  0.00  0.00     0.026 H 
ATOM     29  H   LIG d   1       4.611  -1.587  -0.963  0.00  0.00     0.026 H 
BRANCH  27  30
ATOM     30  C   LIG d   1       4.365   0.418  -1.711  0.00  0.00    -0.065 C 
ATOM     31  H   LIG d   1       4.453   0.644  -0.648  0.00  0.00     0.023 H 
ATOM     32  H   LIG d   1       5.192   0.878  -2.250  0.00  0.00     0.023 H 
ATOM     33  H   LIG d   1       3.421   0.812  -2.088  0.00  0.00     0.023 H 
ENDBRANCH  27  30
ENDBRANCH  24  27
ENDBRANCH  22  24
BRANCH  22  34
ATOM     34  C   LIG d   1       4.977  -0.743  -5.238  0.00  0.00     0.062 C 
ATOM     35  O   LIG d   1       4.727  -1.908  -5.438  0.00  0.00    -0.548 OA
ATOM     36  OXT LIG d   1       4.673   0.177  -6.167  0.00  0.00    -0.548 OA
ENDBRANCH  22  34
ENDBRANCH  19  22
ENDBRANCH  15  18
ENDBRANCH   1  15
BRANCH   2  37
ATOM     37  C   LIG d   1       9.628   4.279  -3.917  0.00  0.00    -0.038 C 
ATOM     38  H   LIG d   1       9.870   3.498  -3.196  0.00  0.00     0.028 H 
ATOM     39  H   LIG d   1      10.443   5.002  -3.957  0.00  0.00     0.028 H 
ATOM     40  H   LIG d   1       8.710   4.781  -3.613  0.00  0.00     0.028 H 
ENDBRANCH   2  37
BRANCH   6  41
ATOM     41  O   LIG d   1       9.897   6.700  -9.948  0.00  0.00    -0.493 OA
BRANCH  41  42
ATOM     42  C   LIG d   1       9.243   6.198 -11.116  0.00  0.00     0.079 C 
ATOM     43  H   LIG d   1       8.525   6.936 -11.475  0.00  0.00     0.066 H 
ATOM     44  H   LIG d   1       9.984   6.005 -11.891  0.00  0.00     0.066 H 
ATOM     45  H   LIG d   1       8.723   5.272 -10.871  0.00  0.00     0.066 H 
ENDBRANCH  41  42
ENDBRANCH   6  41
TORSDOF 10
ENDMDL
MODEL 7
REMARK VINA RESULT:      -5.3      5.882      7.484
REMARK  10 active torsions:
REMARK  status: ('A' for Active; 'I' for Inactive)
REMARK    1  A    between atoms: C_1  and  C_2 
REMARK    2  A    between atoms: C_2  and  C_3 
REMARK    3  A    between atoms: C_3  and  CA_4 
REMARK    4  A    between atoms: CA_4  and  C_6 
REMARK    5  A    between atoms: CA_4  and  N_8 
REMARK       I    between atoms: N_8  and  C_9 
REMARK    6  A    between atoms: C_9  and  C_11 
REMARK    7  A    between atoms: C_11  and  C_12 
REMARK    8  A    between atoms: C_13  and  C_26 
REMARK    9  A    between atoms: C_17  and  O_23 
REMARK   10  A    between atoms: O_23  and  C_24 
ROOT
ATOM      1  C   LIG d   1       6.128  -5.292  -5.910  0.00  0.00     0.049 A 
ATOM      2  C   LIG d   1       7.037  -6.262  -5.629  0.00  0.00    -0.029 A 
ATOM      3  C   LIG d   1       6.541  -7.594  -5.278  0.00  0.00     0.022 A 
ATOM      4  C   LIG d   1       7.426  -8.637  -4.977  0.00  0.00    -0.029 A 
ATOM      5  C   LIG d   1       6.938  -9.868  -4.652  0.00  0.00     0.083 A 
ATOM      6  C   LIG d   1       5.562 -10.098  -4.623  0.00  0.00     0.142 A 
ATOM      7  C   LIG d   1       4.673  -9.077  -4.913  0.00  0.00     0.025 A 
ATOM      8  C   LIG d   1       5.152  -7.819  -5.245  0.00  0.00     0.143 A 
ATOM      9  O   LIG d   1       4.302  -6.810  -5.535  0.00  0.00    -0.422 OA
ATOM     10  C   LIG d   1       4.750  -5.587  -5.857  0.00  0.00     0.341 A 
ATOM     11  O   LIG d   1       3.945  -4.707  -6.111  0.00  0.00    -0.245 OA
ATOM     12 CL   LIG d   1       8.035 -11.161  -4.280  0.00  0.00    -0.080 Cl
ATOM     13  H   LIG d   1       8.493  -8.466  -5.002  0.00  0.00     0.064 H 
ATOM     14  H   LIG d   1       3.609  -9.260  -4.884  0.00  0.00     0.069 H 
ENDROOT
BRANCH   1  15
ATOM     15  C   LIG d   1       6.591  -3.906  -6.276  0.00  0.00     0.056 C 
ATOM     16  H   LIG d   1       7.660  -3.923  -6.486  0.00  0.00     0.041 H 
ATOM     17  H   LIG d   1       6.052  -3.565  -7.161  0.00  0.00     0.041 H 
BRANCH  15  18
ATOM     18  C   LIG d   1       6.319  -2.966  -5.130  0.00  0.00     0.218 C 
ATOM     19  N   LIG d   1       5.434  -1.960  -5.278  0.00  0.00    -0.307 N 
ATOM     20  H   LIG d   1       4.972  -1.841  -6.123  0.00  0.00     0.149 HD
ATOM     21  O   LIG d   1       6.895  -3.115  -4.074  0.00  0.00    -0.275 OA
BRANCH  19  22
ATOM     22  CA  LIG d   1       5.169  -1.047  -4.164  0.00  0.00     0.063 C 
ATOM     23  HA  LIG d   1       5.346  -1.563  -3.220  0.00  0.00     0.056 H 
BRANCH  22  24
ATOM     24  C   LIG d   1       3.714  -0.578  -4.223  0.00  0.00    -0.029 C 
ATOM     25  H   LIG d   1       3.686   0.508  -4.324  0.00  0.00     0.029 H 
ATOM     26  H   LIG d   1       3.219  -1.035  -5.080  0.00  0.00     0.029 H 
BRANCH  24  27
ATOM     27  C   LIG d   1       2.992  -0.989  -2.938  0.00  0.00    -0.054 C 
ATOM     28  H   LIG d   1       2.942  -0.137  -2.261  0.00  0.00     0.026 H 
ATOM     29  H   LIG d   1       1.983  -1.321  -3.179  0.00  0.00     0.026 H 
BRANCH  27  30
ATOM     30  C   LIG d   1       3.758  -2.130  -2.266  0.00  0.00    -0.065 C 
ATOM     31  H   LIG d   1       4.578  -1.720  -1.676  0.00  0.00     0.023 H 
ATOM     32  H   LIG d   1       3.084  -2.686  -1.615  0.00  0.00     0.023 H 
ATOM     33  H   LIG d   1       4.159  -2.797  -3.030  0.00  0.00     0.023 H 
ENDBRANCH  27  30
ENDBRANCH  24  27
ENDBRANCH  22  24
BRANCH  22  34
ATOM     34  C   LIG d   1       6.085   0.146  -4.264  0.00  0.00     0.062 C 
ATOM     35  O   LIG d   1       6.518   0.661  -3.260  0.00  0.00    -0.548 OA
ATOM     36  OXT LIG d   1       6.420   0.636  -5.467  0.00  0.00    -0.548 OA
ENDBRANCH  22  34
ENDBRANCH  19  22
ENDBRANCH  15  18
ENDBRANCH   1  15
BRANCH   2  37
ATOM     37  C   LIG d   1       8.516  -5.974  -5.678  0.00  0.00    -0.038 C 
ATOM     38  H   LIG d   1       8.878  -5.764  -4.671  0.00  0.00     0.028 H 
ATOM     39  H   LIG d   1       9.041  -6.841  -6.079  0.00  0.00     0.028 H 
ATOM     40  H   LIG d   1       8.697  -5.110  -6.316  0.00  0.00     0.028 H 
ENDBRANCH   2  37
BRANCH   6  41
ATOM     41  O   LIG d   1       5.091 -11.330  -4.304  0.00  0.00    -0.493 OA
BRANCH  41  42
ATOM     42  C   LIG d   1       4.464 -12.076  -5.350  0.00  0.00     0.079 C 
ATOM     43  H   LIG d   1       3.641 -12.659  -4.937  0.00  0.00     0.066 H 
ATOM     44  H   LIG d   1       4.082 -11.391  -6.105  0.00  0.00     0.066 H 
ATOM     45  H   LIG d   1       5.193 -12.748  -5.804  0.00  0.00     0.066 H 
ENDBRANCH  41  42
ENDBRANCH   6  41
TORSDOF 10
ENDMDL
MODEL 8
REMARK VINA RESULT:      -5.2      7.310     10.734
REMARK  10 active torsions:
REMARK  status: ('A' for Active; 'I' for Inactive)
REMARK    1  A    between atoms: C_1  and  C_2 
REMARK    2  A    between atoms: C_2  and  C_3 
REMARK    3  A    between atoms: C_3  and  CA_4 
REMARK    4  A    between atoms: CA_4  and  C_6 
REMARK    5  A    between atoms: CA_4  and  N_8 
REMARK       I    between atoms: N_8  and  C_9 
REMARK    6  A    between atoms: C_9  and  C_11 
REMARK    7  A    between atoms: C_11  and  C_12 
REMARK    8  A    between atoms: C_13  and  C_26 
REMARK    9  A    between atoms: C_17  and  O_23 
REMARK   10  A    between atoms: O_23  and  C_24 
ROOT
ATOM      1  C   LIG d   1       9.820   3.417  -4.753  0.00  0.00     0.049 A 
ATOM      2  C   LIG d   1       9.719   4.536  -5.517  0.00  0.00    -0.029 A 
ATOM      3  C   LIG d   1       9.785   5.838  -4.848  0.00  0.00     0.022 A 
ATOM      4  C   LIG d   1       9.686   7.029  -5.578  0.00  0.00    -0.029 A 
ATOM      5  C   LIG d   1       9.749   8.228  -4.929  0.00  0.00     0.083 A 
ATOM      6  C   LIG d   1       9.918   8.275  -3.546  0.00  0.00     0.142 A 
ATOM      7  C   LIG d   1      10.013   7.107  -2.808  0.00  0.00     0.025 A 
ATOM      8  C   LIG d   1       9.950   5.880  -3.451  0.00  0.00     0.143 A 
ATOM      9  O   LIG d   1      10.044   4.728  -2.751  0.00  0.00    -0.422 OA
ATOM     10  C   LIG d   1       9.984   3.533  -3.357  0.00  0.00     0.341 A 
ATOM     11  O   LIG d   1      10.074   2.520  -2.685  0.00  0.00    -0.245 OA
ATOM     12 CL   LIG d   1       9.626   9.705  -5.834  0.00  0.00    -0.080 Cl
ATOM     13  H   LIG d   1       9.558   6.998  -6.650  0.00  0.00     0.064 H 
ATOM     14  H   LIG d   1      10.139   7.151  -1.737  0.00  0.00     0.069 H 
ENDROOT
BRANCH   1  15
ATOM     15  C   LIG d   1       9.759   2.056  -5.397  0.00  0.00     0.056 C 
ATOM     16  H   LIG d   1      10.054   2.135  -6.442  0.00  0.00     0.041 H 
ATOM     17  H   LIG d   1      10.435   1.377  -4.877  0.00  0.00     0.041 H 
BRANCH  15  18
ATOM     18  C   LIG d   1       8.351   1.524  -5.311  0.00  0.00     0.218 C 
ATOM     19  N   LIG d   1       7.962   0.814  -4.234  0.00  0.00    -0.307 N 
ATOM     20  H   LIG d   1       8.589   0.646  -3.513  0.00  0.00     0.149 HD
ATOM     21  O   LIG d   1       7.567   1.735  -6.212  0.00  0.00    -0.275 OA
BRANCH  19  22
ATOM     22  CA  LIG d   1       6.594   0.298  -4.150  0.00  0.00     0.063 C 
ATOM     23  HA  LIG d   1       6.029   0.621  -5.024  0.00  0.00     0.056 H 
BRANCH  22  24
ATOM     24  C   LIG d   1       5.923   0.832  -2.884  0.00  0.00    -0.029 C 
ATOM     25  H   LIG d   1       6.483   0.500  -2.009  0.00  0.00     0.029 H 
ATOM     26  H   LIG d   1       5.906   1.921  -2.913  0.00  0.00     0.029 H 
BRANCH  24  27
ATOM     27  C   LIG d   1       4.490   0.301  -2.803  0.00  0.00    -0.054 C 
ATOM     28  H   LIG d   1       4.169  -0.030  -3.790  0.00  0.00     0.026 H 
ATOM     29  H   LIG d   1       4.452  -0.538  -2.109  0.00  0.00     0.026 H 
BRANCH  27  30
ATOM     30  C   LIG d   1       3.562   1.413  -2.312  0.00  0.00    -0.065 C 
ATOM     31  H   LIG d   1       3.125   1.126  -1.356  0.00  0.00     0.023 H 
ATOM     32  H   LIG d   1       4.131   2.334  -2.189  0.00  0.00     0.023 H 
ATOM     33  H   LIG d   1       2.767   1.572  -3.042  0.00  0.00     0.023 H 
ENDBRANCH  27  30
ENDBRANCH  24  27
ENDBRANCH  22  24
BRANCH  22  34
ATOM     34  C   LIG d   1       6.629  -1.209  -4.103  0.00  0.00     0.062 C 
ATOM     35  O   LIG d   1       6.142  -1.853  -5.001  0.00  0.00    -0.548 OA
ATOM     36  OXT LIG d   1       7.199  -1.834  -3.062  0.00  0.00    -0.548 OA
ENDBRANCH  22  34
ENDBRANCH  19  22
ENDBRANCH  15  18
ENDBRANCH   1  15
BRANCH   2  37
ATOM     37  C   LIG d   1       9.543   4.441  -7.011  0.00  0.00    -0.038 C 
ATOM     38  H   LIG d   1       9.669   5.429  -7.454  0.00  0.00     0.028 H 
ATOM     39  H   LIG d   1      10.289   3.761  -7.421  0.00  0.00     0.028 H 
ATOM     40  H   LIG d   1       8.545   4.067  -7.236  0.00  0.00     0.028 H 
ENDBRANCH   2  37
BRANCH   6  41
ATOM     41  O   LIG d   1       9.986   9.476  -2.916  0.00  0.00    -0.493 OA
BRANCH  41  42
ATOM     42  C   LIG d   1       9.540   9.523  -1.559  0.00  0.00     0.079 C 
ATOM     43  H   LIG d   1       8.921   8.650  -1.349  0.00  0.00     0.066 H 
ATOM     44  H   LIG d   1      10.404   9.524  -0.893  0.00  0.00     0.066 H 
ATOM     45  H   LIG d   1       8.957  10.430  -1.399  0.00  0.00     0.066 H 
ENDBRANCH  41  42
ENDBRANCH   6  41
TORSDOF 10
ENDMDL
MODEL 9
REMARK VINA RESULT:      -5.0      3.522      7.737
REMARK  10 active torsions:
REMARK  status: ('A' for Active; 'I' for Inactive)
REMARK    1  A    between atoms: C_1  and  C_2 
REMARK    2  A    between atoms: C_2  and  C_3 
REMARK    3  A    between atoms: C_3  and  CA_4 
REMARK    4  A    between atoms: CA_4  and  C_6 
REMARK    5  A    between atoms: CA_4  and  N_8 
REMARK       I    between atoms: N_8  and  C_9 
REMARK    6  A    between atoms: C_9  and  C_11 
REMARK    7  A    between atoms: C_11  and  C_12 
REMARK    8  A    between atoms: C_13  and  C_26 
REMARK    9  A    between atoms: C_17  and  O_23 
REMARK   10  A    between atoms: O_23  and  C_24 
ROOT
ATOM      1  C   LIG d   1       5.817  -4.434  -5.896  0.00  0.00     0.049 A 
ATOM      2  C   LIG d   1       6.501  -3.267  -5.774  0.00  0.00    -0.029 A 
ATOM      3  C   LIG d   1       6.048  -2.301  -4.770  0.00  0.00     0.022 A 
ATOM      4  C   LIG d   1       6.710  -1.080  -4.595  0.00  0.00    -0.029 A 
ATOM      5  C   LIG d   1       6.265  -0.197  -3.654  0.00  0.00     0.083 A 
ATOM      6  C   LIG d   1       5.161  -0.507  -2.860  0.00  0.00     0.142 A 
ATOM      7  C   LIG d   1       4.492  -1.708  -3.023  0.00  0.00     0.025 A 
ATOM      8  C   LIG d   1       4.930  -2.616  -3.976  0.00  0.00     0.143 A 
ATOM      9  O   LIG d   1       4.294  -3.796  -4.149  0.00  0.00    -0.422 OA
ATOM     10  C   LIG d   1       4.704  -4.685  -5.066  0.00  0.00     0.341 A 
ATOM     11  O   LIG d   1       4.100  -5.736  -5.187  0.00  0.00    -0.245 OA
ATOM     12 CL   LIG d   1       7.085   1.318  -3.436  0.00  0.00    -0.080 Cl
ATOM     13  H   LIG d   1       7.568  -0.836  -5.204  0.00  0.00     0.064 H 
ATOM     14  H   LIG d   1       3.635  -1.939  -2.409  0.00  0.00     0.069 H 
ENDROOT
BRANCH   1  15
ATOM     15  C   LIG d   1       6.247  -5.458  -6.914  0.00  0.00     0.056 C 
ATOM     16  H   LIG d   1       7.334  -5.457  -6.994  0.00  0.00     0.041 H 
ATOM     17  H   LIG d   1       5.905  -6.446  -6.602  0.00  0.00     0.041 H 
BRANCH  15  18
ATOM     18  C   LIG d   1       5.644  -5.118  -8.253  0.00  0.00     0.218 C 
ATOM     19  N   LIG d   1       4.350  -4.751  -8.336  0.00  0.00    -0.307 N 
ATOM     20  H   LIG d   1       3.806  -4.706  -7.533  0.00  0.00     0.149 HD
ATOM     21  O   LIG d   1       6.322  -5.175  -9.256  0.00  0.00    -0.275 OA
BRANCH  19  22
ATOM     22  CA  LIG d   1       3.763  -4.420  -9.637  0.00  0.00     0.063 C 
ATOM     23  HA  LIG d   1       4.414  -4.783 -10.432  0.00  0.00     0.056 H 
BRANCH  22  24
ATOM     24  C   LIG d   1       3.609  -2.903  -9.756  0.00  0.00    -0.029 C 
ATOM     25  H   LIG d   1       4.431  -2.500 -10.349  0.00  0.00     0.029 H 
ATOM     26  H   LIG d   1       2.662  -2.671 -10.242  0.00  0.00     0.029 H 
BRANCH  24  27
ATOM     27  C   LIG d   1       3.633  -2.277  -8.360  0.00  0.00    -0.054 C 
ATOM     28  H   LIG d   1       2.656  -1.848  -8.138  0.00  0.00     0.026 H 
ATOM     29  H   LIG d   1       3.869  -3.043  -7.622  0.00  0.00     0.026 H 
BRANCH  27  30
ATOM     30  C   LIG d   1       4.695  -1.178  -8.313  0.00  0.00    -0.065 C 
ATOM     31  H   LIG d   1       4.375  -0.336  -8.927  0.00  0.00     0.023 H 
ATOM     32  H   LIG d   1       4.830  -0.846  -7.284  0.00  0.00     0.023 H 
ATOM     33  H   LIG d   1       5.639  -1.568  -8.695  0.00  0.00     0.023 H 
ENDBRANCH  27  30
ENDBRANCH  24  27
ENDBRANCH  22  24
BRANCH  22  34
ATOM     34  C   LIG d   1       2.410  -5.073  -9.758  0.00  0.00     0.062 C 
ATOM     35  O   LIG d   1       2.227  -6.175  -9.298  0.00  0.00    -0.548 OA
ATOM     36  OXT LIG d   1       1.408  -4.430 -10.377  0.00  0.00    -0.548 OA
ENDBRANCH  22  34
ENDBRANCH  19  22
ENDBRANCH  15  18
ENDBRANCH   1  15
BRANCH   2  37
ATOM     37  C   LIG d   1       7.694  -2.973  -6.647  0.00  0.00    -0.038 C 
ATOM     38  H   LIG d   1       7.742  -1.903  -6.848  0.00  0.00     0.028 H 
ATOM     39  H   LIG d   1       8.604  -3.289  -6.136  0.00  0.00     0.028 H 
ATOM     40  H   LIG d   1       7.598  -3.515  -7.588  0.00  0.00     0.028 H 
ENDBRANCH   2  37
BRANCH   6  41
ATOM     41  O   LIG d   1       4.735   0.378  -1.923  0.00  0.00    -0.493 OA
BRANCH  41  42
ATOM     42  C   LIG d   1       3.669   1.254  -2.294  0.00  0.00     0.079 C 
ATOM     43  H   LIG d   1       3.482   1.165  -3.365  0.00  0.00     0.066 H 
ATOM     44  H   LIG d   1       2.768   0.982  -1.745  0.00  0.00     0.066 H 
ATOM     45  H   LIG d   1       3.943   2.282  -2.057  0.00  0.00     0.066 H 
ENDBRANCH  41  42
ENDBRANCH   6  41
TORSDOF 10
ENDMDL
