MODEL 1
REMARK VINA RESULT:      -5.1      0.000      0.000
REMARK  5 active torsions:
REMARK  status: ('A' for Active; 'I' for Inactive)
REMARK    1  A    between atoms: C_1  and  C_2 
REMARK    2  A    between atoms: C_2  and  C_3 
REMARK    3  A    between atoms: C_2  and  C_4 
REMARK    4  A    between atoms: C_2  and  N_30 
REMARK    5  A    between atoms: C_6  and  C_8 
ROOT
ATOM      1  C   LIG d   1       5.260  -0.432  -6.948  0.00  0.00     0.018 A 
ATOM      2  C   LIG d   1       3.947  -0.711  -6.213  0.00  0.00     0.046 A 
ATOM      3  H   LIG d   1       3.241  -1.396  -6.683  0.00  0.00     0.096 H 
ATOM      4  H   LIG d   1       6.153  -0.270  -6.343  0.00  0.00     0.087 H 
ATOM      5  H   LIG d   1       5.420  -0.929  -7.905  0.00  0.00     0.087 H 
ATOM      6  N   LIG d   1       4.261   0.332  -6.849  0.00  0.00     0.252 N 
ATOM      7  H   LIG d   1       4.385   1.191  -6.300  0.00  0.00     0.205 HD
ENDROOT
BRANCH   6   8
ATOM      8  C   LIG d   1       3.465   0.666  -8.145  0.00  0.00    -0.018 C 
BRANCH   8   9
ATOM      9  C   LIG d   1       2.369  -0.374  -8.393  0.00  0.00    -0.019 C 
ATOM     10  H   LIG d   1       1.669   0.007  -9.135  0.00  0.00     0.029 H 
ATOM     11  H   LIG d   1       2.821  -1.296  -8.759  0.00  0.00     0.029 H 
ATOM     12  H   LIG d   1       1.840  -0.573  -7.462  0.00  0.00     0.029 H 
ENDBRANCH   8   9
BRANCH   8  13
ATOM     13  C   LIG d   1       2.863   2.071  -8.227  0.00  0.00    -0.019 C 
ATOM     14  H   LIG d   1       2.199   2.232  -7.377  0.00  0.00     0.029 H 
ATOM     15  H   LIG d   1       3.664   2.810  -8.208  0.00  0.00     0.029 H 
ATOM     16  H   LIG d   1       2.299   2.170  -9.153  0.00  0.00     0.029 H 
ENDBRANCH   8  13
BRANCH   8  17
ATOM     17  C   LIG d   1       4.559   0.517  -9.203  0.00  0.00    -0.019 C 
ATOM     18  H   LIG d   1       4.171   0.833 -10.173  0.00  0.00     0.029 H 
ATOM     19  H   LIG d   1       5.413   1.138  -8.934  0.00  0.00     0.029 H 
ATOM     20  H   LIG d   1       4.871  -0.525  -9.260  0.00  0.00     0.029 H 
ENDBRANCH   8  17
ENDBRANCH   6   8
BRANCH   2  21
ATOM     21  C   LIG d   1       3.983  -0.743  -4.707  0.00  0.00     0.005 A 
ATOM     22  C   LIG d   1       3.643   0.384  -3.983  0.00  0.00    -0.053 A 
ATOM     23  C   LIG d   1       3.670   0.352  -2.601  0.00  0.00    -0.061 A 
ATOM     24  H   LIG d   1       3.352   1.288  -4.498  0.00  0.00     0.062 H 
ATOM     25  C   LIG d   1       4.048  -0.803  -1.943  0.00  0.00    -0.062 A 
ATOM     26  H   LIG d   1       3.400   1.233  -2.036  0.00  0.00     0.062 H 
ATOM     27  C   LIG d   1       4.388  -1.931  -2.668  0.00  0.00    -0.061 A 
ATOM     28  H   LIG d   1       4.073  -0.826  -0.864  0.00  0.00     0.062 H 
ATOM     29  C   LIG d   1       4.355  -1.901  -4.049  0.00  0.00    -0.053 A 
ATOM     30  H   LIG d   1       4.679  -2.835  -2.154  0.00  0.00     0.062 H 
ATOM     31  H   LIG d   1       4.621  -2.782  -4.614  0.00  0.00     0.062 H 
ENDBRANCH   2  21
TORSDOF 5
ENDMDL
MODEL 2
REMARK VINA RESULT:      -4.7      1.293      5.242
REMARK  5 active torsions:
REMARK  status: ('A' for Active; 'I' for Inactive)
REMARK    1  A    between atoms: C_1  and  C_2 
REMARK    2  A    between atoms: C_2  and  C_3 
REMARK    3  A    between atoms: C_2  and  C_4 
REMARK    4  A    between atoms: C_2  and  N_30 
REMARK    5  A    between atoms: C_6  and  C_8 
ROOT
ATOM      1  C   LIG d   1       2.870   0.600  -4.242  0.00  0.00     0.018 A 
ATOM      2  C   LIG d   1       3.668  -0.459  -5.006  0.00  0.00     0.046 A 
ATOM      3  H   LIG d   1       3.556  -1.498  -4.695  0.00  0.00     0.096 H 
ATOM      4  H   LIG d   1       2.501   1.458  -4.805  0.00  0.00     0.087 H 
ATOM      5  H   LIG d   1       2.234   0.261  -3.424  0.00  0.00     0.087 H 
ATOM      6  N   LIG d   1       4.106   0.363  -4.156  0.00  0.00     0.252 N 
ATOM      7  H   LIG d   1       4.744   1.090  -4.498  0.00  0.00     0.205 HD
ENDROOT
BRANCH   6   8
ATOM      8  C   LIG d   1       4.649  -0.199  -2.809  0.00  0.00    -0.018 C 
BRANCH   8   9
ATOM      9  C   LIG d   1       4.573   0.860  -1.708  0.00  0.00    -0.019 C 
ATOM     10  H   LIG d   1       5.061   1.774  -2.047  0.00  0.00     0.029 H 
ATOM     11  H   LIG d   1       3.527   1.071  -1.479  0.00  0.00     0.029 H 
ATOM     12  H   LIG d   1       5.073   0.492  -0.813  0.00  0.00     0.029 H 
ENDBRANCH   8   9
BRANCH   8  13
ATOM     13  C   LIG d   1       4.013  -1.499  -2.312  0.00  0.00    -0.019 C 
ATOM     14  H   LIG d   1       4.165  -1.589  -1.236  0.00  0.00     0.029 H 
ATOM     15  H   LIG d   1       2.945  -1.487  -2.528  0.00  0.00     0.029 H 
ATOM     16  H   LIG d   1       4.476  -2.346  -2.816  0.00  0.00     0.029 H 
ENDBRANCH   8  13
BRANCH   8  17
ATOM     17  C   LIG d   1       6.113  -0.454  -3.171  0.00  0.00    -0.019 C 
ATOM     18  H   LIG d   1       6.719   0.396  -2.854  0.00  0.00     0.029 H 
ATOM     19  H   LIG d   1       6.461  -1.355  -2.666  0.00  0.00     0.029 H 
ATOM     20  H   LIG d   1       6.205  -0.583  -4.248  0.00  0.00     0.029 H 
ENDBRANCH   8  17
ENDBRANCH   6   8
BRANCH   2  21
ATOM     21  C   LIG d   1       3.885  -0.241  -6.481  0.00  0.00     0.005 A 
ATOM     22  C   LIG d   1       5.167  -0.249  -7.000  0.00  0.00    -0.053 A 
ATOM     23  C   LIG d   1       5.366  -0.055  -8.354  0.00  0.00    -0.061 A 
ATOM     24  H   LIG d   1       6.012  -0.413  -6.347  0.00  0.00     0.062 H 
ATOM     25  C   LIG d   1       4.284   0.160  -9.188  0.00  0.00    -0.062 A 
ATOM     26  H   LIG d   1       6.367  -0.066  -8.760  0.00  0.00     0.062 H 
ATOM     27  C   LIG d   1       3.003   0.169  -8.669  0.00  0.00    -0.061 A 
ATOM     28  H   LIG d   1       4.440   0.317 -10.245  0.00  0.00     0.062 H 
ATOM     29  C   LIG d   1       2.803  -0.031  -7.316  0.00  0.00    -0.053 A 
ATOM     30  H   LIG d   1       2.158   0.333  -9.321  0.00  0.00     0.062 H 
ATOM     31  H   LIG d   1       1.802  -0.024  -6.912  0.00  0.00     0.062 H 
ENDBRANCH   2  21
TORSDOF 5
ENDMDL
MODEL 3
REMARK VINA RESULT:      -4.7      1.292      5.180
REMARK  5 active torsions:
REMARK  status: ('A' for Active; 'I' for Inactive)
REMARK    1  A    between atoms: C_1  and  C_2 
REMARK    2  A    between atoms: C_2  and  C_3 
REMARK    3  A    between atoms: C_2  and  C_4 
REMARK    4  A    between atoms: C_2  and  N_30 
REMARK    5  A    between atoms: C_6  and  C_8 
ROOT
ATOM      1  C   LIG d   1       2.822   0.492  -4.260  0.00  0.00     0.018 A 
ATOM      2  C   LIG d   1       3.701  -0.499  -5.027  0.00  0.00     0.046 A 
ATOM      3  H   LIG d   1       3.664  -1.546  -4.725  0.00  0.00     0.096 H 
ATOM      4  H   LIG d   1       2.395   1.325  -4.819  0.00  0.00     0.087 H 
ATOM      5  H   LIG d   1       2.208   0.101  -3.449  0.00  0.00     0.087 H 
ATOM      6  N   LIG d   1       4.072   0.346  -4.166  0.00  0.00     0.252 N 
ATOM      7  H   LIG d   1       4.657   1.121  -4.499  0.00  0.00     0.205 HD
ENDROOT
BRANCH   6   8
ATOM      8  C   LIG d   1       4.646  -0.186  -2.821  0.00  0.00    -0.018 C 
BRANCH   8   9
ATOM      9  C   LIG d   1       4.550   0.882  -1.729  0.00  0.00    -0.019 C 
ATOM     10  H   LIG d   1       5.320   1.636  -1.889  0.00  0.00     0.029 H 
ATOM     11  H   LIG d   1       3.567   1.353  -1.767  0.00  0.00     0.029 H 
ATOM     12  H   LIG d   1       4.692   0.418  -0.753  0.00  0.00     0.029 H 
ENDBRANCH   8   9
BRANCH   8  13
ATOM     13  C   LIG d   1       4.055  -1.500  -2.304  0.00  0.00    -0.019 C 
ATOM     14  H   LIG d   1       4.790  -2.008  -1.680  0.00  0.00     0.029 H 
ATOM     15  H   LIG d   1       3.162  -1.289  -1.715  0.00  0.00     0.029 H 
ATOM     16  H   LIG d   1       3.792  -2.136  -3.147  0.00  0.00     0.029 H 
ENDBRANCH   8  13
BRANCH   8  17
ATOM     17  C   LIG d   1       6.114  -0.400  -3.196  0.00  0.00    -0.019 C 
ATOM     18  H   LIG d   1       6.335  -1.468  -3.202  0.00  0.00     0.029 H 
ATOM     19  H   LIG d   1       6.300   0.014  -4.187  0.00  0.00     0.029 H 
ATOM     20  H   LIG d   1       6.752   0.099  -2.469  0.00  0.00     0.029 H 
ENDBRANCH   8  17
ENDBRANCH   6   8
BRANCH   2  21
ATOM     21  C   LIG d   1       3.911  -0.252  -6.498  0.00  0.00     0.005 A 
ATOM     22  C   LIG d   1       2.824  -0.068  -7.331  0.00  0.00    -0.053 A 
ATOM     23  C   LIG d   1       3.018   0.164  -8.681  0.00  0.00    -0.061 A 
ATOM     24  H   LIG d   1       1.823  -0.101  -6.927  0.00  0.00     0.062 H 
ATOM     25  C   LIG d   1       4.299   0.201  -9.198  0.00  0.00    -0.062 A 
ATOM     26  H   LIG d   1       2.168   0.312  -9.330  0.00  0.00     0.062 H 
ATOM     27  C   LIG d   1       5.387   0.016  -8.365  0.00  0.00    -0.061 A 
ATOM     28  H   LIG d   1       4.450   0.378 -10.253  0.00  0.00     0.062 H 
ATOM     29  C   LIG d   1       5.193  -0.210  -7.015  0.00  0.00    -0.053 A 
ATOM     30  H   LIG d   1       6.388   0.048  -8.769  0.00  0.00     0.062 H 
ATOM     31  H   LIG d   1       6.043  -0.354  -6.365  0.00  0.00     0.062 H 
ENDBRANCH   2  21
TORSDOF 5
ENDMDL
MODEL 4
REMARK VINA RESULT:      -4.7      3.885      5.361
REMARK  5 active torsions:
REMARK  status: ('A' for Active; 'I' for Inactive)
REMARK    1  A    between atoms: C_1  and  C_2 
REMARK    2  A    between atoms: C_2  and  C_3 
REMARK    3  A    between atoms: C_2  and  C_4 
REMARK    4  A    between atoms: C_2  and  N_30 
REMARK    5  A    between atoms: C_6  and  C_8 
ROOT
ATOM      1  C   LIG d   1       6.644  -2.674  -5.292  0.00  0.00     0.018 A 
ATOM      2  C   LIG d   1       7.193  -1.814  -4.153  0.00  0.00     0.046 A 
ATOM      3  H   LIG d   1       8.171  -1.353  -4.294  0.00  0.00     0.096 H 
ATOM      4  H   LIG d   1       5.566  -2.664  -5.458  0.00  0.00     0.087 H 
ATOM      5  H   LIG d   1       7.259  -2.785  -6.185  0.00  0.00     0.087 H 
ATOM      6  N   LIG d   1       7.129  -3.073  -4.198  0.00  0.00     0.252 N 
ATOM      7  H   LIG d   1       6.484  -3.529  -3.542  0.00  0.00     0.205 HD
ENDROOT
BRANCH   6   8
ATOM      8  C   LIG d   1       8.464  -3.873  -4.239  0.00  0.00    -0.018 C 
BRANCH   8   9
ATOM      9  C   LIG d   1       9.131  -3.888  -2.861  0.00  0.00    -0.019 C 
ATOM     10  H   LIG d   1       9.417  -2.874  -2.584  0.00  0.00     0.029 H 
ATOM     11  H   LIG d   1       8.430  -4.282  -2.124  0.00  0.00     0.029 H 
ATOM     12  H   LIG d   1      10.018  -4.520  -2.894  0.00  0.00     0.029 H 
ENDBRANCH   8   9
BRANCH   8  13
ATOM     13  C   LIG d   1       8.382  -5.301  -4.782  0.00  0.00    -0.019 C 
ATOM     14  H   LIG d   1       7.410  -5.456  -5.252  0.00  0.00     0.029 H 
ATOM     15  H   LIG d   1       9.170  -5.455  -5.519  0.00  0.00     0.029 H 
ATOM     16  H   LIG d   1       8.506  -6.008  -3.964  0.00  0.00     0.029 H 
ENDBRANCH   8  13
BRANCH   8  17
ATOM     17  C   LIG d   1       9.290  -3.010  -5.195  0.00  0.00    -0.019 C 
ATOM     18  H   LIG d   1       9.738  -3.644  -5.961  0.00  0.00     0.029 H 
ATOM     19  H   LIG d   1       8.643  -2.272  -5.669  0.00  0.00     0.029 H 
ATOM     20  H   LIG d   1      10.076  -2.501  -4.639  0.00  0.00     0.029 H 
ENDBRANCH   8  17
ENDBRANCH   6   8
BRANCH   2  21
ATOM     21  C   LIG d   1       6.206  -1.014  -3.342  0.00  0.00     0.005 A 
ATOM     22  C   LIG d   1       6.286   0.365  -3.321  0.00  0.00    -0.053 A 
ATOM     23  C   LIG d   1       5.376   1.099  -2.582  0.00  0.00    -0.061 A 
ATOM     24  H   LIG d   1       7.057   0.870  -3.885  0.00  0.00     0.062 H 
ATOM     25  C   LIG d   1       4.395   0.452  -1.855  0.00  0.00    -0.062 A 
ATOM     26  H   LIG d   1       5.437   2.177  -2.568  0.00  0.00     0.062 H 
ATOM     27  C   LIG d   1       4.315  -0.928  -1.876  0.00  0.00    -0.061 A 
ATOM     28  H   LIG d   1       3.687   1.025  -1.274  0.00  0.00     0.062 H 
ATOM     29  C   LIG d   1       5.220  -1.661  -2.620  0.00  0.00    -0.053 A 
ATOM     30  H   LIG d   1       3.545  -1.433  -1.311  0.00  0.00     0.062 H 
ATOM     31  H   LIG d   1       5.158  -2.739  -2.636  0.00  0.00     0.062 H 
ENDBRANCH   2  21
TORSDOF 5
ENDMDL
MODEL 5
REMARK VINA RESULT:      -4.6      3.930      5.148
REMARK  5 active torsions:
REMARK  status: ('A' for Active; 'I' for Inactive)
REMARK    1  A    between atoms: C_1  and  C_2 
REMARK    2  A    between atoms: C_2  and  C_3 
REMARK    3  A    between atoms: C_2  and  C_4 
REMARK    4  A    between atoms: C_2  and  N_30 
REMARK    5  A    between atoms: C_6  and  C_8 
ROOT
ATOM      1  C   LIG d   1       8.401  -0.311  -4.803  0.00  0.00     0.018 A 
ATOM      2  C   LIG d   1       7.324   0.688  -4.373  0.00  0.00     0.046 A 
ATOM      3  H   LIG d   1       7.028   1.452  -5.092  0.00  0.00     0.096 H 
ATOM      4  H   LIG d   1       8.320  -1.332  -4.428  0.00  0.00     0.087 H 
ATOM      5  H   LIG d   1       8.818  -0.205  -5.804  0.00  0.00     0.087 H 
ATOM      6  N   LIG d   1       8.533   0.662  -4.011  0.00  0.00     0.252 N 
ATOM      7  H   LIG d   1       8.718   0.439  -3.027  0.00  0.00     0.205 HD
ENDROOT
BRANCH   6   8
ATOM      8  C   LIG d   1       9.452   1.840  -4.449  0.00  0.00    -0.018 C 
BRANCH   8   9
ATOM      9  C   LIG d   1       9.480   2.934  -3.379  0.00  0.00    -0.019 C 
ATOM     10  H   LIG d   1       8.460   3.194  -3.098  0.00  0.00     0.029 H 
ATOM     11  H   LIG d   1      10.017   2.570  -2.502  0.00  0.00     0.029 H 
ATOM     12  H   LIG d   1       9.984   3.816  -3.774  0.00  0.00     0.029 H 
ENDBRANCH   8   9
BRANCH   8  13
ATOM     13  C   LIG d   1      10.885   1.472  -4.840  0.00  0.00    -0.019 C 
ATOM     14  H   LIG d   1      10.900   0.465  -5.258  0.00  0.00     0.029 H 
ATOM     15  H   LIG d   1      11.251   2.179  -5.584  0.00  0.00     0.029 H 
ATOM     16  H   LIG d   1      11.523   1.509  -3.958  0.00  0.00     0.029 H 
ENDBRANCH   8  13
BRANCH   8  17
ATOM     17  C   LIG d   1       8.702   2.351  -5.681  0.00  0.00    -0.019 C 
ATOM     18  H   LIG d   1       8.801   3.435  -5.742  0.00  0.00     0.029 H 
ATOM     19  H   LIG d   1       9.124   1.897  -6.577  0.00  0.00     0.029 H 
ATOM     20  H   LIG d   1       7.649   2.086  -5.601  0.00  0.00     0.029 H 
ENDBRANCH   8  17
ENDBRANCH   6   8
BRANCH   2  21
ATOM     21  C   LIG d   1       6.231   0.189  -3.464  0.00  0.00     0.005 A 
ATOM     22  C   LIG d   1       5.932  -1.160  -3.418  0.00  0.00    -0.053 A 
ATOM     23  C   LIG d   1       4.932  -1.618  -2.579  0.00  0.00    -0.061 A 
ATOM     24  H   LIG d   1       6.481  -1.856  -4.035  0.00  0.00     0.062 H 
ATOM     25  C   LIG d   1       4.225  -0.726  -1.795  0.00  0.00    -0.062 A 
ATOM     26  H   LIG d   1       4.701  -2.672  -2.541  0.00  0.00     0.062 H 
ATOM     27  C   LIG d   1       4.525   0.623  -1.841  0.00  0.00    -0.061 A 
ATOM     28  H   LIG d   1       3.442  -1.084  -1.144  0.00  0.00     0.062 H 
ATOM     29  C   LIG d   1       5.528   1.080  -2.675  0.00  0.00    -0.053 A 
ATOM     30  H   LIG d   1       3.975   1.319  -1.225  0.00  0.00     0.062 H 
ATOM     31  H   LIG d   1       5.762   2.134  -2.710  0.00  0.00     0.062 H 
ENDBRANCH   2  21
TORSDOF 5
ENDMDL
MODEL 6
REMARK VINA RESULT:      -4.6      3.339      5.324
REMARK  5 active torsions:
REMARK  status: ('A' for Active; 'I' for Inactive)
REMARK    1  A    between atoms: C_1  and  C_2 
REMARK    2  A    between atoms: C_2  and  C_3 
REMARK    3  A    between atoms: C_2  and  C_4 
REMARK    4  A    between atoms: C_2  and  N_30 
REMARK    5  A    between atoms: C_6  and  C_8 
ROOT
ATOM      1  C   LIG d   1       5.111  -0.433  -5.040  0.00  0.00     0.018 A 
ATOM      2  C   LIG d   1       6.159  -0.341  -3.929  0.00  0.00     0.046 A 
ATOM      3  H   LIG d   1       6.260  -1.195  -3.258  0.00  0.00     0.096 H 
ATOM      4  H   LIG d   1       5.340   0.047  -5.992  0.00  0.00     0.087 H 
ATOM      5  H   LIG d   1       4.517  -1.345  -5.100  0.00  0.00     0.087 H 
ATOM      6  N   LIG d   1       5.040   0.238  -3.974  0.00  0.00     0.252 N 
ATOM      7  H   LIG d   1       5.050   1.261  -4.067  0.00  0.00     0.205 HD
ENDROOT
BRANCH   6   8
ATOM      8  C   LIG d   1       3.964  -0.168  -2.925  0.00  0.00    -0.018 C 
BRANCH   8   9
ATOM      9  C   LIG d   1       2.625  -0.462  -3.605  0.00  0.00    -0.019 C 
ATOM     10  H   LIG d   1       2.215  -1.393  -3.213  0.00  0.00     0.029 H 
ATOM     11  H   LIG d   1       1.929   0.354  -3.404  0.00  0.00     0.029 H 
ATOM     12  H   LIG d   1       2.776  -0.554  -4.680  0.00  0.00     0.029 H 
ENDBRANCH   8   9
BRANCH   8  13
ATOM     13  C   LIG d   1       4.329  -1.327  -1.994  0.00  0.00    -0.019 C 
ATOM     14  H   LIG d   1       4.481  -2.232  -2.583  0.00  0.00     0.029 H 
ATOM     15  H   LIG d   1       5.245  -1.086  -1.456  0.00  0.00     0.029 H 
ATOM     16  H   LIG d   1       3.521  -1.488  -1.282  0.00  0.00     0.029 H 
ENDBRANCH   8  13
BRANCH   8  17
ATOM     17  C   LIG d   1       3.850   1.122  -2.111  0.00  0.00    -0.019 C 
ATOM     18  H   LIG d   1       4.627   1.139  -1.346  0.00  0.00     0.029 H 
ATOM     19  H   LIG d   1       3.974   1.981  -2.771  0.00  0.00     0.029 H 
ATOM     20  H   LIG d   1       2.871   1.168  -1.636  0.00  0.00     0.029 H 
ENDBRANCH   8  17
ENDBRANCH   6   8
BRANCH   2  21
ATOM     21  C   LIG d   1       7.433   0.405  -4.231  0.00  0.00     0.005 A 
ATOM     22  C   LIG d   1       8.443  -0.211  -4.946  0.00  0.00    -0.053 A 
ATOM     23  C   LIG d   1       9.609   0.476  -5.228  0.00  0.00    -0.061 A 
ATOM     24  H   LIG d   1       8.319  -1.228  -5.288  0.00  0.00     0.062 H 
ATOM     25  C   LIG d   1       9.770   1.775  -4.784  0.00  0.00    -0.062 A 
ATOM     26  H   LIG d   1      10.396  -0.004  -5.790  0.00  0.00     0.062 H 
ATOM     27  C   LIG d   1       8.760   2.391  -4.068  0.00  0.00    -0.061 A 
ATOM     28  H   LIG d   1      10.683   2.310  -5.000  0.00  0.00     0.062 H 
ATOM     29  C   LIG d   1       7.592   1.707  -3.792  0.00  0.00    -0.053 A 
ATOM     30  H   LIG d   1       8.885   3.408  -3.725  0.00  0.00     0.062 H 
ATOM     31  H   LIG d   1       6.803   2.188  -3.233  0.00  0.00     0.062 H 
ENDBRANCH   2  21
TORSDOF 5
ENDMDL
MODEL 7
REMARK VINA RESULT:      -4.5      3.331      5.143
REMARK  5 active torsions:
REMARK  status: ('A' for Active; 'I' for Inactive)
REMARK    1  A    between atoms: C_1  and  C_2 
REMARK    2  A    between atoms: C_2  and  C_3 
REMARK    3  A    between atoms: C_2  and  C_4 
REMARK    4  A    between atoms: C_2  and  N_30 
REMARK    5  A    between atoms: C_6  and  C_8 
ROOT
ATOM      1  C   LIG d   1       5.164  -0.622  -4.968  0.00  0.00     0.018 A 
ATOM      2  C   LIG d   1       6.142  -0.319  -3.830  0.00  0.00     0.046 A 
ATOM      3  H   LIG d   1       6.204  -1.038  -3.013  0.00  0.00     0.096 H 
ATOM      4  H   LIG d   1       5.450  -0.315  -5.974  0.00  0.00     0.087 H 
ATOM      5  H   LIG d   1       4.577  -1.538  -4.900  0.00  0.00     0.087 H 
ATOM      6  N   LIG d   1       5.025   0.227  -4.045  0.00  0.00     0.252 N 
ATOM      7  H   LIG d   1       5.037   1.217  -4.318  0.00  0.00     0.205 HD
ENDROOT
BRANCH   6   8
ATOM      8  C   LIG d   1       3.888  -0.001  -3.006  0.00  0.00    -0.018 C 
BRANCH   8   9
ATOM      9  C   LIG d   1       3.647   1.261  -2.176  0.00  0.00    -0.019 C 
ATOM     10  H   LIG d   1       2.799   1.103  -1.511  0.00  0.00     0.029 H 
ATOM     11  H   LIG d   1       4.537   1.482  -1.584  0.00  0.00     0.029 H 
ATOM     12  H   LIG d   1       3.436   2.099  -2.841  0.00  0.00     0.029 H 
ENDBRANCH   8   9
BRANCH   8  13
ATOM     13  C   LIG d   1       2.555  -0.508  -3.563  0.00  0.00    -0.019 C 
ATOM     14  H   LIG d   1       2.014   0.321  -4.020  0.00  0.00     0.029 H 
ATOM     15  H   LIG d   1       2.743  -1.277  -4.312  0.00  0.00     0.029 H 
ATOM     16  H   LIG d   1       1.960  -0.928  -2.753  0.00  0.00     0.029 H 
ENDBRANCH   8  13
BRANCH   8  17
ATOM     17  C   LIG d   1       4.514  -1.081  -2.123  0.00  0.00    -0.019 C 
ATOM     18  H   LIG d   1       3.796  -1.888  -1.970  0.00  0.00     0.029 H 
ATOM     19  H   LIG d   1       5.406  -1.477  -2.609  0.00  0.00     0.029 H 
ATOM     20  H   LIG d   1       4.787  -0.650  -1.160  0.00  0.00     0.029 H 
ENDBRANCH   8  17
ENDBRANCH   6   8
BRANCH   2  21
ATOM     21  C   LIG d   1       7.429   0.380  -4.183  0.00  0.00     0.005 A 
ATOM     22  C   LIG d   1       7.630   1.693  -3.800  0.00  0.00    -0.053 A 
ATOM     23  C   LIG d   1       8.815   2.332  -4.118  0.00  0.00    -0.061 A 
ATOM     24  H   LIG d   1       6.864   2.218  -3.248  0.00  0.00     0.062 H 
ATOM     25  C   LIG d   1       9.792   1.662  -4.830  0.00  0.00    -0.062 A 
ATOM     26  H   LIG d   1       8.973   3.356  -3.816  0.00  0.00     0.062 H 
ATOM     27  C   LIG d   1       9.590   0.349  -5.212  0.00  0.00    -0.061 A 
ATOM     28  H   LIG d   1      10.715   2.163  -5.082  0.00  0.00     0.062 H 
ATOM     29  C   LIG d   1       8.410  -0.292  -4.889  0.00  0.00    -0.053 A 
ATOM     30  H   LIG d   1      10.356  -0.176  -5.765  0.00  0.00     0.062 H 
ATOM     31  H   LIG d   1       8.253  -1.318  -5.188  0.00  0.00     0.062 H 
ENDBRANCH   2  21
TORSDOF 5
ENDMDL
MODEL 8
REMARK VINA RESULT:      -4.5      1.402      5.250
REMARK  5 active torsions:
REMARK  status: ('A' for Active; 'I' for Inactive)
REMARK    1  A    between atoms: C_1  and  C_2 
REMARK    2  A    between atoms: C_2  and  C_3 
REMARK    3  A    between atoms: C_2  and  C_4 
REMARK    4  A    between atoms: C_2  and  N_30 
REMARK    5  A    between atoms: C_6  and  C_8 
ROOT
ATOM      1  C   LIG d   1       4.968  -1.649  -5.608  0.00  0.00     0.018 A 
ATOM      2  C   LIG d   1       4.180  -0.370  -5.900  0.00  0.00     0.046 A 
ATOM      3  H   LIG d   1       4.547   0.560  -5.466  0.00  0.00     0.096 H 
ATOM      4  H   LIG d   1       5.016  -2.403  -6.394  0.00  0.00     0.087 H 
ATOM      5  H   LIG d   1       5.854  -1.565  -4.979  0.00  0.00     0.087 H 
ATOM      6  N   LIG d   1       3.864  -1.300  -5.109  0.00  0.00     0.252 N 
ATOM      7  H   LIG d   1       3.042  -1.863  -5.358  0.00  0.00     0.205 HD
ENDROOT
BRANCH   6   8
ATOM      8  C   LIG d   1       3.819  -0.980  -3.586  0.00  0.00    -0.018 C 
BRANCH   8   9
ATOM      9  C   LIG d   1       4.019  -2.251  -2.757  0.00  0.00    -0.019 C 
ATOM     10  H   LIG d   1       4.448  -3.031  -3.386  0.00  0.00     0.029 H 
ATOM     11  H   LIG d   1       4.695  -2.041  -1.928  0.00  0.00     0.029 H 
ATOM     12  H   LIG d   1       3.058  -2.586  -2.367  0.00  0.00     0.029 H 
ENDBRANCH   8   9
BRANCH   8  13
ATOM     13  C   LIG d   1       4.779   0.106  -3.093  0.00  0.00    -0.019 C 
ATOM     14  H   LIG d   1       5.401   0.444  -3.923  0.00  0.00     0.029 H 
ATOM     15  H   LIG d   1       4.206   0.947  -2.703  0.00  0.00     0.029 H 
ATOM     16  H   LIG d   1       5.412  -0.300  -2.305  0.00  0.00     0.029 H 
ENDBRANCH   8  13
BRANCH   8  17
ATOM     17  C   LIG d   1       2.377  -0.494  -3.433  0.00  0.00    -0.019 C 
ATOM     18  H   LIG d   1       2.128  -0.421  -2.374  0.00  0.00     0.029 H 
ATOM     19  H   LIG d   1       2.273   0.487  -3.898  0.00  0.00     0.029 H 
ATOM     20  H   LIG d   1       1.702  -1.198  -3.918  0.00  0.00     0.029 H 
ENDBRANCH   8  17
ENDBRANCH   6   8
BRANCH   2  21
ATOM     21  C   LIG d   1       3.527  -0.245  -7.252  0.00  0.00     0.005 A 
ATOM     22  C   LIG d   1       3.313  -1.372  -8.024  0.00  0.00    -0.053 A 
ATOM     23  C   LIG d   1       2.708  -1.258  -9.262  0.00  0.00    -0.061 A 
ATOM     24  H   LIG d   1       3.615  -2.343  -7.657  0.00  0.00     0.062 H 
ATOM     25  C   LIG d   1       2.328  -0.015  -9.733  0.00  0.00    -0.062 A 
ATOM     26  H   LIG d   1       2.538  -2.139  -9.863  0.00  0.00     0.062 H 
ATOM     27  C   LIG d   1       2.542   1.112  -8.961  0.00  0.00    -0.061 A 
ATOM     28  H   LIG d   1       1.860   0.074 -10.702  0.00  0.00     0.062 H 
ATOM     29  C   LIG d   1       3.141   0.997  -7.721  0.00  0.00    -0.053 A 
ATOM     30  H   LIG d   1       2.242   2.082  -9.328  0.00  0.00     0.062 H 
ATOM     31  H   LIG d   1       3.308   1.878  -7.119  0.00  0.00     0.062 H 
ENDBRANCH   2  21
TORSDOF 5
ENDMDL
MODEL 9
REMARK VINA RESULT:      -4.5      3.810      4.938
REMARK  5 active torsions:
REMARK  status: ('A' for Active; 'I' for Inactive)
REMARK    1  A    between atoms: C_1  and  C_2 
REMARK    2  A    between atoms: C_2  and  C_3 
REMARK    3  A    between atoms: C_2  and  C_4 
REMARK    4  A    between atoms: C_2  and  N_30 
REMARK    5  A    between atoms: C_6  and  C_8 
ROOT
ATOM      1  C   LIG d   1       7.907  -2.765  -3.726  0.00  0.00     0.018 A 
ATOM      2  C   LIG d   1       6.993  -1.718  -4.366  0.00  0.00     0.046 A 
ATOM      3  H   LIG d   1       6.598  -1.932  -5.359  0.00  0.00     0.096 H 
ATOM      4  H   LIG d   1       7.851  -2.891  -2.644  0.00  0.00     0.087 H 
ATOM      5  H   LIG d   1       8.119  -3.669  -4.297  0.00  0.00     0.087 H 
ATOM      6  N   LIG d   1       8.246  -1.662  -4.234  0.00  0.00     0.252 N 
ATOM      7  H   LIG d   1       8.615  -0.949  -3.595  0.00  0.00     0.205 HD
ENDROOT
BRANCH   6   8
ATOM      8  C   LIG d   1       9.118  -1.689  -5.524  0.00  0.00    -0.018 C 
BRANCH   8   9
ATOM      9  C   LIG d   1      10.128  -0.540  -5.522  0.00  0.00    -0.019 C 
ATOM     10  H   LIG d   1      10.436  -0.328  -4.498  0.00  0.00     0.029 H 
ATOM     11  H   LIG d   1      11.001  -0.822  -6.112  0.00  0.00     0.029 H 
ATOM     12  H   LIG d   1       9.669   0.349  -5.954  0.00  0.00     0.029 H 
ENDBRANCH   8   9
BRANCH   8  13
ATOM     13  C   LIG d   1       9.843  -3.004  -5.824  0.00  0.00    -0.019 C 
ATOM     14  H   LIG d   1       9.910  -3.598  -4.912  0.00  0.00     0.029 H 
ATOM     15  H   LIG d   1       9.287  -3.560  -6.579  0.00  0.00     0.029 H 
ATOM     16  H   LIG d   1      10.844  -2.790  -6.194  0.00  0.00     0.029 H 
ENDBRANCH   8  13
BRANCH   8  17
ATOM     17  C   LIG d   1       8.058  -1.435  -6.597  0.00  0.00    -0.019 C 
ATOM     18  H   LIG d   1       7.160  -2.009  -6.363  0.00  0.00     0.029 H 
ATOM     19  H   LIG d   1       7.813  -0.373  -6.622  0.00  0.00     0.029 H 
ATOM     20  H   LIG d   1       8.443  -1.742  -7.568  0.00  0.00     0.029 H 
ENDBRANCH   8  17
ENDBRANCH   6   8
BRANCH   2  21
ATOM     21  C   LIG d   1       6.081  -0.937  -3.456  0.00  0.00     0.005 A 
ATOM     22  C   LIG d   1       5.104  -1.591  -2.729  0.00  0.00    -0.053 A 
ATOM     23  C   LIG d   1       4.271  -0.875  -1.889  0.00  0.00    -0.061 A 
ATOM     24  H   LIG d   1       4.994  -2.663  -2.813  0.00  0.00     0.062 H 
ATOM     25  C   LIG d   1       4.407   0.497  -1.786  0.00  0.00    -0.062 A 
ATOM     26  H   LIG d   1       3.510  -1.387  -1.318  0.00  0.00     0.062 H 
ATOM     27  C   LIG d   1       5.385   1.151  -2.513  0.00  0.00    -0.061 A 
ATOM     28  H   LIG d   1       3.754   1.057  -1.133  0.00  0.00     0.062 H 
ATOM     29  C   LIG d   1       6.221   0.434  -3.348  0.00  0.00    -0.053 A 
ATOM     30  H   LIG d   1       5.494   2.222  -2.429  0.00  0.00     0.062 H 
ATOM     31  H   LIG d   1       6.985   0.946  -3.916  0.00  0.00     0.062 H 
ENDBRANCH   2  21
TORSDOF 5
ENDMDL
MODEL 10
REMARK VINA RESULT:      -4.3      3.222      4.428
REMARK  5 active torsions:
REMARK  status: ('A' for Active; 'I' for Inactive)
REMARK    1  A    between atoms: C_1  and  C_2 
REMARK    2  A    between atoms: C_2  and  C_3 
REMARK    3  A    between atoms: C_2  and  C_4 
REMARK    4  A    between atoms: C_2  and  N_30 
REMARK    5  A    between atoms: C_6  and  C_8 
ROOT
ATOM      1  C   LIG d   1       5.730  -2.594  -6.359  0.00  0.00     0.018 A 
ATOM      2  C   LIG d   1       6.037  -2.927  -4.898  0.00  0.00     0.046 A 
ATOM      3  H   LIG d   1       7.018  -3.345  -4.670  0.00  0.00     0.096 H 
ATOM      4  H   LIG d   1       5.100  -1.726  -6.558  0.00  0.00     0.087 H 
ATOM      5  H   LIG d   1       6.505  -2.796  -7.098  0.00  0.00     0.087 H 
ATOM      6  N   LIG d   1       5.296  -3.571  -5.689  0.00  0.00     0.252 N 
ATOM      7  H   LIG d   1       4.291  -3.582  -5.480  0.00  0.00     0.205 HD
ENDROOT
BRANCH   6   8
ATOM      8  C   LIG d   1       5.745  -5.002  -6.110  0.00  0.00    -0.018 C 
BRANCH   8   9
ATOM      9  C   LIG d   1       4.781  -6.057  -5.562  0.00  0.00    -0.019 C 
ATOM     10  H   LIG d   1       4.302  -6.577  -6.391  0.00  0.00     0.029 H 
ATOM     11  H   LIG d   1       5.335  -6.774  -4.955  0.00  0.00     0.029 H 
ATOM     12  H   LIG d   1       4.022  -5.573  -4.949  0.00  0.00     0.029 H 
ENDBRANCH   8   9
BRANCH   8  13
ATOM     13  C   LIG d   1       5.956  -5.232  -7.608  0.00  0.00    -0.019 C 
ATOM     14  H   LIG d   1       6.164  -4.280  -8.096  0.00  0.00     0.029 H 
ATOM     15  H   LIG d   1       6.799  -5.908  -7.756  0.00  0.00     0.029 H 
ATOM     16  H   LIG d   1       5.058  -5.673  -8.037  0.00  0.00     0.029 H 
ENDBRANCH   8  13
BRANCH   8  17
ATOM     17  C   LIG d   1       7.087  -5.110  -5.383  0.00  0.00    -0.019 C 
ATOM     18  H   LIG d   1       7.126  -6.051  -4.832  0.00  0.00     0.029 H 
ATOM     19  H   LIG d   1       7.898  -5.081  -6.111  0.00  0.00     0.029 H 
ATOM     20  H   LIG d   1       7.193  -4.278  -4.688  0.00  0.00     0.029 H 
ENDBRANCH   8  17
ENDBRANCH   6   8
BRANCH   2  21
ATOM     21  C   LIG d   1       5.449  -2.031  -3.838  0.00  0.00     0.005 A 
ATOM     22  C   LIG d   1       6.037  -0.812  -3.560  0.00  0.00    -0.053 A 
ATOM     23  C   LIG d   1       5.493   0.013  -2.592  0.00  0.00    -0.061 A 
ATOM     24  H   LIG d   1       6.918  -0.501  -4.102  0.00  0.00     0.062 H 
ATOM     25  C   LIG d   1       4.369  -0.388  -1.895  0.00  0.00    -0.062 A 
ATOM     26  H   LIG d   1       5.950   0.968  -2.377  0.00  0.00     0.062 H 
ATOM     27  C   LIG d   1       3.781  -1.608  -2.174  0.00  0.00    -0.061 A 
ATOM     28  H   LIG d   1       3.947   0.254  -1.136  0.00  0.00     0.062 H 
ATOM     29  C   LIG d   1       4.321  -2.429  -3.145  0.00  0.00    -0.053 A 
ATOM     30  H   LIG d   1       2.900  -1.919  -1.632  0.00  0.00     0.062 H 
ATOM     31  H   LIG d   1       3.861  -3.382  -3.363  0.00  0.00     0.062 H 
ENDBRANCH   2  21
TORSDOF 5
ENDMDL
