MODEL 1
REMARK VINA RESULT:      -7.0      0.000      0.000
REMARK  4 active torsions:
REMARK  status: ('A' for Active; 'I' for Inactive)
REMARK    1  A    between atoms: C_1  and  C_2 
REMARK    2  A    between atoms: C_17  and  C_25 
REMARK    3  A    between atoms: C_22  and  C_23 
REMARK    4  A    between atoms: C_22  and  O_24 
ROOT
ATOM      1  C   LIG d   1       3.861  -0.791  -7.943  0.00  0.00    -0.006 C 
ATOM      2  C   LIG d   1       2.543  -0.324  -8.532  0.00  0.00    -0.037 C 
ATOM      3  C   LIG d   1       2.734   0.466  -9.827  0.00  0.00     0.012 C 
ATOM      4  C   LIG d   1       3.654   1.630  -9.508  0.00  0.00     0.174 C 
ATOM      5  O   LIG d   1       3.361   2.774  -9.774  0.00  0.00    -0.291 OA
ATOM      6  C   LIG d   1       4.922   1.280  -8.855  0.00  0.00     0.083 C 
ATOM      7  C   LIG d   1       5.002   0.166  -8.131  0.00  0.00    -0.042 C 
ATOM      8  C   LIG d   1       6.321  -0.160  -7.457  0.00  0.00    -0.029 C 
ATOM      9  C   LIG d   1       6.060  -0.415  -5.967  0.00  0.00    -0.046 C 
ATOM     10  C   LIG d   1       5.011  -1.512  -5.811  0.00  0.00    -0.034 C 
ATOM     11  H   LIG d   1       5.381  -2.410  -6.332  0.00  0.00     0.031 H 
ATOM     12  C   LIG d   1       3.696  -1.096  -6.454  0.00  0.00    -0.029 C 
ATOM     13  H   LIG d   1       2.965  -1.900  -6.332  0.00  0.00     0.031 H 
ATOM     14  C   LIG d   1       3.195   0.156  -5.708  0.00  0.00    -0.049 C 
ATOM     15  C   LIG d   1       2.832  -0.261  -4.287  0.00  0.00    -0.044 C 
ATOM     16  C   LIG d   1       3.957  -0.917  -3.532  0.00  0.00    -0.000 C 
ATOM     17  C   LIG d   1       4.812  -1.889  -4.347  0.00  0.00    -0.030 C 
ATOM     18  H   LIG d   1       4.379  -2.912  -4.286  0.00  0.00     0.031 H 
ATOM     19  C   LIG d   1       6.198  -1.864  -3.649  0.00  0.00    -0.047 C 
ATOM     20  C   LIG d   1       6.332  -0.431  -3.098  0.00  0.00    -0.024 C 
ATOM     21  C   LIG d   1       4.894   0.034  -2.788  0.00  0.00     0.069 C 
ATOM     22 CL   LIG d   1       6.297   2.324  -9.025  0.00  0.00    -0.080 Cl
ATOM     23  H   LIG d   1       2.013   0.301  -7.819  0.00  0.00     0.028 H 
ATOM     24  H   LIG d   1       1.929  -1.202  -8.749  0.00  0.00     0.028 H 
ATOM     25  H   LIG d   1       1.847   0.793 -10.151  0.00  0.00     0.035 H 
ATOM     26  H   LIG d   1       3.181  -0.165 -10.592  0.00  0.00     0.035 H 
ATOM     27  H   LIG d   1       6.763  -1.048  -7.906  0.00  0.00     0.031 H 
ATOM     28  H   LIG d   1       7.010   0.677  -7.560  0.00  0.00     0.031 H 
ATOM     29  H   LIG d   1       6.999  -0.725  -5.505  0.00  0.00     0.027 H 
ATOM     30  H   LIG d   1       5.720   0.509  -5.505  0.00  0.00     0.027 H 
ATOM     31  H   LIG d   1       2.301   0.552  -6.195  0.00  0.00     0.027 H 
ATOM     32  H   LIG d   1       3.964   0.923  -5.707  0.00  0.00     0.027 H 
ATOM     33  H   LIG d   1       2.013  -1.000  -4.362  0.00  0.00     0.027 H 
ATOM     34  H   LIG d   1       2.423   0.581  -3.738  0.00  0.00     0.027 H 
ATOM     35  H   LIG d   1       6.226  -2.588  -2.829  0.00  0.00     0.027 H 
ATOM     36  H   LIG d   1       6.998  -2.088  -4.355  0.00  0.00     0.027 H 
ATOM     37  H   LIG d   1       6.924  -0.436  -2.181  0.00  0.00     0.029 H 
ATOM     38  H   LIG d   1       6.793   0.227  -3.829  0.00  0.00     0.029 H 
ENDROOT
BRANCH  21  39
ATOM     39  C   LIG d   1       4.714   1.495  -3.189  0.00  0.00    -0.036 C 
ATOM     40  H   LIG d   1       3.741   1.624  -3.663  0.00  0.00     0.026 H 
ATOM     41  H   LIG d   1       4.772   2.124  -2.301  0.00  0.00     0.026 H 
ATOM     42  H   LIG d   1       5.500   1.779  -3.888  0.00  0.00     0.026 H 
ENDBRANCH  21  39
BRANCH  21  43
ATOM     43  O   LIG d   1       4.663  -0.091  -1.372  0.00  0.00    -0.388 OA
ATOM     44  H   LIG d   1       4.878   0.704  -0.866  0.00  0.00     0.210 HD
ENDBRANCH  21  43
BRANCH  16  45
ATOM     45  C   LIG d   1       3.270  -1.775  -2.432  0.00  0.00    -0.057 C 
ATOM     46  H   LIG d   1       2.359  -2.221  -2.834  0.00  0.00     0.024 H 
ATOM     47  H   LIG d   1       3.948  -2.564  -2.109  0.00  0.00     0.024 H 
ATOM     48  H   LIG d   1       3.019  -1.140  -1.582  0.00  0.00     0.024 H 
ENDBRANCH  16  45
BRANCH   1  49
ATOM     49  C   LIG d   1       4.224  -2.100  -8.657  0.00  0.00    -0.056 C 
ATOM     50  H   LIG d   1       4.832  -1.880  -9.533  0.00  0.00     0.024 H 
ATOM     51  H   LIG d   1       4.783  -2.742  -7.977  0.00  0.00     0.024 H 
ATOM     52  H   LIG d   1       3.311  -2.608  -8.968  0.00  0.00     0.024 H 
ENDBRANCH   1  49
TORSDOF 4
ENDMDL
MODEL 2
REMARK VINA RESULT:      -6.6      1.886      5.934
REMARK  4 active torsions:
REMARK  status: ('A' for Active; 'I' for Inactive)
REMARK    1  A    between atoms: C_1  and  C_2 
REMARK    2  A    between atoms: C_17  and  C_25 
REMARK    3  A    between atoms: C_22  and  C_23 
REMARK    4  A    between atoms: C_22  and  O_24 
ROOT
ATOM      1  C   LIG d   1       5.094  -1.297  -5.298  0.00  0.00    -0.006 C 
ATOM      2  C   LIG d   1       6.530  -1.290  -4.806  0.00  0.00    -0.037 C 
ATOM      3  C   LIG d   1       6.637  -0.887  -3.336  0.00  0.00     0.012 C 
ATOM      4  C   LIG d   1       5.987   0.478  -3.199  0.00  0.00     0.174 C 
ATOM      5  O   LIG d   1       6.557   1.415  -2.687  0.00  0.00    -0.291 OA
ATOM      6  C   LIG d   1       4.621   0.589  -3.728  0.00  0.00     0.083 C 
ATOM      7  C   LIG d   1       4.224  -0.230  -4.699  0.00  0.00    -0.042 C 
ATOM      8  C   LIG d   1       2.813  -0.080  -5.236  0.00  0.00    -0.029 C 
ATOM      9  C   LIG d   1       2.881   0.060  -6.761  0.00  0.00    -0.046 C 
ATOM     10  C   LIG d   1       3.631  -1.130  -7.352  0.00  0.00    -0.034 C 
ATOM     11  H   LIG d   1       3.110  -2.049  -7.038  0.00  0.00     0.031 H 
ATOM     12  C   LIG d   1       5.057  -1.186  -6.822  0.00  0.00    -0.029 C 
ATOM     13  H   LIG d   1       5.569  -2.048  -7.258  0.00  0.00     0.031 H 
ATOM     14  C   LIG d   1       5.768   0.104  -7.278  0.00  0.00    -0.049 C 
ATOM     15  C   LIG d   1       5.902   0.052  -8.796  0.00  0.00    -0.044 C 
ATOM     16  C   LIG d   1       4.596  -0.122  -9.524  0.00  0.00    -0.000 C 
ATOM     17  C   LIG d   1       3.612  -1.099  -8.876  0.00  0.00    -0.030 C 
ATOM     18  H   LIG d   1       3.791  -2.126  -9.268  0.00  0.00     0.031 H 
ATOM     19  C   LIG d   1       2.215  -0.600  -9.333  0.00  0.00    -0.047 C 
ATOM     20  C   LIG d   1       2.369   0.928  -9.462  0.00  0.00    -0.024 C 
ATOM     21  C   LIG d   1       3.844   1.168  -9.846  0.00  0.00     0.069 C 
ATOM     22 CL   LIG d   1       3.543   1.789  -3.090  0.00  0.00    -0.080 Cl
ATOM     23  H   LIG d   1       7.127  -0.604  -5.399  0.00  0.00     0.028 H 
ATOM     24  H   LIG d   1       6.940  -2.297  -4.921  0.00  0.00     0.028 H 
ATOM     25  H   LIG d   1       7.600  -0.849  -3.070  0.00  0.00     0.035 H 
ATOM     26  H   LIG d   1       6.123  -1.611  -2.707  0.00  0.00     0.035 H 
ATOM     27  H   LIG d   1       2.219  -0.954  -4.976  0.00  0.00     0.031 H 
ATOM     28  H   LIG d   1       2.348   0.811  -4.816  0.00  0.00     0.031 H 
ATOM     29  H   LIG d   1       1.860   0.089  -7.146  0.00  0.00     0.027 H 
ATOM     30  H   LIG d   1       3.384   0.992  -7.009  0.00  0.00     0.027 H 
ATOM     31  H   LIG d   1       6.767   0.158  -6.840  0.00  0.00     0.027 H 
ATOM     32  H   LIG d   1       5.199   0.974  -6.964  0.00  0.00     0.027 H 
ATOM     33  H   LIG d   1       6.532  -0.823  -9.039  0.00  0.00     0.027 H 
ATOM     34  H   LIG d   1       6.446   0.919  -9.158  0.00  0.00     0.027 H 
ATOM     35  H   LIG d   1       1.952  -1.036 -10.301  0.00  0.00     0.027 H 
ATOM     36  H   LIG d   1       1.448  -0.857  -8.602  0.00  0.00     0.027 H 
ATOM     37  H   LIG d   1       1.716   1.305 -10.251  0.00  0.00     0.029 H 
ATOM     38  H   LIG d   1       2.137   1.424  -8.524  0.00  0.00     0.029 H 
ENDROOT
BRANCH  21  39
ATOM     39  C   LIG d   1       4.389   2.386  -9.105  0.00  0.00    -0.036 C 
ATOM     40  H   LIG d   1       4.208   2.272  -8.036  0.00  0.00     0.026 H 
ATOM     41  H   LIG d   1       5.461   2.470  -9.285  0.00  0.00     0.026 H 
ATOM     42  H   LIG d   1       3.888   3.284  -9.465  0.00  0.00     0.026 H 
ENDBRANCH  21  39
BRANCH  21  43
ATOM     43  O   LIG d   1       3.918   1.415 -11.262  0.00  0.00    -0.388 OA
ATOM     44  H   LIG d   1       4.363   2.241 -11.496  0.00  0.00     0.210 HD
ENDBRANCH  21  43
BRANCH  16  45
ATOM     45  C   LIG d   1       4.971  -0.744 -10.899  0.00  0.00    -0.057 C 
ATOM     46  H   LIG d   1       5.982  -0.441 -11.172  0.00  0.00     0.024 H 
ATOM     47  H   LIG d   1       4.924  -1.831 -10.832  0.00  0.00     0.024 H 
ATOM     48  H   LIG d   1       4.270  -0.395 -11.657  0.00  0.00     0.024 H 
ENDBRANCH  16  45
BRANCH   1  49
ATOM     49  C   LIG d   1       4.502  -2.659  -4.908  0.00  0.00    -0.056 C 
ATOM     50  H   LIG d   1       4.921  -2.978  -3.955  0.00  0.00     0.024 H 
ATOM     51  H   LIG d   1       3.419  -2.571  -4.819  0.00  0.00     0.024 H 
ATOM     52  H   LIG d   1       4.745  -3.393  -5.676  0.00  0.00     0.024 H 
ENDBRANCH   1  49
TORSDOF 4
ENDMDL
MODEL 3
REMARK VINA RESULT:      -6.4      3.140      4.118
REMARK  4 active torsions:
REMARK  status: ('A' for Active; 'I' for Inactive)
REMARK    1  A    between atoms: C_1  and  C_2 
REMARK    2  A    between atoms: C_17  and  C_25 
REMARK    3  A    between atoms: C_22  and  C_23 
REMARK    4  A    between atoms: C_22  and  O_24 
ROOT
ATOM      1  C   LIG d   1       6.499  -2.964  -6.311  0.00  0.00    -0.006 C 
ATOM      2  C   LIG d   1       6.662  -2.508  -7.750  0.00  0.00    -0.037 C 
ATOM      3  C   LIG d   1       8.076  -2.748  -8.277  0.00  0.00     0.012 C 
ATOM      4  C   LIG d   1       9.029  -2.023  -7.344  0.00  0.00     0.174 C 
ATOM      5  O   LIG d   1       9.853  -1.235  -7.750  0.00  0.00    -0.291 OA
ATOM      6  C   LIG d   1       8.886  -2.337  -5.917  0.00  0.00     0.083 C 
ATOM      7  C   LIG d   1       7.713  -2.764  -5.452  0.00  0.00    -0.042 C 
ATOM      8  C   LIG d   1       7.593  -3.066  -3.971  0.00  0.00    -0.029 C 
ATOM      9  C   LIG d   1       6.393  -2.295  -3.409  0.00  0.00    -0.046 C 
ATOM     10  C   LIG d   1       5.139  -2.650  -4.204  0.00  0.00    -0.034 C 
ATOM     11  H   LIG d   1       5.001  -3.742  -4.148  0.00  0.00     0.031 H 
ATOM     12  C   LIG d   1       5.302  -2.264  -5.667  0.00  0.00    -0.029 C 
ATOM     13  H   LIG d   1       4.393  -2.532  -6.213  0.00  0.00     0.031 H 
ATOM     14  C   LIG d   1       5.488  -0.735  -5.722  0.00  0.00    -0.049 C 
ATOM     15  C   LIG d   1       4.180  -0.089  -5.281  0.00  0.00    -0.044 C 
ATOM     16  C   LIG d   1       3.710  -0.520  -3.917  0.00  0.00    -0.000 C 
ATOM     17  C   LIG d   1       3.896  -2.005  -3.601  0.00  0.00    -0.030 C 
ATOM     18  H   LIG d   1       2.994  -2.573  -3.922  0.00  0.00     0.031 H 
ATOM     19  C   LIG d   1       4.026  -2.059  -2.055  0.00  0.00    -0.047 C 
ATOM     20  C   LIG d   1       4.706  -0.729  -1.675  0.00  0.00    -0.024 C 
ATOM     21  C   LIG d   1       4.261   0.290  -2.744  0.00  0.00     0.069 C 
ATOM     22 CL   LIG d   1      10.241  -2.144  -4.850  0.00  0.00    -0.080 Cl
ATOM     23  H   LIG d   1       6.433  -1.451  -7.837  0.00  0.00     0.028 H 
ATOM     24  H   LIG d   1       5.960  -3.070  -8.373  0.00  0.00     0.028 H 
ATOM     25  H   LIG d   1       8.150  -2.390  -9.208  0.00  0.00     0.035 H 
ATOM     26  H   LIG d   1       8.301  -3.813  -8.287  0.00  0.00     0.035 H 
ATOM     27  H   LIG d   1       7.445  -4.134  -3.816  0.00  0.00     0.031 H 
ATOM     28  H   LIG d   1       8.496  -2.748  -3.451  0.00  0.00     0.031 H 
ATOM     29  H   LIG d   1       6.265  -2.578  -2.363  0.00  0.00     0.027 H 
ATOM     30  H   LIG d   1       6.596  -1.229  -3.470  0.00  0.00     0.027 H 
ATOM     31  H   LIG d   1       5.707  -0.419  -6.745  0.00  0.00     0.027 H 
ATOM     32  H   LIG d   1       6.310  -0.436  -5.079  0.00  0.00     0.027 H 
ATOM     33  H   LIG d   1       3.403  -0.393  -6.006  0.00  0.00     0.027 H 
ATOM     34  H   LIG d   1       4.248   0.992  -5.354  0.00  0.00     0.027 H 
ATOM     35  H   LIG d   1       3.037  -2.123  -1.591  0.00  0.00     0.027 H 
ATOM     36  H   LIG d   1       4.627  -2.911  -1.740  0.00  0.00     0.027 H 
ATOM     37  H   LIG d   1       4.366  -0.403  -0.689  0.00  0.00     0.029 H 
ATOM     38  H   LIG d   1       5.788  -0.830  -1.675  0.00  0.00     0.029 H 
ENDROOT
BRANCH  21  39
ATOM     39  C   LIG d   1       5.429   1.193  -3.129  0.00  0.00    -0.036 C 
ATOM     40  H   LIG d   1       6.365   0.728  -2.818  0.00  0.00     0.026 H 
ATOM     41  H   LIG d   1       5.435   1.337  -4.209  0.00  0.00     0.026 H 
ATOM     42  H   LIG d   1       5.320   2.158  -2.634  0.00  0.00     0.026 H 
ENDBRANCH  21  39
BRANCH  21  43
ATOM     43  O   LIG d   1       3.206   1.102  -2.197  0.00  0.00    -0.388 OA
ATOM     44  H   LIG d   1       3.077   0.992  -1.245  0.00  0.00     0.210 HD
ENDBRANCH  21  43
BRANCH  16  45
ATOM     45  C   LIG d   1       2.175  -0.273  -3.914  0.00  0.00    -0.057 C 
ATOM     46  H   LIG d   1       1.914   0.385  -3.084  0.00  0.00     0.024 H 
ATOM     47  H   LIG d   1       1.879   0.194  -4.853  0.00  0.00     0.024 H 
ATOM     48  H   LIG d   1       1.655  -1.224  -3.800  0.00  0.00     0.024 H 
ENDBRANCH  16  45
BRANCH   1  49
ATOM     49  C   LIG d   1       6.199  -4.469  -6.357  0.00  0.00    -0.056 C 
ATOM     50  H   LIG d   1       6.833  -4.988  -5.639  0.00  0.00     0.024 H 
ATOM     51  H   LIG d   1       5.152  -4.638  -6.107  0.00  0.00     0.024 H 
ATOM     52  H   LIG d   1       6.399  -4.848  -7.359  0.00  0.00     0.024 H 
ENDBRANCH   1  49
TORSDOF 4
ENDMDL
MODEL 4
REMARK VINA RESULT:      -6.3      3.159      5.423
REMARK  4 active torsions:
REMARK  status: ('A' for Active; 'I' for Inactive)
REMARK    1  A    between atoms: C_1  and  C_2 
REMARK    2  A    between atoms: C_17  and  C_25 
REMARK    3  A    between atoms: C_22  and  C_23 
REMARK    4  A    between atoms: C_22  and  O_24 
ROOT
ATOM      1  C   LIG d   1       4.919  -0.962  -2.859  0.00  0.00    -0.006 C 
ATOM      2  C   LIG d   1       5.111   0.292  -2.026  0.00  0.00    -0.037 C 
ATOM      3  C   LIG d   1       3.837   1.132  -1.942  0.00  0.00     0.012 C 
ATOM      4  C   LIG d   1       3.424   1.459  -3.366  0.00  0.00     0.174 C 
ATOM      5  O   LIG d   1       3.213   2.593  -3.732  0.00  0.00    -0.291 OA
ATOM      6  C   LIG d   1       3.298   0.310  -4.272  0.00  0.00     0.083 C 
ATOM      7  C   LIG d   1       3.996  -0.797  -4.031  0.00  0.00    -0.042 C 
ATOM      8  C   LIG d   1       3.856  -1.961  -4.994  0.00  0.00    -0.029 C 
ATOM      9  C   LIG d   1       5.254  -2.389  -5.454  0.00  0.00    -0.046 C 
ATOM     10  C   LIG d   1       6.119  -2.708  -4.238  0.00  0.00    -0.034 C 
ATOM     11  H   LIG d   1       5.609  -3.495  -3.658  0.00  0.00     0.031 H 
ATOM     12  C   LIG d   1       6.271  -1.483  -3.348  0.00  0.00    -0.029 C 
ATOM     13  H   LIG d   1       6.890  -1.740  -2.484  0.00  0.00     0.031 H 
ATOM     14  C   LIG d   1       6.990  -0.399  -4.175  0.00  0.00    -0.049 C 
ATOM     15  C   LIG d   1       8.412  -0.881  -4.441  0.00  0.00    -0.044 C 
ATOM     16  C   LIG d   1       8.491  -2.218  -5.130  0.00  0.00    -0.000 C 
ATOM     17  C   LIG d   1       7.479  -3.260  -4.650  0.00  0.00    -0.030 C 
ATOM     18  H   LIG d   1       7.912  -3.842  -3.806  0.00  0.00     0.031 H 
ATOM     19  C   LIG d   1       7.271  -4.190  -5.876  0.00  0.00    -0.047 C 
ATOM     20  C   LIG d   1       7.451  -3.270  -7.099  0.00  0.00    -0.024 C 
ATOM     21  C   LIG d   1       8.445  -2.176  -6.657  0.00  0.00     0.069 C 
ATOM     22 CL   LIG d   1       2.246   0.408  -5.649  0.00  0.00    -0.080 Cl
ATOM     23  H   LIG d   1       5.904   0.904  -2.444  0.00  0.00     0.028 H 
ATOM     24  H   LIG d   1       5.397  -0.006  -1.013  0.00  0.00     0.028 H 
ATOM     25  H   LIG d   1       4.023   1.969  -1.427  0.00  0.00     0.035 H 
ATOM     26  H   LIG d   1       3.048   0.574  -1.443  0.00  0.00     0.035 H 
ATOM     27  H   LIG d   1       3.363  -2.798  -4.501  0.00  0.00     0.031 H 
ATOM     28  H   LIG d   1       3.271  -1.659  -5.862  0.00  0.00     0.031 H 
ATOM     29  H   LIG d   1       5.150  -3.274  -6.084  0.00  0.00     0.027 H 
ATOM     30  H   LIG d   1       5.696  -1.584  -6.037  0.00  0.00     0.027 H 
ATOM     31  H   LIG d   1       7.038   0.535  -3.612  0.00  0.00     0.027 H 
ATOM     32  H   LIG d   1       6.456  -0.224  -5.104  0.00  0.00     0.027 H 
ATOM     33  H   LIG d   1       8.910  -0.988  -3.460  0.00  0.00     0.027 H 
ATOM     34  H   LIG d   1       8.974  -0.124  -4.978  0.00  0.00     0.027 H 
ATOM     35  H   LIG d   1       8.026  -4.983  -5.886  0.00  0.00     0.027 H 
ATOM     36  H   LIG d   1       6.278  -4.639  -5.865  0.00  0.00     0.027 H 
ATOM     37  H   LIG d   1       7.871  -3.835  -7.934  0.00  0.00     0.029 H 
ATOM     38  H   LIG d   1       6.505  -2.825  -7.395  0.00  0.00     0.029 H 
ENDROOT
BRANCH  21  39
ATOM     39  C   LIG d   1       8.017  -0.820  -7.211  0.00  0.00    -0.036 C 
ATOM     40  H   LIG d   1       7.530  -0.961  -8.176  0.00  0.00     0.026 H 
ATOM     41  H   LIG d   1       7.322  -0.348  -6.518  0.00  0.00     0.026 H 
ATOM     42  H   LIG d   1       8.894  -0.186  -7.336  0.00  0.00     0.026 H 
ENDBRANCH  21  39
BRANCH  21  43
ATOM     43  O   LIG d   1       9.749  -2.500  -7.175  0.00  0.00    -0.388 OA
ATOM     44  H   LIG d   1      10.480  -2.187  -6.625  0.00  0.00     0.210 HD
ENDBRANCH  21  43
BRANCH  16  45
ATOM     45  C   LIG d   1       9.892  -2.786  -4.767  0.00  0.00    -0.057 C 
ATOM     46  H   LIG d   1       9.797  -3.833  -4.477  0.00  0.00     0.024 H 
ATOM     47  H   LIG d   1      10.551  -2.708  -5.632  0.00  0.00     0.024 H 
ATOM     48  H   LIG d   1      10.311  -2.216  -3.938  0.00  0.00     0.024 H 
ENDBRANCH  16  45
BRANCH   1  49
ATOM     49  C   LIG d   1       4.312  -2.021  -1.929  0.00  0.00    -0.056 C 
ATOM     50  H   LIG d   1       5.103  -2.479  -1.336  0.00  0.00     0.024 H 
ATOM     51  H   LIG d   1       3.586  -1.550  -1.267  0.00  0.00     0.024 H 
ATOM     52  H   LIG d   1       3.816  -2.787  -2.525  0.00  0.00     0.024 H 
ENDBRANCH   1  49
TORSDOF 4
ENDMDL
MODEL 5
REMARK VINA RESULT:      -6.0      3.548      5.620
REMARK  4 active torsions:
REMARK  status: ('A' for Active; 'I' for Inactive)
REMARK    1  A    between atoms: C_1  and  C_2 
REMARK    2  A    between atoms: C_17  and  C_25 
REMARK    3  A    between atoms: C_22  and  C_23 
REMARK    4  A    between atoms: C_22  and  O_24 
ROOT
ATOM      1  C   LIG d   1       7.198  -3.290  -6.094  0.00  0.00    -0.006 C 
ATOM      2  C   LIG d   1       8.569  -3.773  -5.656  0.00  0.00    -0.037 C 
ATOM      3  C   LIG d   1       8.798  -5.247  -5.991  0.00  0.00     0.012 C 
ATOM      4  C   LIG d   1       7.683  -6.034  -5.326  0.00  0.00     0.174 C 
ATOM      5  O   LIG d   1       7.905  -6.974  -4.596  0.00  0.00    -0.291 OA
ATOM      6  C   LIG d   1       6.318  -5.582  -5.624  0.00  0.00     0.083 C 
ATOM      7  C   LIG d   1       6.107  -4.314  -5.971  0.00  0.00    -0.042 C 
ATOM      8  C   LIG d   1       4.684  -3.873  -6.257  0.00  0.00    -0.029 C 
ATOM      9  C   LIG d   1       4.373  -2.636  -5.406  0.00  0.00    -0.046 C 
ATOM     10  C   LIG d   1       5.411  -1.551  -5.681  0.00  0.00    -0.034 C 
ATOM     11  H   LIG d   1       5.395  -1.333  -6.761  0.00  0.00     0.031 H 
ATOM     12  C   LIG d   1       6.806  -2.035  -5.313  0.00  0.00    -0.029 C 
ATOM     13  H   LIG d   1       7.529  -1.242  -5.523  0.00  0.00     0.031 H 
ATOM     14  C   LIG d   1       6.808  -2.329  -3.800  0.00  0.00    -0.049 C 
ATOM     15  C   LIG d   1       6.637  -1.003  -3.067  0.00  0.00    -0.044 C 
ATOM     16  C   LIG d   1       5.403  -0.236  -3.460  0.00  0.00    -0.000 C 
ATOM     17  C   LIG d   1       5.069  -0.256  -4.953  0.00  0.00    -0.030 C 
ATOM     18  H   LIG d   1       5.573   0.596  -5.461  0.00  0.00     0.031 H 
ATOM     19  C   LIG d   1       3.530  -0.063  -5.008  0.00  0.00    -0.047 C 
ATOM     20  C   LIG d   1       3.006  -0.736  -3.724  0.00  0.00    -0.024 C 
ATOM     21  C   LIG d   1       4.134  -0.587  -2.683  0.00  0.00     0.069 C 
ATOM     22 CL   LIG d   1       4.995  -6.699  -5.516  0.00  0.00    -0.080 Cl
ATOM     23  H   LIG d   1       8.691  -3.637  -4.586  0.00  0.00     0.028 H 
ATOM     24  H   LIG d   1       9.327  -3.178  -6.172  0.00  0.00     0.028 H 
ATOM     25  H   LIG d   1       9.690  -5.533  -5.642  0.00  0.00     0.035 H 
ATOM     26  H   LIG d   1       8.772  -5.399  -7.068  0.00  0.00     0.035 H 
ATOM     27  H   LIG d   1       4.573  -3.627  -7.312  0.00  0.00     0.031 H 
ATOM     28  H   LIG d   1       3.988  -4.669  -5.997  0.00  0.00     0.031 H 
ATOM     29  H   LIG d   1       3.377  -2.279  -5.676  0.00  0.00     0.027 H 
ATOM     30  H   LIG d   1       4.382  -2.918  -4.356  0.00  0.00     0.027 H 
ATOM     31  H   LIG d   1       7.761  -2.772  -3.503  0.00  0.00     0.027 H 
ATOM     32  H   LIG d   1       6.007  -3.019  -3.553  0.00  0.00     0.027 H 
ATOM     33  H   LIG d   1       7.509  -0.373  -3.322  0.00  0.00     0.027 H 
ATOM     34  H   LIG d   1       6.685  -1.155  -1.993  0.00  0.00     0.027 H 
ATOM     35  H   LIG d   1       3.279   1.002  -5.005  0.00  0.00     0.027 H 
ATOM     36  H   LIG d   1       3.106  -0.530  -5.897  0.00  0.00     0.027 H 
ATOM     37  H   LIG d   1       2.108  -0.224  -3.372  0.00  0.00     0.029 H 
ATOM     38  H   LIG d   1       2.786  -1.786  -3.897  0.00  0.00     0.029 H 
ENDROOT
BRANCH  21  39
ATOM     39  C   LIG d   1       4.264  -1.866  -1.861  0.00  0.00    -0.036 C 
ATOM     40  H   LIG d   1       3.275  -2.186  -1.530  0.00  0.00     0.026 H 
ATOM     41  H   LIG d   1       4.713  -2.647  -2.473  0.00  0.00     0.026 H 
ATOM     42  H   LIG d   1       4.894  -1.677  -0.992  0.00  0.00     0.026 H 
ENDBRANCH  21  39
BRANCH  21  43
ATOM     43  O   LIG d   1       3.807   0.502  -1.800  0.00  0.00    -0.388 OA
ATOM     44  H   LIG d   1       4.489   1.185  -1.748  0.00  0.00     0.210 HD
ENDBRANCH  21  43
BRANCH  16  45
ATOM     45  C   LIG d   1       5.711   1.247  -3.112  0.00  0.00    -0.057 C 
ATOM     46  H   LIG d   1       5.096   1.558  -2.267  0.00  0.00     0.024 H 
ATOM     47  H   LIG d   1       6.764   1.348  -2.850  0.00  0.00     0.024 H 
ATOM     48  H   LIG d   1       5.489   1.876  -3.974  0.00  0.00     0.024 H 
ENDBRANCH  16  45
BRANCH   1  49
ATOM     49  C   LIG d   1       7.318  -2.908  -7.575  0.00  0.00    -0.056 C 
ATOM     50  H   LIG d   1       7.708  -3.755  -8.138  0.00  0.00     0.024 H 
ATOM     51  H   LIG d   1       6.335  -2.635  -7.961  0.00  0.00     0.024 H 
ATOM     52  H   LIG d   1       7.996  -2.061  -7.678  0.00  0.00     0.024 H 
ENDBRANCH   1  49
TORSDOF 4
ENDMDL
MODEL 6
REMARK VINA RESULT:      -5.9      2.691      5.608
REMARK  4 active torsions:
REMARK  status: ('A' for Active; 'I' for Inactive)
REMARK    1  A    between atoms: C_1  and  C_2 
REMARK    2  A    between atoms: C_17  and  C_25 
REMARK    3  A    between atoms: C_22  and  C_23 
REMARK    4  A    between atoms: C_22  and  O_24 
ROOT
ATOM      1  C   LIG d   1       5.317  -1.757  -4.125  0.00  0.00    -0.006 C 
ATOM      2  C   LIG d   1       5.489  -1.539  -2.632  0.00  0.00    -0.037 C 
ATOM      3  C   LIG d   1       4.180  -1.142  -1.950  0.00  0.00     0.012 C 
ATOM      4  C   LIG d   1       3.675   0.107  -2.649  0.00  0.00     0.174 C 
ATOM      5  O   LIG d   1       3.387   1.114  -2.041  0.00  0.00    -0.291 OA
ATOM      6  C   LIG d   1       3.559   0.018  -4.110  0.00  0.00     0.083 C 
ATOM      7  C   LIG d   1       4.326  -0.840  -4.779  0.00  0.00    -0.042 C 
ATOM      8  C   LIG d   1       4.193  -0.898  -6.289  0.00  0.00    -0.029 C 
ATOM      9  C   LIG d   1       5.585  -0.732  -6.910  0.00  0.00    -0.046 C 
ATOM     10  C   LIG d   1       6.529  -1.788  -6.343  0.00  0.00    -0.034 C 
ATOM     11  H   LIG d   1       6.092  -2.778  -6.551  0.00  0.00     0.031 H 
ATOM     12  C   LIG d   1       6.666  -1.634  -4.835  0.00  0.00    -0.029 C 
ATOM     13  H   LIG d   1       7.343  -2.404  -4.455  0.00  0.00     0.031 H 
ATOM     14  C   LIG d   1       7.283  -0.247  -4.568  0.00  0.00    -0.049 C 
ATOM     15  C   LIG d   1       8.711  -0.260  -5.101  0.00  0.00    -0.044 C 
ATOM     16  C   LIG d   1       8.821  -0.621  -6.558  0.00  0.00    -0.000 C 
ATOM     17  C   LIG d   1       7.891  -1.743  -7.026  0.00  0.00    -0.030 C 
ATOM     18  H   LIG d   1       8.398  -2.725  -6.902  0.00  0.00     0.031 H 
ATOM     19  C   LIG d   1       7.666  -1.454  -8.534  0.00  0.00    -0.047 C 
ATOM     20  C   LIG d   1       7.732   0.081  -8.653  0.00  0.00    -0.024 C 
ATOM     21  C   LIG d   1       8.691   0.545  -7.537  0.00  0.00     0.069 C 
ATOM     22 CL   LIG d   1       2.431   1.035  -4.951  0.00  0.00    -0.080 Cl
ATOM     23  H   LIG d   1       6.226  -0.764  -2.448  0.00  0.00     0.028 H 
ATOM     24  H   LIG d   1       5.844  -2.471  -2.185  0.00  0.00     0.028 H 
ATOM     25  H   LIG d   1       4.350  -0.962  -0.982  0.00  0.00     0.035 H 
ATOM     26  H   LIG d   1       3.449  -1.942  -2.041  0.00  0.00     0.035 H 
ATOM     27  H   LIG d   1       3.771  -1.855  -6.592  0.00  0.00     0.031 H 
ATOM     28  H   LIG d   1       3.548  -0.093  -6.638  0.00  0.00     0.031 H 
ATOM     29  H   LIG d   1       5.493  -0.853  -7.991  0.00  0.00     0.027 H 
ATOM     30  H   LIG d   1       5.953   0.268  -6.691  0.00  0.00     0.027 H 
ATOM     31  H   LIG d   1       7.312  -0.049  -3.494  0.00  0.00     0.027 H 
ATOM     32  H   LIG d   1       6.691   0.524  -5.052  0.00  0.00     0.027 H 
ATOM     33  H   LIG d   1       9.266  -1.028  -4.530  0.00  0.00     0.027 H 
ATOM     34  H   LIG d   1       9.204   0.682  -4.887  0.00  0.00     0.027 H 
ATOM     35  H   LIG d   1       8.459  -1.914  -9.133  0.00  0.00     0.027 H 
ATOM     36  H   LIG d   1       6.699  -1.832  -8.867  0.00  0.00     0.027 H 
ATOM     37  H   LIG d   1       8.135   0.364  -9.627  0.00  0.00     0.029 H 
ATOM     38  H   LIG d   1       6.750   0.525  -8.517  0.00  0.00     0.029 H 
ENDROOT
BRANCH  21  39
ATOM     39  C   LIG d   1       8.165   1.822  -6.889  0.00  0.00    -0.036 C 
ATOM     40  H   LIG d   1       8.664   1.975  -5.931  0.00  0.00     0.026 H 
ATOM     41  H   LIG d   1       8.366   2.671  -7.543  0.00  0.00     0.026 H 
ATOM     42  H   LIG d   1       7.091   1.733  -6.729  0.00  0.00     0.026 H 
ENDBRANCH  21  39
BRANCH  21  43
ATOM     43  O   LIG d   1       9.980   0.817  -8.119  0.00  0.00    -0.388 OA
ATOM     44  H   LIG d   1      10.098   0.447  -9.004  0.00  0.00     0.210 HD
ENDBRANCH  21  43
BRANCH  16  45
ATOM     45  C   LIG d   1      10.267  -1.162  -6.740  0.00  0.00    -0.057 C 
ATOM     46  H   LIG d   1      10.936  -0.655  -6.045  0.00  0.00     0.024 H 
ATOM     47  H   LIG d   1      10.282  -2.234  -6.542  0.00  0.00     0.024 H 
ATOM     48  H   LIG d   1      10.597  -0.977  -7.763  0.00  0.00     0.024 H 
ENDBRANCH  16  45
BRANCH   1  49
ATOM     49  C   LIG d   1       4.817  -3.196  -4.305  0.00  0.00    -0.056 C 
ATOM     50  H   LIG d   1       4.168  -3.462  -3.472  0.00  0.00     0.024 H 
ATOM     51  H   LIG d   1       4.260  -3.273  -5.240  0.00  0.00     0.024 H 
ATOM     52  H   LIG d   1       5.668  -3.876  -4.333  0.00  0.00     0.024 H 
ENDBRANCH   1  49
TORSDOF 4
ENDMDL
MODEL 7
REMARK VINA RESULT:      -5.7      2.684      3.851
REMARK  4 active torsions:
REMARK  status: ('A' for Active; 'I' for Inactive)
REMARK    1  A    between atoms: C_1  and  C_2 
REMARK    2  A    between atoms: C_17  and  C_25 
REMARK    3  A    between atoms: C_22  and  C_23 
REMARK    4  A    between atoms: C_22  and  O_24 
ROOT
ATOM      1  C   LIG d   1       8.153  -1.370  -5.688  0.00  0.00    -0.006 C 
ATOM      2  C   LIG d   1       8.262  -2.465  -6.735  0.00  0.00    -0.037 C 
ATOM      3  C   LIG d   1       9.059  -2.018  -7.960  0.00  0.00     0.012 C 
ATOM      4  C   LIG d   1       8.376  -0.778  -8.508  0.00  0.00     0.174 C 
ATOM      5  O   LIG d   1       8.038  -0.688  -9.668  0.00  0.00    -0.291 OA
ATOM      6  C   LIG d   1       8.149   0.305  -7.543  0.00  0.00     0.083 C 
ATOM      7  C   LIG d   1       8.042   0.018  -6.247  0.00  0.00    -0.042 C 
ATOM      8  C   LIG d   1       7.793   1.157  -5.276  0.00  0.00    -0.029 C 
ATOM      9  C   LIG d   1       6.568   0.812  -4.420  0.00  0.00    -0.046 C 
ATOM     10  C   LIG d   1       6.786  -0.534  -3.734  0.00  0.00    -0.034 C 
ATOM     11  H   LIG d   1       7.710  -0.464  -3.137  0.00  0.00     0.031 H 
ATOM     12  C   LIG d   1       6.966  -1.641  -4.763  0.00  0.00    -0.029 C 
ATOM     13  H   LIG d   1       7.124  -2.591  -4.246  0.00  0.00     0.031 H 
ATOM     14  C   LIG d   1       5.663  -1.725  -5.581  0.00  0.00    -0.049 C 
ATOM     15  C   LIG d   1       4.559  -2.218  -4.652  0.00  0.00    -0.044 C 
ATOM     16  C   LIG d   1       4.364  -1.369  -3.424  0.00  0.00    -0.000 C 
ATOM     17  C   LIG d   1       5.650  -0.859  -2.771  0.00  0.00    -0.030 C 
ATOM     18  H   LIG d   1       6.005  -1.596  -2.017  0.00  0.00     0.031 H 
ATOM     19  C   LIG d   1       5.228   0.455  -2.060  0.00  0.00    -0.047 C 
ATOM     20  C   LIG d   1       4.104   1.032  -2.942  0.00  0.00    -0.024 C 
ATOM     21  C   LIG d   1       3.410  -0.186  -3.586  0.00  0.00     0.069 C 
ATOM     22 CL   LIG d   1       8.016   1.943  -8.098  0.00  0.00    -0.080 Cl
ATOM     23  H   LIG d   1       7.273  -2.776  -7.058  0.00  0.00     0.028 H 
ATOM     24  H   LIG d   1       8.768  -3.324  -6.286  0.00  0.00     0.028 H 
ATOM     25  H   LIG d   1       9.063  -2.750  -8.640  0.00  0.00     0.035 H 
ATOM     26  H   LIG d   1      10.084  -1.786  -7.680  0.00  0.00     0.035 H 
ATOM     27  H   LIG d   1       8.659   1.297  -4.633  0.00  0.00     0.031 H 
ATOM     28  H   LIG d   1       7.596   2.078  -5.824  0.00  0.00     0.031 H 
ATOM     29  H   LIG d   1       6.443   1.597  -3.673  0.00  0.00     0.027 H 
ATOM     30  H   LIG d   1       5.688   0.778  -5.058  0.00  0.00     0.027 H 
ATOM     31  H   LIG d   1       5.777  -2.441  -6.398  0.00  0.00     0.027 H 
ATOM     32  H   LIG d   1       5.420  -0.752  -5.997  0.00  0.00     0.027 H 
ATOM     33  H   LIG d   1       4.847  -3.229  -4.309  0.00  0.00     0.027 H 
ATOM     34  H   LIG d   1       3.631  -2.343  -5.200  0.00  0.00     0.027 H 
ATOM     35  H   LIG d   1       4.848   0.241  -1.056  0.00  0.00     0.027 H 
ATOM     36  H   LIG d   1       6.065   1.149  -1.988  0.00  0.00     0.027 H 
ATOM     37  H   LIG d   1       3.389   1.581  -2.326  0.00  0.00     0.029 H 
ATOM     38  H   LIG d   1       4.507   1.687  -3.710  0.00  0.00     0.029 H 
ENDROOT
BRANCH  21  39
ATOM     39  C   LIG d   1       3.060   0.114  -5.040  0.00  0.00    -0.036 C 
ATOM     40  H   LIG d   1       3.955   0.016  -5.656  0.00  0.00     0.026 H 
ATOM     41  H   LIG d   1       2.303  -0.591  -5.384  0.00  0.00     0.026 H 
ATOM     42  H   LIG d   1       2.674   1.129  -5.119  0.00  0.00     0.026 H 
ENDBRANCH  21  39
BRANCH  21  43
ATOM     43  O   LIG d   1       2.195  -0.460  -2.863  0.00  0.00    -0.388 OA
ATOM     44  H   LIG d   1       1.489  -0.836  -3.407  0.00  0.00     0.210 HD
ENDBRANCH  21  43
BRANCH  16  45
ATOM     45  C   LIG d   1       3.697  -2.306  -2.378  0.00  0.00    -0.057 C 
ATOM     46  H   LIG d   1       4.467  -2.764  -1.756  0.00  0.00     0.024 H 
ATOM     47  H   LIG d   1       3.021  -1.727  -1.749  0.00  0.00     0.024 H 
ATOM     48  H   LIG d   1       3.136  -3.085  -2.894  0.00  0.00     0.024 H 
ENDBRANCH  16  45
BRANCH   1  49
ATOM     49  C   LIG d   1       9.435  -1.436  -4.847  0.00  0.00    -0.056 C 
ATOM     50  H   LIG d   1       9.218  -1.914  -3.892  0.00  0.00     0.024 H 
ATOM     51  H   LIG d   1      10.190  -2.014  -5.380  0.00  0.00     0.024 H 
ATOM     52  H   LIG d   1       9.806  -0.427  -4.671  0.00  0.00     0.024 H 
ENDBRANCH   1  49
TORSDOF 4
ENDMDL
MODEL 8
REMARK VINA RESULT:      -5.6      3.985      6.503
REMARK  4 active torsions:
REMARK  status: ('A' for Active; 'I' for Inactive)
REMARK    1  A    between atoms: C_1  and  C_2 
REMARK    2  A    between atoms: C_17  and  C_25 
REMARK    3  A    between atoms: C_22  and  C_23 
REMARK    4  A    between atoms: C_22  and  O_24 
ROOT
ATOM      1  C   LIG d   1       1.789  -2.052 -12.481  0.00  0.00    -0.006 C 
ATOM      2  C   LIG d   1       2.172  -1.935 -13.945  0.00  0.00    -0.037 C 
ATOM      3  C   LIG d   1       2.196  -3.293 -14.647  0.00  0.00     0.012 C 
ATOM      4  C   LIG d   1       3.163  -4.175 -13.879  0.00  0.00     0.174 C 
ATOM      5  O   LIG d   1       4.076  -4.756 -14.422  0.00  0.00    -0.291 OA
ATOM      6  C   LIG d   1       2.921  -4.279 -12.434  0.00  0.00     0.083 C 
ATOM      7  C   LIG d   1       2.292  -3.291 -11.801  0.00  0.00    -0.042 C 
ATOM      8  C   LIG d   1       2.071  -3.421 -10.306  0.00  0.00    -0.029 C 
ATOM      9  C   LIG d   1       2.611  -2.161  -9.619  0.00  0.00    -0.046 C 
ATOM     10  C   LIG d   1       1.953  -0.925 -10.225  0.00  0.00    -0.034 C 
ATOM     11  H   LIG d   1       0.862  -1.031 -10.109  0.00  0.00     0.031 H 
ATOM     12  C   LIG d   1       2.266  -0.820 -11.710  0.00  0.00    -0.029 C 
ATOM     13  H   LIG d   1       1.781   0.069 -12.119  0.00  0.00     0.031 H 
ATOM     14  C   LIG d   1       3.794  -0.667 -11.849  0.00  0.00    -0.049 C 
ATOM     15  C   LIG d   1       4.183   0.685 -11.262  0.00  0.00    -0.044 C 
ATOM     16  C   LIG d   1       3.755   0.881  -9.832  0.00  0.00    -0.000 C 
ATOM     17  C   LIG d   1       2.364   0.344  -9.486  0.00  0.00    -0.030 C 
ATOM     18  H   LIG d   1       1.603   1.136  -9.662  0.00  0.00     0.031 H 
ATOM     19  C   LIG d   1       2.442   0.018  -7.971  0.00  0.00    -0.047 C 
ATOM     20  C   LIG d   1       3.906  -0.404  -7.736  0.00  0.00    -0.024 C 
ATOM     21  C   LIG d   1       4.737   0.377  -8.775  0.00  0.00     0.069 C 
ATOM     22 CL   LIG d   1       3.462  -5.681 -11.566  0.00  0.00    -0.080 Cl
ATOM     23  H   LIG d   1       3.151  -1.476 -14.042  0.00  0.00     0.028 H 
ATOM     24  H   LIG d   1       1.438  -1.299 -14.446  0.00  0.00     0.028 H 
ATOM     25  H   LIG d   1       2.500  -3.174 -15.592  0.00  0.00     0.035 H 
ATOM     26  H   LIG d   1       1.203  -3.737 -14.646  0.00  0.00     0.035 H 
ATOM     27  H   LIG d   1       1.009  -3.525 -10.092  0.00  0.00     0.031 H 
ATOM     28  H   LIG d   1       2.603  -4.292  -9.924  0.00  0.00     0.031 H 
ATOM     29  H   LIG d   1       2.378  -2.227  -8.555  0.00  0.00     0.027 H 
ATOM     30  H   LIG d   1       3.691  -2.123  -9.748  0.00  0.00     0.027 H 
ATOM     31  H   LIG d   1       4.080  -0.686 -12.903  0.00  0.00     0.027 H 
ATOM     32  H   LIG d   1       4.299  -1.479 -11.333  0.00  0.00     0.027 H 
ATOM     33  H   LIG d   1       3.677   1.461 -11.865  0.00  0.00     0.027 H 
ATOM     34  H   LIG d   1       5.247   0.860 -11.386  0.00  0.00     0.027 H 
ATOM     35  H   LIG d   1       2.204   0.905  -7.377  0.00  0.00     0.027 H 
ATOM     36  H   LIG d   1       1.755  -0.786  -7.706  0.00  0.00     0.027 H 
ATOM     37  H   LIG d   1       4.218  -0.125  -6.728  0.00  0.00     0.029 H 
ATOM     38  H   LIG d   1       4.031  -1.473  -7.877  0.00  0.00     0.029 H 
ENDROOT
BRANCH  21  39
ATOM     39  C   LIG d   1       5.835  -0.514  -9.348  0.00  0.00    -0.036 C 
ATOM     40  H   LIG d   1       5.632  -0.710 -10.401  0.00  0.00     0.026 H 
ATOM     41  H   LIG d   1       6.798  -0.011  -9.251  0.00  0.00     0.026 H 
ATOM     42  H   LIG d   1       5.861  -1.456  -8.801  0.00  0.00     0.026 H 
ENDBRANCH  21  39
BRANCH  21  43
ATOM     43  O   LIG d   1       5.348   1.506  -8.124  0.00  0.00    -0.388 OA
ATOM     44  H   LIG d   1       5.650   1.326  -7.224  0.00  0.00     0.210 HD
ENDBRANCH  21  43
BRANCH  16  45
ATOM     45  C   LIG d   1       3.678   2.421  -9.633  0.00  0.00    -0.057 C 
ATOM     46  H   LIG d   1       2.635   2.737  -9.633  0.00  0.00     0.024 H 
ATOM     47  H   LIG d   1       4.137   2.688  -8.681  0.00  0.00     0.024 H 
ATOM     48  H   LIG d   1       4.209   2.919 -10.444  0.00  0.00     0.024 H 
ENDBRANCH  16  45
BRANCH   1  49
ATOM     49  C   LIG d   1       0.255  -2.078 -12.428  0.00  0.00    -0.056 C 
ATOM     50  H   LIG d   1      -0.134  -1.095 -12.693  0.00  0.00     0.024 H 
ATOM     51  H   LIG d   1      -0.120  -2.820 -13.133  0.00  0.00     0.024 H 
ATOM     52  H   LIG d   1      -0.069  -2.337 -11.420  0.00  0.00     0.024 H 
ENDBRANCH   1  49
TORSDOF 4
ENDMDL
MODEL 9
REMARK VINA RESULT:      -5.5      3.443      5.180
REMARK  4 active torsions:
REMARK  status: ('A' for Active; 'I' for Inactive)
REMARK    1  A    between atoms: C_1  and  C_2 
REMARK    2  A    between atoms: C_17  and  C_25 
REMARK    3  A    between atoms: C_22  and  C_23 
REMARK    4  A    between atoms: C_22  and  O_24 
ROOT
ATOM      1  C   LIG d   1       8.519  -3.561  -4.773  0.00  0.00    -0.006 C 
ATOM      2  C   LIG d   1       8.435  -4.968  -5.335  0.00  0.00    -0.037 C 
ATOM      3  C   LIG d   1       9.467  -5.215  -6.436  0.00  0.00     0.012 C 
ATOM      4  C   LIG d   1       9.236  -4.164  -7.507  0.00  0.00     0.174 C 
ATOM      5  O   LIG d   1       9.079  -4.455  -8.671  0.00  0.00    -0.291 OA
ATOM      6  C   LIG d   1       9.213  -2.772  -7.040  0.00  0.00     0.083 C 
ATOM      7  C   LIG d   1       8.875  -2.507  -5.780  0.00  0.00    -0.042 C 
ATOM      8  C   LIG d   1       8.846  -1.058  -5.332  0.00  0.00    -0.029 C 
ATOM      9  C   LIG d   1       7.481  -0.768  -4.696  0.00  0.00    -0.046 C 
ATOM     10  C   LIG d   1       7.223  -1.759  -3.564  0.00  0.00    -0.034 C 
ATOM     11  H   LIG d   1       8.051  -1.669  -2.841  0.00  0.00     0.031 H 
ATOM     12  C   LIG d   1       7.202  -3.186  -4.090  0.00  0.00    -0.029 C 
ATOM     13  H   LIG d   1       7.020  -3.874  -3.260  0.00  0.00     0.031 H 
ATOM     14  C   LIG d   1       6.036  -3.290  -5.093  0.00  0.00    -0.049 C 
ATOM     15  C   LIG d   1       4.735  -3.131  -4.315  0.00  0.00    -0.044 C 
ATOM     16  C   LIG d   1       4.644  -1.855  -3.521  0.00  0.00    -0.000 C 
ATOM     17  C   LIG d   1       5.935  -1.430  -2.818  0.00  0.00    -0.030 C 
ATOM     18  H   LIG d   1       5.973  -1.879  -1.800  0.00  0.00     0.031 H 
ATOM     19  C   LIG d   1       5.823   0.115  -2.705  0.00  0.00    -0.047 C 
ATOM     20  C   LIG d   1       5.023   0.540  -3.952  0.00  0.00    -0.024 C 
ATOM     21  C   LIG d   1       4.093  -0.647  -4.277  0.00  0.00     0.069 C 
ATOM     22 CL   LIG d   1       9.619  -1.487  -8.134  0.00  0.00    -0.080 Cl
ATOM     23  H   LIG d   1       7.445  -5.154  -5.739  0.00  0.00     0.028 H 
ATOM     24  H   LIG d   1       8.619  -5.678  -4.523  0.00  0.00     0.028 H 
ATOM     25  H   LIG d   1       9.344  -6.134  -6.808  0.00  0.00     0.035 H 
ATOM     26  H   LIG d   1      10.475  -5.125  -6.036  0.00  0.00     0.035 H 
ATOM     27  H   LIG d   1       9.633  -0.875  -4.603  0.00  0.00     0.031 H 
ATOM     28  H   LIG d   1       8.987  -0.400  -6.189  0.00  0.00     0.031 H 
ATOM     29  H   LIG d   1       7.496   0.251  -4.306  0.00  0.00     0.027 H 
ATOM     30  H   LIG d   1       6.710  -0.850  -5.459  0.00  0.00     0.027 H 
ATOM     31  H   LIG d   1       6.039  -4.271  -5.573  0.00  0.00     0.027 H 
ATOM     32  H   LIG d   1       6.132  -2.524  -5.857  0.00  0.00     0.027 H 
ATOM     33  H   LIG d   1       4.680  -3.969  -3.595  0.00  0.00     0.027 H 
ATOM     34  H   LIG d   1       3.882  -3.250  -4.974  0.00  0.00     0.027 H 
ATOM     35  H   LIG d   1       5.281   0.393  -1.796  0.00  0.00     0.027 H 
ATOM     36  H   LIG d   1       6.808   0.581  -2.694  0.00  0.00     0.027 H 
ATOM     37  H   LIG d   1       4.426   1.427  -3.729  0.00  0.00     0.029 H 
ATOM     38  H   LIG d   1       5.684   0.743  -4.790  0.00  0.00     0.029 H 
ENDROOT
BRANCH  21  39
ATOM     39  C   LIG d   1       4.020  -0.861  -5.786  0.00  0.00    -0.036 C 
ATOM     40  H   LIG d   1       4.733  -0.202  -6.281  0.00  0.00     0.026 H 
ATOM     41  H   LIG d   1       4.262  -1.898  -6.018  0.00  0.00     0.026 H 
ATOM     42  H   LIG d   1       3.013  -0.636  -6.136  0.00  0.00     0.026 H 
ENDBRANCH  21  39
BRANCH  21  43
ATOM     43  O   LIG d   1       2.773  -0.348  -3.786  0.00  0.00    -0.388 OA
ATOM     44  H   LIG d   1       2.061  -0.758  -4.295  0.00  0.00     0.210 HD
ENDBRANCH  21  43
BRANCH  16  45
ATOM     45  C   LIG d   1       3.619  -2.146  -2.389  0.00  0.00    -0.057 C 
ATOM     46  H   LIG d   1       2.630  -1.805  -2.697  0.00  0.00     0.024 H 
ATOM     47  H   LIG d   1       3.588  -3.218  -2.193  0.00  0.00     0.024 H 
ATOM     48  H   LIG d   1       3.919  -1.619  -1.484  0.00  0.00     0.024 H 
ENDBRANCH  16  45
BRANCH   1  49
ATOM     49  C   LIG d   1       9.618  -3.578  -3.702  0.00  0.00    -0.056 C 
ATOM     50  H   LIG d   1      10.562  -3.879  -4.156  0.00  0.00     0.024 H 
ATOM     51  H   LIG d   1       9.722  -2.582  -3.271  0.00  0.00     0.024 H 
ATOM     52  H   LIG d   1       9.351  -4.287  -2.919  0.00  0.00     0.024 H 
ENDBRANCH   1  49
TORSDOF 4
ENDMDL
MODEL 10
REMARK VINA RESULT:      -5.3      2.365      6.091
REMARK  4 active torsions:
REMARK  status: ('A' for Active; 'I' for Inactive)
REMARK    1  A    between atoms: C_1  and  C_2 
REMARK    2  A    between atoms: C_17  and  C_25 
REMARK    3  A    between atoms: C_22  and  C_23 
REMARK    4  A    between atoms: C_22  and  O_24 
ROOT
ATOM      1  C   LIG d   1       4.859  -1.248  -5.860  0.00  0.00    -0.006 C 
ATOM      2  C   LIG d   1       4.668  -2.617  -5.233  0.00  0.00    -0.037 C 
ATOM      3  C   LIG d   1       5.906  -3.079  -4.465  0.00  0.00     0.012 C 
ATOM      4  C   LIG d   1       7.068  -3.063  -5.440  0.00  0.00     0.174 C 
ATOM      5  O   LIG d   1       7.778  -4.028  -5.614  0.00  0.00    -0.291 OA
ATOM      6  C   LIG d   1       7.277  -1.800  -6.162  0.00  0.00     0.083 C 
ATOM      7  C   LIG d   1       6.249  -0.976  -6.354  0.00  0.00    -0.042 C 
ATOM      8  C   LIG d   1       6.494   0.313  -7.116  0.00  0.00    -0.029 C 
ATOM      9  C   LIG d   1       5.478   0.405  -8.261  0.00  0.00    -0.046 C 
ATOM     10  C   LIG d   1       4.063   0.290  -7.702  0.00  0.00    -0.034 C 
ATOM     11  H   LIG d   1       3.928   1.090  -6.955  0.00  0.00     0.031 H 
ATOM     12  C   LIG d   1       3.866  -1.049  -7.006  0.00  0.00    -0.029 C 
ATOM     13  H   LIG d   1       2.847  -1.104  -6.612  0.00  0.00     0.031 H 
ATOM     14  C   LIG d   1       4.053  -2.151  -8.068  0.00  0.00    -0.049 C 
ATOM     15  C   LIG d   1       2.902  -2.043  -9.062  0.00  0.00    -0.044 C 
ATOM     16  C   LIG d   1       2.776  -0.691  -9.713  0.00  0.00    -0.000 C 
ATOM     17  C   LIG d   1       3.015   0.504  -8.788  0.00  0.00    -0.030 C 
ATOM     18  H   LIG d   1       2.055   0.812  -8.318  0.00  0.00     0.031 H 
ATOM     19  C   LIG d   1       3.521   1.629  -9.732  0.00  0.00    -0.047 C 
ATOM     20  C   LIG d   1       4.291   0.889 -10.843  0.00  0.00    -0.024 C 
ATOM     21  C   LIG d   1       3.610  -0.489 -10.978  0.00  0.00     0.069 C 
ATOM     22 CL   LIG d   1       8.855  -1.399  -6.762  0.00  0.00    -0.080 Cl
ATOM     23  H   LIG d   1       4.439  -3.352  -5.998  0.00  0.00     0.028 H 
ATOM     24  H   LIG d   1       3.827  -2.565  -4.536  0.00  0.00     0.028 H 
ATOM     25  H   LIG d   1       5.753  -4.002  -4.112  0.00  0.00     0.035 H 
ATOM     26  H   LIG d   1       6.107  -2.408  -3.632  0.00  0.00     0.035 H 
ATOM     27  H   LIG d   1       6.374   1.168  -6.454  0.00  0.00     0.031 H 
ATOM     28  H   LIG d   1       7.501   0.315  -7.531  0.00  0.00     0.031 H 
ATOM     29  H   LIG d   1       5.609   1.370  -8.755  0.00  0.00     0.027 H 
ATOM     30  H   LIG d   1       5.675  -0.393  -8.974  0.00  0.00     0.027 H 
ATOM     31  H   LIG d   1       4.017  -3.136  -7.598  0.00  0.00     0.027 H 
ATOM     32  H   LIG d   1       5.012  -2.033  -8.564  0.00  0.00     0.027 H 
ATOM     33  H   LIG d   1       1.967  -2.224  -8.501  0.00  0.00     0.027 H 
ATOM     34  H   LIG d   1       2.964  -2.835  -9.801  0.00  0.00     0.027 H 
ATOM     35  H   LIG d   1       2.675   2.177 -10.159  0.00  0.00     0.027 H 
ATOM     36  H   LIG d   1       4.170   2.325  -9.201  0.00  0.00     0.027 H 
ATOM     37  H   LIG d   1       4.208   1.436 -11.784  0.00  0.00     0.029 H 
ATOM     38  H   LIG d   1       5.338   0.769 -10.578  0.00  0.00     0.029 H 
ENDROOT
BRANCH  21  39
ATOM     39  C   LIG d   1       4.659  -1.576 -11.190  0.00  0.00    -0.036 C 
ATOM     40  H   LIG d   1       5.258  -1.684 -10.286  0.00  0.00     0.026 H 
ATOM     41  H   LIG d   1       4.162  -2.521 -11.412  0.00  0.00     0.026 H 
ATOM     42  H   LIG d   1       5.304  -1.301 -12.024  0.00  0.00     0.026 H 
ENDBRANCH  21  39
BRANCH  21  43
ATOM     43  O   LIG d   1       2.732  -0.460 -12.119  0.00  0.00    -0.388 OA
ATOM     44  H   LIG d   1       3.048  -0.978 -12.872  0.00  0.00     0.210 HD
ENDBRANCH  21  43
BRANCH  16  45
ATOM     45  C   LIG d   1       1.293  -0.589 -10.167  0.00  0.00    -0.057 C 
ATOM     46  H   LIG d   1       1.253  -0.316 -11.222  0.00  0.00     0.024 H 
ATOM     47  H   LIG d   1       0.801  -1.551 -10.022  0.00  0.00     0.024 H 
ATOM     48  H   LIG d   1       0.784   0.173  -9.575  0.00  0.00     0.024 H 
ENDBRANCH  16  45
BRANCH   1  49
ATOM     49  C   LIG d   1       4.537  -0.215  -4.771  0.00  0.00    -0.056 C 
ATOM     50  H   LIG d   1       4.338  -0.729  -3.832  0.00  0.00     0.024 H 
ATOM     51  H   LIG d   1       5.386   0.457  -4.646  0.00  0.00     0.024 H 
ATOM     52  H   LIG d   1       3.659   0.359  -5.064  0.00  0.00     0.024 H 
ENDBRANCH   1  49
TORSDOF 4
ENDMDL
