MODEL 1
REMARK VINA RESULT:      -8.0      0.000      0.000
REMARK  7 active torsions:
REMARK  status: ('A' for Active; 'I' for Inactive)
REMARK    1  A    between atoms: C_1  and  C_2 
REMARK    2  A    between atoms: C_16  and  C_19 
REMARK    3  A    between atoms: C_19  and  C_20 
REMARK    4  A    between atoms: C_20  and  C_21 
REMARK       I    between atoms: C_21  and  N_23 
REMARK    5  A    between atoms: N_26  and  C_29 
REMARK    6  A    between atoms: C_29  and  C_30 
REMARK    7  A    between atoms: C_30  and  C_31 
ROOT
ATOM      1  C   LIG d   1       3.070  -1.770  -9.138  0.00  0.00    -0.028 A 
ATOM      2  C   LIG d   1       2.735  -0.449  -9.354  0.00  0.00    -0.039 A 
ATOM      3  C   LIG d   1       3.021   0.509  -8.398  0.00  0.00     0.042 A 
ATOM      4  C   LIG d   1       3.646   0.139  -7.218  0.00  0.00    -0.036 A 
ATOM      5  C   LIG d   1       3.982  -1.177  -7.000  0.00  0.00     0.005 A 
ATOM      6  C   LIG d   1       3.694  -2.150  -7.953  0.00  0.00     0.042 A 
ATOM      7  N   LIG d   1       4.120  -3.404  -7.507  0.00  0.00    -0.283 N 
ATOM      8  C   LIG d   1       4.685  -3.344  -6.285  0.00  0.00     0.243 A 
ATOM      9  O   LIG d   1       5.143  -4.272  -5.653  0.00  0.00    -0.273 OA
ATOM     10  C   LIG d   1       4.647  -1.900  -5.863  0.00  0.00     0.136 A 
ATOM     11  C   LIG d   1       6.050  -1.347  -5.588  0.00  0.00     0.080 A 
ATOM     12  H   LIG d   1       6.184  -0.335  -5.970  0.00  0.00     0.043 H 
ATOM     13  C   LIG d   1       6.210  -1.432  -4.044  0.00  0.00     0.065 A 
ATOM     14  H   LIG d   1       6.432  -0.469  -3.586  0.00  0.00     0.042 H 
ATOM     15  C   LIG d   1       4.882  -2.038  -3.543  0.00  0.00     0.021 C 
ATOM     16  H   LIG d   1       4.976  -3.118  -3.428  0.00  0.00     0.047 H 
ATOM     17  N   LIG d   1       3.895  -1.740  -4.605  0.00  0.00    -0.295 N 
ATOM     18  C   LIG d   1       7.328  -2.436  -3.864  0.00  0.00     0.227 A 
ATOM     19  O   LIG d   1       7.778  -2.799  -2.799  0.00  0.00    -0.275 OA
ATOM     20  N   LIG d   1       7.741  -2.859  -5.064  0.00  0.00    -0.241 N 
ATOM     21  C   LIG d   1       7.093  -2.308  -6.114  0.00  0.00     0.228 A 
ATOM     22  O   LIG d   1       7.303  -2.539  -7.286  0.00  0.00    -0.275 OA
ATOM     23 CL   LIG d   1       2.598   2.170  -8.675  0.00  0.00    -0.084 Cl
ATOM     24  H   LIG d   1       2.247  -0.161 -10.273  0.00  0.00     0.064 H 
ATOM     25  H   LIG d   1       3.871   0.885  -6.470  0.00  0.00     0.064 H 
ATOM     26  H   LIG d   1       4.021  -4.222  -8.018  0.00  0.00     0.155 HD
ATOM     27  H   LIG d   1       3.548  -0.797  -4.509  0.00  0.00     0.123 HD
ENDROOT
BRANCH  15  28
ATOM     28  C   LIG d   1       4.471  -1.397  -2.215  0.00  0.00    -0.029 C 
ATOM     29  H   LIG d   1       4.060  -2.160  -1.555  0.00  0.00     0.029 H 
ATOM     30  H   LIG d   1       5.345  -0.943  -1.746  0.00  0.00     0.029 H 
BRANCH  28  31
ATOM     31  C   LIG d   1       3.415  -0.321  -2.472  0.00  0.00     0.025 C 
ATOM     32  H   LIG d   1       3.019  -0.435  -3.482  0.00  0.00     0.036 H 
ATOM     33  H   LIG d   1       2.605  -0.428  -1.751  0.00  0.00     0.036 H 
BRANCH  31  34
ATOM     34  C   LIG d   1       4.039   1.042  -2.328  0.00  0.00     0.210 C 
ATOM     35  O   LIG d   1       4.778   1.275  -1.395  0.00  0.00    -0.276 OA
ATOM     36  N   LIG d   1       3.778   2.003  -3.236  0.00  0.00    -0.329 N 
ATOM     37  H   LIG d   1       3.186   1.817  -3.982  0.00  0.00     0.145 HD
ATOM     38  H   LIG d   1       4.179   2.881  -3.143  0.00  0.00     0.145 HD
ENDBRANCH  31  34
ENDBRANCH  28  31
ENDBRANCH  15  28
BRANCH   1  39
ATOM     39  C   LIG d   1       2.754  -2.805 -10.187  0.00  0.00    -0.038 C 
ATOM     40  H   LIG d   1       1.836  -2.530 -10.704  0.00  0.00     0.028 H 
ATOM     41  H   LIG d   1       3.573  -2.859 -10.903  0.00  0.00     0.028 H 
ATOM     42  H   LIG d   1       2.625  -3.777  -9.709  0.00  0.00     0.028 H 
ENDBRANCH   1  39
BRANCH  20  43
ATOM     43  C   LIG d   1       8.818  -3.841  -5.230  0.00  0.00     0.026 C 
ATOM     44  H   LIG d   1       9.352  -3.639  -6.158  0.00  0.00     0.047 H 
ATOM     45  H   LIG d   1       9.507  -3.768  -4.389  0.00  0.00     0.047 H 
BRANCH  43  46
ATOM     46  C   LIG d   1       8.220  -5.249  -5.280  0.00  0.00    -0.011 C 
ATOM     47  H   LIG d   1       7.136  -5.186  -5.194  0.00  0.00     0.033 H 
ATOM     48  H   LIG d   1       8.483  -5.721  -6.227  0.00  0.00     0.033 H 
BRANCH  46  49
ATOM     49  C   LIG d   1       8.770  -6.067  -4.141  0.00  0.00    -0.046 A 
ATOM     50  C   LIG d   1       9.544  -5.464  -3.168  0.00  0.00    -0.059 A 
ATOM     51  C   LIG d   1      10.044  -6.214  -2.120  0.00  0.00    -0.061 A 
ATOM     52  H   LIG d   1       9.756  -4.407  -3.224  0.00  0.00     0.062 H 
ATOM     53  C   LIG d   1       9.777  -7.569  -2.049  0.00  0.00    -0.062 A 
ATOM     54  H   LIG d   1      10.645  -5.743  -1.356  0.00  0.00     0.062 H 
ATOM     55  C   LIG d   1       9.007  -8.173  -3.026  0.00  0.00    -0.061 A 
ATOM     56  H   LIG d   1      10.170  -8.155  -1.232  0.00  0.00     0.062 H 
ATOM     57  C   LIG d   1       8.503  -7.422  -4.072  0.00  0.00    -0.059 A 
ATOM     58  H   LIG d   1       8.798  -9.230  -2.971  0.00  0.00     0.062 H 
ATOM     59  H   LIG d   1       7.902  -7.893  -4.835  0.00  0.00     0.062 H 
ENDBRANCH  46  49
ENDBRANCH  43  46
ENDBRANCH  20  43
TORSDOF 7
ENDMDL
MODEL 2
REMARK VINA RESULT:      -7.8      3.407      5.948
REMARK  7 active torsions:
REMARK  status: ('A' for Active; 'I' for Inactive)
REMARK    1  A    between atoms: C_1  and  C_2 
REMARK    2  A    between atoms: C_16  and  C_19 
REMARK    3  A    between atoms: C_19  and  C_20 
REMARK    4  A    between atoms: C_20  and  C_21 
REMARK       I    between atoms: C_21  and  N_23 
REMARK    5  A    between atoms: N_26  and  C_29 
REMARK    6  A    between atoms: C_29  and  C_30 
REMARK    7  A    between atoms: C_30  and  C_31 
ROOT
ATOM      1  C   LIG d   1       4.808  -7.806  -6.632  0.00  0.00    -0.028 A 
ATOM      2  C   LIG d   1       4.955  -8.374  -7.880  0.00  0.00    -0.039 A 
ATOM      3  C   LIG d   1       5.047  -7.574  -9.005  0.00  0.00     0.042 A 
ATOM      4  C   LIG d   1       4.989  -6.196  -8.876  0.00  0.00    -0.036 A 
ATOM      5  C   LIG d   1       4.842  -5.625  -7.632  0.00  0.00     0.005 A 
ATOM      6  C   LIG d   1       4.744  -6.422  -6.494  0.00  0.00     0.042 A 
ATOM      7  N   LIG d   1       4.595  -5.623  -5.358  0.00  0.00    -0.283 N 
ATOM      8  C   LIG d   1       4.579  -4.310  -5.658  0.00  0.00     0.243 A 
ATOM      9  O   LIG d   1       4.464  -3.389  -4.877  0.00  0.00    -0.273 OA
ATOM     10  C   LIG d   1       4.744  -4.206  -7.150  0.00  0.00     0.136 A 
ATOM     11  C   LIG d   1       5.987  -3.394  -7.534  0.00  0.00     0.080 A 
ATOM     12  H   LIG d   1       6.530  -3.831  -8.372  0.00  0.00     0.043 H 
ATOM     13  C   LIG d   1       5.446  -1.971  -7.845  0.00  0.00     0.065 A 
ATOM     14  H   LIG d   1       5.694  -1.633  -8.851  0.00  0.00     0.042 H 
ATOM     15  C   LIG d   1       3.923  -2.068  -7.611  0.00  0.00     0.021 C 
ATOM     16  H   LIG d   1       3.672  -1.742  -6.601  0.00  0.00     0.047 H 
ATOM     17  N   LIG d   1       3.599  -3.505  -7.759  0.00  0.00    -0.295 N 
ATOM     18  C   LIG d   1       6.074  -1.115  -6.768  0.00  0.00     0.227 A 
ATOM     19  O   LIG d   1       5.915   0.080  -6.642  0.00  0.00    -0.275 OA
ATOM     20  N   LIG d   1       6.832  -1.883  -5.977  0.00  0.00    -0.241 N 
ATOM     21  C   LIG d   1       6.862  -3.191  -6.318  0.00  0.00     0.228 A 
ATOM     22  O   LIG d   1       7.483  -4.063  -5.749  0.00  0.00    -0.275 OA
ATOM     23 CL   LIG d   1       5.233  -8.294 -10.573  0.00  0.00    -0.084 Cl
ATOM     24  H   LIG d   1       5.000  -9.448  -7.981  0.00  0.00     0.064 H 
ATOM     25  H   LIG d   1       5.060  -5.568  -9.753  0.00  0.00     0.064 H 
ATOM     26  H   LIG d   1       4.512  -5.973  -4.457  0.00  0.00     0.155 HD
ATOM     27  H   LIG d   1       3.504  -3.746  -8.734  0.00  0.00     0.123 HD
ENDROOT
BRANCH  15  28
ATOM     28  C   LIG d   1       3.170  -1.225  -8.642  0.00  0.00    -0.029 C 
ATOM     29  H   LIG d   1       3.871  -0.851  -9.387  0.00  0.00     0.029 H 
ATOM     30  H   LIG d   1       2.413  -1.840  -9.131  0.00  0.00     0.029 H 
BRANCH  28  31
ATOM     31  C   LIG d   1       2.492  -0.046  -7.942  0.00  0.00     0.025 C 
ATOM     32  H   LIG d   1       1.451   0.016  -8.260  0.00  0.00     0.036 H 
ATOM     33  H   LIG d   1       2.534  -0.192  -6.862  0.00  0.00     0.036 H 
BRANCH  31  34
ATOM     34  C   LIG d   1       3.206   1.231  -8.303  0.00  0.00     0.210 C 
ATOM     35  O   LIG d   1       2.822   2.289  -7.851  0.00  0.00    -0.276 OA
ATOM     36  N   LIG d   1       4.270   1.198  -9.129  0.00  0.00    -0.329 N 
ATOM     37  H   LIG d   1       4.577   0.352  -9.491  0.00  0.00     0.145 HD
ATOM     38  H   LIG d   1       4.729   2.020  -9.362  0.00  0.00     0.145 HD
ENDBRANCH  31  34
ENDBRANCH  28  31
ENDBRANCH  15  28
BRANCH   1  39
ATOM     39  C   LIG d   1       4.710  -8.687  -5.413  0.00  0.00    -0.038 C 
ATOM     40  H   LIG d   1       5.085  -9.681  -5.652  0.00  0.00     0.028 H 
ATOM     41  H   LIG d   1       5.303  -8.258  -4.606  0.00  0.00     0.028 H 
ATOM     42  H   LIG d   1       3.668  -8.757  -5.100  0.00  0.00     0.028 H 
ENDBRANCH   1  39
BRANCH  20  43
ATOM     43  C   LIG d   1       7.578  -1.349  -4.834  0.00  0.00     0.026 C 
ATOM     44  H   LIG d   1       8.616  -1.675  -4.894  0.00  0.00     0.047 H 
ATOM     45  H   LIG d   1       7.537  -0.260  -4.851  0.00  0.00     0.047 H 
BRANCH  43  46
ATOM     46  C   LIG d   1       6.955  -1.863  -3.534  0.00  0.00    -0.011 C 
ATOM     47  H   LIG d   1       6.455  -2.813  -3.722  0.00  0.00     0.033 H 
ATOM     48  H   LIG d   1       7.736  -2.005  -2.788  0.00  0.00     0.033 H 
BRANCH  46  49
ATOM     49  C   LIG d   1       5.953  -0.859  -3.028  0.00  0.00    -0.046 A 
ATOM     50  C   LIG d   1       6.184   0.494  -3.195  0.00  0.00    -0.059 A 
ATOM     51  C   LIG d   1       5.261   1.415  -2.735  0.00  0.00    -0.061 A 
ATOM     52  H   LIG d   1       7.083   0.830  -3.689  0.00  0.00     0.062 H 
ATOM     53  C   LIG d   1       4.112   0.984  -2.100  0.00  0.00    -0.062 A 
ATOM     54  H   LIG d   1       5.439   2.471  -2.870  0.00  0.00     0.062 H 
ATOM     55  C   LIG d   1       3.884  -0.369  -1.927  0.00  0.00    -0.061 A 
ATOM     56  H   LIG d   1       3.392   1.704  -1.738  0.00  0.00     0.062 H 
ATOM     57  C   LIG d   1       4.804  -1.290  -2.391  0.00  0.00    -0.059 A 
ATOM     58  H   LIG d   1       2.986  -0.706  -1.431  0.00  0.00     0.062 H 
ATOM     59  H   LIG d   1       4.625  -2.347  -2.257  0.00  0.00     0.062 H 
ENDBRANCH  46  49
ENDBRANCH  43  46
ENDBRANCH  20  43
TORSDOF 7
ENDMDL
MODEL 3
REMARK VINA RESULT:      -7.4      1.148      1.910
REMARK  7 active torsions:
REMARK  status: ('A' for Active; 'I' for Inactive)
REMARK    1  A    between atoms: C_1  and  C_2 
REMARK    2  A    between atoms: C_16  and  C_19 
REMARK    3  A    between atoms: C_19  and  C_20 
REMARK    4  A    between atoms: C_20  and  C_21 
REMARK       I    between atoms: C_21  and  N_23 
REMARK    5  A    between atoms: N_26  and  C_29 
REMARK    6  A    between atoms: C_29  and  C_30 
REMARK    7  A    between atoms: C_30  and  C_31 
ROOT
ATOM      1  C   LIG d   1       2.967  -1.748  -9.138  0.00  0.00    -0.028 A 
ATOM      2  C   LIG d   1       2.658  -0.419  -9.345  0.00  0.00    -0.039 A 
ATOM      3  C   LIG d   1       2.994   0.531  -8.398  0.00  0.00     0.042 A 
ATOM      4  C   LIG d   1       3.642   0.147  -7.236  0.00  0.00    -0.036 A 
ATOM      5  C   LIG d   1       3.951  -1.178  -7.026  0.00  0.00     0.005 A 
ATOM      6  C   LIG d   1       3.613  -2.143  -7.970  0.00  0.00     0.042 A 
ATOM      7  N   LIG d   1       4.021  -3.407  -7.535  0.00  0.00    -0.283 N 
ATOM      8  C   LIG d   1       4.620  -3.361  -6.329  0.00  0.00     0.243 A 
ATOM      9  O   LIG d   1       5.073  -4.300  -5.709  0.00  0.00    -0.273 OA
ATOM     10  C   LIG d   1       4.629  -1.917  -5.907  0.00  0.00     0.136 A 
ATOM     11  C   LIG d   1       6.052  -1.398  -5.671  0.00  0.00     0.080 A 
ATOM     12  H   LIG d   1       6.200  -0.389  -6.057  0.00  0.00     0.043 H 
ATOM     13  C   LIG d   1       6.252  -1.487  -4.132  0.00  0.00     0.065 A 
ATOM     14  H   LIG d   1       6.509  -0.529  -3.681  0.00  0.00     0.042 H 
ATOM     15  C   LIG d   1       4.923  -2.060  -3.594  0.00  0.00     0.021 C 
ATOM     16  H   LIG d   1       4.993  -3.142  -3.481  0.00  0.00     0.047 H 
ATOM     17  N   LIG d   1       3.915  -1.738  -4.629  0.00  0.00    -0.295 N 
ATOM     18  C   LIG d   1       7.349  -2.518  -3.981  0.00  0.00     0.227 A 
ATOM     19  O   LIG d   1       7.819  -2.891  -2.929  0.00  0.00    -0.275 OA
ATOM     20  N   LIG d   1       7.719  -2.951  -5.192  0.00  0.00    -0.241 N 
ATOM     21  C   LIG d   1       7.056  -2.384  -6.224  0.00  0.00     0.228 A 
ATOM     22  O   LIG d   1       7.229  -2.620  -7.401  0.00  0.00    -0.275 OA
ATOM     23 CL   LIG d   1       2.604   2.202  -8.665  0.00  0.00    -0.084 Cl
ATOM     24  H   LIG d   1       2.153  -0.120 -10.252  0.00  0.00     0.064 H 
ATOM     25  H   LIG d   1       3.905   0.887  -6.495  0.00  0.00     0.064 H 
ATOM     26  H   LIG d   1       3.888  -4.223  -8.042  0.00  0.00     0.155 HD
ATOM     27  H   LIG d   1       3.594  -0.787  -4.525  0.00  0.00     0.123 HD
ENDROOT
BRANCH  15  28
ATOM     28  C   LIG d   1       4.565  -1.409  -2.256  0.00  0.00    -0.029 C 
ATOM     29  H   LIG d   1       4.196  -2.170  -1.569  0.00  0.00     0.029 H 
ATOM     30  H   LIG d   1       5.452  -0.937  -1.833  0.00  0.00     0.029 H 
BRANCH  28  31
ATOM     31  C   LIG d   1       3.481  -0.352  -2.476  0.00  0.00     0.025 C 
ATOM     32  H   LIG d   1       3.075  -0.453  -3.484  0.00  0.00     0.036 H 
ATOM     33  H   LIG d   1       2.683  -0.494  -1.748  0.00  0.00     0.036 H 
BRANCH  31  34
ATOM     34  C   LIG d   1       4.076   1.021  -2.308  0.00  0.00     0.210 C 
ATOM     35  O   LIG d   1       4.755   1.273  -1.335  0.00  0.00    -0.276 OA
ATOM     36  N   LIG d   1       3.856   1.970  -3.240  0.00  0.00    -0.329 N 
ATOM     37  H   LIG d   1       3.312   1.769  -4.018  0.00  0.00     0.145 HD
ATOM     38  H   LIG d   1       4.239   2.854  -3.132  0.00  0.00     0.145 HD
ENDBRANCH  31  34
ENDBRANCH  28  31
ENDBRANCH  15  28
BRANCH   1  39
ATOM     39  C   LIG d   1       2.597  -2.776 -10.177  0.00  0.00    -0.038 C 
ATOM     40  H   LIG d   1       2.760  -3.775  -9.774  0.00  0.00     0.028 H 
ATOM     41  H   LIG d   1       1.548  -2.659 -10.446  0.00  0.00     0.028 H 
ATOM     42  H   LIG d   1       3.217  -2.635 -11.063  0.00  0.00     0.028 H 
ENDBRANCH   1  39
BRANCH  20  43
ATOM     43  C   LIG d   1       8.766  -3.959  -5.386  0.00  0.00     0.026 C 
ATOM     44  H   LIG d   1       8.909  -4.133  -6.453  0.00  0.00     0.047 H 
ATOM     45  H   LIG d   1       9.699  -3.602  -4.948  0.00  0.00     0.047 H 
BRANCH  43  46
ATOM     46  C   LIG d   1       8.350  -5.265  -4.706  0.00  0.00    -0.011 C 
ATOM     47  H   LIG d   1       9.215  -5.711  -4.216  0.00  0.00     0.033 H 
ATOM     48  H   LIG d   1       7.578  -5.058  -3.966  0.00  0.00     0.033 H 
BRANCH  46  49
ATOM     49  C   LIG d   1       7.811  -6.218  -5.741  0.00  0.00    -0.046 A 
ATOM     50  C   LIG d   1       8.118  -6.036  -7.076  0.00  0.00    -0.059 A 
ATOM     51  C   LIG d   1       7.628  -6.914  -8.025  0.00  0.00    -0.061 A 
ATOM     52  H   LIG d   1       8.745  -5.210  -7.378  0.00  0.00     0.062 H 
ATOM     53  C   LIG d   1       6.823  -7.970  -7.639  0.00  0.00    -0.062 A 
ATOM     54  H   LIG d   1       7.872  -6.774  -9.067  0.00  0.00     0.062 H 
ATOM     55  C   LIG d   1       6.511  -8.148  -6.305  0.00  0.00    -0.061 A 
ATOM     56  H   LIG d   1       6.437  -8.654  -8.381  0.00  0.00     0.062 H 
ATOM     57  C   LIG d   1       7.005  -7.273  -5.355  0.00  0.00    -0.059 A 
ATOM     58  H   LIG d   1       5.882  -8.973  -6.003  0.00  0.00     0.062 H 
ATOM     59  H   LIG d   1       6.761  -7.413  -4.312  0.00  0.00     0.062 H 
ENDBRANCH  46  49
ENDBRANCH  43  46
ENDBRANCH  20  43
TORSDOF 7
ENDMDL
MODEL 4
REMARK VINA RESULT:      -7.4      2.987      7.294
REMARK  7 active torsions:
REMARK  status: ('A' for Active; 'I' for Inactive)
REMARK    1  A    between atoms: C_1  and  C_2 
REMARK    2  A    between atoms: C_16  and  C_19 
REMARK    3  A    between atoms: C_19  and  C_20 
REMARK    4  A    between atoms: C_20  and  C_21 
REMARK       I    between atoms: C_21  and  N_23 
REMARK    5  A    between atoms: N_26  and  C_29 
REMARK    6  A    between atoms: C_29  and  C_30 
REMARK    7  A    between atoms: C_30  and  C_31 
ROOT
ATOM      1  C   LIG d   1      11.373  -3.465  -4.164  0.00  0.00    -0.028 A 
ATOM      2  C   LIG d   1      11.453  -4.588  -3.367  0.00  0.00    -0.039 A 
ATOM      3  C   LIG d   1      10.325  -5.072  -2.728  0.00  0.00     0.042 A 
ATOM      4  C   LIG d   1       9.111  -4.424  -2.889  0.00  0.00    -0.036 A 
ATOM      5  C   LIG d   1       9.028  -3.304  -3.683  0.00  0.00     0.005 A 
ATOM      6  C   LIG d   1      10.158  -2.806  -4.327  0.00  0.00     0.042 A 
ATOM      7  N   LIG d   1       9.830  -1.666  -5.065  0.00  0.00    -0.283 N 
ATOM      8  C   LIG d   1       8.525  -1.348  -4.956  0.00  0.00     0.243 A 
ATOM      9  O   LIG d   1       7.960  -0.414  -5.486  0.00  0.00    -0.273 OA
ATOM     10  C   LIG d   1       7.902  -2.385  -4.061  0.00  0.00     0.136 A 
ATOM     11  C   LIG d   1       6.769  -3.142  -4.763  0.00  0.00     0.080 A 
ATOM     12  H   LIG d   1       6.781  -4.210  -4.545  0.00  0.00     0.043 H 
ATOM     13  C   LIG d   1       5.468  -2.444  -4.277  0.00  0.00     0.065 A 
ATOM     14  H   LIG d   1       4.773  -3.130  -3.795  0.00  0.00     0.042 H 
ATOM     15  C   LIG d   1       5.952  -1.326  -3.329  0.00  0.00     0.021 C 
ATOM     16  H   LIG d   1       6.039  -0.382  -3.868  0.00  0.00     0.047 H 
ATOM     17  N   LIG d   1       7.294  -1.757  -2.874  0.00  0.00    -0.295 N 
ATOM     18  C   LIG d   1       4.906  -1.833  -5.541  0.00  0.00     0.227 A 
ATOM     19  O   LIG d   1       3.881  -1.190  -5.612  0.00  0.00    -0.275 OA
ATOM     20  N   LIG d   1       5.716  -2.113  -6.568  0.00  0.00    -0.241 N 
ATOM     21  C   LIG d   1       6.802  -2.853  -6.247  0.00  0.00     0.228 A 
ATOM     22  O   LIG d   1       7.664  -3.227  -7.014  0.00  0.00    -0.275 OA
ATOM     23 CL   LIG d   1      10.431  -6.486  -1.727  0.00  0.00    -0.084 Cl
ATOM     24  H   LIG d   1      12.399  -5.093  -3.242  0.00  0.00     0.064 H 
ATOM     25  H   LIG d   1       8.229  -4.800  -2.391  0.00  0.00     0.064 H 
ATOM     26  H   LIG d   1      10.467  -1.161  -5.594  0.00  0.00     0.155 HD
ATOM     27  H   LIG d   1       7.212  -2.419  -2.117  0.00  0.00     0.123 HD
ENDROOT
BRANCH  15  28
ATOM     28  C   LIG d   1       4.992  -1.176  -2.147  0.00  0.00    -0.029 C 
ATOM     29  H   LIG d   1       4.074  -1.725  -2.353  0.00  0.00     0.029 H 
ATOM     30  H   LIG d   1       5.460  -1.576  -1.246  0.00  0.00     0.029 H 
BRANCH  28  31
ATOM     31  C   LIG d   1       4.666   0.304  -1.938  0.00  0.00     0.025 C 
ATOM     32  H   LIG d   1       4.358   0.465  -0.904  0.00  0.00     0.036 H 
ATOM     33  H   LIG d   1       5.550   0.904  -2.151  0.00  0.00     0.036 H 
BRANCH  31  34
ATOM     34  C   LIG d   1       3.548   0.708  -2.864  0.00  0.00     0.210 C 
ATOM     35  O   LIG d   1       3.545   1.813  -3.363  0.00  0.00    -0.276 OA
ATOM     36  N   LIG d   1       2.553  -0.158  -3.139  0.00  0.00    -0.329 N 
ATOM     37  H   LIG d   1       2.556  -1.042  -2.739  0.00  0.00     0.145 HD
ATOM     38  H   LIG d   1       1.834   0.102  -3.734  0.00  0.00     0.145 HD
ENDBRANCH  31  34
ENDBRANCH  28  31
ENDBRANCH  15  28
BRANCH   1  39
ATOM     39  C   LIG d   1      12.608  -2.947  -4.856  0.00  0.00    -0.038 C 
ATOM     40  H   LIG d   1      12.379  -2.002  -5.349  0.00  0.00     0.028 H 
ATOM     41  H   LIG d   1      13.398  -2.792  -4.122  0.00  0.00     0.028 H 
ATOM     42  H   LIG d   1      12.940  -3.673  -5.599  0.00  0.00     0.028 H 
ENDBRANCH   1  39
BRANCH  20  43
ATOM     43  C   LIG d   1       5.448  -1.660  -7.936  0.00  0.00     0.026 C 
ATOM     44  H   LIG d   1       4.909  -0.713  -7.905  0.00  0.00     0.047 H 
ATOM     45  H   LIG d   1       6.392  -1.524  -8.464  0.00  0.00     0.047 H 
BRANCH  43  46
ATOM     46  C   LIG d   1       4.602  -2.707  -8.663  0.00  0.00    -0.011 C 
ATOM     47  H   LIG d   1       5.186  -3.149  -9.469  0.00  0.00     0.033 H 
ATOM     48  H   LIG d   1       4.303  -3.484  -7.960  0.00  0.00     0.033 H 
BRANCH  46  49
ATOM     49  C   LIG d   1       3.373  -2.048  -9.235  0.00  0.00    -0.046 A 
ATOM     50  C   LIG d   1       3.169  -0.693  -9.057  0.00  0.00    -0.059 A 
ATOM     51  C   LIG d   1       2.044  -0.088  -9.586  0.00  0.00    -0.061 A 
ATOM     52  H   LIG d   1       3.890  -0.106  -8.508  0.00  0.00     0.062 H 
ATOM     53  C   LIG d   1       1.119  -0.840 -10.287  0.00  0.00    -0.062 A 
ATOM     54  H   LIG d   1       1.887   0.972  -9.452  0.00  0.00     0.062 H 
ATOM     55  C   LIG d   1       1.321  -2.196 -10.459  0.00  0.00    -0.061 A 
ATOM     56  H   LIG d   1       0.239  -0.368 -10.698  0.00  0.00     0.062 H 
ATOM     57  C   LIG d   1       2.448  -2.801  -9.934  0.00  0.00    -0.059 A 
ATOM     58  H   LIG d   1       0.599  -2.784 -11.006  0.00  0.00     0.062 H 
ATOM     59  H   LIG d   1       2.605  -3.860 -10.070  0.00  0.00     0.062 H 
ENDBRANCH  46  49
ENDBRANCH  43  46
ENDBRANCH  20  43
TORSDOF 7
ENDMDL
MODEL 5
REMARK VINA RESULT:      -7.4      3.820      5.185
REMARK  7 active torsions:
REMARK  status: ('A' for Active; 'I' for Inactive)
REMARK    1  A    between atoms: C_1  and  C_2 
REMARK    2  A    between atoms: C_16  and  C_19 
REMARK    3  A    between atoms: C_19  and  C_20 
REMARK    4  A    between atoms: C_20  and  C_21 
REMARK       I    between atoms: C_21  and  N_23 
REMARK    5  A    between atoms: N_26  and  C_29 
REMARK    6  A    between atoms: C_29  and  C_30 
REMARK    7  A    between atoms: C_30  and  C_31 
ROOT
ATOM      1  C   LIG d   1       9.854   3.466  -6.036  0.00  0.00    -0.028 A 
ATOM      2  C   LIG d   1      10.608   4.008  -5.016  0.00  0.00    -0.039 A 
ATOM      3  C   LIG d   1      10.386   3.628  -3.705  0.00  0.00     0.042 A 
ATOM      4  C   LIG d   1       9.401   2.698  -3.415  0.00  0.00    -0.036 A 
ATOM      5  C   LIG d   1       8.647   2.154  -4.430  0.00  0.00     0.005 A 
ATOM      6  C   LIG d   1       8.859   2.535  -5.753  0.00  0.00     0.042 A 
ATOM      7  N   LIG d   1       7.974   1.858  -6.597  0.00  0.00    -0.283 N 
ATOM      8  C   LIG d   1       7.155   1.032  -5.918  0.00  0.00     0.243 A 
ATOM      9  O   LIG d   1       6.292   0.321  -6.387  0.00  0.00    -0.273 OA
ATOM     10  C   LIG d   1       7.529   1.152  -4.465  0.00  0.00     0.136 A 
ATOM     11  C   LIG d   1       7.961  -0.194  -3.871  0.00  0.00     0.080 A 
ATOM     12  H   LIG d   1       8.822  -0.103  -3.209  0.00  0.00     0.043 H 
ATOM     13  C   LIG d   1       6.696  -0.726  -3.142  0.00  0.00     0.065 A 
ATOM     14  H   LIG d   1       6.867  -0.925  -2.085  0.00  0.00     0.042 H 
ATOM     15  C   LIG d   1       5.621   0.357  -3.376  0.00  0.00     0.021 C 
ATOM     16  H   LIG d   1       5.006   0.101  -4.240  0.00  0.00     0.047 H 
ATOM     17  N   LIG d   1       6.377   1.598  -3.660  0.00  0.00    -0.295 N 
ATOM     18  C   LIG d   1       6.342  -1.973  -3.922  0.00  0.00     0.227 A 
ATOM     19  O   LIG d   1       5.407  -2.706  -3.683  0.00  0.00    -0.275 OA
ATOM     20  N   LIG d   1       7.223  -2.140  -4.915  0.00  0.00    -0.241 N 
ATOM     21  C   LIG d   1       8.188  -1.195  -4.982  0.00  0.00     0.228 A 
ATOM     22  O   LIG d   1       9.088  -1.149  -5.793  0.00  0.00    -0.275 OA
ATOM     23 CL   LIG d   1      11.339   4.314  -2.426  0.00  0.00    -0.084 Cl
ATOM     24  H   LIG d   1      11.376   4.733  -5.242  0.00  0.00     0.064 H 
ATOM     25  H   LIG d   1       9.226   2.399  -2.392  0.00  0.00     0.064 H 
ATOM     26  H   LIG d   1       7.952   1.971  -7.560  0.00  0.00     0.155 HD
ATOM     27  H   LIG d   1       6.681   2.029  -2.801  0.00  0.00     0.123 HD
ENDROOT
BRANCH  15  28
ATOM     28  C   LIG d   1       4.746   0.518  -2.131  0.00  0.00    -0.029 C 
ATOM     29  H   LIG d   1       4.652  -0.443  -1.626  0.00  0.00     0.029 H 
ATOM     30  H   LIG d   1       5.206   1.240  -1.455  0.00  0.00     0.029 H 
BRANCH  28  31
ATOM     31  C   LIG d   1       3.360   1.016  -2.542  0.00  0.00     0.025 C 
ATOM     32  H   LIG d   1       2.645   0.797  -1.747  0.00  0.00     0.036 H 
ATOM     33  H   LIG d   1       3.395   2.092  -2.710  0.00  0.00     0.036 H 
BRANCH  31  34
ATOM     34  C   LIG d   1       2.931   0.323  -3.809  0.00  0.00     0.210 C 
ATOM     35  O   LIG d   1       2.787   0.961  -4.830  0.00  0.00    -0.276 OA
ATOM     36  N   LIG d   1       2.707  -1.006  -3.808  0.00  0.00    -0.329 N 
ATOM     37  H   LIG d   1       2.821  -1.517  -2.991  0.00  0.00     0.145 HD
ATOM     38  H   LIG d   1       2.431  -1.452  -4.623  0.00  0.00     0.145 HD
ENDBRANCH  31  34
ENDBRANCH  28  31
ENDBRANCH  15  28
BRANCH   1  39
ATOM     39  C   LIG d   1      10.105   3.887  -7.461  0.00  0.00    -0.038 C 
ATOM     40  H   LIG d   1      10.049   3.016  -8.113  0.00  0.00     0.028 H 
ATOM     41  H   LIG d   1       9.352   4.616  -7.762  0.00  0.00     0.028 H 
ATOM     42  H   LIG d   1      11.096   4.336  -7.538  0.00  0.00     0.028 H 
ENDBRANCH   1  39
BRANCH  20  43
ATOM     43  C   LIG d   1       7.153  -3.262  -5.856  0.00  0.00     0.026 C 
ATOM     44  H   LIG d   1       6.143  -3.336  -6.258  0.00  0.00     0.047 H 
ATOM     45  H   LIG d   1       7.858  -3.096  -6.671  0.00  0.00     0.047 H 
BRANCH  43  46
ATOM     46  C   LIG d   1       7.510  -4.560  -5.128  0.00  0.00    -0.011 C 
ATOM     47  H   LIG d   1       6.807  -4.723  -4.312  0.00  0.00     0.033 H 
ATOM     48  H   LIG d   1       7.456  -5.395  -5.827  0.00  0.00     0.033 H 
BRANCH  46  49
ATOM     49  C   LIG d   1       8.908  -4.457  -4.577  0.00  0.00    -0.046 A 
ATOM     50  C   LIG d   1       9.993  -4.477  -5.433  0.00  0.00    -0.059 A 
ATOM     51  C   LIG d   1      11.275  -4.377  -4.927  0.00  0.00    -0.061 A 
ATOM     52  H   LIG d   1       9.838  -4.567  -6.498  0.00  0.00     0.062 H 
ATOM     53  C   LIG d   1      11.474  -4.265  -3.563  0.00  0.00    -0.062 A 
ATOM     54  H   LIG d   1      12.122  -4.387  -5.596  0.00  0.00     0.062 H 
ATOM     55  C   LIG d   1      10.389  -4.251  -2.706  0.00  0.00    -0.061 A 
ATOM     56  H   LIG d   1      12.476  -4.190  -3.168  0.00  0.00     0.062 H 
ATOM     57  C   LIG d   1       9.106  -4.347  -3.213  0.00  0.00    -0.059 A 
ATOM     58  H   LIG d   1      10.543  -4.164  -1.641  0.00  0.00     0.062 H 
ATOM     59  H   LIG d   1       8.259  -4.335  -2.543  0.00  0.00     0.062 H 
ENDBRANCH  46  49
ENDBRANCH  43  46
ENDBRANCH  20  43
TORSDOF 7
ENDMDL
MODEL 6
REMARK VINA RESULT:      -7.1      2.961      7.179
REMARK  7 active torsions:
REMARK  status: ('A' for Active; 'I' for Inactive)
REMARK    1  A    between atoms: C_1  and  C_2 
REMARK    2  A    between atoms: C_16  and  C_19 
REMARK    3  A    between atoms: C_19  and  C_20 
REMARK    4  A    between atoms: C_20  and  C_21 
REMARK       I    between atoms: C_21  and  N_23 
REMARK    5  A    between atoms: N_26  and  C_29 
REMARK    6  A    between atoms: C_29  and  C_30 
REMARK    7  A    between atoms: C_30  and  C_31 
ROOT
ATOM      1  C   LIG d   1      10.130  -2.653  -6.089  0.00  0.00    -0.028 A 
ATOM      2  C   LIG d   1      10.183  -4.014  -5.867  0.00  0.00    -0.039 A 
ATOM      3  C   LIG d   1       9.067  -4.691  -5.409  0.00  0.00     0.042 A 
ATOM      4  C   LIG d   1       7.891  -3.999  -5.172  0.00  0.00    -0.036 A 
ATOM      5  C   LIG d   1       7.834  -2.641  -5.393  0.00  0.00     0.005 A 
ATOM      6  C   LIG d   1       8.953  -1.950  -5.848  0.00  0.00     0.042 A 
ATOM      7  N   LIG d   1       8.656  -0.592  -5.989  0.00  0.00    -0.283 N 
ATOM      8  C   LIG d   1       7.384  -0.311  -5.646  0.00  0.00     0.243 A 
ATOM      9  O   LIG d   1       6.850   0.778  -5.670  0.00  0.00    -0.273 OA
ATOM     10  C   LIG d   1       6.749  -1.614  -5.240  0.00  0.00     0.136 A 
ATOM     11  C   LIG d   1       5.529  -1.951  -6.105  0.00  0.00     0.080 A 
ATOM     12  H   LIG d   1       5.483  -3.006  -6.372  0.00  0.00     0.043 H 
ATOM     13  C   LIG d   1       4.308  -1.493  -5.257  0.00  0.00     0.065 A 
ATOM     14  H   LIG d   1       3.600  -2.298  -5.064  0.00  0.00     0.042 H 
ATOM     15  C   LIG d   1       4.921  -0.918  -3.962  0.00  0.00     0.021 C 
ATOM     16  H   LIG d   1       5.037   0.163  -4.044  0.00  0.00     0.047 H 
ATOM     17  N   LIG d   1       6.256  -1.548  -3.852  0.00  0.00    -0.295 N 
ATOM     18  C   LIG d   1       3.712  -0.373  -6.080  0.00  0.00     0.227 A 
ATOM     19  O   LIG d   1       2.729   0.269  -5.780  0.00  0.00    -0.275 OA
ATOM     20  N   LIG d   1       4.439  -0.203  -7.191  0.00  0.00    -0.241 N 
ATOM     21  C   LIG d   1       5.491  -1.043  -7.314  0.00  0.00     0.228 A 
ATOM     22  O   LIG d   1       6.278  -1.072  -8.236  0.00  0.00    -0.275 OA
ATOM     23 CL   LIG d   1       9.140  -6.403  -5.132  0.00  0.00    -0.084 Cl
ATOM     24  H   LIG d   1      11.100  -4.553  -6.051  0.00  0.00     0.064 H 
ATOM     25  H   LIG d   1       7.018  -4.525  -4.815  0.00  0.00     0.064 H 
ATOM     26  H   LIG d   1       9.292   0.072  -6.299  0.00  0.00     0.155 HD
ATOM     27  H   LIG d   1       6.178  -2.471  -3.452  0.00  0.00     0.123 HD
ENDROOT
BRANCH  15  28
ATOM     28  C   LIG d   1       4.046  -1.268  -2.757  0.00  0.00    -0.029 C 
ATOM     29  H   LIG d   1       3.438  -2.142  -2.991  0.00  0.00     0.029 H 
ATOM     30  H   LIG d   1       4.682  -1.488  -1.898  0.00  0.00     0.029 H 
BRANCH  28  31
ATOM     31  C   LIG d   1       3.134  -0.086  -2.427  0.00  0.00     0.025 C 
ATOM     32  H   LIG d   1       2.363   0.003  -3.192  0.00  0.00     0.036 H 
ATOM     33  H   LIG d   1       2.665  -0.249  -1.456  0.00  0.00     0.036 H 
BRANCH  31  34
ATOM     34  C   LIG d   1       3.948   1.182  -2.385  0.00  0.00     0.210 C 
ATOM     35  O   LIG d   1       4.780   1.339  -1.516  0.00  0.00    -0.276 OA
ATOM     36  N   LIG d   1       3.753   2.139  -3.312  0.00  0.00    -0.329 N 
ATOM     37  H   LIG d   1       3.087   2.014  -4.006  0.00  0.00     0.145 HD
ATOM     38  H   LIG d   1       4.276   2.955  -3.285  0.00  0.00     0.145 HD
ENDBRANCH  31  34
ENDBRANCH  28  31
ENDBRANCH  15  28
BRANCH   1  39
ATOM     39  C   LIG d   1      11.351  -1.925  -6.588  0.00  0.00    -0.038 C 
ATOM     40  H   LIG d   1      11.060  -0.949  -6.974  0.00  0.00     0.028 H 
ATOM     41  H   LIG d   1      12.057  -1.796  -5.768  0.00  0.00     0.028 H 
ATOM     42  H   LIG d   1      11.820  -2.506  -7.382  0.00  0.00     0.028 H 
ENDBRANCH   1  39
BRANCH  20  43
ATOM     43  C   LIG d   1       4.118   0.811  -8.200  0.00  0.00     0.026 C 
ATOM     44  H   LIG d   1       4.081   1.793  -7.728  0.00  0.00     0.047 H 
ATOM     45  H   LIG d   1       4.887   0.808  -8.973  0.00  0.00     0.047 H 
BRANCH  43  46
ATOM     46  C   LIG d   1       2.760   0.494  -8.829  0.00  0.00    -0.011 C 
ATOM     47  H   LIG d   1       2.254  -0.267  -8.234  0.00  0.00     0.033 H 
ATOM     48  H   LIG d   1       2.152   1.397  -8.856  0.00  0.00     0.033 H 
BRANCH  46  49
ATOM     49  C   LIG d   1       2.965  -0.018 -10.231  0.00  0.00    -0.046 A 
ATOM     50  C   LIG d   1       4.110   0.317 -10.928  0.00  0.00    -0.059 A 
ATOM     51  C   LIG d   1       4.300  -0.156 -12.213  0.00  0.00    -0.061 A 
ATOM     52  H   LIG d   1       4.858   0.945 -10.468  0.00  0.00     0.062 H 
ATOM     53  C   LIG d   1       3.341  -0.957 -12.804  0.00  0.00    -0.062 A 
ATOM     54  H   LIG d   1       5.197   0.101 -12.756  0.00  0.00     0.062 H 
ATOM     55  C   LIG d   1       2.193  -1.287 -12.108  0.00  0.00    -0.061 A 
ATOM     56  H   LIG d   1       3.488  -1.325 -13.809  0.00  0.00     0.062 H 
ATOM     57  C   LIG d   1       2.005  -0.818 -10.822  0.00  0.00    -0.059 A 
ATOM     58  H   LIG d   1       1.443  -1.913 -12.569  0.00  0.00     0.062 H 
ATOM     59  H   LIG d   1       1.108  -1.076 -10.278  0.00  0.00     0.062 H 
ENDBRANCH  46  49
ENDBRANCH  43  46
ENDBRANCH  20  43
TORSDOF 7
ENDMDL
MODEL 7
REMARK VINA RESULT:      -7.1      3.177      6.074
REMARK  7 active torsions:
REMARK  status: ('A' for Active; 'I' for Inactive)
REMARK    1  A    between atoms: C_1  and  C_2 
REMARK    2  A    between atoms: C_16  and  C_19 
REMARK    3  A    between atoms: C_19  and  C_20 
REMARK    4  A    between atoms: C_20  and  C_21 
REMARK       I    between atoms: C_21  and  N_23 
REMARK    5  A    between atoms: N_26  and  C_29 
REMARK    6  A    between atoms: C_29  and  C_30 
REMARK    7  A    between atoms: C_30  and  C_31 
ROOT
ATOM      1  C   LIG d   1       4.262   1.584  -9.651  0.00  0.00    -0.028 A 
ATOM      2  C   LIG d   1       3.918   1.171 -10.922  0.00  0.00    -0.039 A 
ATOM      3  C   LIG d   1       4.426  -0.009 -11.434  0.00  0.00     0.042 A 
ATOM      4  C   LIG d   1       5.286  -0.779 -10.667  0.00  0.00    -0.036 A 
ATOM      5  C   LIG d   1       5.631  -0.370  -9.399  0.00  0.00     0.005 A 
ATOM      6  C   LIG d   1       5.129   0.819  -8.876  0.00  0.00     0.042 A 
ATOM      7  N   LIG d   1       5.622   1.025  -7.586  0.00  0.00    -0.283 N 
ATOM      8  C   LIG d   1       6.449   0.035  -7.194  0.00  0.00     0.243 A 
ATOM      9  O   LIG d   1       7.020  -0.051  -6.127  0.00  0.00    -0.273 OA
ATOM     10  C   LIG d   1       6.515  -0.948  -8.331  0.00  0.00     0.136 A 
ATOM     11  C   LIG d   1       6.047  -2.345  -7.908  0.00  0.00     0.080 A 
ATOM     12  H   LIG d   1       5.429  -2.827  -8.666  0.00  0.00     0.043 H 
ATOM     13  C   LIG d   1       7.358  -3.127  -7.616  0.00  0.00     0.065 A 
ATOM     14  H   LIG d   1       7.454  -4.033  -8.213  0.00  0.00     0.042 H 
ATOM     15  C   LIG d   1       8.491  -2.113  -7.888  0.00  0.00     0.021 C 
ATOM     16  H   LIG d   1       8.793  -1.624  -6.962  0.00  0.00     0.047 H 
ATOM     17  N   LIG d   1       7.901  -1.111  -8.805  0.00  0.00    -0.295 N 
ATOM     18  C   LIG d   1       7.273  -3.410  -6.133  0.00  0.00     0.227 A 
ATOM     19  O   LIG d   1       8.103  -4.010  -5.485  0.00  0.00    -0.275 OA
ATOM     20  N   LIG d   1       6.138  -2.894  -5.647  0.00  0.00    -0.241 N 
ATOM     21  C   LIG d   1       5.361  -2.271  -6.562  0.00  0.00     0.228 A 
ATOM     22  O   LIG d   1       4.293  -1.738  -6.349  0.00  0.00    -0.275 OA
ATOM     23 CL   LIG d   1       3.990  -0.524 -13.034  0.00  0.00    -0.084 Cl
ATOM     24  H   LIG d   1       3.248   1.771 -11.520  0.00  0.00     0.064 H 
ATOM     25  H   LIG d   1       5.685  -1.701 -11.065  0.00  0.00     0.064 H 
ATOM     26  H   LIG d   1       5.397   1.791  -7.036  0.00  0.00     0.155 HD
ATOM     27  H   LIG d   1       7.921  -1.449  -9.755  0.00  0.00     0.123 HD
ENDROOT
BRANCH  15  28
ATOM     28  C   LIG d   1       9.688  -2.813  -8.534  0.00  0.00    -0.029 C 
ATOM     29  H   LIG d   1       9.564  -3.893  -8.456  0.00  0.00     0.029 H 
ATOM     30  H   LIG d   1       9.751  -2.529  -9.585  0.00  0.00     0.029 H 
BRANCH  28  31
ATOM     31  C   LIG d   1      10.972  -2.395  -7.815  0.00  0.00     0.025 C 
ATOM     32  H   LIG d   1      11.805  -2.413  -8.520  0.00  0.00     0.036 H 
ATOM     33  H   LIG d   1      10.855  -1.387  -7.418  0.00  0.00     0.036 H 
BRANCH  31  34
ATOM     34  C   LIG d   1      11.250  -3.352  -6.685  0.00  0.00     0.210 C 
ATOM     35  O   LIG d   1      11.699  -4.454  -6.920  0.00  0.00    -0.276 OA
ATOM     36  N   LIG d   1      11.002  -2.982  -5.413  0.00  0.00    -0.329 N 
ATOM     37  H   LIG d   1      10.643  -2.100  -5.225  0.00  0.00     0.145 HD
ATOM     38  H   LIG d   1      11.181  -3.597  -4.685  0.00  0.00     0.145 HD
ENDBRANCH  31  34
ENDBRANCH  28  31
ENDBRANCH  15  28
BRANCH   1  39
ATOM     39  C   LIG d   1       3.702   2.871  -9.103  0.00  0.00    -0.038 C 
ATOM     40  H   LIG d   1       4.291   3.187  -8.244  0.00  0.00     0.028 H 
ATOM     41  H   LIG d   1       3.740   3.641  -9.874  0.00  0.00     0.028 H 
ATOM     42  H   LIG d   1       2.667   2.715  -8.797  0.00  0.00     0.028 H 
ENDBRANCH   1  39
BRANCH  20  43
ATOM     43  C   LIG d   1       5.760  -3.000  -4.235  0.00  0.00     0.026 C 
ATOM     44  H   LIG d   1       4.678  -2.903  -4.140  0.00  0.00     0.047 H 
ATOM     45  H   LIG d   1       6.074  -3.969  -3.847  0.00  0.00     0.047 H 
BRANCH  43  46
ATOM     46  C   LIG d   1       6.443  -1.885  -3.439  0.00  0.00    -0.011 C 
ATOM     47  H   LIG d   1       6.902  -2.306  -2.545  0.00  0.00     0.033 H 
ATOM     48  H   LIG d   1       7.211  -1.418  -4.056  0.00  0.00     0.033 H 
BRANCH  46  49
ATOM     49  C   LIG d   1       5.420  -0.853  -3.042  0.00  0.00    -0.046 A 
ATOM     50  C   LIG d   1       4.104  -1.226  -2.841  0.00  0.00    -0.059 A 
ATOM     51  C   LIG d   1       3.167  -0.279  -2.472  0.00  0.00    -0.061 A 
ATOM     52  H   LIG d   1       3.810  -2.257  -2.968  0.00  0.00     0.062 H 
ATOM     53  C   LIG d   1       3.543   1.041  -2.312  0.00  0.00    -0.062 A 
ATOM     54  H   LIG d   1       2.140  -0.571  -2.309  0.00  0.00     0.062 H 
ATOM     55  C   LIG d   1       4.858   1.415  -2.520  0.00  0.00    -0.061 A 
ATOM     56  H   LIG d   1       2.810   1.781  -2.026  0.00  0.00     0.062 H 
ATOM     57  C   LIG d   1       5.796   0.468  -2.884  0.00  0.00    -0.059 A 
ATOM     58  H   LIG d   1       5.152   2.446  -2.395  0.00  0.00     0.062 H 
ATOM     59  H   LIG d   1       6.824   0.759  -3.046  0.00  0.00     0.062 H 
ENDBRANCH  46  49
ENDBRANCH  43  46
ENDBRANCH  20  43
TORSDOF 7
ENDMDL
MODEL 8
REMARK VINA RESULT:      -7.0      3.417      5.582
REMARK  7 active torsions:
REMARK  status: ('A' for Active; 'I' for Inactive)
REMARK    1  A    between atoms: C_1  and  C_2 
REMARK    2  A    between atoms: C_16  and  C_19 
REMARK    3  A    between atoms: C_19  and  C_20 
REMARK    4  A    between atoms: C_20  and  C_21 
REMARK       I    between atoms: C_21  and  N_23 
REMARK    5  A    between atoms: N_26  and  C_29 
REMARK    6  A    between atoms: C_29  and  C_30 
REMARK    7  A    between atoms: C_30  and  C_31 
ROOT
ATOM      1  C   LIG d   1       5.738  -6.437  -7.156  0.00  0.00    -0.028 A 
ATOM      2  C   LIG d   1       4.781  -6.563  -8.142  0.00  0.00    -0.039 A 
ATOM      3  C   LIG d   1       3.902  -5.526  -8.398  0.00  0.00     0.042 A 
ATOM      4  C   LIG d   1       3.983  -4.357  -7.660  0.00  0.00    -0.036 A 
ATOM      5  C   LIG d   1       4.936  -4.228  -6.675  0.00  0.00     0.005 A 
ATOM      6  C   LIG d   1       5.822  -5.268  -6.406  0.00  0.00     0.042 A 
ATOM      7  N   LIG d   1       6.685  -4.909  -5.367  0.00  0.00    -0.283 N 
ATOM      8  C   LIG d   1       6.433  -3.670  -4.901  0.00  0.00     0.243 A 
ATOM      9  O   LIG d   1       7.021  -3.099  -4.008  0.00  0.00    -0.273 OA
ATOM     10  C   LIG d   1       5.288  -3.129  -5.713  0.00  0.00     0.136 A 
ATOM     11  C   LIG d   1       5.665  -1.838  -6.448  0.00  0.00     0.080 A 
ATOM     12  H   LIG d   1       5.271  -1.803  -7.464  0.00  0.00     0.043 H 
ATOM     13  C   LIG d   1       5.111  -0.697  -5.549  0.00  0.00     0.065 A 
ATOM     14  H   LIG d   1       4.417  -0.042  -6.074  0.00  0.00     0.042 H 
ATOM     15  C   LIG d   1       4.456  -1.421  -4.353  0.00  0.00     0.021 C 
ATOM     16  H   LIG d   1       5.156  -1.488  -3.520  0.00  0.00     0.047 H 
ATOM     17  N   LIG d   1       4.146  -2.782  -4.847  0.00  0.00    -0.295 N 
ATOM     18  C   LIG d   1       6.359   0.022  -5.088  0.00  0.00     0.227 A 
ATOM     19  O   LIG d   1       6.380   0.991  -4.360  0.00  0.00    -0.275 OA
ATOM     20  N   LIG d   1       7.435  -0.578  -5.610  0.00  0.00    -0.241 N 
ATOM     21  C   LIG d   1       7.164  -1.641  -6.400  0.00  0.00     0.228 A 
ATOM     22  O   LIG d   1       7.979  -2.328  -6.978  0.00  0.00    -0.275 OA
ATOM     23 CL   LIG d   1       2.702  -5.690  -9.641  0.00  0.00    -0.084 Cl
ATOM     24  H   LIG d   1       4.719  -7.475  -8.718  0.00  0.00     0.064 H 
ATOM     25  H   LIG d   1       3.298  -3.545  -7.858  0.00  0.00     0.064 H 
ATOM     26  H   LIG d   1       7.385  -5.485  -5.022  0.00  0.00     0.155 HD
ATOM     27  H   LIG d   1       3.283  -2.779  -5.369  0.00  0.00     0.123 HD
ENDROOT
BRANCH  15  28
ATOM     28  C   LIG d   1       3.184  -0.690  -3.920  0.00  0.00    -0.029 C 
ATOM     29  H   LIG d   1       3.069   0.221  -4.507  0.00  0.00     0.029 H 
ATOM     30  H   LIG d   1       2.320  -1.337  -4.081  0.00  0.00     0.029 H 
BRANCH  28  31
ATOM     31  C   LIG d   1       3.281  -0.331  -2.436  0.00  0.00     0.025 C 
ATOM     32  H   LIG d   1       2.279  -0.289  -2.007  0.00  0.00     0.036 H 
ATOM     33  H   LIG d   1       3.867  -1.088  -1.917  0.00  0.00     0.036 H 
BRANCH  31  34
ATOM     34  C   LIG d   1       3.948   1.012  -2.286  0.00  0.00     0.210 C 
ATOM     35  O   LIG d   1       4.668   1.227  -1.335  0.00  0.00    -0.276 OA
ATOM     36  N   LIG d   1       3.746   1.972  -3.210  0.00  0.00    -0.329 N 
ATOM     37  H   LIG d   1       3.169   1.800  -3.971  0.00  0.00     0.145 HD
ATOM     38  H   LIG d   1       4.175   2.836  -3.113  0.00  0.00     0.145 HD
ENDBRANCH  31  34
ENDBRANCH  28  31
ENDBRANCH  15  28
BRANCH   1  39
ATOM     39  C   LIG d   1       6.691  -7.573  -6.885  0.00  0.00    -0.038 C 
ATOM     40  H   LIG d   1       6.791  -7.715  -5.810  0.00  0.00     0.028 H 
ATOM     41  H   LIG d   1       6.305  -8.487  -7.338  0.00  0.00     0.028 H 
ATOM     42  H   LIG d   1       7.666  -7.339  -7.314  0.00  0.00     0.028 H 
ENDBRANCH   1  39
BRANCH  20  43
ATOM     43  C   LIG d   1       8.803  -0.118  -5.351  0.00  0.00     0.026 C 
ATOM     44  H   LIG d   1       8.904   0.144  -4.298  0.00  0.00     0.047 H 
ATOM     45  H   LIG d   1       9.506  -0.913  -5.598  0.00  0.00     0.047 H 
BRANCH  43  46
ATOM     46  C   LIG d   1       9.099   1.111  -6.213  0.00  0.00    -0.011 C 
ATOM     47  H   LIG d   1       9.969   0.914  -6.839  0.00  0.00     0.033 H 
ATOM     48  H   LIG d   1       8.238   1.327  -6.845  0.00  0.00     0.033 H 
BRANCH  46  49
ATOM     49  C   LIG d   1       9.378   2.293  -5.322  0.00  0.00    -0.046 A 
ATOM     50  C   LIG d   1       9.384   3.571  -5.850  0.00  0.00    -0.059 A 
ATOM     51  C   LIG d   1       9.636   4.656  -5.030  0.00  0.00    -0.061 A 
ATOM     52  H   LIG d   1       9.189   3.722  -6.901  0.00  0.00     0.062 H 
ATOM     53  C   LIG d   1       9.889   4.463  -3.685  0.00  0.00    -0.062 A 
ATOM     54  H   LIG d   1       9.635   5.654  -5.441  0.00  0.00     0.062 H 
ATOM     55  C   LIG d   1       9.889   3.184  -3.159  0.00  0.00    -0.061 A 
ATOM     56  H   LIG d   1      10.088   5.310  -3.046  0.00  0.00     0.062 H 
ATOM     57  C   LIG d   1       9.633   2.100  -3.977  0.00  0.00    -0.059 A 
ATOM     58  H   LIG d   1      10.087   3.033  -2.109  0.00  0.00     0.062 H 
ATOM     59  H   LIG d   1       9.633   1.101  -3.566  0.00  0.00     0.062 H 
ENDBRANCH  46  49
ENDBRANCH  43  46
ENDBRANCH  20  43
TORSDOF 7
ENDMDL
MODEL 9
REMARK VINA RESULT:      -6.7      3.003      4.185
REMARK  7 active torsions:
REMARK  status: ('A' for Active; 'I' for Inactive)
REMARK    1  A    between atoms: C_1  and  C_2 
REMARK    2  A    between atoms: C_16  and  C_19 
REMARK    3  A    between atoms: C_19  and  C_20 
REMARK    4  A    between atoms: C_20  and  C_21 
REMARK       I    between atoms: C_21  and  N_23 
REMARK    5  A    between atoms: N_26  and  C_29 
REMARK    6  A    between atoms: C_29  and  C_30 
REMARK    7  A    between atoms: C_30  and  C_31 
ROOT
ATOM      1  C   LIG d   1       8.681   1.837  -7.020  0.00  0.00    -0.028 A 
ATOM      2  C   LIG d   1       9.176   2.559  -5.954  0.00  0.00    -0.039 A 
ATOM      3  C   LIG d   1       8.737   2.297  -4.669  0.00  0.00     0.042 A 
ATOM      4  C   LIG d   1       7.794   1.305  -4.452  0.00  0.00    -0.036 A 
ATOM      5  C   LIG d   1       7.298   0.583  -5.513  0.00  0.00     0.005 A 
ATOM      6  C   LIG d   1       7.729   0.843  -6.812  0.00  0.00     0.042 A 
ATOM      7  N   LIG d   1       7.083  -0.006  -7.714  0.00  0.00    -0.283 N 
ATOM      8  C   LIG d   1       6.219  -0.838  -7.100  0.00  0.00     0.243 A 
ATOM      9  O   LIG d   1       5.523  -1.679  -7.628  0.00  0.00    -0.273 OA
ATOM     10  C   LIG d   1       6.294  -0.529  -5.629  0.00  0.00     0.136 A 
ATOM     11  C   LIG d   1       6.712  -1.752  -4.806  0.00  0.00     0.080 A 
ATOM     12  H   LIG d   1       7.418  -1.504  -4.014  0.00  0.00     0.043 H 
ATOM     13  C   LIG d   1       5.378  -2.334  -4.260  0.00  0.00     0.065 A 
ATOM     14  H   LIG d   1       5.358  -2.402  -3.173  0.00  0.00     0.042 H 
ATOM     15  C   LIG d   1       4.283  -1.399  -4.818  0.00  0.00     0.021 C 
ATOM     16  H   LIG d   1       3.870  -1.806  -5.741  0.00  0.00     0.047 H 
ATOM     17  N   LIG d   1       4.975  -0.123  -5.109  0.00  0.00    -0.295 N 
ATOM     18  C   LIG d   1       5.285  -3.685  -4.933  0.00  0.00     0.227 A 
ATOM     19  O   LIG d   1       4.385  -4.483  -4.782  0.00  0.00    -0.275 OA
ATOM     20  N   LIG d   1       6.352  -3.863  -5.721  0.00  0.00    -0.241 N 
ATOM     21  C   LIG d   1       7.231  -2.835  -5.726  0.00  0.00     0.228 A 
ATOM     22  O   LIG d   1       8.264  -2.781  -6.359  0.00  0.00    -0.275 OA
ATOM     23 CL   LIG d   1       9.365   3.208  -3.331  0.00  0.00    -0.084 Cl
ATOM     24  H   LIG d   1       9.911   3.332  -6.123  0.00  0.00     0.064 H 
ATOM     25  H   LIG d   1       7.450   1.098  -3.450  0.00  0.00     0.064 H 
ATOM     26  H   LIG d   1       7.238   0.002  -8.671  0.00  0.00     0.155 HD
ATOM     27  H   LIG d   1       5.071   0.425  -4.267  0.00  0.00     0.123 HD
ENDROOT
BRANCH  15  28
ATOM     28  C   LIG d   1       3.175  -1.200  -3.782  0.00  0.00    -0.029 C 
ATOM     29  H   LIG d   1       2.203  -1.289  -4.268  0.00  0.00     0.029 H 
ATOM     30  H   LIG d   1       3.263  -1.960  -3.005  0.00  0.00     0.029 H 
BRANCH  28  31
ATOM     31  C   LIG d   1       3.305   0.188  -3.154  0.00  0.00     0.025 C 
ATOM     32  H   LIG d   1       3.752   0.873  -3.876  0.00  0.00     0.036 H 
ATOM     33  H   LIG d   1       2.318   0.553  -2.872  0.00  0.00     0.036 H 
BRANCH  31  34
ATOM     34  C   LIG d   1       4.180   0.107  -1.930  0.00  0.00     0.210 C 
ATOM     35  O   LIG d   1       4.405  -0.968  -1.417  0.00  0.00    -0.276 OA
ATOM     36  N   LIG d   1       4.713   1.228  -1.407  0.00  0.00    -0.329 N 
ATOM     37  H   LIG d   1       4.533   2.089  -1.818  0.00  0.00     0.145 HD
ATOM     38  H   LIG d   1       5.276   1.176  -0.619  0.00  0.00     0.145 HD
ENDBRANCH  31  34
ENDBRANCH  28  31
ENDBRANCH  15  28
BRANCH   1  39
ATOM     39  C   LIG d   1       9.166   2.131  -8.416  0.00  0.00    -0.038 C 
ATOM     40  H   LIG d   1       8.592   2.958  -8.834  0.00  0.00     0.028 H 
ATOM     41  H   LIG d   1      10.222   2.400  -8.385  0.00  0.00     0.028 H 
ATOM     42  H   LIG d   1       9.035   1.247  -9.040  0.00  0.00     0.028 H 
ENDBRANCH   1  39
BRANCH  20  43
ATOM     43  C   LIG d   1       6.557  -5.079  -6.515  0.00  0.00     0.026 C 
ATOM     44  H   LIG d   1       5.607  -5.597  -6.637  0.00  0.00     0.047 H 
ATOM     45  H   LIG d   1       6.953  -4.809  -7.494  0.00  0.00     0.047 H 
BRANCH  43  46
ATOM     46  C   LIG d   1       7.551  -5.994  -5.796  0.00  0.00    -0.011 C 
ATOM     47  H   LIG d   1       8.341  -6.285  -6.488  0.00  0.00     0.033 H 
ATOM     48  H   LIG d   1       7.986  -5.464  -4.950  0.00  0.00     0.033 H 
BRANCH  46  49
ATOM     49  C   LIG d   1       6.834  -7.224  -5.305  0.00  0.00    -0.046 A 
ATOM     50  C   LIG d   1       5.518  -7.447  -5.664  0.00  0.00    -0.059 A 
ATOM     51  C   LIG d   1       4.861  -8.579  -5.217  0.00  0.00    -0.061 A 
ATOM     52  H   LIG d   1       5.004  -6.739  -6.297  0.00  0.00     0.062 H 
ATOM     53  C   LIG d   1       5.518  -9.483  -4.404  0.00  0.00    -0.062 A 
ATOM     54  H   LIG d   1       3.835  -8.756  -5.502  0.00  0.00     0.062 H 
ATOM     55  C   LIG d   1       6.832  -9.257  -4.040  0.00  0.00    -0.061 A 
ATOM     56  H   LIG d   1       5.004 -10.366  -4.053  0.00  0.00     0.062 H 
ATOM     57  C   LIG d   1       7.490  -8.128  -4.490  0.00  0.00    -0.059 A 
ATOM     58  H   LIG d   1       7.345  -9.963  -3.404  0.00  0.00     0.062 H 
ATOM     59  H   LIG d   1       8.517  -7.952  -4.206  0.00  0.00     0.062 H 
ENDBRANCH  46  49
ENDBRANCH  43  46
ENDBRANCH  20  43
TORSDOF 7
ENDMDL
