MODEL 1
REMARK VINA RESULT:      -6.8      0.000      0.000
REMARK  4 active torsions:
REMARK  status: ('A' for Active; 'I' for Inactive)
REMARK    1  A    between atoms: C_1  and  C_2 
REMARK    2  A    between atoms: C_5  and  C_14 
REMARK    3  A    between atoms: C_12  and  C_13 
REMARK    4  A    between atoms: C_15  and  C_25 
ROOT
ATOM      1  C   LIG d   1       5.508   0.149  -2.763  0.00  0.00    -0.047 A 
ATOM      2  C   LIG d   1       6.644   0.643  -3.365  0.00  0.00    -0.047 A 
ATOM      3  C   LIG d   1       7.513  -0.230  -4.021  0.00  0.00     0.029 A 
ATOM      4  C   LIG d   1       8.739   0.266  -4.676  0.00  0.00     0.035 A 
ATOM      5  C   LIG d   1       9.553  -0.659  -5.307  0.00  0.00     0.034 A 
ATOM      6  C   LIG d   1       9.191  -2.016  -5.301  0.00  0.00     0.338 A 
ATOM      7  O   LIG d   1       9.912  -2.824  -5.859  0.00  0.00    -0.245 OA
ATOM      8  O   LIG d   1       8.071  -2.447  -4.700  0.00  0.00    -0.422 OA
ATOM      9  C   LIG d   1       7.229  -1.603  -4.065  0.00  0.00     0.140 A 
ATOM     10  C   LIG d   1       6.081  -2.082  -3.447  0.00  0.00    -0.015 A 
ATOM     11  C   LIG d   1       5.227  -1.207  -2.806  0.00  0.00    -0.044 A 
ATOM     12  H   LIG d   1       6.862   1.700  -3.329  0.00  0.00     0.063 H 
ATOM     13  H   LIG d   1      10.459  -0.340  -5.800  0.00  0.00     0.070 H 
ATOM     14  H   LIG d   1       5.854  -3.137  -3.472  0.00  0.00     0.066 H 
ENDROOT
BRANCH   4  15
ATOM     15  C   LIG d   1       9.084   1.696  -4.660  0.00  0.00     0.140 A 
ATOM     16  O   LIG d   1       9.607   2.357  -3.607  0.00  0.00    -0.453 OA
ATOM     17  C   LIG d   1       9.814   3.654  -3.909  0.00  0.00     0.154 A 
ATOM     18  C   LIG d   1       9.392   3.855  -5.236  0.00  0.00     0.026 A 
ATOM     19  C   LIG d   1      10.323   4.730  -3.190  0.00  0.00     0.085 A 
ATOM     20  C   LIG d   1       8.918   2.552  -5.702  0.00  0.00     0.003 A 
ATOM     21  C   LIG d   1       9.487   5.121  -5.818  0.00  0.00    -0.032 A 
ATOM     22  C   LIG d   1       9.991   6.165  -5.092  0.00  0.00     0.043 A 
ATOM     23  H   LIG d   1       9.164   5.276  -6.837  0.00  0.00     0.064 H 
ATOM     24  C   LIG d   1      10.408   5.974  -3.781  0.00  0.00    -0.021 A 
ATOM     25 CL   LIG d   1      10.109   7.739  -5.814  0.00  0.00    -0.084 Cl
ATOM     26  H   LIG d   1      10.804   6.806  -3.220  0.00  0.00     0.065 H 
ATOM     27 CL   LIG d   1      10.848   4.509  -1.549  0.00  0.00    -0.080 Cl
BRANCH  20  28
ATOM     28  C   LIG d   1       8.361   2.224  -7.063  0.00  0.00    -0.035 C 
ATOM     29  H   LIG d   1       8.997   2.664  -7.832  0.00  0.00     0.028 H 
ATOM     30  H   LIG d   1       8.329   1.143  -7.193  0.00  0.00     0.028 H 
ATOM     31  H   LIG d   1       7.353   2.631  -7.150  0.00  0.00     0.028 H 
ENDBRANCH  20  28
ENDBRANCH   4  15
BRANCH   1  32
ATOM     32  C   LIG d   1       4.566   1.088  -2.053  0.00  0.00    -0.039 C 
ATOM     33  H   LIG d   1       4.799   2.116  -2.332  0.00  0.00     0.028 H 
ATOM     34  H   LIG d   1       3.540   0.857  -2.338  0.00  0.00     0.028 H 
ATOM     35  H   LIG d   1       4.680   0.971  -0.975  0.00  0.00     0.028 H 
ENDBRANCH   1  32
BRANCH  11  36
ATOM     36  C   LIG d   1       3.981  -1.733  -2.142  0.00  0.00    -0.039 C 
ATOM     37  H   LIG d   1       3.475  -0.919  -1.622  0.00  0.00     0.028 H 
ATOM     38  H   LIG d   1       3.315  -2.151  -2.897  0.00  0.00     0.028 H 
ATOM     39  H   LIG d   1       4.251  -2.509  -1.426  0.00  0.00     0.028 H 
ENDBRANCH  11  36
TORSDOF 4
ENDMDL
MODEL 2
REMARK VINA RESULT:      -6.7      4.892      8.125
REMARK  4 active torsions:
REMARK  status: ('A' for Active; 'I' for Inactive)
REMARK    1  A    between atoms: C_1  and  C_2 
REMARK    2  A    between atoms: C_5  and  C_14 
REMARK    3  A    between atoms: C_12  and  C_13 
REMARK    4  A    between atoms: C_15  and  C_25 
ROOT
ATOM      1  C   LIG d   1       5.176  -1.176  -2.698  0.00  0.00    -0.047 A 
ATOM      2  C   LIG d   1       6.133  -1.926  -3.346  0.00  0.00    -0.047 A 
ATOM      3  C   LIG d   1       7.211  -1.288  -3.960  0.00  0.00     0.029 A 
ATOM      4  C   LIG d   1       8.253  -2.062  -4.663  0.00  0.00     0.035 A 
ATOM      5  C   LIG d   1       9.294  -1.360  -5.249  0.00  0.00     0.034 A 
ATOM      6  C   LIG d   1       9.319   0.041  -5.158  0.00  0.00     0.338 A 
ATOM      7  O   LIG d   1      10.237   0.652  -5.676  0.00  0.00    -0.245 OA
ATOM      8  O   LIG d   1       8.361   0.727  -4.515  0.00  0.00    -0.422 OA
ATOM      9  C   LIG d   1       7.318   0.110  -3.919  0.00  0.00     0.140 A 
ATOM     10  C   LIG d   1       6.339   0.849  -3.266  0.00  0.00    -0.015 A 
ATOM     11  C   LIG d   1       5.281   0.206  -2.657  0.00  0.00    -0.044 A 
ATOM     12  H   LIG d   1       6.050  -3.002  -3.378  0.00  0.00     0.063 H 
ATOM     13  H   LIG d   1      10.078  -1.886  -5.772  0.00  0.00     0.070 H 
ATOM     14  H   LIG d   1       6.409   1.926  -3.230  0.00  0.00     0.066 H 
ENDROOT
BRANCH   4  15
ATOM     15  C   LIG d   1       8.191  -3.530  -4.736  0.00  0.00     0.140 A 
ATOM     16  O   LIG d   1       7.465  -4.232  -5.630  0.00  0.00    -0.453 OA
ATOM     17  C   LIG d   1       7.621  -5.558  -5.440  0.00  0.00     0.154 A 
ATOM     18  C   LIG d   1       8.494  -5.731  -4.350  0.00  0.00     0.026 A 
ATOM     19  C   LIG d   1       7.104  -6.679  -6.078  0.00  0.00     0.085 A 
ATOM     20  C   LIG d   1       8.852  -4.382  -3.910  0.00  0.00     0.003 A 
ATOM     21  C   LIG d   1       8.835  -7.017  -3.922  0.00  0.00    -0.032 A 
ATOM     22  C   LIG d   1       8.314  -8.106  -4.566  0.00  0.00     0.043 A 
ATOM     23  H   LIG d   1       9.506  -7.150  -3.086  0.00  0.00     0.064 H 
ATOM     24  C   LIG d   1       7.451  -7.941  -5.641  0.00  0.00    -0.021 A 
ATOM     25 CL   LIG d   1       8.736  -9.703  -4.035  0.00  0.00    -0.084 Cl
ATOM     26  H   LIG d   1       7.048  -8.809  -6.140  0.00  0.00     0.065 H 
ATOM     27 CL   LIG d   1       6.022  -6.492  -7.424  0.00  0.00    -0.080 Cl
BRANCH  20  28
ATOM     28  C   LIG d   1       9.768  -4.014  -2.772  0.00  0.00    -0.035 C 
ATOM     29  H   LIG d   1       9.396  -4.456  -1.848  0.00  0.00     0.028 H 
ATOM     30  H   LIG d   1      10.771  -4.389  -2.976  0.00  0.00     0.028 H 
ATOM     31  H   LIG d   1       9.800  -2.929  -2.668  0.00  0.00     0.028 H 
ENDBRANCH  20  28
ENDBRANCH   4  15
BRANCH   1  32
ATOM     32  C   LIG d   1       4.010  -1.860  -2.033  0.00  0.00    -0.039 C 
ATOM     33  H   LIG d   1       3.598  -1.210  -1.262  0.00  0.00     0.028 H 
ATOM     34  H   LIG d   1       3.242  -2.074  -2.777  0.00  0.00     0.028 H 
ATOM     35  H   LIG d   1       4.346  -2.793  -1.579  0.00  0.00     0.028 H 
ENDBRANCH   1  32
BRANCH  11  36
ATOM     36  C   LIG d   1       4.225   1.013  -1.947  0.00  0.00    -0.039 C 
ATOM     37  H   LIG d   1       4.685   1.890  -1.490  0.00  0.00     0.028 H 
ATOM     38  H   LIG d   1       3.468   1.332  -2.663  0.00  0.00     0.028 H 
ATOM     39  H   LIG d   1       3.760   0.402  -1.173  0.00  0.00     0.028 H 
ENDBRANCH  11  36
TORSDOF 4
ENDMDL
MODEL 3
REMARK VINA RESULT:      -6.7      4.587      7.702
REMARK  4 active torsions:
REMARK  status: ('A' for Active; 'I' for Inactive)
REMARK    1  A    between atoms: C_1  and  C_2 
REMARK    2  A    between atoms: C_5  and  C_14 
REMARK    3  A    between atoms: C_12  and  C_13 
REMARK    4  A    between atoms: C_15  and  C_25 
ROOT
ATOM      1  C   LIG d   1       5.112  -1.093  -2.685  0.00  0.00    -0.047 A 
ATOM      2  C   LIG d   1       6.137  -1.801  -3.275  0.00  0.00    -0.047 A 
ATOM      3  C   LIG d   1       7.180  -1.115  -3.898  0.00  0.00     0.029 A 
ATOM      4  C   LIG d   1       8.293  -1.842  -4.539  0.00  0.00     0.035 A 
ATOM      5  C   LIG d   1       9.293  -1.095  -5.138  0.00  0.00     0.034 A 
ATOM      6  C   LIG d   1       9.214   0.308  -5.117  0.00  0.00     0.338 A 
ATOM      7  O   LIG d   1      10.097   0.959  -5.646  0.00  0.00    -0.245 OA
ATOM      8  O   LIG d   1       8.193   0.950  -4.529  0.00  0.00    -0.422 OA
ATOM      9  C   LIG d   1       7.183   0.288  -3.925  0.00  0.00     0.140 A 
ATOM     10  C   LIG d   1       6.138   0.983  -3.330  0.00  0.00    -0.015 A 
ATOM     11  C   LIG d   1       5.115   0.293  -2.712  0.00  0.00    -0.044 A 
ATOM     12  H   LIG d   1       6.134  -2.880  -3.255  0.00  0.00     0.063 H 
ATOM     13  H   LIG d   1      10.126  -1.585  -5.618  0.00  0.00     0.070 H 
ATOM     14  H   LIG d   1       6.128   2.062  -3.347  0.00  0.00     0.066 H 
ENDROOT
BRANCH   4  15
ATOM     15  C   LIG d   1       8.340  -3.312  -4.540  0.00  0.00     0.140 A 
ATOM     16  O   LIG d   1       8.996  -4.069  -3.636  0.00  0.00    -0.453 OA
ATOM     17  C   LIG d   1       8.844  -5.381  -3.906  0.00  0.00     0.154 A 
ATOM     18  C   LIG d   1       8.047  -5.487  -5.061  0.00  0.00     0.026 A 
ATOM     19  C   LIG d   1       9.307  -6.539  -3.293  0.00  0.00     0.085 A 
ATOM     20  C   LIG d   1       7.731  -4.113  -5.453  0.00  0.00     0.003 A 
ATOM     21  C   LIG d   1       7.728  -6.745  -5.579  0.00  0.00    -0.032 A 
ATOM     22  C   LIG d   1       8.194  -7.872  -4.959  0.00  0.00     0.043 A 
ATOM     23  H   LIG d   1       7.115  -6.827  -6.465  0.00  0.00     0.064 H 
ATOM     24  C   LIG d   1       8.981  -7.773  -3.819  0.00  0.00    -0.021 A 
ATOM     25 CL   LIG d   1       7.798  -9.435  -5.601  0.00  0.00    -0.084 Cl
ATOM     26  H   LIG d   1       9.342  -8.670  -3.340  0.00  0.00     0.065 H 
ATOM     27 CL   LIG d   1      10.294  -6.435  -1.868  0.00  0.00    -0.080 Cl
BRANCH  20  28
ATOM     28  C   LIG d   1       6.900  -3.676  -6.631  0.00  0.00    -0.035 C 
ATOM     29  H   LIG d   1       7.520  -3.105  -7.322  0.00  0.00     0.028 H 
ATOM     30  H   LIG d   1       6.501  -4.553  -7.140  0.00  0.00     0.028 H 
ATOM     31  H   LIG d   1       6.076  -3.052  -6.282  0.00  0.00     0.028 H 
ENDBRANCH  20  28
ENDBRANCH   4  15
BRANCH   1  32
ATOM     32  C   LIG d   1       3.984  -1.829  -2.011  0.00  0.00    -0.039 C 
ATOM     33  H   LIG d   1       3.070  -1.239  -2.084  0.00  0.00     0.028 H 
ATOM     34  H   LIG d   1       3.835  -2.792  -2.500  0.00  0.00     0.028 H 
ATOM     35  H   LIG d   1       4.229  -1.987  -0.960  0.00  0.00     0.028 H 
ENDBRANCH   1  32
BRANCH  11  36
ATOM     36  C   LIG d   1       3.986   1.053  -2.064  0.00  0.00    -0.039 C 
ATOM     37  H   LIG d   1       3.280   0.350  -1.624  0.00  0.00     0.028 H 
ATOM     38  H   LIG d   1       4.386   1.702  -1.285  0.00  0.00     0.028 H 
ATOM     39  H   LIG d   1       3.478   1.658  -2.815  0.00  0.00     0.028 H 
ENDBRANCH  11  36
TORSDOF 4
ENDMDL
MODEL 4
REMARK VINA RESULT:      -6.4      6.248      7.931
REMARK  4 active torsions:
REMARK  status: ('A' for Active; 'I' for Inactive)
REMARK    1  A    between atoms: C_1  and  C_2 
REMARK    2  A    between atoms: C_5  and  C_14 
REMARK    3  A    between atoms: C_12  and  C_13 
REMARK    4  A    between atoms: C_15  and  C_25 
ROOT
ATOM      1  C   LIG d   1       3.832  -0.289  -3.886  0.00  0.00    -0.047 A 
ATOM      2  C   LIG d   1       4.087  -0.504  -5.223  0.00  0.00    -0.047 A 
ATOM      3  C   LIG d   1       5.381  -0.334  -5.715  0.00  0.00     0.029 A 
ATOM      4  C   LIG d   1       5.687  -0.556  -7.142  0.00  0.00     0.035 A 
ATOM      5  C   LIG d   1       6.995  -0.368  -7.559  0.00  0.00     0.034 A 
ATOM      6  C   LIG d   1       7.968   0.023  -6.624  0.00  0.00     0.338 A 
ATOM      7  O   LIG d   1       9.116   0.186  -6.998  0.00  0.00    -0.245 OA
ATOM      8  O   LIG d   1       7.669   0.219  -5.331  0.00  0.00    -0.422 OA
ATOM      9  C   LIG d   1       6.417   0.055  -4.852  0.00  0.00     0.140 A 
ATOM     10  C   LIG d   1       6.139   0.273  -3.509  0.00  0.00    -0.015 A 
ATOM     11  C   LIG d   1       4.855   0.096  -3.033  0.00  0.00    -0.044 A 
ATOM     12  H   LIG d   1       3.288  -0.802  -5.887  0.00  0.00     0.063 H 
ATOM     13  H   LIG d   1       7.264  -0.520  -8.593  0.00  0.00     0.070 H 
ATOM     14  H   LIG d   1       6.927   0.575  -2.836  0.00  0.00     0.066 H 
ENDROOT
BRANCH   4  15
ATOM     15  C   LIG d   1       4.639  -0.965  -8.090  0.00  0.00     0.140 A 
ATOM     16  O   LIG d   1       4.252  -2.237  -8.317  0.00  0.00    -0.453 OA
ATOM     17  C   LIG d   1       3.268  -2.282  -9.238  0.00  0.00     0.154 A 
ATOM     18  C   LIG d   1       3.003  -0.960  -9.642  0.00  0.00     0.026 A 
ATOM     19  C   LIG d   1       2.542  -3.322  -9.807  0.00  0.00     0.085 A 
ATOM     20  C   LIG d   1       3.918  -0.119  -8.871  0.00  0.00     0.003 A 
ATOM     21  C   LIG d   1       2.022  -0.704 -10.604  0.00  0.00    -0.032 A 
ATOM     22  C   LIG d   1       1.320  -1.744 -11.150  0.00  0.00     0.043 A 
ATOM     23  H   LIG d   1       1.818   0.310 -10.914  0.00  0.00     0.064 H 
ATOM     24  C   LIG d   1       1.577  -3.050 -10.755  0.00  0.00    -0.021 A 
ATOM     25 CL   LIG d   1       0.101  -1.427 -12.343  0.00  0.00    -0.084 Cl
ATOM     26  H   LIG d   1       1.016  -3.861 -11.194  0.00  0.00     0.065 H 
ATOM     27 CL   LIG d   1       2.851  -4.962  -9.326  0.00  0.00    -0.080 Cl
BRANCH  20  28
ATOM     28  C   LIG d   1       4.037   1.382  -8.931  0.00  0.00    -0.035 C 
ATOM     29  H   LIG d   1       4.020   1.707  -9.972  0.00  0.00     0.028 H 
ATOM     30  H   LIG d   1       3.202   1.835  -8.396  0.00  0.00     0.028 H 
ATOM     31  H   LIG d   1       4.975   1.691  -8.470  0.00  0.00     0.028 H 
ENDBRANCH  20  28
ENDBRANCH   4  15
BRANCH   1  32
ATOM     32  C   LIG d   1       2.436  -0.471  -3.349  0.00  0.00    -0.039 C 
ATOM     33  H   LIG d   1       2.465  -0.491  -2.260  0.00  0.00     0.028 H 
ATOM     34  H   LIG d   1       1.809   0.357  -3.681  0.00  0.00     0.028 H 
ATOM     35  H   LIG d   1       2.024  -1.410  -3.718  0.00  0.00     0.028 H 
ENDBRANCH   1  32
BRANCH  11  36
ATOM     36  C   LIG d   1       4.562   0.329  -1.574  0.00  0.00    -0.039 C 
ATOM     37  H   LIG d   1       4.917  -0.522  -0.991  0.00  0.00     0.028 H 
ATOM     38  H   LIG d   1       5.070   1.234  -1.241  0.00  0.00     0.028 H 
ATOM     39  H   LIG d   1       3.487   0.442  -1.432  0.00  0.00     0.028 H 
ENDBRANCH  11  36
TORSDOF 4
ENDMDL
MODEL 5
REMARK VINA RESULT:      -6.4      6.056      8.243
REMARK  4 active torsions:
REMARK  status: ('A' for Active; 'I' for Inactive)
REMARK    1  A    between atoms: C_1  and  C_2 
REMARK    2  A    between atoms: C_5  and  C_14 
REMARK    3  A    between atoms: C_12  and  C_13 
REMARK    4  A    between atoms: C_15  and  C_25 
ROOT
ATOM      1  C   LIG d   1       3.979  -0.359  -3.650  0.00  0.00    -0.047 A 
ATOM      2  C   LIG d   1       4.265  -0.806  -4.922  0.00  0.00    -0.047 A 
ATOM      3  C   LIG d   1       5.518  -0.551  -5.478  0.00  0.00     0.029 A 
ATOM      4  C   LIG d   1       5.856  -1.015  -6.838  0.00  0.00     0.035 A 
ATOM      5  C   LIG d   1       7.120  -0.725  -7.324  0.00  0.00     0.034 A 
ATOM      6  C   LIG d   1       8.022  -0.010  -6.519  0.00  0.00     0.338 A 
ATOM      7  O   LIG d   1       9.132   0.242  -6.953  0.00  0.00    -0.245 OA
ATOM      8  O   LIG d   1       7.696   0.404  -5.285  0.00  0.00    -0.422 OA
ATOM      9  C   LIG d   1       6.482   0.158  -4.745  0.00  0.00     0.140 A 
ATOM     10  C   LIG d   1       6.173   0.605  -3.466  0.00  0.00    -0.015 A 
ATOM     11  C   LIG d   1       4.931   0.341  -2.925  0.00  0.00    -0.044 A 
ATOM     12  H   LIG d   1       3.521  -1.350  -5.485  0.00  0.00     0.063 H 
ATOM     13  H   LIG d   1       7.410  -1.046  -8.313  0.00  0.00     0.070 H 
ATOM     14  H   LIG d   1       6.906   1.153  -2.894  0.00  0.00     0.066 H 
ENDROOT
BRANCH   4  15
ATOM     15  C   LIG d   1       4.883  -1.762  -7.649  0.00  0.00     0.140 A 
ATOM     16  O   LIG d   1       3.874  -1.211  -8.354  0.00  0.00    -0.453 OA
ATOM     17  C   LIG d   1       3.161  -2.159  -8.995  0.00  0.00     0.154 A 
ATOM     18  C   LIG d   1       3.734  -3.406  -8.681  0.00  0.00     0.026 A 
ATOM     19  C   LIG d   1       2.052  -2.115  -9.832  0.00  0.00     0.085 A 
ATOM     20  C   LIG d   1       4.862  -3.113  -7.797  0.00  0.00     0.003 A 
ATOM     21  C   LIG d   1       3.190  -4.580  -9.208  0.00  0.00    -0.032 A 
ATOM     22  C   LIG d   1       2.098  -4.512 -10.030  0.00  0.00     0.043 A 
ATOM     23  H   LIG d   1       3.629  -5.537  -8.969  0.00  0.00     0.064 H 
ATOM     24  C   LIG d   1       1.528  -3.284 -10.343  0.00  0.00    -0.021 A 
ATOM     25 CL   LIG d   1       1.421  -5.969 -10.686  0.00  0.00    -0.084 Cl
ATOM     26  H   LIG d   1       0.667  -3.245 -10.992  0.00  0.00     0.065 H 
ATOM     27 CL   LIG d   1       1.326  -0.589 -10.232  0.00  0.00    -0.080 Cl
BRANCH  20  28
ATOM     28  C   LIG d   1       5.808  -4.107  -7.176  0.00  0.00    -0.035 C 
ATOM     29  H   LIG d   1       6.693  -4.208  -7.805  0.00  0.00     0.028 H 
ATOM     30  H   LIG d   1       6.104  -3.760  -6.186  0.00  0.00     0.028 H 
ATOM     31  H   LIG d   1       5.313  -5.075  -7.089  0.00  0.00     0.028 H 
ENDBRANCH  20  28
ENDBRANCH   4  15
BRANCH   1  32
ATOM     32  C   LIG d   1       2.627  -0.631  -3.044  0.00  0.00    -0.039 C 
ATOM     33  H   LIG d   1       2.657  -0.421  -1.975  0.00  0.00     0.028 H 
ATOM     34  H   LIG d   1       1.881   0.007  -3.520  0.00  0.00     0.028 H 
ATOM     35  H   LIG d   1       2.362  -1.678  -3.201  0.00  0.00     0.028 H 
ENDBRANCH   1  32
BRANCH  11  36
ATOM     36  C   LIG d   1       4.605   0.825  -1.536  0.00  0.00    -0.039 C 
ATOM     37  H   LIG d   1       5.085   0.176  -0.803  0.00  0.00     0.028 H 
ATOM     38  H   LIG d   1       4.969   1.845  -1.411  0.00  0.00     0.028 H 
ATOM     39  H   LIG d   1       3.525   0.804  -1.388  0.00  0.00     0.028 H 
ENDBRANCH  11  36
TORSDOF 4
ENDMDL
MODEL 6
REMARK VINA RESULT:      -6.1      5.351      6.772
REMARK  4 active torsions:
REMARK  status: ('A' for Active; 'I' for Inactive)
REMARK    1  A    between atoms: C_1  and  C_2 
REMARK    2  A    between atoms: C_5  and  C_14 
REMARK    3  A    between atoms: C_12  and  C_13 
REMARK    4  A    between atoms: C_15  and  C_25 
ROOT
ATOM      1  C   LIG d   1       2.632  -0.729  -9.782  0.00  0.00    -0.047 A 
ATOM      2  C   LIG d   1       3.381  -1.096  -8.685  0.00  0.00    -0.047 A 
ATOM      3  C   LIG d   1       3.526  -2.447  -8.369  0.00  0.00     0.029 A 
ATOM      4  C   LIG d   1       4.321  -2.873  -7.200  0.00  0.00     0.035 A 
ATOM      5  C   LIG d   1       4.421  -4.232  -6.948  0.00  0.00     0.034 A 
ATOM      6  C   LIG d   1       3.772  -5.141  -7.799  0.00  0.00     0.338 A 
ATOM      7  O   LIG d   1       3.865  -6.334  -7.572  0.00  0.00    -0.245 OA
ATOM      8  O   LIG d   1       3.054  -4.733  -8.857  0.00  0.00    -0.422 OA
ATOM      9  C   LIG d   1       2.912  -3.426  -9.165  0.00  0.00     0.140 A 
ATOM     10  C   LIG d   1       2.157  -3.036 -10.264  0.00  0.00    -0.015 A 
ATOM     11  C   LIG d   1       2.025  -1.696 -10.568  0.00  0.00    -0.044 A 
ATOM     12  H   LIG d   1       3.851  -0.341  -8.072  0.00  0.00     0.063 H 
ATOM     13  H   LIG d   1       4.993  -4.588  -6.105  0.00  0.00     0.070 H 
ATOM     14  H   LIG d   1       1.678  -3.780 -10.881  0.00  0.00     0.066 H 
ENDROOT
BRANCH   4  15
ATOM     15  C   LIG d   1       4.985  -1.889  -6.333  0.00  0.00     0.140 A 
ATOM     16  O   LIG d   1       4.462  -1.371  -5.202  0.00  0.00    -0.453 OA
ATOM     17  C   LIG d   1       5.317  -0.499  -4.632  0.00  0.00     0.154 A 
ATOM     18  C   LIG d   1       6.464  -0.436  -5.445  0.00  0.00     0.026 A 
ATOM     19  C   LIG d   1       5.256   0.283  -3.484  0.00  0.00     0.085 A 
ATOM     20  C   LIG d   1       6.217  -1.360  -6.552  0.00  0.00     0.003 A 
ATOM     21  C   LIG d   1       7.526   0.402  -5.095  0.00  0.00    -0.032 A 
ATOM     22  C   LIG d   1       7.445   1.162  -3.960  0.00  0.00     0.043 A 
ATOM     23  H   LIG d   1       8.408   0.450  -5.717  0.00  0.00     0.064 H 
ATOM     24  C   LIG d   1       6.314   1.105  -3.155  0.00  0.00    -0.021 A 
ATOM     25 CL   LIG d   1       8.763   2.203  -3.524  0.00  0.00    -0.084 Cl
ATOM     26  H   LIG d   1       6.264   1.710  -2.263  0.00  0.00     0.065 H 
ATOM     27 CL   LIG d   1       3.850   0.226  -2.467  0.00  0.00    -0.080 Cl
BRANCH  20  28
ATOM     28  C   LIG d   1       7.142  -1.663  -7.702  0.00  0.00    -0.035 C 
ATOM     29  H   LIG d   1       6.658  -1.389  -8.640  0.00  0.00     0.028 H 
ATOM     30  H   LIG d   1       8.063  -1.092  -7.589  0.00  0.00     0.028 H 
ATOM     31  H   LIG d   1       7.373  -2.728  -7.711  0.00  0.00     0.028 H 
ENDBRANCH  20  28
ENDBRANCH   4  15
BRANCH   1  32
ATOM     32  C   LIG d   1       2.471   0.728 -10.128  0.00  0.00    -0.039 C 
ATOM     33  H   LIG d   1       3.044   1.334  -9.426  0.00  0.00     0.028 H 
ATOM     34  H   LIG d   1       2.835   0.904 -11.140  0.00  0.00     0.028 H 
ATOM     35  H   LIG d   1       1.418   1.003 -10.067  0.00  0.00     0.028 H 
ENDBRANCH   1  32
BRANCH  11  36
ATOM     36  C   LIG d   1       1.209  -1.280 -11.765  0.00  0.00    -0.039 C 
ATOM     37  H   LIG d   1       0.460  -2.044 -11.977  0.00  0.00     0.028 H 
ATOM     38  H   LIG d   1       0.712  -0.334 -11.554  0.00  0.00     0.028 H 
ATOM     39  H   LIG d   1       1.863  -1.163 -12.628  0.00  0.00     0.028 H 
ENDBRANCH  11  36
TORSDOF 4
ENDMDL
MODEL 7
REMARK VINA RESULT:      -6.0      3.088      7.133
REMARK  4 active torsions:
REMARK  status: ('A' for Active; 'I' for Inactive)
REMARK    1  A    between atoms: C_1  and  C_2 
REMARK    2  A    between atoms: C_5  and  C_14 
REMARK    3  A    between atoms: C_12  and  C_13 
REMARK    4  A    between atoms: C_15  and  C_25 
ROOT
ATOM      1  C   LIG d   1       9.161   3.488  -7.739  0.00  0.00    -0.047 A 
ATOM      2  C   LIG d   1       8.838   2.878  -6.547  0.00  0.00    -0.047 A 
ATOM      3  C   LIG d   1       9.500   3.254  -5.378  0.00  0.00     0.029 A 
ATOM      4  C   LIG d   1       9.178   2.620  -4.084  0.00  0.00     0.035 A 
ATOM      5  C   LIG d   1       9.875   3.045  -2.965  0.00  0.00     0.034 A 
ATOM      6  C   LIG d   1      10.850   4.048  -3.099  0.00  0.00     0.338 A 
ATOM      7  O   LIG d   1      11.460   4.417  -2.111  0.00  0.00    -0.245 OA
ATOM      8  O   LIG d   1      11.128   4.612  -4.284  0.00  0.00    -0.422 OA
ATOM      9  C   LIG d   1      10.488   4.249  -5.417  0.00  0.00     0.140 A 
ATOM     10  C   LIG d   1      10.803   4.848  -6.630  0.00  0.00    -0.015 A 
ATOM     11  C   LIG d   1      10.138   4.470  -7.779  0.00  0.00    -0.044 A 
ATOM     12  H   LIG d   1       8.078   2.111  -6.517  0.00  0.00     0.063 H 
ATOM     13  H   LIG d   1       9.672   2.610  -1.999  0.00  0.00     0.070 H 
ATOM     14  H   LIG d   1      11.564   5.612  -6.674  0.00  0.00     0.066 H 
ENDROOT
BRANCH   4  15
ATOM     15  C   LIG d   1       8.150   1.573  -3.985  0.00  0.00     0.140 A 
ATOM     16  O   LIG d   1       6.940   1.724  -3.408  0.00  0.00    -0.453 OA
ATOM     17  C   LIG d   1       6.226   0.583  -3.483  0.00  0.00     0.154 A 
ATOM     18  C   LIG d   1       7.021  -0.373  -4.140  0.00  0.00     0.026 A 
ATOM     19  C   LIG d   1       4.954   0.226  -3.051  0.00  0.00     0.085 A 
ATOM     20  C   LIG d   1       8.277   0.306  -4.458  0.00  0.00     0.003 A 
ATOM     21  C   LIG d   1       6.531  -1.664  -4.355  0.00  0.00    -0.032 A 
ATOM     22  C   LIG d   1       5.276  -1.994  -3.922  0.00  0.00     0.043 A 
ATOM     23  H   LIG d   1       7.141  -2.399  -4.860  0.00  0.00     0.064 H 
ATOM     24  C   LIG d   1       4.487  -1.054  -3.271  0.00  0.00    -0.021 A 
ATOM     25 CL   LIG d   1       4.666  -3.597  -4.188  0.00  0.00    -0.084 Cl
ATOM     26  H   LIG d   1       3.499  -1.327  -2.935  0.00  0.00     0.065 H 
ATOM     27 CL   LIG d   1       3.954   1.388  -2.235  0.00  0.00    -0.080 Cl
BRANCH  20  28
ATOM     28  C   LIG d   1       9.470  -0.281  -5.167  0.00  0.00    -0.035 C 
ATOM     29  H   LIG d   1      10.351  -0.195  -4.531  0.00  0.00     0.028 H 
ATOM     30  H   LIG d   1       9.283  -1.332  -5.386  0.00  0.00     0.028 H 
ATOM     31  H   LIG d   1       9.641   0.259  -6.099  0.00  0.00     0.028 H 
ENDBRANCH  20  28
ENDBRANCH   4  15
BRANCH   1  32
ATOM     32  C   LIG d   1       8.450   3.085  -9.005  0.00  0.00    -0.039 C 
ATOM     33  H   LIG d   1       7.479   3.577  -9.049  0.00  0.00     0.028 H 
ATOM     34  H   LIG d   1       9.048   3.381  -9.867  0.00  0.00     0.028 H 
ATOM     35  H   LIG d   1       8.309   2.003  -9.014  0.00  0.00     0.028 H 
ENDBRANCH   1  32
BRANCH  11  36
ATOM     36  C   LIG d   1      10.482   5.128  -9.090  0.00  0.00    -0.039 C 
ATOM     37  H   LIG d   1      10.560   6.206  -8.947  0.00  0.00     0.028 H 
ATOM     38  H   LIG d   1      11.433   4.740  -9.453  0.00  0.00     0.028 H 
ATOM     39  H   LIG d   1       9.700   4.915  -9.820  0.00  0.00     0.028 H 
ENDBRANCH  11  36
TORSDOF 4
ENDMDL
MODEL 8
REMARK VINA RESULT:      -6.0      1.572      2.458
REMARK  4 active torsions:
REMARK  status: ('A' for Active; 'I' for Inactive)
REMARK    1  A    between atoms: C_1  and  C_2 
REMARK    2  A    between atoms: C_5  and  C_14 
REMARK    3  A    between atoms: C_12  and  C_13 
REMARK    4  A    between atoms: C_15  and  C_25 
ROOT
ATOM      1  C   LIG d   1       5.675   0.417  -3.169  0.00  0.00    -0.047 A 
ATOM      2  C   LIG d   1       6.778   0.758  -3.921  0.00  0.00    -0.047 A 
ATOM      3  C   LIG d   1       7.678  -0.232  -4.315  0.00  0.00     0.029 A 
ATOM      4  C   LIG d   1       8.869   0.099  -5.121  0.00  0.00     0.035 A 
ATOM      5  C   LIG d   1       9.717  -0.937  -5.476  0.00  0.00     0.034 A 
ATOM      6  C   LIG d   1       9.420  -2.246  -5.061  0.00  0.00     0.338 A 
ATOM      7  O   LIG d   1      10.171  -3.152  -5.376  0.00  0.00    -0.245 OA
ATOM      8  O   LIG d   1       8.332  -2.526  -4.328  0.00  0.00    -0.422 OA
ATOM      9  C   LIG d   1       7.459  -1.568  -3.946  0.00  0.00     0.140 A 
ATOM     10  C   LIG d   1       6.345  -1.891  -3.182  0.00  0.00    -0.015 A 
ATOM     11  C   LIG d   1       5.460  -0.902  -2.803  0.00  0.00    -0.044 A 
ATOM     12  H   LIG d   1       6.946   1.787  -4.204  0.00  0.00     0.063 H 
ATOM     13  H   LIG d   1      10.600  -0.740  -6.065  0.00  0.00     0.070 H 
ATOM     14  H   LIG d   1       6.168  -2.915  -2.890  0.00  0.00     0.066 H 
ENDROOT
BRANCH   4  15
ATOM     15  C   LIG d   1       9.145   1.483  -5.536  0.00  0.00     0.140 A 
ATOM     16  O   LIG d   1       8.999   1.961  -6.789  0.00  0.00    -0.453 OA
ATOM     17  C   LIG d   1       9.328   3.268  -6.846  0.00  0.00     0.154 A 
ATOM     18  C   LIG d   1       9.721   3.663  -5.554  0.00  0.00     0.026 A 
ATOM     19  C   LIG d   1       9.348   4.201  -7.876  0.00  0.00     0.085 A 
ATOM     20  C   LIG d   1       9.590   2.471  -4.717  0.00  0.00     0.003 A 
ATOM     21  C   LIG d   1      10.124   4.980  -5.316  0.00  0.00    -0.032 A 
ATOM     22  C   LIG d   1      10.135   5.882  -6.344  0.00  0.00     0.043 A 
ATOM     23  H   LIG d   1      10.425   5.285  -4.324  0.00  0.00     0.064 H 
ATOM     24  C   LIG d   1       9.749   5.496  -7.622  0.00  0.00    -0.021 A 
ATOM     25 CL   LIG d   1      10.635   7.518  -6.050  0.00  0.00    -0.084 Cl
ATOM     26  H   LIG d   1       9.763   6.219  -8.424  0.00  0.00     0.065 H 
ATOM     27 CL   LIG d   1       8.871   3.737  -9.479  0.00  0.00    -0.080 Cl
BRANCH  20  28
ATOM     28  C   LIG d   1       9.887   2.361  -3.244  0.00  0.00    -0.035 C 
ATOM     29  H   LIG d   1      10.923   2.052  -3.103  0.00  0.00     0.028 H 
ATOM     30  H   LIG d   1       9.728   3.328  -2.767  0.00  0.00     0.028 H 
ATOM     31  H   LIG d   1       9.224   1.621  -2.794  0.00  0.00     0.028 H 
ENDBRANCH  20  28
ENDBRANCH   4  15
BRANCH   1  32
ATOM     32  C   LIG d   1       4.701   1.484  -2.740  0.00  0.00    -0.039 C 
ATOM     33  H   LIG d   1       5.010   2.445  -3.150  0.00  0.00     0.028 H 
ATOM     34  H   LIG d   1       3.705   1.234  -3.108  0.00  0.00     0.028 H 
ATOM     35  H   LIG d   1       4.682   1.543  -1.651  0.00  0.00     0.028 H 
ENDBRANCH   1  32
BRANCH  11  36
ATOM     36  C   LIG d   1       4.250  -1.260  -1.979  0.00  0.00    -0.039 C 
ATOM     37  H   LIG d   1       3.354  -1.177  -2.594  0.00  0.00     0.028 H 
ATOM     38  H   LIG d   1       4.347  -2.283  -1.616  0.00  0.00     0.028 H 
ATOM     39  H   LIG d   1       4.173  -0.579  -1.131  0.00  0.00     0.028 H 
ENDBRANCH  11  36
TORSDOF 4
ENDMDL
MODEL 9
REMARK VINA RESULT:      -5.9      3.914      8.250
REMARK  4 active torsions:
REMARK  status: ('A' for Active; 'I' for Inactive)
REMARK    1  A    between atoms: C_1  and  C_2 
REMARK    2  A    between atoms: C_5  and  C_14 
REMARK    3  A    between atoms: C_12  and  C_13 
REMARK    4  A    between atoms: C_15  and  C_25 
ROOT
ATOM      1  C   LIG d   1      10.026   8.508  -3.846  0.00  0.00    -0.047 A 
ATOM      2  C   LIG d   1      10.238   7.233  -3.369  0.00  0.00    -0.047 A 
ATOM      3  C   LIG d   1      10.509   7.040  -2.014  0.00  0.00     0.029 A 
ATOM      4  C   LIG d   1      10.741   5.687  -1.470  0.00  0.00     0.035 A 
ATOM      5  C   LIG d   1      11.003   5.572  -0.115  0.00  0.00     0.034 A 
ATOM      6  C   LIG d   1      11.041   6.729   0.682  0.00  0.00     0.338 A 
ATOM      7  O   LIG d   1      11.272   6.620   1.873  0.00  0.00    -0.245 OA
ATOM      8  O   LIG d   1      10.827   7.950   0.168  0.00  0.00    -0.422 OA
ATOM      9  C   LIG d   1      10.565   8.139  -1.144  0.00  0.00     0.140 A 
ATOM     10  C   LIG d   1      10.354   9.417  -1.646  0.00  0.00    -0.015 A 
ATOM     11  C   LIG d   1      10.082   9.594  -2.987  0.00  0.00    -0.044 A 
ATOM     12  H   LIG d   1      10.196   6.387  -4.040  0.00  0.00     0.063 H 
ATOM     13  H   LIG d   1      11.178   4.602   0.325  0.00  0.00     0.070 H 
ATOM     14  H   LIG d   1      10.397  10.270  -0.986  0.00  0.00     0.066 H 
ENDROOT
BRANCH   4  15
ATOM     15  C   LIG d   1      10.693   4.500  -2.338  0.00  0.00     0.140 A 
ATOM     16  O   LIG d   1       9.581   3.791  -2.622  0.00  0.00    -0.453 OA
ATOM     17  C   LIG d   1       9.865   2.764  -3.449  0.00  0.00     0.154 A 
ATOM     18  C   LIG d   1      11.247   2.801  -3.713  0.00  0.00     0.026 A 
ATOM     19  C   LIG d   1       9.091   1.764  -4.025  0.00  0.00     0.085 A 
ATOM     20  C   LIG d   1      11.762   3.951  -2.970  0.00  0.00     0.003 A 
ATOM     21  C   LIG d   1      11.827   1.840  -4.546  0.00  0.00    -0.032 A 
ATOM     22  C   LIG d   1      11.046   0.865  -5.103  0.00  0.00     0.043 A 
ATOM     23  H   LIG d   1      12.887   1.868  -4.750  0.00  0.00     0.064 H 
ATOM     24  C   LIG d   1       9.682   0.824  -4.845  0.00  0.00    -0.021 A 
ATOM     25 CL   LIG d   1      11.765  -0.328  -6.138  0.00  0.00    -0.084 Cl
ATOM     26  H   LIG d   1       9.077   0.049  -5.291  0.00  0.00     0.065 H 
ATOM     27 CL   LIG d   1       7.384   1.696  -3.713  0.00  0.00    -0.080 Cl
BRANCH  20  28
ATOM     28  C   LIG d   1      13.190   4.430  -2.919  0.00  0.00    -0.035 C 
ATOM     29  H   LIG d   1      13.500   4.756  -3.911  0.00  0.00     0.028 H 
ATOM     30  H   LIG d   1      13.270   5.263  -2.221  0.00  0.00     0.028 H 
ATOM     31  H   LIG d   1      13.834   3.615  -2.587  0.00  0.00     0.028 H 
ENDBRANCH  20  28
ENDBRANCH   4  15
BRANCH   1  32
ATOM     32  C   LIG d   1       9.734   8.722  -5.309  0.00  0.00    -0.039 C 
ATOM     33  H   LIG d   1       8.706   9.064  -5.428  0.00  0.00     0.028 H 
ATOM     34  H   LIG d   1      10.416   9.473  -5.709  0.00  0.00     0.028 H 
ATOM     35  H   LIG d   1       9.870   7.784  -5.848  0.00  0.00     0.028 H 
ENDBRANCH   1  32
BRANCH  11  36
ATOM     36  C   LIG d   1       9.849  10.983  -3.524  0.00  0.00    -0.039 C 
ATOM     37  H   LIG d   1       8.779  11.183  -3.562  0.00  0.00     0.028 H 
ATOM     38  H   LIG d   1      10.331  11.710  -2.871  0.00  0.00     0.028 H 
ATOM     39  H   LIG d   1      10.270  11.060  -4.526  0.00  0.00     0.028 H 
ENDBRANCH  11  36
TORSDOF 4
ENDMDL
MODEL 10
REMARK VINA RESULT:      -5.9      5.491      8.393
REMARK  4 active torsions:
REMARK  status: ('A' for Active; 'I' for Inactive)
REMARK    1  A    between atoms: C_1  and  C_2 
REMARK    2  A    between atoms: C_5  and  C_14 
REMARK    3  A    between atoms: C_12  and  C_13 
REMARK    4  A    between atoms: C_15  and  C_25 
ROOT
ATOM      1  C   LIG d   1       4.577  -1.194  -3.105  0.00  0.00    -0.047 A 
ATOM      2  C   LIG d   1       5.191  -2.027  -4.016  0.00  0.00    -0.047 A 
ATOM      3  C   LIG d   1       6.462  -1.707  -4.495  0.00  0.00     0.029 A 
ATOM      4  C   LIG d   1       7.148  -2.577  -5.471  0.00  0.00     0.035 A 
ATOM      5  C   LIG d   1       8.408  -2.196  -5.901  0.00  0.00     0.034 A 
ATOM      6  C   LIG d   1       8.980  -1.014  -5.404  0.00  0.00     0.338 A 
ATOM      7  O   LIG d   1      10.088  -0.685  -5.787  0.00  0.00    -0.245 OA
ATOM      8  O   LIG d   1       8.340  -0.236  -4.517  0.00  0.00    -0.422 OA
ATOM      9  C   LIG d   1       7.109  -0.544  -4.052  0.00  0.00     0.140 A 
ATOM     10  C   LIG d   1       6.471   0.285  -3.138  0.00  0.00    -0.015 A 
ATOM     11  C   LIG d   1       5.216  -0.045  -2.668  0.00  0.00    -0.044 A 
ATOM     12  H   LIG d   1       4.692  -2.921  -4.357  0.00  0.00     0.063 H 
ATOM     13  H   LIG d   1       8.946  -2.803  -6.614  0.00  0.00     0.070 H 
ATOM     14  H   LIG d   1       6.958   1.184  -2.792  0.00  0.00     0.066 H 
ENDROOT
BRANCH   4  15
ATOM     15  C   LIG d   1       6.515  -3.808  -5.968  0.00  0.00     0.140 A 
ATOM     16  O   LIG d   1       6.669  -5.034  -5.426  0.00  0.00    -0.453 OA
ATOM     17  C   LIG d   1       5.956  -5.953  -6.107  0.00  0.00     0.154 A 
ATOM     18  C   LIG d   1       5.304  -5.289  -7.162  0.00  0.00     0.026 A 
ATOM     19  C   LIG d   1       5.780  -7.324  -5.957  0.00  0.00     0.085 A 
ATOM     20  C   LIG d   1       5.690  -3.883  -7.044  0.00  0.00     0.003 A 
ATOM     21  C   LIG d   1       4.491  -6.005  -8.044  0.00  0.00    -0.032 A 
ATOM     22  C   LIG d   1       4.331  -7.354  -7.878  0.00  0.00     0.043 A 
ATOM     23  H   LIG d   1       3.989  -5.496  -8.854  0.00  0.00     0.064 H 
ATOM     24  C   LIG d   1       4.973  -8.014  -6.838  0.00  0.00    -0.021 A 
ATOM     25 CL   LIG d   1       3.321  -8.244  -8.972  0.00  0.00    -0.084 Cl
ATOM     26  H   LIG d   1       4.839  -9.079  -6.718  0.00  0.00     0.065 H 
ATOM     27 CL   LIG d   1       6.576  -8.167  -4.664  0.00  0.00    -0.080 Cl
BRANCH  20  28
ATOM     28  C   LIG d   1       5.258  -2.748  -7.936  0.00  0.00    -0.035 C 
ATOM     29  H   LIG d   1       5.286  -1.814  -7.375  0.00  0.00     0.028 H 
ATOM     30  H   LIG d   1       5.932  -2.679  -8.790  0.00  0.00     0.028 H 
ATOM     31  H   LIG d   1       4.242  -2.929  -8.289  0.00  0.00     0.028 H 
ENDBRANCH  20  28
ENDBRANCH   4  15
BRANCH   1  32
ATOM     32  C   LIG d   1       3.204  -1.534  -2.585  0.00  0.00    -0.039 C 
ATOM     33  H   LIG d   1       2.668  -0.616  -2.347  0.00  0.00     0.028 H 
ATOM     34  H   LIG d   1       2.655  -2.090  -3.346  0.00  0.00     0.028 H 
ATOM     35  H   LIG d   1       3.297  -2.143  -1.685  0.00  0.00     0.028 H 
ENDBRANCH   1  32
BRANCH  11  36
ATOM     36  C   LIG d   1       4.532   0.857  -1.673  0.00  0.00    -0.039 C 
ATOM     37  H   LIG d   1       3.987   1.637  -2.204  0.00  0.00     0.028 H 
ATOM     38  H   LIG d   1       3.835   0.272  -1.073  0.00  0.00     0.028 H 
ATOM     39  H   LIG d   1       5.277   1.313  -1.022  0.00  0.00     0.028 H 
ENDBRANCH  11  36
TORSDOF 4
ENDMDL
