MODEL 1
REMARK VINA RESULT:      -7.0      0.000      0.000
REMARK  4 active torsions:
REMARK  status: ('A' for Active; 'I' for Inactive)
REMARK    1  A    between atoms: C_1  and  C_2 
REMARK    2  A    between atoms: N_14  and  C_17 
REMARK    3  A    between atoms: C_22  and  O_23 
REMARK    4  A    between atoms: O_23  and  C_24 
ROOT
ATOM      1  C   LIG d   1       4.561  -0.992 -11.442  0.00  0.00    -0.033 A 
ATOM      2  C   LIG d   1       5.287  -2.128 -11.275  0.00  0.00     0.026 A 
ATOM      3  C   LIG d   1       5.551  -2.601  -9.974  0.00  0.00     0.338 A 
ATOM      4  O   LIG d   1       6.204  -3.620  -9.847  0.00  0.00    -0.245 OA
ATOM      5  O   LIG d   1       5.113  -1.980  -8.875  0.00  0.00    -0.422 OA
ATOM      6  C   LIG d   1       4.387  -0.849  -8.978  0.00  0.00     0.147 A 
ATOM      7  C   LIG d   1       4.081  -0.308 -10.240  0.00  0.00     0.021 A 
ATOM      8  C   LIG d   1       3.326   0.866 -10.336  0.00  0.00    -0.047 A 
ATOM      9  C   LIG d   1       2.890   1.486  -9.201  0.00  0.00    -0.019 A 
ATOM     10  C   LIG d   1       3.189   0.957  -7.945  0.00  0.00     0.131 A 
ATOM     11  C   LIG d   1       3.932  -0.204  -7.834  0.00  0.00     0.054 A 
ATOM     12  C   LIG d   1       4.256  -0.790  -6.482  0.00  0.00     0.047 C 
ATOM     13  N   LIG d   1       4.052   0.229  -5.443  0.00  0.00    -0.290 NA
ATOM     14  C   LIG d   1       2.736   0.868  -5.610  0.00  0.00     0.157 C 
ATOM     15  O   LIG d   1       2.740   1.603  -6.836  0.00  0.00    -0.473 OA
ATOM     16  H   LIG d   1       5.663  -2.664 -12.135  0.00  0.00     0.069 H 
ATOM     17  H   LIG d   1       3.090   1.282 -11.304  0.00  0.00     0.063 H 
ATOM     18  H   LIG d   1       2.307   2.392  -9.275  0.00  0.00     0.065 H 
ATOM     19  H   LIG d   1       3.603  -1.641  -6.289  0.00  0.00     0.052 H 
ATOM     20  H   LIG d   1       5.295  -1.120  -6.468  0.00  0.00     0.052 H 
ATOM     21  H   LIG d   1       2.551   1.547  -4.777  0.00  0.00     0.091 H 
ATOM     22  H   LIG d   1       1.960   0.104  -5.643  0.00  0.00     0.091 H 
ENDROOT
BRANCH  13  23
ATOM     23  C   LIG d   1       4.181  -0.327  -4.164  0.00  0.00     0.075 A 
ATOM     24  C   LIG d   1       4.946   0.319  -3.196  0.00  0.00     0.141 A 
ATOM     25  C   LIG d   1       5.065  -0.233  -1.931  0.00  0.00    -0.018 A 
ATOM     26  C   LIG d   1       4.434  -1.428  -1.635  0.00  0.00    -0.058 A 
ATOM     27  H   LIG d   1       5.654   0.268  -1.177  0.00  0.00     0.066 H 
ATOM     28  C   LIG d   1       3.679  -2.071  -2.597  0.00  0.00    -0.060 A 
ATOM     29  H   LIG d   1       4.532  -1.858  -0.649  0.00  0.00     0.062 H 
ATOM     30  C   LIG d   1       3.550  -1.525  -3.860  0.00  0.00    -0.037 A 
ATOM     31  H   LIG d   1       3.188  -3.004  -2.362  0.00  0.00     0.062 H 
ATOM     32  H   LIG d   1       2.960  -2.030  -4.610  0.00  0.00     0.064 H 
BRANCH  24  33
ATOM     33  O   LIG d   1       5.571   1.490  -3.489  0.00  0.00    -0.493 OA
BRANCH  33  34
ATOM     34  C   LIG d   1       6.987   1.443  -3.671  0.00  0.00     0.079 C 
ATOM     35  H   LIG d   1       7.464   1.156  -2.734  0.00  0.00     0.066 H 
ATOM     36  H   LIG d   1       7.230   0.711  -4.442  0.00  0.00     0.066 H 
ATOM     37  H   LIG d   1       7.347   2.426  -3.975  0.00  0.00     0.066 H 
ENDBRANCH  33  34
ENDBRANCH  24  33
ENDBRANCH  13  23
BRANCH   1  38
ATOM     38  C   LIG d   1       4.260  -0.454 -12.818  0.00  0.00    -0.039 C 
ATOM     39  H   LIG d   1       3.554   0.373 -12.738  0.00  0.00     0.028 H 
ATOM     40  H   LIG d   1       5.182  -0.101 -13.279  0.00  0.00     0.028 H 
ATOM     41  H   LIG d   1       3.827  -1.244 -13.431  0.00  0.00     0.028 H 
ENDBRANCH   1  38
TORSDOF 4
ENDMDL
MODEL 2
REMARK VINA RESULT:      -6.6      5.138      7.635
REMARK  4 active torsions:
REMARK  status: ('A' for Active; 'I' for Inactive)
REMARK    1  A    between atoms: C_1  and  C_2 
REMARK    2  A    between atoms: N_14  and  C_17 
REMARK    3  A    between atoms: C_22  and  O_23 
REMARK    4  A    between atoms: O_23  and  C_24 
ROOT
ATOM      1  C   LIG d   1       4.357  -1.243  -2.635  0.00  0.00    -0.033 A 
ATOM      2  C   LIG d   1       3.592  -0.175  -2.290  0.00  0.00     0.026 A 
ATOM      3  C   LIG d   1       4.060   1.129  -2.550  0.00  0.00     0.338 A 
ATOM      4  O   LIG d   1       3.359   2.073  -2.231  0.00  0.00    -0.245 OA
ATOM      5  O   LIG d   1       5.239   1.374  -3.130  0.00  0.00    -0.422 OA
ATOM      6  C   LIG d   1       6.040   0.354  -3.495  0.00  0.00     0.147 A 
ATOM      7  C   LIG d   1       5.649  -0.978  -3.271  0.00  0.00     0.021 A 
ATOM      8  C   LIG d   1       6.489  -2.030  -3.655  0.00  0.00    -0.047 A 
ATOM      9  C   LIG d   1       7.689  -1.758  -4.245  0.00  0.00    -0.019 A 
ATOM     10  C   LIG d   1       8.085  -0.439  -4.471  0.00  0.00     0.131 A 
ATOM     11  C   LIG d   1       7.265   0.611  -4.100  0.00  0.00     0.054 A 
ATOM     12  C   LIG d   1       7.679   2.040  -4.346  0.00  0.00     0.047 C 
ATOM     13  N   LIG d   1       9.126   2.098  -4.596  0.00  0.00    -0.290 NA
ATOM     14  C   LIG d   1       9.506   1.096  -5.607  0.00  0.00     0.157 C 
ATOM     15  O   LIG d   1       9.288  -0.207  -5.060  0.00  0.00    -0.473 OA
ATOM     16  H   LIG d   1       2.632  -0.323  -1.818  0.00  0.00     0.069 H 
ATOM     17  H   LIG d   1       6.189  -3.053  -3.483  0.00  0.00     0.063 H 
ATOM     18  H   LIG d   1       8.336  -2.570  -4.541  0.00  0.00     0.065 H 
ATOM     19  H   LIG d   1       7.144   2.429  -5.213  0.00  0.00     0.052 H 
ATOM     20  H   LIG d   1       7.438   2.644  -3.470  0.00  0.00     0.052 H 
ATOM     21  H   LIG d   1      10.559   1.215  -5.861  0.00  0.00     0.091 H 
ATOM     22  H   LIG d   1       8.894   1.225  -6.498  0.00  0.00     0.091 H 
ENDROOT
BRANCH  13  23
ATOM     23  C   LIG d   1       9.515   3.383  -4.993  0.00  0.00     0.075 A 
ATOM     24  C   LIG d   1       9.885   4.326  -4.038  0.00  0.00     0.141 A 
ATOM     25  C   LIG d   1      10.274   5.594  -4.437  0.00  0.00    -0.018 A 
ATOM     26  C   LIG d   1      10.285   5.924  -5.780  0.00  0.00    -0.058 A 
ATOM     27  H   LIG d   1      10.565   6.327  -3.698  0.00  0.00     0.066 H 
ATOM     28  C   LIG d   1       9.913   4.990  -6.727  0.00  0.00    -0.060 A 
ATOM     29  H   LIG d   1      10.585   6.915  -6.088  0.00  0.00     0.062 H 
ATOM     30  C   LIG d   1       9.528   3.721  -6.338  0.00  0.00    -0.037 A 
ATOM     31  H   LIG d   1       9.922   5.252  -7.775  0.00  0.00     0.062 H 
ATOM     32  H   LIG d   1       9.237   2.993  -7.081  0.00  0.00     0.064 H 
BRANCH  24  33
ATOM     33  O   LIG d   1       9.869   4.003  -2.717  0.00  0.00    -0.493 OA
BRANCH  33  34
ATOM     34  C   LIG d   1      10.813   4.667  -1.874  0.00  0.00     0.079 C 
ATOM     35  H   LIG d   1      10.921   4.112  -0.943  0.00  0.00     0.066 H 
ATOM     36  H   LIG d   1      11.777   4.720  -2.380  0.00  0.00     0.066 H 
ATOM     37  H   LIG d   1      10.459   5.675  -1.658  0.00  0.00     0.066 H 
ENDBRANCH  33  34
ENDBRANCH  24  33
ENDBRANCH  13  23
BRANCH   1  38
ATOM     38  C   LIG d   1       3.892  -2.653  -2.373  0.00  0.00    -0.039 C 
ATOM     39  H   LIG d   1       2.870  -2.771  -2.734  0.00  0.00     0.028 H 
ATOM     40  H   LIG d   1       4.544  -3.353  -2.893  0.00  0.00     0.028 H 
ATOM     41  H   LIG d   1       3.924  -2.853  -1.302  0.00  0.00     0.028 H 
ENDBRANCH   1  38
TORSDOF 4
ENDMDL
MODEL 3
REMARK VINA RESULT:      -6.4      3.323      6.562
REMARK  4 active torsions:
REMARK  status: ('A' for Active; 'I' for Inactive)
REMARK    1  A    between atoms: C_1  and  C_2 
REMARK    2  A    between atoms: N_14  and  C_17 
REMARK    3  A    between atoms: C_22  and  O_23 
REMARK    4  A    between atoms: O_23  and  C_24 
ROOT
ATOM      1  C   LIG d   1      10.862   4.157  -5.519  0.00  0.00    -0.033 A 
ATOM      2  C   LIG d   1      10.805   4.566  -4.225  0.00  0.00     0.026 A 
ATOM      3  C   LIG d   1       9.847   4.003  -3.358  0.00  0.00     0.338 A 
ATOM      4  O   LIG d   1       9.812   4.384  -2.202  0.00  0.00    -0.245 OA
ATOM      5  O   LIG d   1       8.975   3.068  -3.750  0.00  0.00    -0.422 OA
ATOM      6  C   LIG d   1       8.985   2.623  -5.022  0.00  0.00     0.147 A 
ATOM      7  C   LIG d   1       9.908   3.134  -5.952  0.00  0.00     0.021 A 
ATOM      8  C   LIG d   1       9.910   2.664  -7.271  0.00  0.00    -0.047 A 
ATOM      9  C   LIG d   1       9.011   1.710  -7.651  0.00  0.00    -0.019 A 
ATOM     10  C   LIG d   1       8.092   1.197  -6.735  0.00  0.00     0.131 A 
ATOM     11  C   LIG d   1       8.079   1.650  -5.428  0.00  0.00     0.054 A 
ATOM     12  C   LIG d   1       7.095   1.098  -4.427  0.00  0.00     0.047 C 
ATOM     13  N   LIG d   1       6.000   0.421  -5.136  0.00  0.00    -0.290 NA
ATOM     14  C   LIG d   1       6.544  -0.510  -6.139  0.00  0.00     0.157 C 
ATOM     15  O   LIG d   1       7.210   0.250  -7.150  0.00  0.00    -0.473 OA
ATOM     16  H   LIG d   1      11.489   5.320  -3.862  0.00  0.00     0.069 H 
ATOM     17  H   LIG d   1      10.619   3.056  -7.985  0.00  0.00     0.063 H 
ATOM     18  H   LIG d   1       9.013   1.347  -8.668  0.00  0.00     0.065 H 
ATOM     19  H   LIG d   1       7.601   0.387  -3.775  0.00  0.00     0.052 H 
ATOM     20  H   LIG d   1       6.689   1.915  -3.829  0.00  0.00     0.052 H 
ATOM     21  H   LIG d   1       5.731  -1.082  -6.586  0.00  0.00     0.091 H 
ATOM     22  H   LIG d   1       7.254  -1.187  -5.663  0.00  0.00     0.091 H 
ENDROOT
BRANCH  13  23
ATOM     23  C   LIG d   1       5.159  -0.246  -4.237  0.00  0.00     0.075 A 
ATOM     24  C   LIG d   1       3.779  -0.068  -4.308  0.00  0.00     0.141 A 
ATOM     25  C   LIG d   1       2.951  -0.735  -3.420  0.00  0.00    -0.018 A 
ATOM     26  C   LIG d   1       3.496  -1.567  -2.459  0.00  0.00    -0.058 A 
ATOM     27  H   LIG d   1       1.881  -0.602  -3.476  0.00  0.00     0.066 H 
ATOM     28  C   LIG d   1       4.865  -1.740  -2.385  0.00  0.00    -0.060 A 
ATOM     29  H   LIG d   1       2.849  -2.083  -1.765  0.00  0.00     0.062 H 
ATOM     30  C   LIG d   1       5.698  -1.083  -3.271  0.00  0.00    -0.037 A 
ATOM     31  H   LIG d   1       5.285  -2.391  -1.632  0.00  0.00     0.062 H 
ATOM     32  H   LIG d   1       6.767  -1.219  -3.210  0.00  0.00     0.064 H 
BRANCH  24  33
ATOM     33  O   LIG d   1       3.245   0.755  -5.250  0.00  0.00    -0.493 OA
BRANCH  33  34
ATOM     34  C   LIG d   1       2.831   0.153  -6.478  0.00  0.00     0.079 C 
ATOM     35  H   LIG d   1       2.585   0.932  -7.200  0.00  0.00     0.066 H 
ATOM     36  H   LIG d   1       3.639  -0.465  -6.871  0.00  0.00     0.066 H 
ATOM     37  H   LIG d   1       1.952  -0.468  -6.300  0.00  0.00     0.066 H 
ENDBRANCH  33  34
ENDBRANCH  24  33
ENDBRANCH  13  23
BRANCH   1  38
ATOM     38  C   LIG d   1      11.872   4.737  -6.477  0.00  0.00    -0.039 C 
ATOM     39  H   LIG d   1      12.627   3.986  -6.707  0.00  0.00     0.028 H 
ATOM     40  H   LIG d   1      11.369   5.040  -7.395  0.00  0.00     0.028 H 
ATOM     41  H   LIG d   1      12.348   5.605  -6.021  0.00  0.00     0.028 H 
ENDBRANCH   1  38
TORSDOF 4
ENDMDL
MODEL 4
REMARK VINA RESULT:      -6.3      2.163      6.863
REMARK  4 active torsions:
REMARK  status: ('A' for Active; 'I' for Inactive)
REMARK    1  A    between atoms: C_1  and  C_2 
REMARK    2  A    between atoms: N_14  and  C_17 
REMARK    3  A    between atoms: C_22  and  O_23 
REMARK    4  A    between atoms: O_23  and  C_24 
ROOT
ATOM      1  C   LIG d   1       4.370  -1.888  -3.398  0.00  0.00    -0.033 A 
ATOM      2  C   LIG d   1       4.950  -3.057  -3.777  0.00  0.00     0.026 A 
ATOM      3  C   LIG d   1       5.066  -3.365  -5.147  0.00  0.00     0.338 A 
ATOM      4  O   LIG d   1       5.588  -4.418  -5.465  0.00  0.00    -0.245 OA
ATOM      5  O   LIG d   1       4.629  -2.550  -6.112  0.00  0.00    -0.422 OA
ATOM      6  C   LIG d   1       4.047  -1.376  -5.797  0.00  0.00     0.147 A 
ATOM      7  C   LIG d   1       3.890  -0.993  -4.453  0.00  0.00     0.021 A 
ATOM      8  C   LIG d   1       3.284   0.228  -4.136  0.00  0.00    -0.047 A 
ATOM      9  C   LIG d   1       2.844   1.045  -5.137  0.00  0.00    -0.019 A 
ATOM     10  C   LIG d   1       2.995   0.674  -6.473  0.00  0.00     0.131 A 
ATOM     11  C   LIG d   1       3.594  -0.529  -6.802  0.00  0.00     0.054 A 
ATOM     12  C   LIG d   1       3.770  -0.938  -8.243  0.00  0.00     0.047 C 
ATOM     13  N   LIG d   1       2.882  -0.134  -9.094  0.00  0.00    -0.290 NA
ATOM     14  C   LIG d   1       3.026   1.295  -8.771  0.00  0.00     0.157 C 
ATOM     15  O   LIG d   1       2.543   1.512  -7.443  0.00  0.00    -0.473 OA
ATOM     16  H   LIG d   1       5.317  -3.748  -3.032  0.00  0.00     0.069 H 
ATOM     17  H   LIG d   1       3.164   0.522  -3.104  0.00  0.00     0.063 H 
ATOM     18  H   LIG d   1       2.377   1.987  -4.892  0.00  0.00     0.065 H 
ATOM     19  H   LIG d   1       4.805  -0.776  -8.543  0.00  0.00     0.052 H 
ATOM     20  H   LIG d   1       3.520  -1.994  -8.354  0.00  0.00     0.052 H 
ATOM     21  H   LIG d   1       2.444   1.890  -9.474  0.00  0.00     0.091 H 
ATOM     22  H   LIG d   1       4.077   1.579  -8.828  0.00  0.00     0.091 H 
ENDROOT
BRANCH  13  23
ATOM     23  C   LIG d   1       3.140  -0.369 -10.450  0.00  0.00     0.075 A 
ATOM     24  C   LIG d   1       2.271  -1.158 -11.200  0.00  0.00     0.141 A 
ATOM     25  C   LIG d   1       2.528  -1.383 -12.542  0.00  0.00    -0.018 A 
ATOM     26  C   LIG d   1       3.651  -0.833 -13.133  0.00  0.00    -0.058 A 
ATOM     27  H   LIG d   1       1.854  -1.992 -13.126  0.00  0.00     0.066 H 
ATOM     28  C   LIG d   1       4.516  -0.054 -12.388  0.00  0.00    -0.060 A 
ATOM     29  H   LIG d   1       3.852  -1.014 -14.178  0.00  0.00     0.062 H 
ATOM     30  C   LIG d   1       4.264   0.180 -11.049  0.00  0.00    -0.037 A 
ATOM     31  H   LIG d   1       5.393   0.373 -12.853  0.00  0.00     0.062 H 
ATOM     32  H   LIG d   1       4.943   0.788 -10.470  0.00  0.00     0.064 H 
BRANCH  24  33
ATOM     33  O   LIG d   1       1.170  -1.703 -10.616  0.00  0.00    -0.493 OA
BRANCH  33  34
ATOM     34  C   LIG d   1       1.189  -3.113 -10.383  0.00  0.00     0.079 C 
ATOM     35  H   LIG d   1       1.825  -3.595 -11.126  0.00  0.00     0.066 H 
ATOM     36  H   LIG d   1       1.581  -3.311  -9.386  0.00  0.00     0.066 H 
ATOM     37  H   LIG d   1       0.176  -3.508 -10.461  0.00  0.00     0.066 H 
ENDBRANCH  33  34
ENDBRANCH  24  33
ENDBRANCH  13  23
BRANCH   1  38
ATOM     38  C   LIG d   1       4.226  -1.525  -1.941  0.00  0.00    -0.039 C 
ATOM     39  H   LIG d   1       4.455  -2.395  -1.326  0.00  0.00     0.028 H 
ATOM     40  H   LIG d   1       4.917  -0.718  -1.699  0.00  0.00     0.028 H 
ATOM     41  H   LIG d   1       3.204  -1.201  -1.747  0.00  0.00     0.028 H 
ENDBRANCH   1  38
TORSDOF 4
ENDMDL
MODEL 5
REMARK VINA RESULT:      -6.0      5.102      6.739
REMARK  4 active torsions:
REMARK  status: ('A' for Active; 'I' for Inactive)
REMARK    1  A    between atoms: C_1  and  C_2 
REMARK    2  A    between atoms: N_14  and  C_17 
REMARK    3  A    between atoms: C_22  and  O_23 
REMARK    4  A    between atoms: O_23  and  C_24 
ROOT
ATOM      1  C   LIG d   1      10.494  -6.425  -4.736  0.00  0.00    -0.033 A 
ATOM      2  C   LIG d   1      10.600  -6.601  -3.393  0.00  0.00     0.026 A 
ATOM      3  C   LIG d   1       9.875  -5.764  -2.521  0.00  0.00     0.338 A 
ATOM      4  O   LIG d   1       9.985  -5.939  -1.321  0.00  0.00    -0.245 OA
ATOM      5  O   LIG d   1       9.073  -4.787  -2.955  0.00  0.00    -0.422 OA
ATOM      6  C   LIG d   1       8.928  -4.565  -4.276  0.00  0.00     0.147 A 
ATOM      7  C   LIG d   1       9.616  -5.355  -5.214  0.00  0.00     0.021 A 
ATOM      8  C   LIG d   1       9.458  -5.115  -6.584  0.00  0.00    -0.047 A 
ATOM      9  C   LIG d   1       8.634  -4.112  -7.006  0.00  0.00    -0.019 A 
ATOM     10  C   LIG d   1       7.948  -3.323  -6.083  0.00  0.00     0.131 A 
ATOM     11  C   LIG d   1       8.092  -3.549  -4.726  0.00  0.00     0.054 A 
ATOM     12  C   LIG d   1       7.349  -2.708  -3.718  0.00  0.00     0.047 C 
ATOM     13  N   LIG d   1       6.874  -1.475  -4.361  0.00  0.00    -0.290 NA
ATOM     14  C   LIG d   1       6.183  -1.794  -5.622  0.00  0.00     0.157 C 
ATOM     15  O   LIG d   1       7.138  -2.332  -6.540  0.00  0.00    -0.473 OA
ATOM     16  H   LIG d   1      11.237  -7.378  -2.995  0.00  0.00     0.069 H 
ATOM     17  H   LIG d   1       9.986  -5.722  -7.305  0.00  0.00     0.063 H 
ATOM     18  H   LIG d   1       8.513  -3.929  -8.063  0.00  0.00     0.065 H 
ATOM     19  H   LIG d   1       6.497  -3.269  -3.334  0.00  0.00     0.052 H 
ATOM     20  H   LIG d   1       8.017  -2.453  -2.894  0.00  0.00     0.052 H 
ATOM     21  H   LIG d   1       5.746  -0.887  -6.038  0.00  0.00     0.091 H 
ATOM     22  H   LIG d   1       5.401  -2.529  -5.435  0.00  0.00     0.091 H 
ENDROOT
BRANCH  13  23
ATOM     23  C   LIG d   1       6.039  -0.751  -3.501  0.00  0.00     0.075 A 
ATOM     24  C   LIG d   1       6.061   0.641  -3.514  0.00  0.00     0.141 A 
ATOM     25  C   LIG d   1       5.229   1.352  -2.665  0.00  0.00    -0.018 A 
ATOM     26  C   LIG d   1       4.385   0.678  -1.800  0.00  0.00    -0.058 A 
ATOM     27  H   LIG d   1       5.242   2.432  -2.675  0.00  0.00     0.066 H 
ATOM     28  C   LIG d   1       4.366  -0.703  -1.784  0.00  0.00    -0.060 A 
ATOM     29  H   LIG d   1       3.740   1.235  -1.136  0.00  0.00     0.062 H 
ATOM     30  C   LIG d   1       5.190  -1.420  -2.631  0.00  0.00    -0.037 A 
ATOM     31  H   LIG d   1       3.706  -1.225  -1.106  0.00  0.00     0.062 H 
ATOM     32  H   LIG d   1       5.173  -2.500  -2.616  0.00  0.00     0.064 H 
BRANCH  24  33
ATOM     33  O   LIG d   1       6.895   1.302  -4.360  0.00  0.00    -0.493 OA
BRANCH  33  34
ATOM     34  C   LIG d   1       8.098   1.836  -3.802  0.00  0.00     0.079 C 
ATOM     35  H   LIG d   1       7.877   2.302  -2.842  0.00  0.00     0.066 H 
ATOM     36  H   LIG d   1       8.820   1.031  -3.659  0.00  0.00     0.066 H 
ATOM     37  H   LIG d   1       8.514   2.581  -4.481  0.00  0.00     0.066 H 
ENDBRANCH  33  34
ENDBRANCH  24  33
ENDBRANCH  13  23
BRANCH   1  38
ATOM     38  C   LIG d   1      11.254  -7.299  -5.700  0.00  0.00    -0.039 C 
ATOM     39  H   LIG d   1      12.132  -7.712  -5.202  0.00  0.00     0.028 H 
ATOM     40  H   LIG d   1      10.612  -8.113  -6.036  0.00  0.00     0.028 H 
ATOM     41  H   LIG d   1      11.569  -6.706  -6.558  0.00  0.00     0.028 H 
ENDBRANCH   1  38
TORSDOF 4
ENDMDL
MODEL 6
REMARK VINA RESULT:      -5.8      4.491      6.180
REMARK  4 active torsions:
REMARK  status: ('A' for Active; 'I' for Inactive)
REMARK    1  A    between atoms: C_1  and  C_2 
REMARK    2  A    between atoms: N_14  and  C_17 
REMARK    3  A    between atoms: C_22  and  O_23 
REMARK    4  A    between atoms: O_23  and  C_24 
ROOT
ATOM      1  C   LIG d   1      10.132  -5.282  -5.680  0.00  0.00    -0.033 A 
ATOM      2  C   LIG d   1      11.026  -4.339  -5.283  0.00  0.00     0.026 A 
ATOM      3  C   LIG d   1      10.564  -3.143  -4.699  0.00  0.00     0.338 A 
ATOM      4  O   LIG d   1      11.382  -2.311  -4.351  0.00  0.00    -0.245 OA
ATOM      5  O   LIG d   1       9.266  -2.882  -4.511  0.00  0.00    -0.422 OA
ATOM      6  C   LIG d   1       8.333  -3.781  -4.884  0.00  0.00     0.147 A 
ATOM      7  C   LIG d   1       8.710  -5.000  -5.475  0.00  0.00     0.021 A 
ATOM      8  C   LIG d   1       7.732  -5.925  -5.859  0.00  0.00    -0.047 A 
ATOM      9  C   LIG d   1       6.413  -5.640  -5.659  0.00  0.00    -0.019 A 
ATOM     10  C   LIG d   1       6.030  -4.433  -5.073  0.00  0.00     0.131 A 
ATOM     11  C   LIG d   1       6.984  -3.509  -4.686  0.00  0.00     0.054 A 
ATOM     12  C   LIG d   1       6.583  -2.204  -4.046  0.00  0.00     0.047 C 
ATOM     13  N   LIG d   1       5.160  -1.945  -4.305  0.00  0.00    -0.290 NA
ATOM     14  C   LIG d   1       4.360  -3.138  -3.979  0.00  0.00     0.157 C 
ATOM     15  O   LIG d   1       4.707  -4.182  -4.892  0.00  0.00    -0.473 OA
ATOM     16  H   LIG d   1      12.086  -4.505  -5.415  0.00  0.00     0.069 H 
ATOM     17  H   LIG d   1       8.022  -6.862  -6.313  0.00  0.00     0.063 H 
ATOM     18  H   LIG d   1       5.660  -6.355  -5.955  0.00  0.00     0.065 H 
ATOM     19  H   LIG d   1       6.752  -2.260  -2.970  0.00  0.00     0.052 H 
ATOM     20  H   LIG d   1       7.181  -1.394  -4.465  0.00  0.00     0.052 H 
ATOM     21  H   LIG d   1       3.299  -2.904  -4.075  0.00  0.00     0.091 H 
ATOM     22  H   LIG d   1       4.576  -3.456  -2.959  0.00  0.00     0.091 H 
ENDROOT
BRANCH  13  23
ATOM     23  C   LIG d   1       4.714  -0.830  -3.585  0.00  0.00     0.075 A 
ATOM     24  C   LIG d   1       4.165   0.260  -4.256  0.00  0.00     0.141 A 
ATOM     25  C   LIG d   1       3.720   1.358  -3.538  0.00  0.00    -0.018 A 
ATOM     26  C   LIG d   1       3.832   1.375  -2.160  0.00  0.00    -0.058 A 
ATOM     27  H   LIG d   1       3.291   2.203  -4.056  0.00  0.00     0.066 H 
ATOM     28  C   LIG d   1       4.381   0.295  -1.495  0.00  0.00    -0.060 A 
ATOM     29  H   LIG d   1       3.488   2.234  -1.603  0.00  0.00     0.062 H 
ATOM     30  C   LIG d   1       4.822  -0.807  -2.203  0.00  0.00    -0.037 A 
ATOM     31  H   LIG d   1       4.467   0.313  -0.418  0.00  0.00     0.062 H 
ATOM     32  H   LIG d   1       5.252  -1.648  -1.680  0.00  0.00     0.064 H 
BRANCH  24  33
ATOM     33  O   LIG d   1       4.061   0.245  -5.612  0.00  0.00    -0.493 OA
BRANCH  33  34
ATOM     34  C   LIG d   1       2.742   0.234  -6.162  0.00  0.00     0.079 C 
ATOM     35  H   LIG d   1       2.260   1.192  -5.969  0.00  0.00     0.066 H 
ATOM     36  H   LIG d   1       2.798   0.064  -7.237  0.00  0.00     0.066 H 
ATOM     37  H   LIG d   1       2.162  -0.565  -5.698  0.00  0.00     0.066 H 
ENDBRANCH  33  34
ENDBRANCH  24  33
ENDBRANCH  13  23
BRANCH   1  38
ATOM     38  C   LIG d   1      10.588  -6.574  -6.310  0.00  0.00    -0.039 C 
ATOM     39  H   LIG d   1      10.809  -6.405  -7.364  0.00  0.00     0.028 H 
ATOM     40  H   LIG d   1      11.486  -6.927  -5.802  0.00  0.00     0.028 H 
ATOM     41  H   LIG d   1       9.800  -7.321  -6.218  0.00  0.00     0.028 H 
ENDBRANCH   1  38
TORSDOF 4
ENDMDL
MODEL 7
REMARK VINA RESULT:      -5.7      4.492      6.248
REMARK  4 active torsions:
REMARK  status: ('A' for Active; 'I' for Inactive)
REMARK    1  A    between atoms: C_1  and  C_2 
REMARK    2  A    between atoms: N_14  and  C_17 
REMARK    3  A    between atoms: C_22  and  O_23 
REMARK    4  A    between atoms: O_23  and  C_24 
ROOT
ATOM      1  C   LIG d   1       7.307  -7.686  -5.501  0.00  0.00    -0.033 A 
ATOM      2  C   LIG d   1       6.119  -8.128  -5.989  0.00  0.00     0.026 A 
ATOM      3  C   LIG d   1       5.055  -7.220  -6.161  0.00  0.00     0.338 A 
ATOM      4  O   LIG d   1       3.998  -7.637  -6.599  0.00  0.00    -0.245 OA
ATOM      5  O   LIG d   1       5.156  -5.921  -5.863  0.00  0.00    -0.422 OA
ATOM      6  C   LIG d   1       6.311  -5.425  -5.375  0.00  0.00     0.147 A 
ATOM      7  C   LIG d   1       7.421  -6.264  -5.173  0.00  0.00     0.021 A 
ATOM      8  C   LIG d   1       8.616  -5.738  -4.667  0.00  0.00    -0.047 A 
ATOM      9  C   LIG d   1       8.698  -4.409  -4.369  0.00  0.00    -0.019 A 
ATOM     10  C   LIG d   1       7.601  -3.569  -4.566  0.00  0.00     0.131 A 
ATOM     11  C   LIG d   1       6.415  -4.073  -5.068  0.00  0.00     0.054 A 
ATOM     12  C   LIG d   1       5.225  -3.174  -5.292  0.00  0.00     0.047 C 
ATOM     13  N   LIG d   1       5.403  -1.925  -4.538  0.00  0.00    -0.290 NA
ATOM     14  C   LIG d   1       6.739  -1.362  -4.797  0.00  0.00     0.157 C 
ATOM     15  O   LIG d   1       7.720  -2.251  -4.255  0.00  0.00    -0.473 OA
ATOM     16  H   LIG d   1       5.989  -9.170  -6.244  0.00  0.00     0.069 H 
ATOM     17  H   LIG d   1       9.468  -6.382  -4.512  0.00  0.00     0.063 H 
ATOM     18  H   LIG d   1       9.620  -4.004  -3.978  0.00  0.00     0.065 H 
ATOM     19  H   LIG d   1       5.136  -2.947  -6.354  0.00  0.00     0.052 H 
ATOM     20  H   LIG d   1       4.320  -3.677  -4.951  0.00  0.00     0.052 H 
ATOM     21  H   LIG d   1       6.825  -0.387  -4.318  0.00  0.00     0.091 H 
ATOM     22  H   LIG d   1       6.892  -1.261  -5.871  0.00  0.00     0.091 H 
ENDROOT
BRANCH  13  23
ATOM     23  C   LIG d   1       4.401  -1.001  -4.856  0.00  0.00     0.075 A 
ATOM     24  C   LIG d   1       3.737  -0.314  -3.842  0.00  0.00     0.141 A 
ATOM     25  C   LIG d   1       2.749   0.603  -4.162  0.00  0.00    -0.018 A 
ATOM     26  C   LIG d   1       2.417   0.828  -5.486  0.00  0.00    -0.058 A 
ATOM     27  H   LIG d   1       2.236   1.139  -3.378  0.00  0.00     0.066 H 
ATOM     28  C   LIG d   1       3.073   0.143  -6.492  0.00  0.00    -0.060 A 
ATOM     29  H   LIG d   1       1.644   1.540  -5.733  0.00  0.00     0.062 H 
ATOM     30  C   LIG d   1       4.063  -0.770  -6.182  0.00  0.00    -0.037 A 
ATOM     31  H   LIG d   1       2.809   0.322  -7.524  0.00  0.00     0.062 H 
ATOM     32  H   LIG d   1       4.572  -1.304  -6.970  0.00  0.00     0.064 H 
BRANCH  24  33
ATOM     33  O   LIG d   1       4.060  -0.541  -2.540  0.00  0.00    -0.493 OA
BRANCH  33  34
ATOM     34  C   LIG d   1       4.538   0.576  -1.787  0.00  0.00     0.079 C 
ATOM     35  H   LIG d   1       3.897   0.730  -0.920  0.00  0.00     0.066 H 
ATOM     36  H   LIG d   1       5.558   0.380  -1.456  0.00  0.00     0.066 H 
ATOM     37  H   LIG d   1       4.524   1.469  -2.413  0.00  0.00     0.066 H 
ENDBRANCH  33  34
ENDBRANCH  24  33
ENDBRANCH  13  23
BRANCH   1  38
ATOM     38  C   LIG d   1       8.468  -8.628  -5.303  0.00  0.00    -0.039 C 
ATOM     39  H   LIG d   1       8.091  -9.636  -5.127  0.00  0.00     0.028 H 
ATOM     40  H   LIG d   1       9.094  -8.624  -6.194  0.00  0.00     0.028 H 
ATOM     41  H   LIG d   1       9.055  -8.305  -4.444  0.00  0.00     0.028 H 
ENDBRANCH   1  38
TORSDOF 4
ENDMDL
MODEL 8
REMARK VINA RESULT:      -5.6      2.165      2.509
REMARK  4 active torsions:
REMARK  status: ('A' for Active; 'I' for Inactive)
REMARK    1  A    between atoms: C_1  and  C_2 
REMARK    2  A    between atoms: N_14  and  C_17 
REMARK    3  A    between atoms: C_22  and  O_23 
REMARK    4  A    between atoms: O_23  and  C_24 
ROOT
ATOM      1  C   LIG d   1       3.307  -4.419 -10.416  0.00  0.00    -0.033 A 
ATOM      2  C   LIG d   1       3.501  -5.481  -9.590  0.00  0.00     0.026 A 
ATOM      3  C   LIG d   1       3.720  -5.263  -8.215  0.00  0.00     0.338 A 
ATOM      4  O   LIG d   1       3.892  -6.228  -7.493  0.00  0.00    -0.245 OA
ATOM      5  O   LIG d   1       3.748  -4.043  -7.670  0.00  0.00    -0.422 OA
ATOM      6  C   LIG d   1       3.562  -2.952  -8.440  0.00  0.00     0.147 A 
ATOM      7  C   LIG d   1       3.337  -3.081  -9.822  0.00  0.00     0.021 A 
ATOM      8  C   LIG d   1       3.145  -1.942 -10.612  0.00  0.00    -0.047 A 
ATOM      9  C   LIG d   1       3.177  -0.705 -10.036  0.00  0.00    -0.019 A 
ATOM     10  C   LIG d   1       3.400  -0.567  -8.665  0.00  0.00     0.131 A 
ATOM     11  C   LIG d   1       3.589  -1.683  -7.871  0.00  0.00     0.054 A 
ATOM     12  C   LIG d   1       3.822  -1.548  -6.388  0.00  0.00     0.047 C 
ATOM     13  N   LIG d   1       4.219  -0.167  -6.076  0.00  0.00    -0.290 NA
ATOM     14  C   LIG d   1       3.288   0.783  -6.708  0.00  0.00     0.157 C 
ATOM     15  O   LIG d   1       3.428   0.681  -8.127  0.00  0.00    -0.473 OA
ATOM     16  H   LIG d   1       3.488  -6.487  -9.985  0.00  0.00     0.069 H 
ATOM     17  H   LIG d   1       2.973  -2.041 -11.673  0.00  0.00     0.063 H 
ATOM     18  H   LIG d   1       3.029   0.173 -10.646  0.00  0.00     0.065 H 
ATOM     19  H   LIG d   1       2.905  -1.792  -5.852  0.00  0.00     0.052 H 
ATOM     20  H   LIG d   1       4.615  -2.231  -6.080  0.00  0.00     0.052 H 
ATOM     21  H   LIG d   1       3.527   1.797  -6.388  0.00  0.00     0.091 H 
ATOM     22  H   LIG d   1       2.265   0.537  -6.423  0.00  0.00     0.091 H 
ENDROOT
BRANCH  13  23
ATOM     23  C   LIG d   1       4.280   0.036  -4.692  0.00  0.00     0.075 A 
ATOM     24  C   LIG d   1       5.487   0.382  -4.090  0.00  0.00     0.141 A 
ATOM     25  C   LIG d   1       5.540   0.587  -2.721  0.00  0.00    -0.018 A 
ATOM     26  C   LIG d   1       4.399   0.440  -1.954  0.00  0.00    -0.058 A 
ATOM     27  H   LIG d   1       6.475   0.859  -2.252  0.00  0.00     0.066 H 
ATOM     28  C   LIG d   1       3.202   0.092  -2.551  0.00  0.00    -0.060 A 
ATOM     29  H   LIG d   1       4.444   0.596  -0.887  0.00  0.00     0.062 H 
ATOM     30  C   LIG d   1       3.139  -0.109  -3.917  0.00  0.00    -0.037 A 
ATOM     31  H   LIG d   1       2.313  -0.023  -1.948  0.00  0.00     0.062 H 
ATOM     32  H   LIG d   1       2.202  -0.382  -4.380  0.00  0.00     0.064 H 
BRANCH  24  33
ATOM     33  O   LIG d   1       6.610   0.521  -4.844  0.00  0.00    -0.493 OA
BRANCH  33  34
ATOM     34  C   LIG d   1       7.640  -0.453  -4.661  0.00  0.00     0.079 C 
ATOM     35  H   LIG d   1       7.361  -1.128  -3.853  0.00  0.00     0.066 H 
ATOM     36  H   LIG d   1       7.770  -1.021  -5.582  0.00  0.00     0.066 H 
ATOM     37  H   LIG d   1       8.574   0.050  -4.409  0.00  0.00     0.066 H 
ENDBRANCH  33  34
ENDBRANCH  24  33
ENDBRANCH  13  23
BRANCH   1  38
ATOM     38  C   LIG d   1       3.071  -4.613 -11.892  0.00  0.00    -0.039 C 
ATOM     39  H   LIG d   1       2.460  -5.501 -12.049  0.00  0.00     0.028 H 
ATOM     40  H   LIG d   1       2.555  -3.741 -12.294  0.00  0.00     0.028 H 
ATOM     41  H   LIG d   1       4.027  -4.735 -12.400  0.00  0.00     0.028 H 
ENDBRANCH   1  38
TORSDOF 4
ENDMDL
MODEL 9
REMARK VINA RESULT:      -5.4      4.351      6.399
REMARK  4 active torsions:
REMARK  status: ('A' for Active; 'I' for Inactive)
REMARK    1  A    between atoms: C_1  and  C_2 
REMARK    2  A    between atoms: N_14  and  C_17 
REMARK    3  A    between atoms: C_22  and  O_23 
REMARK    4  A    between atoms: O_23  and  C_24 
ROOT
ATOM      1  C   LIG d   1      11.915  -2.204  -6.165  0.00  0.00    -0.033 A 
ATOM      2  C   LIG d   1      12.304  -0.924  -5.930  0.00  0.00     0.026 A 
ATOM      3  C   LIG d   1      11.384  -0.005  -5.387  0.00  0.00     0.338 A 
ATOM      4  O   LIG d   1      11.753   1.138  -5.185  0.00  0.00    -0.245 OA
ATOM      5  O   LIG d   1      10.125  -0.334  -5.084  0.00  0.00    -0.422 OA
ATOM      6  C   LIG d   1       9.682  -1.589  -5.294  0.00  0.00     0.147 A 
ATOM      7  C   LIG d   1      10.536  -2.568  -5.834  0.00  0.00     0.021 A 
ATOM      8  C   LIG d   1      10.066  -3.869  -6.048  0.00  0.00    -0.047 A 
ATOM      9  C   LIG d   1       8.776  -4.184  -5.732  0.00  0.00    -0.019 A 
ATOM     10  C   LIG d   1       7.922  -3.219  -5.197  0.00  0.00     0.131 A 
ATOM     11  C   LIG d   1       8.372  -1.930  -4.977  0.00  0.00     0.054 A 
ATOM     12  C   LIG d   1       7.461  -0.881  -4.391  0.00  0.00     0.047 C 
ATOM     13  N   LIG d   1       6.063  -1.317  -4.519  0.00  0.00    -0.290 NA
ATOM     14  C   LIG d   1       5.915  -2.697  -4.028  0.00  0.00     0.157 C 
ATOM     15  O   LIG d   1       6.643  -3.569  -4.897  0.00  0.00    -0.473 OA
ATOM     16  H   LIG d   1      13.313  -0.611  -6.159  0.00  0.00     0.069 H 
ATOM     17  H   LIG d   1      10.721  -4.620  -6.463  0.00  0.00     0.063 H 
ATOM     18  H   LIG d   1       8.415  -5.187  -5.898  0.00  0.00     0.065 H 
ATOM     19  H   LIG d   1       7.702  -0.738  -3.338  0.00  0.00     0.052 H 
ATOM     20  H   LIG d   1       7.598   0.059  -4.926  0.00  0.00     0.052 H 
ATOM     21  H   LIG d   1       4.861  -2.975  -4.030  0.00  0.00     0.091 H 
ATOM     22  H   LIG d   1       6.314  -2.771  -3.017  0.00  0.00     0.091 H 
ENDROOT
BRANCH  13  23
ATOM     23  C   LIG d   1       5.203  -0.448  -3.837  0.00  0.00     0.075 A 
ATOM     24  C   LIG d   1       3.996  -0.062  -4.416  0.00  0.00     0.141 A 
ATOM     25  C   LIG d   1       3.147   0.793  -3.734  0.00  0.00    -0.018 A 
ATOM     26  C   LIG d   1       3.502   1.271  -2.486  0.00  0.00    -0.058 A 
ATOM     27  H   LIG d   1       2.209   1.091  -4.179  0.00  0.00     0.066 H 
ATOM     28  C   LIG d   1       4.702   0.893  -1.913  0.00  0.00    -0.060 A 
ATOM     29  H   LIG d   1       2.840   1.942  -1.958  0.00  0.00     0.062 H 
ATOM     30  C   LIG d   1       5.553   0.035  -2.584  0.00  0.00    -0.037 A 
ATOM     31  H   LIG d   1       4.975   1.269  -0.938  0.00  0.00     0.062 H 
ATOM     32  H   LIG d   1       6.490  -0.258  -2.134  0.00  0.00     0.064 H 
BRANCH  24  33
ATOM     33  O   LIG d   1       3.651  -0.528  -5.646  0.00  0.00    -0.493 OA
BRANCH  33  34
ATOM     34  C   LIG d   1       2.842   0.325  -6.459  0.00  0.00     0.079 C 
ATOM     35  H   LIG d   1       1.875   0.475  -5.979  0.00  0.00     0.066 H 
ATOM     36  H   LIG d   1       3.340   1.287  -6.584  0.00  0.00     0.066 H 
ATOM     37  H   LIG d   1       2.695  -0.138  -7.436  0.00  0.00     0.066 H 
ENDBRANCH  33  34
ENDBRANCH  24  33
ENDBRANCH  13  23
BRANCH   1  38
ATOM     38  C   LIG d   1      12.871  -3.216  -6.746  0.00  0.00    -0.039 C 
ATOM     39  H   LIG d   1      12.315  -3.938  -7.344  0.00  0.00     0.028 H 
ATOM     40  H   LIG d   1      13.599  -2.706  -7.376  0.00  0.00     0.028 H 
ATOM     41  H   LIG d   1      13.388  -3.733  -5.938  0.00  0.00     0.028 H 
ENDBRANCH   1  38
TORSDOF 4
ENDMDL
MODEL 10
REMARK VINA RESULT:      -5.4      4.357      5.609
REMARK  4 active torsions:
REMARK  status: ('A' for Active; 'I' for Inactive)
REMARK    1  A    between atoms: C_1  and  C_2 
REMARK    2  A    between atoms: N_14  and  C_17 
REMARK    3  A    between atoms: C_22  and  O_23 
REMARK    4  A    between atoms: O_23  and  C_24 
ROOT
ATOM      1  C   LIG d   1       4.801  -8.655  -7.717  0.00  0.00    -0.033 A 
ATOM      2  C   LIG d   1       4.759  -9.278  -6.511  0.00  0.00     0.026 A 
ATOM      3  C   LIG d   1       4.752  -8.510  -5.329  0.00  0.00     0.338 A 
ATOM      4  O   LIG d   1       4.716  -9.089  -4.259  0.00  0.00    -0.245 OA
ATOM      5  O   LIG d   1       4.784  -7.174  -5.334  0.00  0.00    -0.422 OA
ATOM      6  C   LIG d   1       4.825  -6.500  -6.501  0.00  0.00     0.147 A 
ATOM      7  C   LIG d   1       4.836  -7.191  -7.725  0.00  0.00     0.021 A 
ATOM      8  C   LIG d   1       4.879  -6.482  -8.931  0.00  0.00    -0.047 A 
ATOM      9  C   LIG d   1       4.911  -5.118  -8.914  0.00  0.00    -0.019 A 
ATOM     10  C   LIG d   1       4.901  -4.424  -7.703  0.00  0.00     0.131 A 
ATOM     11  C   LIG d   1       4.856  -5.110  -6.504  0.00  0.00     0.054 A 
ATOM     12  C   LIG d   1       4.837  -4.371  -5.189  0.00  0.00     0.047 C 
ATOM     13  N   LIG d   1       5.285  -2.987  -5.396  0.00  0.00    -0.290 NA
ATOM     14  C   LIG d   1       4.559  -2.383  -6.526  0.00  0.00     0.157 C 
ATOM     15  O   LIG d   1       4.936  -3.065  -7.725  0.00  0.00    -0.473 OA
ATOM     16  H   LIG d   1       4.734 -10.357  -6.457  0.00  0.00     0.069 H 
ATOM     17  H   LIG d   1       4.888  -7.012  -9.872  0.00  0.00     0.063 H 
ATOM     18  H   LIG d   1       4.944  -4.571  -9.844  0.00  0.00     0.065 H 
ATOM     19  H   LIG d   1       3.824  -4.370  -4.788  0.00  0.00     0.052 H 
ATOM     20  H   LIG d   1       5.505  -4.867  -4.484  0.00  0.00     0.052 H 
ATOM     21  H   LIG d   1       4.821  -1.328  -6.607  0.00  0.00     0.091 H 
ATOM     22  H   LIG d   1       3.486  -2.486  -6.369  0.00  0.00     0.091 H 
ENDROOT
BRANCH  13  23
ATOM     23  C   LIG d   1       5.119  -2.228  -4.231  0.00  0.00     0.075 A 
ATOM     24  C   LIG d   1       6.013  -1.202  -3.934  0.00  0.00     0.141 A 
ATOM     25  C   LIG d   1       5.841  -0.450  -2.783  0.00  0.00    -0.018 A 
ATOM     26  C   LIG d   1       4.790  -0.726  -1.927  0.00  0.00    -0.058 A 
ATOM     27  H   LIG d   1       6.530   0.348  -2.552  0.00  0.00     0.066 H 
ATOM     28  C   LIG d   1       3.906  -1.747  -2.220  0.00  0.00    -0.060 A 
ATOM     29  H   LIG d   1       4.660  -0.141  -1.029  0.00  0.00     0.062 H 
ATOM     30  C   LIG d   1       4.066  -2.498  -3.369  0.00  0.00    -0.037 A 
ATOM     31  H   LIG d   1       3.086  -1.959  -1.549  0.00  0.00     0.062 H 
ATOM     32  H   LIG d   1       3.374  -3.296  -3.594  0.00  0.00     0.064 H 
BRANCH  24  33
ATOM     33  O   LIG d   1       7.049  -0.935  -4.773  0.00  0.00    -0.493 OA
BRANCH  33  34
ATOM     34  C   LIG d   1       7.036   0.328  -5.440  0.00  0.00     0.079 C 
ATOM     35  H   LIG d   1       8.013   0.515  -5.884  0.00  0.00     0.066 H 
ATOM     36  H   LIG d   1       6.277   0.318  -6.222  0.00  0.00     0.066 H 
ATOM     37  H   LIG d   1       6.807   1.116  -4.721  0.00  0.00     0.066 H 
ENDBRANCH  33  34
ENDBRANCH  24  33
ENDBRANCH  13  23
BRANCH   1  38
ATOM     38  C   LIG d   1       4.812  -9.443  -9.002  0.00  0.00    -0.039 C 
ATOM     39  H   LIG d   1       3.789  -9.693  -9.283  0.00  0.00     0.028 H 
ATOM     40  H   LIG d   1       5.269  -8.845  -9.790  0.00  0.00     0.028 H 
ATOM     41  H   LIG d   1       5.385 -10.359  -8.862  0.00  0.00     0.028 H 
ENDBRANCH   1  38
TORSDOF 4
ENDMDL
