MODEL 1
REMARK VINA RESULT:      -5.7      0.000      0.000
REMARK  13 active torsions:
REMARK  status: ('A' for Active; 'I' for Inactive)
REMARK    1  A    between atoms: C_1  and  C_2 
REMARK    2  A    between atoms: C_2  and  O_3 
REMARK    3  A    between atoms: O_3  and  C_4 
REMARK    4  A    between atoms: C_9  and  O_10 
REMARK    5  A    between atoms: O_10  and  C_11 
REMARK    6  A    between atoms: C_11  and  C_12 
REMARK    7  A    between atoms: C_13  and  C_29 
REMARK    8  A    between atoms: N_15  and  C_19 
REMARK    9  A    between atoms: C_22  and  C_25 
REMARK   10  A    between atoms: C_25  and  O_27 
REMARK   11  A    between atoms: O_27  and  C_28 
REMARK   12  A    between atoms: C_32  and  O_35 
REMARK   13  A    between atoms: O_35  and  C_36 
ROOT
ATOM      1  C   LIG d   1       7.856   1.448  -4.436  0.00  0.00     0.162 A 
ATOM      2  C   LIG d   1       8.795   0.637  -5.051  0.00  0.00    -0.012 A 
ATOM      3  C   LIG d   1       8.720  -0.742  -4.925  0.00  0.00    -0.030 A 
ATOM      4  C   LIG d   1       7.706  -1.313  -4.186  0.00  0.00    -0.015 A 
ATOM      5  C   LIG d   1       6.763  -0.505  -3.567  0.00  0.00    -0.011 A 
ATOM      6  C   LIG d   1       6.834   0.872  -3.689  0.00  0.00     0.162 A 
ATOM      7  C   LIG d   1       7.587  -2.805  -4.032  0.00  0.00     0.082 C 
ATOM      8  H   LIG d   1       7.255  -3.030  -3.018  0.00  0.00     0.060 H 
ATOM      9  N   LIG d   1       8.851  -3.478  -4.275  0.00  0.00    -0.260 N 
ATOM     10  C   LIG d   1       9.843  -2.947  -4.992  0.00  0.00     0.225 C 
ATOM     11  O   LIG d   1      10.856  -3.595  -5.151  0.00  0.00    -0.275 OA
ATOM     12  C   LIG d   1       9.760  -1.585  -5.610  0.00  0.00     0.050 C 
ATOM     13  H   LIG d   1       9.590   1.081  -5.632  0.00  0.00     0.066 H 
ATOM     14  H   LIG d   1       5.969  -0.952  -2.987  0.00  0.00     0.066 H 
ATOM     15  H   LIG d   1      10.731  -1.095  -5.526  0.00  0.00     0.041 H 
ATOM     16  H   LIG d   1       9.501  -1.686  -6.664  0.00  0.00     0.041 H 
ENDROOT
BRANCH   9  17
ATOM     17  C   LIG d   1       9.036  -4.750  -3.733  0.00  0.00     0.037 A 
ATOM     18  C   LIG d   1       9.532  -4.888  -2.440  0.00  0.00    -0.040 A 
ATOM     19  C   LIG d   1       9.716  -6.141  -1.903  0.00  0.00    -0.046 A 
ATOM     20  H   LIG d   1       9.771  -4.010  -1.858  0.00  0.00     0.064 H 
ATOM     21  C   LIG d   1       9.405  -7.276  -2.658  0.00  0.00     0.059 A 
ATOM     22  H   LIG d   1      10.100  -6.247  -0.899  0.00  0.00     0.063 H 
ATOM     23  C   LIG d   1       8.904  -7.133  -3.955  0.00  0.00    -0.046 A 
ATOM     24  C   LIG d   1       8.727  -5.877  -4.488  0.00  0.00    -0.040 A 
ATOM     25  H   LIG d   1       8.660  -8.008  -4.539  0.00  0.00     0.063 H 
ATOM     26  H   LIG d   1       8.343  -5.767  -5.491  0.00  0.00     0.064 H 
BRANCH  21  27
ATOM     27  C   LIG d   1       9.601  -8.621  -2.085  0.00  0.00     0.339 C 
ATOM     28  O   LIG d   1      10.578  -8.853  -1.401  0.00  0.00    -0.245 OA
BRANCH  27  29
ATOM     29  O   LIG d   1       8.697  -9.591  -2.319  0.00  0.00    -0.465 OA
BRANCH  29  30
ATOM     30  C   LIG d   1       7.497  -9.586  -1.501  0.00  0.00     0.082 C 
ATOM     31  H   LIG d   1       7.550  -8.767  -0.784  0.00  0.00     0.066 H 
ATOM     32  H   LIG d   1       6.622  -9.456  -2.138  0.00  0.00     0.066 H 
ATOM     33  H   LIG d   1       7.418 -10.532  -0.966  0.00  0.00     0.066 H 
ENDBRANCH  29  30
ENDBRANCH  27  29
ENDBRANCH  21  27
ENDBRANCH   9  17
BRANCH   7  34
ATOM     34  C   LIG d   1       6.561  -3.323  -5.007  0.00  0.00    -0.022 A 
ATOM     35  C   LIG d   1       5.379  -3.867  -4.540  0.00  0.00    -0.053 A 
ATOM     36  C   LIG d   1       4.437  -4.343  -5.432  0.00  0.00    -0.020 A 
ATOM     37  H   LIG d   1       5.192  -3.922  -3.478  0.00  0.00     0.062 H 
ATOM     38  C   LIG d   1       4.678  -4.272  -6.796  0.00  0.00     0.120 A 
ATOM     39  H   LIG d   1       3.514  -4.767  -5.068  0.00  0.00     0.065 H 
ATOM     40  C   LIG d   1       5.864  -3.725  -7.262  0.00  0.00    -0.020 A 
ATOM     41  C   LIG d   1       6.801  -3.245  -6.366  0.00  0.00    -0.053 A 
ATOM     42  H   LIG d   1       6.054  -3.668  -8.324  0.00  0.00     0.065 H 
ATOM     43  H   LIG d   1       7.723  -2.815  -6.728  0.00  0.00     0.062 H 
BRANCH  38  44
ATOM     44  O   LIG d   1       3.752  -4.737  -7.677  0.00  0.00    -0.495 OA
BRANCH  44  45
ATOM     45  C   LIG d   1       3.483  -3.929  -8.824  0.00  0.00     0.079 C 
ATOM     46  H   LIG d   1       2.728  -3.184  -8.574  0.00  0.00     0.066 H 
ATOM     47  H   LIG d   1       4.400  -3.427  -9.137  0.00  0.00     0.066 H 
ATOM     48  H   LIG d   1       3.119  -4.559  -9.635  0.00  0.00     0.066 H 
ENDBRANCH  44  45
ENDBRANCH  38  44
ENDBRANCH   7  34
BRANCH   6  49
ATOM     49  O   LIG d   1       5.906   1.659  -3.081  0.00  0.00    -0.489 OA
BRANCH  49  50
ATOM     50  C   LIG d   1       5.006   1.020  -2.174  0.00  0.00     0.087 C 
ATOM     51  H   LIG d   1       5.163  -0.059  -2.205  0.00  0.00     0.069 H 
ATOM     52  H   LIG d   1       5.188   1.384  -1.163  0.00  0.00     0.069 H 
BRANCH  50  53
ATOM     53  C   LIG d   1       3.564   1.336  -2.577  0.00  0.00    -0.031 C 
ATOM     54  H   LIG d   1       3.112   1.985  -1.828  0.00  0.00     0.026 H 
ATOM     55  H   LIG d   1       3.559   1.839  -3.544  0.00  0.00     0.026 H 
ATOM     56  H   LIG d   1       2.995   0.409  -2.646  0.00  0.00     0.026 H 
ENDBRANCH  50  53
ENDBRANCH  49  50
ENDBRANCH   6  49
BRANCH   1  57
ATOM     57  O   LIG d   1       7.934   2.799  -4.562  0.00  0.00    -0.489 OA
BRANCH  57  58
ATOM     58  C   LIG d   1       9.241   3.375  -4.598  0.00  0.00     0.087 C 
ATOM     59  H   LIG d   1       9.937   2.668  -5.052  0.00  0.00     0.069 H 
ATOM     60  H   LIG d   1       9.218   4.291  -5.187  0.00  0.00     0.069 H 
BRANCH  58  61
ATOM     61  C   LIG d   1       9.697   3.695  -3.173  0.00  0.00    -0.031 C 
ATOM     62  H   LIG d   1      10.176   2.817  -2.740  0.00  0.00     0.026 H 
ATOM     63  H   LIG d   1      10.406   4.523  -3.195  0.00  0.00     0.026 H 
ATOM     64  H   LIG d   1       8.833   3.972  -2.570  0.00  0.00     0.026 H 
ENDBRANCH  58  61
ENDBRANCH  57  58
ENDBRANCH   1  57
TORSDOF 13
ENDMDL
MODEL 2
REMARK VINA RESULT:      -5.5      4.865      8.655
REMARK  13 active torsions:
REMARK  status: ('A' for Active; 'I' for Inactive)
REMARK    1  A    between atoms: C_1  and  C_2 
REMARK    2  A    between atoms: C_2  and  O_3 
REMARK    3  A    between atoms: O_3  and  C_4 
REMARK    4  A    between atoms: C_9  and  O_10 
REMARK    5  A    between atoms: O_10  and  C_11 
REMARK    6  A    between atoms: C_11  and  C_12 
REMARK    7  A    between atoms: C_13  and  C_29 
REMARK    8  A    between atoms: N_15  and  C_19 
REMARK    9  A    between atoms: C_22  and  C_25 
REMARK   10  A    between atoms: C_25  and  O_27 
REMARK   11  A    between atoms: O_27  and  C_28 
REMARK   12  A    between atoms: C_32  and  O_35 
REMARK   13  A    between atoms: O_35  and  C_36 
ROOT
ATOM      1  C   LIG d   1       3.256  -0.045  -4.946  0.00  0.00     0.162 A 
ATOM      2  C   LIG d   1       2.917   0.720  -6.049  0.00  0.00    -0.012 A 
ATOM      3  C   LIG d   1       3.267   0.304  -7.325  0.00  0.00    -0.030 A 
ATOM      4  C   LIG d   1       3.954  -0.878  -7.501  0.00  0.00    -0.015 A 
ATOM      5  C   LIG d   1       4.296  -1.649  -6.399  0.00  0.00    -0.011 A 
ATOM      6  C   LIG d   1       3.950  -1.238  -5.123  0.00  0.00     0.162 A 
ATOM      7  C   LIG d   1       4.345  -1.367  -8.869  0.00  0.00     0.082 C 
ATOM      8  H   LIG d   1       5.330  -1.831  -8.811  0.00  0.00     0.060 H 
ATOM      9  N   LIG d   1       4.388  -0.287  -9.839  0.00  0.00    -0.260 N 
ATOM     10  C   LIG d   1       3.726   0.863  -9.692  0.00  0.00     0.225 C 
ATOM     11  O   LIG d   1       3.815   1.699 -10.567  0.00  0.00    -0.275 OA
ATOM     12  C   LIG d   1       2.879   1.165  -8.495  0.00  0.00     0.050 C 
ATOM     13  H   LIG d   1       2.378   1.646  -5.915  0.00  0.00     0.066 H 
ATOM     14  H   LIG d   1       4.835  -2.575  -6.536  0.00  0.00     0.066 H 
ATOM     15  H   LIG d   1       3.004   2.214  -8.225  0.00  0.00     0.041 H 
ATOM     16  H   LIG d   1       1.833   0.982  -8.742  0.00  0.00     0.041 H 
ENDROOT
BRANCH   9  17
ATOM     17  C   LIG d   1       5.159  -0.461 -10.988  0.00  0.00     0.037 A 
ATOM     18  C   LIG d   1       6.546  -0.516 -10.891  0.00  0.00    -0.040 A 
ATOM     19  C   LIG d   1       7.310  -0.688 -12.022  0.00  0.00    -0.046 A 
ATOM     20  H   LIG d   1       7.023  -0.423  -9.926  0.00  0.00     0.064 H 
ATOM     21  C   LIG d   1       6.691  -0.808 -13.270  0.00  0.00     0.059 A 
ATOM     22  H   LIG d   1       8.387  -0.730 -11.946  0.00  0.00     0.063 H 
ATOM     23  C   LIG d   1       5.297  -0.757 -13.363  0.00  0.00    -0.046 A 
ATOM     24  C   LIG d   1       4.540  -0.579 -12.228  0.00  0.00    -0.040 A 
ATOM     25  H   LIG d   1       4.817  -0.853 -14.325  0.00  0.00     0.063 H 
ATOM     26  H   LIG d   1       3.463  -0.537 -12.300  0.00  0.00     0.064 H 
BRANCH  21  27
ATOM     27  C   LIG d   1       7.507  -0.993 -14.485  0.00  0.00     0.339 C 
ATOM     28  O   LIG d   1       7.817  -2.112 -14.843  0.00  0.00    -0.245 OA
BRANCH  27  29
ATOM     29  O   LIG d   1       7.907   0.078 -15.197  0.00  0.00    -0.465 OA
BRANCH  29  30
ATOM     30  C   LIG d   1       7.172   0.373 -16.414  0.00  0.00     0.082 C 
ATOM     31  H   LIG d   1       6.989  -0.553 -16.961  0.00  0.00     0.066 H 
ATOM     32  H   LIG d   1       6.220   0.839 -16.161  0.00  0.00     0.066 H 
ATOM     33  H   LIG d   1       7.754   1.052 -17.035  0.00  0.00     0.066 H 
ENDBRANCH  29  30
ENDBRANCH  27  29
ENDBRANCH  21  27
ENDBRANCH   9  17
BRANCH   7  34
ATOM     34  C   LIG d   1       3.347  -2.398  -9.330  0.00  0.00    -0.022 A 
ATOM     35  C   LIG d   1       2.117  -1.998  -9.817  0.00  0.00    -0.053 A 
ATOM     36  C   LIG d   1       1.200  -2.942 -10.240  0.00  0.00    -0.020 A 
ATOM     37  H   LIG d   1       1.871  -0.948  -9.866  0.00  0.00     0.062 H 
ATOM     38  C   LIG d   1       1.516  -4.291 -10.178  0.00  0.00     0.120 A 
ATOM     39  H   LIG d   1       0.240  -2.629 -10.621  0.00  0.00     0.065 H 
ATOM     40  C   LIG d   1       2.752  -4.690  -9.689  0.00  0.00    -0.020 A 
ATOM     41  C   LIG d   1       3.668  -3.742  -9.272  0.00  0.00    -0.053 A 
ATOM     42  H   LIG d   1       3.001  -5.740  -9.639  0.00  0.00     0.065 H 
ATOM     43  H   LIG d   1       4.631  -4.052  -8.897  0.00  0.00     0.062 H 
BRANCH  38  44
ATOM     44  O   LIG d   1       0.618  -5.221 -10.595  0.00  0.00    -0.495 OA
BRANCH  44  45
ATOM     45  C   LIG d   1      -0.761  -4.848 -10.572  0.00  0.00     0.079 C 
ATOM     46  H   LIG d   1      -1.136  -4.906  -9.550  0.00  0.00     0.066 H 
ATOM     47  H   LIG d   1      -0.867  -3.827 -10.941  0.00  0.00     0.066 H 
ATOM     48  H   LIG d   1      -1.332  -5.524 -11.208  0.00  0.00     0.066 H 
ENDBRANCH  44  45
ENDBRANCH  38  44
ENDBRANCH   7  34
BRANCH   6  49
ATOM     49  O   LIG d   1       4.288  -1.997  -4.047  0.00  0.00    -0.489 OA
BRANCH  49  50
ATOM     50  C   LIG d   1       5.567  -2.635  -4.077  0.00  0.00     0.087 C 
ATOM     51  H   LIG d   1       5.500  -3.607  -3.587  0.00  0.00     0.069 H 
ATOM     52  H   LIG d   1       5.880  -2.771  -5.112  0.00  0.00     0.069 H 
BRANCH  50  53
ATOM     53  C   LIG d   1       6.589  -1.764  -3.345  0.00  0.00    -0.031 C 
ATOM     54  H   LIG d   1       6.776  -2.177  -2.355  0.00  0.00     0.026 H 
ATOM     55  H   LIG d   1       7.520  -1.743  -3.911  0.00  0.00     0.026 H 
ATOM     56  H   LIG d   1       6.199  -0.750  -3.249  0.00  0.00     0.026 H 
ENDBRANCH  50  53
ENDBRANCH  49  50
ENDBRANCH   6  49
BRANCH   1  57
ATOM     57  O   LIG d   1       2.911   0.367  -3.697  0.00  0.00    -0.489 OA
BRANCH  57  58
ATOM     58  C   LIG d   1       3.714   1.391  -3.106  0.00  0.00     0.087 C 
ATOM     59  H   LIG d   1       4.478   1.708  -3.816  0.00  0.00     0.069 H 
ATOM     60  H   LIG d   1       3.083   2.241  -2.847  0.00  0.00     0.069 H 
BRANCH  58  61
ATOM     61  C   LIG d   1       4.384   0.848  -1.842  0.00  0.00    -0.031 C 
ATOM     62  H   LIG d   1       3.622   0.467  -1.163  0.00  0.00     0.026 H 
ATOM     63  H   LIG d   1       5.068   0.042  -2.111  0.00  0.00     0.026 H 
ATOM     64  H   LIG d   1       4.939   1.649  -1.354  0.00  0.00     0.026 H 
ENDBRANCH  58  61
ENDBRANCH  57  58
ENDBRANCH   1  57
TORSDOF 13
ENDMDL
MODEL 3
REMARK VINA RESULT:      -5.4      3.696     10.070
REMARK  13 active torsions:
REMARK  status: ('A' for Active; 'I' for Inactive)
REMARK    1  A    between atoms: C_1  and  C_2 
REMARK    2  A    between atoms: C_2  and  O_3 
REMARK    3  A    between atoms: O_3  and  C_4 
REMARK    4  A    between atoms: C_9  and  O_10 
REMARK    5  A    between atoms: O_10  and  C_11 
REMARK    6  A    between atoms: C_11  and  C_12 
REMARK    7  A    between atoms: C_13  and  C_29 
REMARK    8  A    between atoms: N_15  and  C_19 
REMARK    9  A    between atoms: C_22  and  C_25 
REMARK   10  A    between atoms: C_25  and  O_27 
REMARK   11  A    between atoms: O_27  and  C_28 
REMARK   12  A    between atoms: C_32  and  O_35 
REMARK   13  A    between atoms: O_35  and  C_36 
ROOT
ATOM      1  C   LIG d   1       7.413  -1.331  -4.122  0.00  0.00     0.162 A 
ATOM      2  C   LIG d   1       8.561  -1.219  -4.889  0.00  0.00    -0.012 A 
ATOM      3  C   LIG d   1       8.995   0.025  -5.322  0.00  0.00    -0.030 A 
ATOM      4  C   LIG d   1       8.284   1.158  -4.989  0.00  0.00    -0.015 A 
ATOM      5  C   LIG d   1       7.133   1.051  -4.221  0.00  0.00    -0.011 A 
ATOM      6  C   LIG d   1       6.696  -0.188  -3.786  0.00  0.00     0.162 A 
ATOM      7  C   LIG d   1       8.727   2.526  -5.434  0.00  0.00     0.082 C 
ATOM      8  H   LIG d   1       7.846   3.119  -5.683  0.00  0.00     0.060 H 
ATOM      9  N   LIG d   1       9.597   2.462  -6.595  0.00  0.00    -0.260 N 
ATOM     10  C   LIG d   1      10.299   1.379  -6.933  0.00  0.00     0.225 C 
ATOM     11  O   LIG d   1      11.010   1.431  -7.914  0.00  0.00    -0.275 OA
ATOM     12  C   LIG d   1      10.246   0.102  -6.152  0.00  0.00     0.050 C 
ATOM     13  H   LIG d   1       9.120  -2.104  -5.150  0.00  0.00     0.066 H 
ATOM     14  H   LIG d   1       6.576   1.939  -3.960  0.00  0.00     0.066 H 
ATOM     15  H   LIG d   1      10.269  -0.741  -6.844  0.00  0.00     0.041 H 
ATOM     16  H   LIG d   1      11.115   0.048  -5.496  0.00  0.00     0.041 H 
ENDROOT
BRANCH   9  17
ATOM     17  C   LIG d   1       9.709   3.597  -7.398  0.00  0.00     0.037 A 
ATOM     18  C   LIG d   1      10.753   4.493  -7.192  0.00  0.00    -0.040 A 
ATOM     19  C   LIG d   1      10.867   5.613  -7.983  0.00  0.00    -0.046 A 
ATOM     20  H   LIG d   1      11.476   4.308  -6.411  0.00  0.00     0.064 H 
ATOM     21  C   LIG d   1       9.931   5.851  -8.994  0.00  0.00     0.059 A 
ATOM     22  H   LIG d   1      11.679   6.308  -7.822  0.00  0.00     0.063 H 
ATOM     23  C   LIG d   1       8.885   4.947  -9.201  0.00  0.00    -0.046 A 
ATOM     24  C   LIG d   1       8.775   3.831  -8.403  0.00  0.00    -0.040 A 
ATOM     25  H   LIG d   1       8.164   5.126  -9.984  0.00  0.00     0.063 H 
ATOM     26  H   LIG d   1       7.965   3.134  -8.561  0.00  0.00     0.064 H 
BRANCH  21  27
ATOM     27  C   LIG d   1      10.050   7.051  -9.843  0.00  0.00     0.339 C 
ATOM     28  O   LIG d   1      10.168   6.933 -11.047  0.00  0.00    -0.245 OA
BRANCH  27  29
ATOM     29  O   LIG d   1      10.027   8.276  -9.285  0.00  0.00    -0.465 OA
BRANCH  29  30
ATOM     30  C   LIG d   1       8.949   8.556  -8.354  0.00  0.00     0.082 C 
ATOM     31  H   LIG d   1       9.204   9.431  -7.755  0.00  0.00     0.066 H 
ATOM     32  H   LIG d   1       8.030   8.751  -8.907  0.00  0.00     0.066 H 
ATOM     33  H   LIG d   1       8.802   7.698  -7.698  0.00  0.00     0.066 H 
ENDBRANCH  29  30
ENDBRANCH  27  29
ENDBRANCH  21  27
ENDBRANCH   9  17
BRANCH   7  34
ATOM     34  C   LIG d   1       9.464   3.199  -4.306  0.00  0.00    -0.022 A 
ATOM     35  C   LIG d   1       9.259   4.542  -4.051  0.00  0.00    -0.053 A 
ATOM     36  C   LIG d   1       9.934   5.162  -3.017  0.00  0.00    -0.020 A 
ATOM     37  H   LIG d   1       8.571   5.108  -4.662  0.00  0.00     0.062 H 
ATOM     38  C   LIG d   1      10.817   4.435  -2.233  0.00  0.00     0.120 A 
ATOM     39  H   LIG d   1       9.772   6.211  -2.818  0.00  0.00     0.065 H 
ATOM     40  C   LIG d   1      11.022   3.087  -2.490  0.00  0.00    -0.020 A 
ATOM     41  C   LIG d   1      10.340   2.470  -3.522  0.00  0.00    -0.053 A 
ATOM     42  H   LIG d   1      11.709   2.518  -1.881  0.00  0.00     0.065 H 
ATOM     43  H   LIG d   1      10.495   1.420  -3.719  0.00  0.00     0.062 H 
BRANCH  38  44
ATOM     44  O   LIG d   1      11.482   5.041  -1.214  0.00  0.00    -0.495 OA
BRANCH  44  45
ATOM     45  C   LIG d   1      10.749   5.987  -0.434  0.00  0.00     0.079 C 
ATOM     46  H   LIG d   1       9.738   6.080  -0.830  0.00  0.00     0.066 H 
ATOM     47  H   LIG d   1      10.703   5.647   0.601  0.00  0.00     0.066 H 
ATOM     48  H   LIG d   1      11.246   6.956  -0.475  0.00  0.00     0.066 H 
ENDBRANCH  44  45
ENDBRANCH  38  44
ENDBRANCH   7  34
BRANCH   6  49
ATOM     49  O   LIG d   1       5.567  -0.287  -3.033  0.00  0.00    -0.489 OA
BRANCH  49  50
ATOM     50  C   LIG d   1       5.149   0.886  -2.332  0.00  0.00     0.087 C 
ATOM     51  H   LIG d   1       5.459   0.816  -1.289  0.00  0.00     0.069 H 
ATOM     52  H   LIG d   1       5.606   1.764  -2.788  0.00  0.00     0.069 H 
BRANCH  50  53
ATOM     53  C   LIG d   1       3.626   1.009  -2.405  0.00  0.00    -0.031 C 
ATOM     54  H   LIG d   1       3.169   0.219  -1.810  0.00  0.00     0.026 H 
ATOM     55  H   LIG d   1       3.320   1.979  -2.016  0.00  0.00     0.026 H 
ATOM     56  H   LIG d   1       3.303   0.915  -3.442  0.00  0.00     0.026 H 
ENDBRANCH  50  53
ENDBRANCH  49  50
ENDBRANCH   6  49
BRANCH   1  57
ATOM     57  O   LIG d   1       6.992  -2.553  -3.699  0.00  0.00    -0.489 OA
BRANCH  57  58
ATOM     58  C   LIG d   1       6.456  -3.433  -4.688  0.00  0.00     0.087 C 
ATOM     59  H   LIG d   1       6.767  -3.099  -5.679  0.00  0.00     0.069 H 
ATOM     60  H   LIG d   1       6.825  -4.443  -4.513  0.00  0.00     0.069 H 
BRANCH  58  61
ATOM     61  C   LIG d   1       4.928  -3.427  -4.604  0.00  0.00    -0.031 C 
ATOM     62  H   LIG d   1       4.511  -3.707  -5.571  0.00  0.00     0.026 H 
ATOM     63  H   LIG d   1       4.603  -4.141  -3.847  0.00  0.00     0.026 H 
ATOM     64  H   LIG d   1       4.584  -2.428  -4.335  0.00  0.00     0.026 H 
ENDBRANCH  58  61
ENDBRANCH  57  58
ENDBRANCH   1  57
TORSDOF 13
ENDMDL
MODEL 4
REMARK VINA RESULT:      -5.3      4.323      8.912
REMARK  13 active torsions:
REMARK  status: ('A' for Active; 'I' for Inactive)
REMARK    1  A    between atoms: C_1  and  C_2 
REMARK    2  A    between atoms: C_2  and  O_3 
REMARK    3  A    between atoms: O_3  and  C_4 
REMARK    4  A    between atoms: C_9  and  O_10 
REMARK    5  A    between atoms: O_10  and  C_11 
REMARK    6  A    between atoms: C_11  and  C_12 
REMARK    7  A    between atoms: C_13  and  C_29 
REMARK    8  A    between atoms: N_15  and  C_19 
REMARK    9  A    between atoms: C_22  and  C_25 
REMARK   10  A    between atoms: C_25  and  O_27 
REMARK   11  A    between atoms: O_27  and  C_28 
REMARK   12  A    between atoms: C_32  and  O_35 
REMARK   13  A    between atoms: O_35  and  C_36 
ROOT
ATOM      1  C   LIG d   1       1.502  -2.006 -12.313  0.00  0.00     0.162 A 
ATOM      2  C   LIG d   1       2.280  -0.925 -11.935  0.00  0.00    -0.012 A 
ATOM      3  C   LIG d   1       2.827  -0.867 -10.662  0.00  0.00    -0.030 A 
ATOM      4  C   LIG d   1       2.600  -1.891  -9.766  0.00  0.00    -0.015 A 
ATOM      5  C   LIG d   1       1.820  -2.976 -10.142  0.00  0.00    -0.011 A 
ATOM      6  C   LIG d   1       1.271  -3.038 -11.410  0.00  0.00     0.162 A 
ATOM      7  C   LIG d   1       3.183  -1.869  -8.379  0.00  0.00     0.082 C 
ATOM      8  H   LIG d   1       2.454  -2.285  -7.683  0.00  0.00     0.060 H 
ATOM      9  N   LIG d   1       3.524  -0.522  -7.956  0.00  0.00    -0.260 N 
ATOM     10  C   LIG d   1       3.754   0.482  -8.805  0.00  0.00     0.225 C 
ATOM     11  O   LIG d   1       4.049   1.568  -8.353  0.00  0.00    -0.275 OA
ATOM     12  C   LIG d   1       3.667   0.324 -10.292  0.00  0.00     0.050 C 
ATOM     13  H   LIG d   1       2.461  -0.122 -12.634  0.00  0.00     0.066 H 
ATOM     14  H   LIG d   1       1.642  -3.778  -9.440  0.00  0.00     0.066 H 
ATOM     15  H   LIG d   1       3.221   1.223 -10.720  0.00  0.00     0.041 H 
ATOM     16  H   LIG d   1       4.670   0.194 -10.698  0.00  0.00     0.041 H 
ENDROOT
BRANCH   9  17
ATOM     17  C   LIG d   1       3.621  -0.265  -6.589  0.00  0.00     0.037 A 
ATOM     18  C   LIG d   1       2.497   0.143  -5.878  0.00  0.00    -0.040 A 
ATOM     19  C   LIG d   1       2.589   0.398  -4.529  0.00  0.00    -0.046 A 
ATOM     20  H   LIG d   1       1.551   0.259  -6.386  0.00  0.00     0.064 H 
ATOM     21  C   LIG d   1       3.815   0.247  -3.873  0.00  0.00     0.059 A 
ATOM     22  H   LIG d   1       1.716   0.715  -3.978  0.00  0.00     0.063 H 
ATOM     23  C   LIG d   1       4.942  -0.167  -4.590  0.00  0.00    -0.046 A 
ATOM     24  C   LIG d   1       4.843  -0.415  -5.940  0.00  0.00    -0.040 A 
ATOM     25  H   LIG d   1       5.888  -0.287  -4.085  0.00  0.00     0.063 H 
ATOM     26  H   LIG d   1       5.714  -0.732  -6.494  0.00  0.00     0.064 H 
BRANCH  21  27
ATOM     27  C   LIG d   1       3.917   0.520  -2.428  0.00  0.00     0.339 C 
ATOM     28  O   LIG d   1       3.528   1.580  -1.980  0.00  0.00    -0.245 OA
BRANCH  27  29
ATOM     29  O   LIG d   1       4.441  -0.408  -1.603  0.00  0.00    -0.465 OA
BRANCH  29  30
ATOM     30  C   LIG d   1       4.199  -1.800  -1.937  0.00  0.00     0.082 C 
ATOM     31  H   LIG d   1       4.532  -1.992  -2.957  0.00  0.00     0.066 H 
ATOM     32  H   LIG d   1       4.749  -2.441  -1.249  0.00  0.00     0.066 H 
ATOM     33  H   LIG d   1       3.133  -2.013  -1.858  0.00  0.00     0.066 H 
ENDBRANCH  29  30
ENDBRANCH  27  29
ENDBRANCH  21  27
ENDBRANCH   9  17
BRANCH   7  34
ATOM     34  C   LIG d   1       4.425  -2.721  -8.351  0.00  0.00    -0.022 A 
ATOM     35  C   LIG d   1       4.477  -3.838  -7.538  0.00  0.00    -0.053 A 
ATOM     36  C   LIG d   1       5.615  -4.621  -7.510  0.00  0.00    -0.020 A 
ATOM     37  H   LIG d   1       3.628  -4.099  -6.924  0.00  0.00     0.062 H 
ATOM     38  C   LIG d   1       6.706  -4.286  -8.300  0.00  0.00     0.120 A 
ATOM     39  H   LIG d   1       5.655  -5.494  -6.876  0.00  0.00     0.065 H 
ATOM     40  C   LIG d   1       6.651  -3.165  -9.115  0.00  0.00    -0.020 A 
ATOM     41  C   LIG d   1       5.508  -2.388  -9.143  0.00  0.00    -0.053 A 
ATOM     42  H   LIG d   1       7.498  -2.901  -9.730  0.00  0.00     0.065 H 
ATOM     43  H   LIG d   1       5.463  -1.518  -9.781  0.00  0.00     0.062 H 
BRANCH  38  44
ATOM     44  O   LIG d   1       7.826  -5.055  -8.276  0.00  0.00    -0.495 OA
BRANCH  44  45
ATOM     45  C   LIG d   1       8.149  -5.693  -7.038  0.00  0.00     0.079 C 
ATOM     46  H   LIG d   1       7.240  -5.834  -6.454  0.00  0.00     0.066 H 
ATOM     47  H   LIG d   1       8.607  -6.662  -7.238  0.00  0.00     0.066 H 
ATOM     48  H   LIG d   1       8.847  -5.070  -6.480  0.00  0.00     0.066 H 
ENDBRANCH  44  45
ENDBRANCH  38  44
ENDBRANCH   7  34
BRANCH   6  49
ATOM     49  O   LIG d   1       0.508  -4.104 -11.772  0.00  0.00    -0.489 OA
BRANCH  49  50
ATOM     50  C   LIG d   1       0.153  -5.028 -10.741  0.00  0.00     0.087 C 
ATOM     51  H   LIG d   1       0.370  -6.044 -11.073  0.00  0.00     0.069 H 
ATOM     52  H   LIG d   1       0.729  -4.809  -9.842  0.00  0.00     0.069 H 
BRANCH  50  53
ATOM     53  C   LIG d   1      -1.340  -4.901 -10.434  0.00  0.00    -0.031 C 
ATOM     54  H   LIG d   1      -1.546  -3.907 -10.039  0.00  0.00     0.026 H 
ATOM     55  H   LIG d   1      -1.914  -5.056 -11.346  0.00  0.00     0.026 H 
ATOM     56  H   LIG d   1      -1.623  -5.651  -9.694  0.00  0.00     0.026 H 
ENDBRANCH  50  53
ENDBRANCH  49  50
ENDBRANCH   6  49
BRANCH   1  57
ATOM     57  O   LIG d   1       0.967  -2.057 -13.563  0.00  0.00    -0.489 OA
BRANCH  57  58
ATOM     58  C   LIG d   1       1.880  -2.170 -14.656  0.00  0.00     0.087 C 
ATOM     59  H   LIG d   1       1.374  -1.894 -15.582  0.00  0.00     0.069 H 
ATOM     60  H   LIG d   1       2.726  -1.504 -14.492  0.00  0.00     0.069 H 
BRANCH  58  61
ATOM     61  C   LIG d   1       2.378  -3.613 -14.758  0.00  0.00    -0.031 C 
ATOM     62  H   LIG d   1       1.525  -4.292 -14.768  0.00  0.00     0.026 H 
ATOM     63  H   LIG d   1       2.950  -3.736 -15.678  0.00  0.00     0.026 H 
ATOM     64  H   LIG d   1       3.013  -3.839 -13.902  0.00  0.00     0.026 H 
ENDBRANCH  58  61
ENDBRANCH  57  58
ENDBRANCH   1  57
TORSDOF 13
ENDMDL
MODEL 5
REMARK VINA RESULT:      -5.2      5.746      9.923
REMARK  13 active torsions:
REMARK  status: ('A' for Active; 'I' for Inactive)
REMARK    1  A    between atoms: C_1  and  C_2 
REMARK    2  A    between atoms: C_2  and  O_3 
REMARK    3  A    between atoms: O_3  and  C_4 
REMARK    4  A    between atoms: C_9  and  O_10 
REMARK    5  A    between atoms: O_10  and  C_11 
REMARK    6  A    between atoms: C_11  and  C_12 
REMARK    7  A    between atoms: C_13  and  C_29 
REMARK    8  A    between atoms: N_15  and  C_19 
REMARK    9  A    between atoms: C_22  and  C_25 
REMARK   10  A    between atoms: C_25  and  O_27 
REMARK   11  A    between atoms: O_27  and  C_28 
REMARK   12  A    between atoms: C_32  and  O_35 
REMARK   13  A    between atoms: O_35  and  C_36 
ROOT
ATOM      1  C   LIG d   1      11.307   7.239   0.107  0.00  0.00     0.162 A 
ATOM      2  C   LIG d   1      11.990   6.179  -0.465  0.00  0.00    -0.012 A 
ATOM      3  C   LIG d   1      11.499   5.561  -1.605  0.00  0.00    -0.030 A 
ATOM      4  C   LIG d   1      10.323   6.002  -2.176  0.00  0.00    -0.015 A 
ATOM      5  C   LIG d   1       9.635   7.064  -1.607  0.00  0.00    -0.011 A 
ATOM      6  C   LIG d   1      10.121   7.683  -0.469  0.00  0.00     0.162 A 
ATOM      7  C   LIG d   1       9.762   5.363  -3.417  0.00  0.00     0.082 C 
ATOM      8  H   LIG d   1       8.675   5.329  -3.336  0.00  0.00     0.060 H 
ATOM      9  N   LIG d   1      10.264   4.014  -3.606  0.00  0.00    -0.260 N 
ATOM     10  C   LIG d   1      11.401   3.567  -3.068  0.00  0.00     0.225 C 
ATOM     11  O   LIG d   1      11.743   2.427  -3.299  0.00  0.00    -0.275 OA
ATOM     12  C   LIG d   1      12.273   4.415  -2.194  0.00  0.00     0.050 C 
ATOM     13  H   LIG d   1      12.911   5.832  -0.021  0.00  0.00     0.066 H 
ATOM     14  H   LIG d   1       8.714   7.409  -2.054  0.00  0.00     0.066 H 
ATOM     15  H   LIG d   1      12.672   3.800  -1.386  0.00  0.00     0.041 H 
ATOM     16  H   LIG d   1      13.099   4.808  -2.786  0.00  0.00     0.041 H 
ENDROOT
BRANCH   9  17
ATOM     17  C   LIG d   1       9.520   3.138  -4.397  0.00  0.00     0.037 A 
ATOM     18  C   LIG d   1       9.748   3.076  -5.768  0.00  0.00    -0.040 A 
ATOM     19  C   LIG d   1       9.017   2.213  -6.551  0.00  0.00    -0.046 A 
ATOM     20  H   LIG d   1      10.501   3.707  -6.218  0.00  0.00     0.064 H 
ATOM     21  C   LIG d   1       8.043   1.398  -5.967  0.00  0.00     0.059 A 
ATOM     22  H   LIG d   1       9.195   2.166  -7.615  0.00  0.00     0.063 H 
ATOM     23  C   LIG d   1       7.819   1.459  -4.588  0.00  0.00    -0.046 A 
ATOM     24  C   LIG d   1       8.551   2.328  -3.812  0.00  0.00    -0.040 A 
ATOM     25  H   LIG d   1       7.070   0.827  -4.134  0.00  0.00     0.063 H 
ATOM     26  H   LIG d   1       8.376   2.378  -2.748  0.00  0.00     0.064 H 
BRANCH  21  27
ATOM     27  C   LIG d   1       7.257   0.471  -6.803  0.00  0.00     0.339 C 
ATOM     28  O   LIG d   1       7.809  -0.449  -7.373  0.00  0.00    -0.245 OA
BRANCH  27  29
ATOM     29  O   LIG d   1       5.927   0.644  -6.933  0.00  0.00    -0.465 OA
BRANCH  29  30
ATOM     30  C   LIG d   1       5.076  -0.460  -6.527  0.00  0.00     0.082 C 
ATOM     31  H   LIG d   1       4.047  -0.252  -6.819  0.00  0.00     0.066 H 
ATOM     32  H   LIG d   1       5.413  -1.377  -7.011  0.00  0.00     0.066 H 
ATOM     33  H   LIG d   1       5.128  -0.581  -5.445  0.00  0.00     0.066 H 
ENDBRANCH  29  30
ENDBRANCH  27  29
ENDBRANCH  21  27
ENDBRANCH   9  17
BRANCH   7  34
ATOM     34  C   LIG d   1      10.134   6.197  -4.616  0.00  0.00    -0.022 A 
ATOM     35  C   LIG d   1      11.447   6.239  -5.045  0.00  0.00    -0.053 A 
ATOM     36  C   LIG d   1      11.792   7.002  -6.144  0.00  0.00    -0.020 A 
ATOM     37  H   LIG d   1      12.206   5.675  -4.521  0.00  0.00     0.062 H 
ATOM     38  C   LIG d   1      10.819   7.725  -6.817  0.00  0.00     0.120 A 
ATOM     39  H   LIG d   1      12.818   7.034  -6.480  0.00  0.00     0.065 H 
ATOM     40  C   LIG d   1       9.501   7.681  -6.385  0.00  0.00    -0.020 A 
ATOM     41  C   LIG d   1       9.161   6.912  -5.288  0.00  0.00    -0.053 A 
ATOM     42  H   LIG d   1       8.741   8.244  -6.907  0.00  0.00     0.065 H 
ATOM     43  H   LIG d   1       8.135   6.873  -4.954  0.00  0.00     0.062 H 
BRANCH  38  44
ATOM     44  O   LIG d   1      11.154   8.476  -7.900  0.00  0.00    -0.495 OA
BRANCH  44  45
ATOM     45  C   LIG d   1      10.706   9.833  -7.912  0.00  0.00     0.079 C 
ATOM     46  H   LIG d   1       9.727   9.897  -7.437  0.00  0.00     0.066 H 
ATOM     47  H   LIG d   1      11.417  10.454  -7.366  0.00  0.00     0.066 H 
ATOM     48  H   LIG d   1      10.635  10.183  -8.942  0.00  0.00     0.066 H 
ENDBRANCH  44  45
ENDBRANCH  38  44
ENDBRANCH   7  34
BRANCH   6  49
ATOM     49  O   LIG d   1       9.441   8.724   0.085  0.00  0.00    -0.489 OA
BRANCH  49  50
ATOM     50  C   LIG d   1       8.883   9.686  -0.812  0.00  0.00     0.087 C 
ATOM     51  H   LIG d   1       8.603   9.195  -1.744  0.00  0.00     0.069 H 
ATOM     52  H   LIG d   1       8.000  10.136  -0.359  0.00  0.00     0.069 H 
BRANCH  50  53
ATOM     53  C   LIG d   1       9.918  10.775  -1.101  0.00  0.00    -0.031 C 
ATOM     54  H   LIG d   1       9.462  11.755  -0.965  0.00  0.00     0.026 H 
ATOM     55  H   LIG d   1      10.760  10.668  -0.417  0.00  0.00     0.026 H 
ATOM     56  H   LIG d   1      10.270  10.677  -2.129  0.00  0.00     0.026 H 
ENDBRANCH  50  53
ENDBRANCH  49  50
ENDBRANCH   6  49
BRANCH   1  57
ATOM     57  O   LIG d   1      11.793   7.842   1.224  0.00  0.00    -0.489 OA
BRANCH  57  58
ATOM     58  C   LIG d   1      12.615   8.995   1.035  0.00  0.00     0.087 C 
ATOM     59  H   LIG d   1      13.655   8.737   1.237  0.00  0.00     0.069 H 
ATOM     60  H   LIG d   1      12.520   9.343   0.007  0.00  0.00     0.069 H 
BRANCH  58  61
ATOM     61  C   LIG d   1      12.169  10.103   1.992  0.00  0.00    -0.031 C 
ATOM     62  H   LIG d   1      12.452   9.838   3.010  0.00  0.00     0.026 H 
ATOM     63  H   LIG d   1      12.650  11.040   1.713  0.00  0.00     0.026 H 
ATOM     64  H   LIG d   1      11.086  10.218   1.933  0.00  0.00     0.026 H 
ENDBRANCH  58  61
ENDBRANCH  57  58
ENDBRANCH   1  57
TORSDOF 13
ENDMDL
MODEL 6
REMARK VINA RESULT:      -5.0      2.595      7.859
REMARK  13 active torsions:
REMARK  status: ('A' for Active; 'I' for Inactive)
REMARK    1  A    between atoms: C_1  and  C_2 
REMARK    2  A    between atoms: C_2  and  O_3 
REMARK    3  A    between atoms: O_3  and  C_4 
REMARK    4  A    between atoms: C_9  and  O_10 
REMARK    5  A    between atoms: O_10  and  C_11 
REMARK    6  A    between atoms: C_11  and  C_12 
REMARK    7  A    between atoms: C_13  and  C_29 
REMARK    8  A    between atoms: N_15  and  C_19 
REMARK    9  A    between atoms: C_22  and  C_25 
REMARK   10  A    between atoms: C_25  and  O_27 
REMARK   11  A    between atoms: O_27  and  C_28 
REMARK   12  A    between atoms: C_32  and  O_35 
REMARK   13  A    between atoms: O_35  and  C_36 
ROOT
ATOM      1  C   LIG d   1      10.318  -4.963  -4.781  0.00  0.00     0.162 A 
ATOM      2  C   LIG d   1      10.207  -3.833  -5.573  0.00  0.00    -0.012 A 
ATOM      3  C   LIG d   1       8.959  -3.344  -5.926  0.00  0.00    -0.030 A 
ATOM      4  C   LIG d   1       7.818  -3.984  -5.488  0.00  0.00    -0.015 A 
ATOM      5  C   LIG d   1       7.924  -5.117  -4.694  0.00  0.00    -0.011 A 
ATOM      6  C   LIG d   1       9.168  -5.609  -4.339  0.00  0.00     0.162 A 
ATOM      7  C   LIG d   1       6.446  -3.481  -5.843  0.00  0.00     0.082 C 
ATOM      8  H   LIG d   1       5.791  -4.335  -6.020  0.00  0.00     0.060 H 
ATOM      9  N   LIG d   1       6.466  -2.647  -7.033  0.00  0.00    -0.260 N 
ATOM     10  C   LIG d   1       7.555  -2.014  -7.472  0.00  0.00     0.225 C 
ATOM     11  O   LIG d   1       7.466  -1.328  -8.468  0.00  0.00    -0.275 OA
ATOM     12  C   LIG d   1       8.883  -2.114  -6.787  0.00  0.00     0.050 C 
ATOM     13  H   LIG d   1      11.098  -3.329  -5.917  0.00  0.00     0.066 H 
ATOM     14  H   LIG d   1       7.031  -5.619  -4.351  0.00  0.00     0.066 H 
ATOM     15  H   LIG d   1       9.671  -2.155  -7.540  0.00  0.00     0.041 H 
ATOM     16  H   LIG d   1       9.031  -1.232  -6.164  0.00  0.00     0.041 H 
ENDROOT
BRANCH   9  17
ATOM     17  C   LIG d   1       5.281  -2.496  -7.752  0.00  0.00     0.037 A 
ATOM     18  C   LIG d   1       4.884  -3.482  -8.651  0.00  0.00    -0.040 A 
ATOM     19  C   LIG d   1       3.715  -3.336  -9.362  0.00  0.00    -0.046 A 
ATOM     20  H   LIG d   1       5.493  -4.362  -8.789  0.00  0.00     0.064 H 
ATOM     21  C   LIG d   1       2.927  -2.195  -9.182  0.00  0.00     0.059 A 
ATOM     22  H   LIG d   1       3.408  -4.102 -10.060  0.00  0.00     0.063 H 
ATOM     23  C   LIG d   1       3.326  -1.209  -8.276  0.00  0.00    -0.046 A 
ATOM     24  C   LIG d   1       4.499  -1.359  -7.571  0.00  0.00    -0.040 A 
ATOM     25  H   LIG d   1       2.717  -0.329  -8.132  0.00  0.00     0.063 H 
ATOM     26  H   LIG d   1       4.809  -0.596  -6.873  0.00  0.00     0.064 H 
BRANCH  21  27
ATOM     27  C   LIG d   1       1.674  -2.036  -9.943  0.00  0.00     0.339 C 
ATOM     28  O   LIG d   1       1.294  -0.926 -10.263  0.00  0.00    -0.245 OA
BRANCH  27  29
ATOM     29  O   LIG d   1       0.950  -3.119 -10.285  0.00  0.00    -0.465 OA
BRANCH  29  30
ATOM     30  C   LIG d   1       0.645  -3.291 -11.694  0.00  0.00     0.082 C 
ATOM     31  H   LIG d   1       0.601  -2.315 -12.178  0.00  0.00     0.066 H 
ATOM     32  H   LIG d   1       1.422  -3.895 -12.164  0.00  0.00     0.066 H 
ATOM     33  H   LIG d   1      -0.317  -3.792 -11.800  0.00  0.00     0.066 H 
ENDBRANCH  29  30
ENDBRANCH  27  29
ENDBRANCH  21  27
ENDBRANCH   9  17
BRANCH   7  34
ATOM     34  C   LIG d   1       5.899  -2.677  -4.692  0.00  0.00    -0.022 A 
ATOM     35  C   LIG d   1       6.601  -1.585  -4.219  0.00  0.00    -0.053 A 
ATOM     36  C   LIG d   1       6.102  -0.846  -3.163  0.00  0.00    -0.020 A 
ATOM     37  H   LIG d   1       7.541  -1.308  -4.673  0.00  0.00     0.062 H 
ATOM     38  C   LIG d   1       4.895  -1.201  -2.579  0.00  0.00     0.120 A 
ATOM     39  H   LIG d   1       6.650   0.008  -2.794  0.00  0.00     0.065 H 
ATOM     40  C   LIG d   1       4.192  -2.298  -3.056  0.00  0.00    -0.020 A 
ATOM     41  C   LIG d   1       4.693  -3.030  -4.116  0.00  0.00    -0.053 A 
ATOM     42  H   LIG d   1       3.252  -2.577  -2.603  0.00  0.00     0.065 H 
ATOM     43  H   LIG d   1       4.144  -3.881  -4.491  0.00  0.00     0.062 H 
BRANCH  38  44
ATOM     44  O   LIG d   1       4.400  -0.476  -1.541  0.00  0.00    -0.495 OA
BRANCH  44  45
ATOM     45  C   LIG d   1       4.504   0.946  -1.636  0.00  0.00     0.079 C 
ATOM     46  H   LIG d   1       5.547   1.242  -1.526  0.00  0.00     0.066 H 
ATOM     47  H   LIG d   1       4.134   1.273  -2.608  0.00  0.00     0.066 H 
ATOM     48  H   LIG d   1       3.910   1.407  -0.847  0.00  0.00     0.066 H 
ENDBRANCH  44  45
ENDBRANCH  38  44
ENDBRANCH   7  34
BRANCH   6  49
ATOM     49  O   LIG d   1       9.266  -6.721  -3.561  0.00  0.00    -0.489 OA
BRANCH  49  50
ATOM     50  C   LIG d   1       8.572  -7.888  -4.007  0.00  0.00     0.087 C 
ATOM     51  H   LIG d   1       7.665  -7.593  -4.534  0.00  0.00     0.069 H 
ATOM     52  H   LIG d   1       9.214  -8.457  -4.679  0.00  0.00     0.069 H 
BRANCH  50  53
ATOM     53  C   LIG d   1       8.203  -8.754  -2.801  0.00  0.00    -0.031 C 
ATOM     54  H   LIG d   1       8.151  -8.131  -1.909  0.00  0.00     0.026 H 
ATOM     55  H   LIG d   1       7.236  -9.224  -2.974  0.00  0.00     0.026 H 
ATOM     56  H   LIG d   1       8.963  -9.525  -2.662  0.00  0.00     0.026 H 
ENDBRANCH  50  53
ENDBRANCH  49  50
ENDBRANCH   6  49
BRANCH   1  57
ATOM     57  O   LIG d   1      11.545  -5.438  -4.437  0.00  0.00    -0.489 OA
BRANCH  57  58
ATOM     58  C   LIG d   1      12.676  -4.649  -4.813  0.00  0.00     0.087 C 
ATOM     59  H   LIG d   1      13.399  -5.277  -5.335  0.00  0.00     0.069 H 
ATOM     60  H   LIG d   1      12.353  -3.843  -5.472  0.00  0.00     0.069 H 
BRANCH  58  61
ATOM     61  C   LIG d   1      13.324  -4.057  -3.561  0.00  0.00    -0.031 C 
ATOM     62  H   LIG d   1      13.746  -3.080  -3.798  0.00  0.00     0.026 H 
ATOM     63  H   LIG d   1      12.572  -3.948  -2.779  0.00  0.00     0.026 H 
ATOM     64  H   LIG d   1      14.117  -4.720  -3.214  0.00  0.00     0.026 H 
ENDBRANCH  58  61
ENDBRANCH  57  58
ENDBRANCH   1  57
TORSDOF 13
ENDMDL
MODEL 7
REMARK VINA RESULT:      -5.0      3.158      5.853
REMARK  13 active torsions:
REMARK  status: ('A' for Active; 'I' for Inactive)
REMARK    1  A    between atoms: C_1  and  C_2 
REMARK    2  A    between atoms: C_2  and  O_3 
REMARK    3  A    between atoms: O_3  and  C_4 
REMARK    4  A    between atoms: C_9  and  O_10 
REMARK    5  A    between atoms: O_10  and  C_11 
REMARK    6  A    between atoms: C_11  and  C_12 
REMARK    7  A    between atoms: C_13  and  C_29 
REMARK    8  A    between atoms: N_15  and  C_19 
REMARK    9  A    between atoms: C_22  and  C_25 
REMARK   10  A    between atoms: C_25  and  O_27 
REMARK   11  A    between atoms: O_27  and  C_28 
REMARK   12  A    between atoms: C_32  and  O_35 
REMARK   13  A    between atoms: O_35  and  C_36 
ROOT
ATOM      1  C   LIG d   1       5.561  -1.986  -5.170  0.00  0.00     0.162 A 
ATOM      2  C   LIG d   1       6.543  -2.349  -6.076  0.00  0.00    -0.012 A 
ATOM      3  C   LIG d   1       7.810  -2.696  -5.633  0.00  0.00    -0.030 A 
ATOM      4  C   LIG d   1       8.098  -2.683  -4.285  0.00  0.00    -0.015 A 
ATOM      5  C   LIG d   1       7.117  -2.319  -3.373  0.00  0.00    -0.011 A 
ATOM      6  C   LIG d   1       5.851  -1.971  -3.809  0.00  0.00     0.162 A 
ATOM      7  C   LIG d   1       9.458  -3.060  -3.765  0.00  0.00     0.082 C 
ATOM      8  H   LIG d   1       9.707  -2.413  -2.923  0.00  0.00     0.060 H 
ATOM      9  N   LIG d   1      10.484  -2.925  -4.784  0.00  0.00    -0.260 N 
ATOM     10  C   LIG d   1      10.230  -2.941  -6.094  0.00  0.00     0.225 C 
ATOM     11  O   LIG d   1      11.158  -2.836  -6.867  0.00  0.00    -0.275 OA
ATOM     12  C   LIG d   1       8.847  -3.085  -6.651  0.00  0.00     0.050 C 
ATOM     13  H   LIG d   1       6.320  -2.361  -7.132  0.00  0.00     0.066 H 
ATOM     14  H   LIG d   1       7.342  -2.308  -2.317  0.00  0.00     0.066 H 
ATOM     15  H   LIG d   1       8.746  -2.443  -7.527  0.00  0.00     0.041 H 
ATOM     16  H   LIG d   1       8.686  -4.121  -6.947  0.00  0.00     0.041 H 
ENDROOT
BRANCH   9  17
ATOM     17  C   LIG d   1      11.808  -2.774  -4.372  0.00  0.00     0.037 A 
ATOM     18  C   LIG d   1      12.335  -1.501  -4.182  0.00  0.00    -0.040 A 
ATOM     19  C   LIG d   1      13.641  -1.349  -3.775  0.00  0.00    -0.046 A 
ATOM     20  H   LIG d   1      11.719  -0.631  -4.353  0.00  0.00     0.064 H 
ATOM     21  C   LIG d   1      14.438  -2.476  -3.554  0.00  0.00     0.059 A 
ATOM     22  H   LIG d   1      14.049  -0.359  -3.627  0.00  0.00     0.063 H 
ATOM     23  C   LIG d   1      13.904  -3.754  -3.742  0.00  0.00    -0.046 A 
ATOM     24  C   LIG d   1      12.599  -3.898  -4.154  0.00  0.00    -0.040 A 
ATOM     25  H   LIG d   1      14.517  -4.626  -3.568  0.00  0.00     0.063 H 
ATOM     26  H   LIG d   1      12.187  -4.886  -4.302  0.00  0.00     0.064 H 
BRANCH  21  27
ATOM     27  C   LIG d   1      15.838  -2.316  -3.118  0.00  0.00     0.339 C 
ATOM     28  O   LIG d   1      16.573  -3.283  -3.069  0.00  0.00    -0.245 OA
BRANCH  27  29
ATOM     29  O   LIG d   1      16.302  -1.099  -2.774  0.00  0.00    -0.465 OA
BRANCH  29  30
ATOM     30  C   LIG d   1      16.673  -0.904  -1.384  0.00  0.00     0.082 C 
ATOM     31  H   LIG d   1      16.438  -1.803  -0.815  0.00  0.00     0.066 H 
ATOM     32  H   LIG d   1      17.742  -0.701  -1.317  0.00  0.00     0.066 H 
ATOM     33  H   LIG d   1      16.117  -0.060  -0.975  0.00  0.00     0.066 H 
ENDBRANCH  29  30
ENDBRANCH  27  29
ENDBRANCH  21  27
ENDBRANCH   9  17
BRANCH   7  34
ATOM     34  C   LIG d   1       9.427  -4.489  -3.289  0.00  0.00    -0.022 A 
ATOM     35  C   LIG d   1       9.739  -4.785  -1.975  0.00  0.00    -0.053 A 
ATOM     36  C   LIG d   1       9.711  -6.095  -1.535  0.00  0.00    -0.020 A 
ATOM     37  H   LIG d   1      10.005  -3.992  -1.291  0.00  0.00     0.062 H 
ATOM     38  C   LIG d   1       9.369  -7.113  -2.413  0.00  0.00     0.120 A 
ATOM     39  H   LIG d   1       9.953  -6.325  -0.508  0.00  0.00     0.065 H 
ATOM     40  C   LIG d   1       9.056  -6.813  -3.731  0.00  0.00    -0.020 A 
ATOM     41  C   LIG d   1       9.080  -5.501  -4.165  0.00  0.00    -0.053 A 
ATOM     42  H   LIG d   1       8.790  -7.604  -4.417  0.00  0.00     0.065 H 
ATOM     43  H   LIG d   1       8.832  -5.267  -5.189  0.00  0.00     0.062 H 
BRANCH  38  44
ATOM     44  O   LIG d   1       9.339  -8.402  -1.983  0.00  0.00    -0.495 OA
BRANCH  44  45
ATOM     45  C   LIG d   1       8.063  -9.044  -1.944  0.00  0.00     0.079 C 
ATOM     46  H   LIG d   1       7.366  -8.505  -2.585  0.00  0.00     0.066 H 
ATOM     47  H   LIG d   1       8.162 -10.071  -2.297  0.00  0.00     0.066 H 
ATOM     48  H   LIG d   1       7.689  -9.046  -0.921  0.00  0.00     0.066 H 
ENDBRANCH  44  45
ENDBRANCH  38  44
ENDBRANCH   7  34
BRANCH   6  49
ATOM     49  O   LIG d   1       4.893  -1.616  -2.911  0.00  0.00    -0.489 OA
BRANCH  49  50
ATOM     50  C   LIG d   1       4.981  -0.303  -2.353  0.00  0.00     0.087 C 
ATOM     51  H   LIG d   1       5.337  -0.368  -1.325  0.00  0.00     0.069 H 
ATOM     52  H   LIG d   1       5.677   0.296  -2.941  0.00  0.00     0.069 H 
BRANCH  50  53
ATOM     53  C   LIG d   1       3.600   0.355  -2.374  0.00  0.00    -0.031 C 
ATOM     54  H   LIG d   1       3.425   0.802  -3.352  0.00  0.00     0.026 H 
ATOM     55  H   LIG d   1       2.836  -0.397  -2.177  0.00  0.00     0.026 H 
ATOM     56  H   LIG d   1       3.555   1.128  -1.607  0.00  0.00     0.026 H 
ENDBRANCH  50  53
ENDBRANCH  49  50
ENDBRANCH   6  49
BRANCH   1  57
ATOM     57  O   LIG d   1       4.319  -1.646  -5.608  0.00  0.00    -0.489 OA
BRANCH  57  58
ATOM     58  C   LIG d   1       4.203  -0.432  -6.353  0.00  0.00     0.087 C 
ATOM     59  H   LIG d   1       5.040   0.224  -6.111  0.00  0.00     0.069 H 
ATOM     60  H   LIG d   1       4.215  -0.658  -7.419  0.00  0.00     0.069 H 
BRANCH  58  61
ATOM     61  C   LIG d   1       2.889   0.264  -5.994  0.00  0.00    -0.031 C 
ATOM     62  H   LIG d   1       2.110  -0.051  -6.688  0.00  0.00     0.026 H 
ATOM     63  H   LIG d   1       2.601  -0.006  -4.978  0.00  0.00     0.026 H 
ATOM     64  H   LIG d   1       3.020   1.344  -6.061  0.00  0.00     0.026 H 
ENDBRANCH  58  61
ENDBRANCH  57  58
ENDBRANCH   1  57
TORSDOF 13
ENDMDL
MODEL 8
REMARK VINA RESULT:      -5.0      2.956      6.573
REMARK  13 active torsions:
REMARK  status: ('A' for Active; 'I' for Inactive)
REMARK    1  A    between atoms: C_1  and  C_2 
REMARK    2  A    between atoms: C_2  and  O_3 
REMARK    3  A    between atoms: O_3  and  C_4 
REMARK    4  A    between atoms: C_9  and  O_10 
REMARK    5  A    between atoms: O_10  and  C_11 
REMARK    6  A    between atoms: C_11  and  C_12 
REMARK    7  A    between atoms: C_13  and  C_29 
REMARK    8  A    between atoms: N_15  and  C_19 
REMARK    9  A    between atoms: C_22  and  C_25 
REMARK   10  A    between atoms: C_25  and  O_27 
REMARK   11  A    between atoms: O_27  and  C_28 
REMARK   12  A    between atoms: C_32  and  O_35 
REMARK   13  A    between atoms: O_35  and  C_36 
ROOT
ATOM      1  C   LIG d   1       3.268  -3.872  -8.936  0.00  0.00     0.162 A 
ATOM      2  C   LIG d   1       3.644  -4.897  -8.086  0.00  0.00    -0.012 A 
ATOM      3  C   LIG d   1       4.673  -4.711  -7.175  0.00  0.00    -0.030 A 
ATOM      4  C   LIG d   1       5.328  -3.498  -7.113  0.00  0.00    -0.015 A 
ATOM      5  C   LIG d   1       4.954  -2.468  -7.963  0.00  0.00    -0.011 A 
ATOM      6  C   LIG d   1       3.928  -2.649  -8.874  0.00  0.00     0.162 A 
ATOM      7  C   LIG d   1       6.444  -3.255  -6.134  0.00  0.00     0.082 C 
ATOM      8  H   LIG d   1       7.206  -2.638  -6.612  0.00  0.00     0.060 H 
ATOM      9  N   LIG d   1       7.053  -4.495  -5.686  0.00  0.00    -0.260 N 
ATOM     10  C   LIG d   1       6.437  -5.678  -5.732  0.00  0.00     0.225 C 
ATOM     11  O   LIG d   1       7.025  -6.655  -5.320  0.00  0.00    -0.275 OA
ATOM     12  C   LIG d   1       5.050  -5.851  -6.269  0.00  0.00     0.050 C 
ATOM     13  H   LIG d   1       3.133  -5.847  -8.131  0.00  0.00     0.066 H 
ATOM     14  H   LIG d   1       5.467  -1.518  -7.915  0.00  0.00     0.066 H 
ATOM     15  H   LIG d   1       4.997  -6.785  -6.829  0.00  0.00     0.041 H 
ATOM     16  H   LIG d   1       4.347  -5.893  -5.437  0.00  0.00     0.041 H 
ENDROOT
BRANCH   9  17
ATOM     17  C   LIG d   1       8.350  -4.447  -5.177  0.00  0.00     0.037 A 
ATOM     18  C   LIG d   1       9.437  -4.631  -6.027  0.00  0.00    -0.040 A 
ATOM     19  C   LIG d   1      10.718  -4.585  -5.528  0.00  0.00    -0.046 A 
ATOM     20  H   LIG d   1       9.274  -4.811  -7.079  0.00  0.00     0.064 H 
ATOM     21  C   LIG d   1      10.928  -4.352  -4.166  0.00  0.00     0.059 A 
ATOM     22  H   LIG d   1      11.561  -4.728  -6.189  0.00  0.00     0.063 H 
ATOM     23  C   LIG d   1       9.834  -4.163  -3.315  0.00  0.00    -0.046 A 
ATOM     24  C   LIG d   1       8.555  -4.217  -3.820  0.00  0.00    -0.040 A 
ATOM     25  H   LIG d   1       9.994  -3.980  -2.263  0.00  0.00     0.063 H 
ATOM     26  H   LIG d   1       7.710  -4.074  -3.163  0.00  0.00     0.064 H 
BRANCH  21  27
ATOM     27  C   LIG d   1      12.300  -4.301  -3.627  0.00  0.00     0.339 C 
ATOM     28  O   LIG d   1      12.963  -5.317  -3.557  0.00  0.00    -0.245 OA
BRANCH  27  29
ATOM     29  O   LIG d   1      12.819  -3.129  -3.214  0.00  0.00    -0.465 OA
BRANCH  29  30
ATOM     30  C   LIG d   1      12.923  -2.070  -4.203  0.00  0.00     0.082 C 
ATOM     31  H   LIG d   1      13.319  -2.478  -5.133  0.00  0.00     0.066 H 
ATOM     32  H   LIG d   1      11.937  -1.643  -4.385  0.00  0.00     0.066 H 
ATOM     33  H   LIG d   1      13.592  -1.293  -3.834  0.00  0.00     0.066 H 
ENDBRANCH  29  30
ENDBRANCH  27  29
ENDBRANCH  21  27
ENDBRANCH   9  17
BRANCH   7  34
ATOM     34  C   LIG d   1       5.901  -2.517  -4.937  0.00  0.00    -0.022 A 
ATOM     35  C   LIG d   1       6.423  -1.284  -4.593  0.00  0.00    -0.053 A 
ATOM     36  C   LIG d   1       5.927  -0.605  -3.496  0.00  0.00    -0.020 A 
ATOM     37  H   LIG d   1       7.219  -0.851  -5.180  0.00  0.00     0.062 H 
ATOM     38  C   LIG d   1       4.904  -1.160  -2.742  0.00  0.00     0.120 A 
ATOM     39  H   LIG d   1       6.334   0.359  -3.228  0.00  0.00     0.065 H 
ATOM     40  C   LIG d   1       4.382  -2.398  -3.091  0.00  0.00    -0.020 A 
ATOM     41  C   LIG d   1       4.877  -3.070  -4.192  0.00  0.00    -0.053 A 
ATOM     42  H   LIG d   1       3.585  -2.833  -2.505  0.00  0.00     0.065 H 
ATOM     43  H   LIG d   1       4.468  -4.031  -4.466  0.00  0.00     0.062 H 
BRANCH  38  44
ATOM     44  O   LIG d   1       4.413  -0.494  -1.664  0.00  0.00    -0.495 OA
BRANCH  44  45
ATOM     45  C   LIG d   1       4.564   0.926  -1.654  0.00  0.00     0.079 C 
ATOM     46  H   LIG d   1       3.727   1.377  -1.122  0.00  0.00     0.066 H 
ATOM     47  H   LIG d   1       5.497   1.189  -1.154  0.00  0.00     0.066 H 
ATOM     48  H   LIG d   1       4.586   1.296  -2.679  0.00  0.00     0.066 H 
ENDBRANCH  44  45
ENDBRANCH  38  44
ENDBRANCH   7  34
BRANCH   6  49
ATOM     49  O   LIG d   1       3.567  -1.635  -9.705  0.00  0.00    -0.489 OA
BRANCH  49  50
ATOM     50  C   LIG d   1       2.702  -0.632  -9.168  0.00  0.00     0.087 C 
ATOM     51  H   LIG d   1       2.507  -0.845  -8.117  0.00  0.00     0.069 H 
ATOM     52  H   LIG d   1       3.179   0.345  -9.258  0.00  0.00     0.069 H 
BRANCH  50  53
ATOM     53  C   LIG d   1       1.382  -0.627  -9.941  0.00  0.00    -0.031 C 
ATOM     54  H   LIG d   1       1.197  -1.620 -10.349  0.00  0.00     0.026 H 
ATOM     55  H   LIG d   1       0.569  -0.352  -9.270  0.00  0.00     0.026 H 
ATOM     56  H   LIG d   1       1.442   0.095 -10.756  0.00  0.00     0.026 H 
ENDBRANCH  50  53
ENDBRANCH  49  50
ENDBRANCH   6  49
BRANCH   1  57
ATOM     57  O   LIG d   1       2.258  -4.059  -9.827  0.00  0.00    -0.489 OA
BRANCH  57  58
ATOM     58  C   LIG d   1       2.133  -5.362 -10.402  0.00  0.00     0.087 C 
ATOM     59  H   LIG d   1       2.497  -5.341 -11.430  0.00  0.00     0.069 H 
ATOM     60  H   LIG d   1       2.721  -6.072  -9.823  0.00  0.00     0.069 H 
BRANCH  58  61
ATOM     61  C   LIG d   1       0.663  -5.786 -10.390  0.00  0.00    -0.031 C 
ATOM     62  H   LIG d   1       0.539  -6.643  -9.729  0.00  0.00     0.026 H 
ATOM     63  H   LIG d   1       0.049  -4.959 -10.033  0.00  0.00     0.026 H 
ATOM     64  H   LIG d   1       0.356  -6.058 -11.400  0.00  0.00     0.026 H 
ENDBRANCH  58  61
ENDBRANCH  57  58
ENDBRANCH   1  57
TORSDOF 13
ENDMDL
MODEL 9
REMARK VINA RESULT:      -5.0      2.862      8.151
REMARK  13 active torsions:
REMARK  status: ('A' for Active; 'I' for Inactive)
REMARK    1  A    between atoms: C_1  and  C_2 
REMARK    2  A    between atoms: C_2  and  O_3 
REMARK    3  A    between atoms: O_3  and  C_4 
REMARK    4  A    between atoms: C_9  and  O_10 
REMARK    5  A    between atoms: O_10  and  C_11 
REMARK    6  A    between atoms: C_11  and  C_12 
REMARK    7  A    between atoms: C_13  and  C_29 
REMARK    8  A    between atoms: N_15  and  C_19 
REMARK    9  A    between atoms: C_22  and  C_25 
REMARK   10  A    between atoms: C_25  and  O_27 
REMARK   11  A    between atoms: O_27  and  C_28 
REMARK   12  A    between atoms: C_32  and  O_35 
REMARK   13  A    between atoms: O_35  and  C_36 
ROOT
ATOM      1  C   LIG d   1       9.730  -6.027  -4.739  0.00  0.00     0.162 A 
ATOM      2  C   LIG d   1      10.105  -4.783  -5.216  0.00  0.00    -0.012 A 
ATOM      3  C   LIG d   1       9.147  -3.886  -5.665  0.00  0.00    -0.030 A 
ATOM      4  C   LIG d   1       7.812  -4.232  -5.636  0.00  0.00    -0.015 A 
ATOM      5  C   LIG d   1       7.431  -5.479  -5.160  0.00  0.00    -0.011 A 
ATOM      6  C   LIG d   1       8.384  -6.377  -4.711  0.00  0.00     0.162 A 
ATOM      7  C   LIG d   1       6.742  -3.285  -6.107  0.00  0.00     0.082 C 
ATOM      8  H   LIG d   1       5.968  -3.854  -6.623  0.00  0.00     0.060 H 
ATOM      9  N   LIG d   1       7.270  -2.278  -7.012  0.00  0.00    -0.260 N 
ATOM     10  C   LIG d   1       8.556  -1.924  -7.052  0.00  0.00     0.225 C 
ATOM     11  O   LIG d   1       8.895  -1.061  -7.834  0.00  0.00    -0.275 OA
ATOM     12  C   LIG d   1       9.597  -2.545  -6.174  0.00  0.00     0.050 C 
ATOM     13  H   LIG d   1      11.149  -4.509  -5.238  0.00  0.00     0.066 H 
ATOM     14  H   LIG d   1       6.386  -5.749  -5.138  0.00  0.00     0.066 H 
ATOM     15  H   LIG d   1      10.518  -2.670  -6.745  0.00  0.00     0.041 H 
ATOM     16  H   LIG d   1       9.789  -1.887  -5.326  0.00  0.00     0.041 H 
ENDROOT
BRANCH   9  17
ATOM     17  C   LIG d   1       6.384  -1.644  -7.883  0.00  0.00     0.037 A 
ATOM     18  C   LIG d   1       5.871  -0.392  -7.560  0.00  0.00    -0.040 A 
ATOM     19  C   LIG d   1       4.996   0.237  -8.417  0.00  0.00    -0.046 A 
ATOM     20  H   LIG d   1       6.159   0.088  -6.637  0.00  0.00     0.064 H 
ATOM     21  C   LIG d   1       4.624  -0.385  -9.613  0.00  0.00     0.059 A 
ATOM     22  H   LIG d   1       4.599   1.209  -8.167  0.00  0.00     0.063 H 
ATOM     23  C   LIG d   1       5.144  -1.642  -9.936  0.00  0.00    -0.046 A 
ATOM     24  C   LIG d   1       6.014  -2.267  -9.071  0.00  0.00    -0.040 A 
ATOM     25  H   LIG d   1       4.861  -2.123 -10.860  0.00  0.00     0.063 H 
ATOM     26  H   LIG d   1       6.414  -3.239  -9.319  0.00  0.00     0.064 H 
BRANCH  21  27
ATOM     27  C   LIG d   1       3.687   0.285 -10.534  0.00  0.00     0.339 C 
ATOM     28  O   LIG d   1       3.954   1.384 -10.978  0.00  0.00    -0.245 OA
BRANCH  27  29
ATOM     29  O   LIG d   1       2.536  -0.321 -10.883  0.00  0.00    -0.465 OA
BRANCH  29  30
ATOM     30  C   LIG d   1       1.590  -0.605  -9.818  0.00  0.00     0.082 C 
ATOM     31  H   LIG d   1       2.068  -1.235  -9.067  0.00  0.00     0.066 H 
ATOM     32  H   LIG d   1       1.269   0.329  -9.358  0.00  0.00     0.066 H 
ATOM     33  H   LIG d   1       0.724  -1.123 -10.229  0.00  0.00     0.066 H 
ENDBRANCH  29  30
ENDBRANCH  27  29
ENDBRANCH  21  27
ENDBRANCH   9  17
BRANCH   7  34
ATOM     34  C   LIG d   1       6.129  -2.598  -4.915  0.00  0.00    -0.022 A 
ATOM     35  C   LIG d   1       6.857  -1.655  -4.212  0.00  0.00    -0.053 A 
ATOM     36  C   LIG d   1       6.297  -1.023  -3.118  0.00  0.00    -0.020 A 
ATOM     37  H   LIG d   1       7.864  -1.413  -4.517  0.00  0.00     0.062 H 
ATOM     38  C   LIG d   1       5.003  -1.334  -2.726  0.00  0.00     0.120 A 
ATOM     39  H   LIG d   1       6.865  -0.287  -2.570  0.00  0.00     0.065 H 
ATOM     40  C   LIG d   1       4.275  -2.280  -3.433  0.00  0.00    -0.020 A 
ATOM     41  C   LIG d   1       4.837  -2.905  -4.530  0.00  0.00    -0.053 A 
ATOM     42  H   LIG d   1       3.267  -2.524  -3.131  0.00  0.00     0.065 H 
ATOM     43  H   LIG d   1       4.269  -3.637  -5.084  0.00  0.00     0.062 H 
BRANCH  38  44
ATOM     44  O   LIG d   1       4.449  -0.714  -1.652  0.00  0.00    -0.495 OA
BRANCH  44  45
ATOM     45  C   LIG d   1       4.521   0.713  -1.618  0.00  0.00     0.079 C 
ATOM     46  H   LIG d   1       3.632   1.133  -2.088  0.00  0.00     0.066 H 
ATOM     47  H   LIG d   1       4.578   1.049  -0.582  0.00  0.00     0.066 H 
ATOM     48  H   LIG d   1       5.408   1.045  -2.156  0.00  0.00     0.066 H 
ENDBRANCH  44  45
ENDBRANCH  38  44
ENDBRANCH   7  34
BRANCH   6  49
ATOM     49  O   LIG d   1       8.005  -7.597  -4.245  0.00  0.00    -0.489 OA
BRANCH  49  50
ATOM     50  C   LIG d   1       6.931  -8.249  -4.928  0.00  0.00     0.087 C 
ATOM     51  H   LIG d   1       6.144  -7.525  -5.141  0.00  0.00     0.069 H 
ATOM     52  H   LIG d   1       7.299  -8.671  -5.863  0.00  0.00     0.069 H 
BRANCH  50  53
ATOM     53  C   LIG d   1       6.371  -9.368  -4.049  0.00  0.00    -0.031 C 
ATOM     54  H   LIG d   1       6.865  -9.349  -3.078  0.00  0.00     0.026 H 
ATOM     55  H   LIG d   1       5.300  -9.224  -3.915  0.00  0.00     0.026 H 
ATOM     56  H   LIG d   1       6.551 -10.331  -4.529  0.00  0.00     0.026 H 
ENDBRANCH  50  53
ENDBRANCH  49  50
ENDBRANCH   6  49
BRANCH   1  57
ATOM     57  O   LIG d   1      10.673  -6.903  -4.300  0.00  0.00    -0.489 OA
BRANCH  57  58
ATOM     58  C   LIG d   1      11.417  -6.528  -3.139  0.00  0.00     0.087 C 
ATOM     59  H   LIG d   1      12.349  -7.093  -3.107  0.00  0.00     0.069 H 
ATOM     60  H   LIG d   1      11.639  -5.462  -3.179  0.00  0.00     0.069 H 
BRANCH  58  61
ATOM     61  C   LIG d   1      10.594  -6.831  -1.885  0.00  0.00    -0.031 C 
ATOM     62  H   LIG d   1      10.262  -7.869  -1.912  0.00  0.00     0.026 H 
ATOM     63  H   LIG d   1      11.208  -6.668  -0.999  0.00  0.00     0.026 H 
ATOM     64  H   LIG d   1       9.726  -6.172  -1.853  0.00  0.00     0.026 H 
ENDBRANCH  58  61
ENDBRANCH  57  58
ENDBRANCH   1  57
TORSDOF 13
ENDMDL
