MODEL 1
REMARK VINA RESULT:      -5.8      0.000      0.000
REMARK  12 active torsions:
REMARK  status: ('A' for Active; 'I' for Inactive)
REMARK    1  A    between atoms: C_1  and  C_2 
REMARK    2  A    between atoms: C_2  and  C_3 
REMARK       I    between atoms: C_3  and  N_5 
REMARK    3  A    between atoms: N_5  and  C_6 
REMARK    4  A    between atoms: N_5  and  C_25 
REMARK    5  A    between atoms: C_6  and  C_7 
REMARK    6  A    between atoms: C_7  and  C_8 
REMARK    7  A    between atoms: C_8  and  C_18 
REMARK    8  A    between atoms: C_12  and  C_15 
REMARK    9  A    between atoms: C_15  and  C_16 
REMARK   10  A    between atoms: C_15  and  C_17 
REMARK   11  A    between atoms: C_21  and  C_24 
REMARK   12  A    between atoms: C_25  and  C_26 
ROOT
ATOM      1  C   LIG d   1       5.632  -0.740  -5.809  0.00  0.00     0.002 C 
ATOM      2  C   LIG d   1       6.966  -0.089  -5.428  0.00  0.00    -0.020 C 
ATOM      3  C   LIG d   1       7.418  -0.629  -4.069  0.00  0.00     0.049 C 
ATOM      4  O   LIG d   1       6.408  -0.366  -3.093  0.00  0.00    -0.376 OA
ATOM      5  C   LIG d   1       5.152  -0.989  -3.372  0.00  0.00     0.062 C 
ATOM      6  H   LIG d   1       5.287  -2.068  -3.436  0.00  0.00     0.060 H 
ATOM      7  C   LIG d   1       4.608  -0.463  -4.704  0.00  0.00    -0.017 C 
ATOM      8  H   LIG d   1       7.715  -0.327  -6.183  0.00  0.00     0.030 H 
ATOM      9  H   LIG d   1       6.839   0.992  -5.368  0.00  0.00     0.030 H 
ATOM     10  H   LIG d   1       7.584  -1.704  -4.142  0.00  0.00     0.056 H 
ATOM     11  H   LIG d   1       8.345  -0.137  -3.773  0.00  0.00     0.056 H 
ATOM     12  H   LIG d   1       4.435   0.609  -4.628  0.00  0.00     0.030 H 
ATOM     13  H   LIG d   1       3.673  -0.970  -4.940  0.00  0.00     0.030 H 
ENDROOT
BRANCH   1  14
ATOM     14  C   LIG d   1       5.826  -2.249  -5.964  0.00  0.00    -0.027 C 
ATOM     15  H   LIG d   1       6.429  -2.449  -6.850  0.00  0.00     0.029 H 
ATOM     16  H   LIG d   1       6.331  -2.644  -5.084  0.00  0.00     0.029 H 
BRANCH  14  17
ATOM     17  C   LIG d   1       4.461  -2.925  -6.114  0.00  0.00     0.016 C 
ATOM     18  H   LIG d   1       4.180  -3.391  -5.171  0.00  0.00     0.046 H 
ATOM     19  H   LIG d   1       3.714  -2.179  -6.388  0.00  0.00     0.046 H 
BRANCH  17  20
ATOM     20  N   LIG d   1       4.535  -3.948  -7.160  0.00  0.00    -0.294 N 
ATOM     21  C   LIG d   1       4.040  -5.182  -6.933  0.00  0.00     0.216 C 
ATOM     22  O   LIG d   1       3.534  -5.443  -5.863  0.00  0.00    -0.276 OA
BRANCH  21  23
ATOM     23  C   LIG d   1       4.117  -6.234  -8.009  0.00  0.00     0.021 C 
ATOM     24  H   LIG d   1       3.158  -6.296  -8.525  0.00  0.00     0.036 H 
ATOM     25  H   LIG d   1       4.897  -5.968  -8.723  0.00  0.00     0.036 H 
BRANCH  23  26
ATOM     26  C   LIG d   1       4.444  -7.587  -7.376  0.00  0.00    -0.057 C 
ATOM     27  H   LIG d   1       3.608  -7.910  -6.754  0.00  0.00     0.023 H 
ATOM     28  H   LIG d   1       4.618  -8.323  -8.161  0.00  0.00     0.023 H 
ATOM     29  H   LIG d   1       5.339  -7.494  -6.761  0.00  0.00     0.023 H 
ENDBRANCH  23  26
ENDBRANCH  21  23
BRANCH  20  30
ATOM     30  C   LIG d   1       5.147  -3.632  -8.453  0.00  0.00     0.073 C 
ATOM     31  H   LIG d   1       5.951  -2.911  -8.308  0.00  0.00     0.054 H 
ATOM     32  H   LIG d   1       5.550  -4.542  -8.897  0.00  0.00     0.054 H 
BRANCH  30  33
ATOM     33  C   LIG d   1       4.106  -3.044  -9.371  0.00  0.00     0.122 A 
ATOM     34  O   LIG d   1       2.825  -2.796  -9.049  0.00  0.00    -0.466 OA
ATOM     35  C   LIG d   1       2.191  -2.272 -10.111  0.00  0.00     0.092 A 
ATOM     36  C   LIG d   1       3.068  -2.180 -11.128  0.00  0.00    -0.024 A 
ATOM     37  H   LIG d   1       1.153  -1.976 -10.144  0.00  0.00     0.103 H 
ATOM     38  C   LIG d   1       4.303  -2.673 -10.649  0.00  0.00    -0.019 A 
ATOM     39  H   LIG d   1       2.866  -1.799 -12.118  0.00  0.00     0.065 H 
ATOM     40  H   LIG d   1       5.227  -2.740 -11.203  0.00  0.00     0.065 H 
ENDBRANCH  30  33
ENDBRANCH  20  30
ENDBRANCH  17  20
ENDBRANCH  14  17
ENDBRANCH   1  14
BRANCH   1  41
ATOM     41  C   LIG d   1       5.140  -0.158  -7.109  0.00  0.00    -0.041 A 
ATOM     42  C   LIG d   1       3.810   0.190  -7.251  0.00  0.00    -0.058 A 
ATOM     43  C   LIG d   1       3.359   0.729  -8.441  0.00  0.00    -0.059 A 
ATOM     44  H   LIG d   1       3.123   0.045  -6.430  0.00  0.00     0.062 H 
ATOM     45  C   LIG d   1       4.236   0.909  -9.494  0.00  0.00    -0.050 A 
ATOM     46  H   LIG d   1       2.321   1.004  -8.551  0.00  0.00     0.062 H 
ATOM     47  C   LIG d   1       5.567   0.562  -9.351  0.00  0.00    -0.059 A 
ATOM     48  C   LIG d   1       6.018   0.028  -8.160  0.00  0.00    -0.058 A 
ATOM     49  H   LIG d   1       6.254   0.708 -10.172  0.00  0.00     0.062 H 
ATOM     50  H   LIG d   1       7.059  -0.243  -8.048  0.00  0.00     0.062 H 
BRANCH  45  51
ATOM     51  C   LIG d   1       3.745   1.492 -10.794  0.00  0.00    -0.040 C 
ATOM     52  H   LIG d   1       3.024   0.812 -11.246  0.00  0.00     0.028 H 
ATOM     53  H   LIG d   1       4.587   1.633 -11.471  0.00  0.00     0.028 H 
ATOM     54  H   LIG d   1       3.268   2.454 -10.603  0.00  0.00     0.028 H 
ENDBRANCH  45  51
ENDBRANCH   1  41
BRANCH   5  55
ATOM     55  C   LIG d   1       4.161  -0.664  -2.253  0.00  0.00    -0.020 C 
ATOM     56  H   LIG d   1       4.278  -1.384  -1.442  0.00  0.00     0.032 H 
BRANCH  55  57
ATOM     57  C   LIG d   1       4.434   0.746  -1.725  0.00  0.00    -0.060 C 
ATOM     58  H   LIG d   1       3.585   1.082  -1.130  0.00  0.00     0.023 H 
ATOM     59  H   LIG d   1       5.331   0.735  -1.106  0.00  0.00     0.023 H 
ATOM     60  H   LIG d   1       4.581   1.427  -2.564  0.00  0.00     0.023 H 
ENDBRANCH  55  57
BRANCH  55  61
ATOM     61  C   LIG d   1       2.734  -0.737  -2.798  0.00  0.00    -0.060 C 
ATOM     62  H   LIG d   1       2.246  -1.636  -2.422  0.00  0.00     0.023 H 
ATOM     63  H   LIG d   1       2.175   0.141  -2.474  0.00  0.00     0.023 H 
ATOM     64  H   LIG d   1       2.762  -0.767  -3.887  0.00  0.00     0.023 H 
ENDBRANCH  55  61
ENDBRANCH   5  55
TORSDOF 12
ENDMDL
MODEL 2
REMARK VINA RESULT:      -5.6      1.000      1.486
REMARK  12 active torsions:
REMARK  status: ('A' for Active; 'I' for Inactive)
REMARK    1  A    between atoms: C_1  and  C_2 
REMARK    2  A    between atoms: C_2  and  C_3 
REMARK       I    between atoms: C_3  and  N_5 
REMARK    3  A    between atoms: N_5  and  C_6 
REMARK    4  A    between atoms: N_5  and  C_25 
REMARK    5  A    between atoms: C_6  and  C_7 
REMARK    6  A    between atoms: C_7  and  C_8 
REMARK    7  A    between atoms: C_8  and  C_18 
REMARK    8  A    between atoms: C_12  and  C_15 
REMARK    9  A    between atoms: C_15  and  C_16 
REMARK   10  A    between atoms: C_15  and  C_17 
REMARK   11  A    between atoms: C_21  and  C_24 
REMARK   12  A    between atoms: C_25  and  C_26 
ROOT
ATOM      1  C   LIG d   1       5.575  -0.928  -5.771  0.00  0.00     0.002 C 
ATOM      2  C   LIG d   1       6.815  -0.058  -5.551  0.00  0.00    -0.020 C 
ATOM      3  C   LIG d   1       7.381  -0.331  -4.155  0.00  0.00     0.049 C 
ATOM      4  O   LIG d   1       6.375  -0.069  -3.175  0.00  0.00    -0.376 OA
ATOM      5  C   LIG d   1       5.210  -0.888  -3.302  0.00  0.00     0.062 C 
ATOM      6  H   LIG d   1       5.493  -1.937  -3.222  0.00  0.00     0.060 H 
ATOM      7  C   LIG d   1       4.557  -0.636  -4.664  0.00  0.00    -0.017 C 
ATOM      8  H   LIG d   1       7.567  -0.298  -6.303  0.00  0.00     0.030 H 
ATOM      9  H   LIG d   1       6.541   0.994  -5.635  0.00  0.00     0.030 H 
ATOM     10  H   LIG d   1       7.692  -1.373  -4.088  0.00  0.00     0.056 H 
ATOM     11  H   LIG d   1       8.239   0.318  -3.977  0.00  0.00     0.056 H 
ATOM     12  H   LIG d   1       4.238   0.403  -4.728  0.00  0.00     0.030 H 
ATOM     13  H   LIG d   1       3.694  -1.291  -4.780  0.00  0.00     0.030 H 
ENDROOT
BRANCH   1  14
ATOM     14  C   LIG d   1       5.972  -2.405  -5.726  0.00  0.00    -0.027 C 
ATOM     15  H   LIG d   1       6.562  -2.649  -6.610  0.00  0.00     0.029 H 
ATOM     16  H   LIG d   1       6.562  -2.597  -4.830  0.00  0.00     0.029 H 
BRANCH  14  17
ATOM     17  C   LIG d   1       4.711  -3.271  -5.701  0.00  0.00     0.016 C 
ATOM     18  H   LIG d   1       4.452  -3.507  -4.669  0.00  0.00     0.046 H 
ATOM     19  H   LIG d   1       3.888  -2.729  -6.167  0.00  0.00     0.046 H 
BRANCH  17  20
ATOM     20  N   LIG d   1       4.957  -4.513  -6.438  0.00  0.00    -0.294 N 
ATOM     21  C   LIG d   1       4.511  -5.688  -5.948  0.00  0.00     0.216 C 
ATOM     22  O   LIG d   1       3.907  -5.716  -4.898  0.00  0.00    -0.276 OA
BRANCH  21  23
ATOM     23  C   LIG d   1       4.764  -6.965  -6.707  0.00  0.00     0.021 C 
ATOM     24  H   LIG d   1       3.909  -7.183  -7.347  0.00  0.00     0.036 H 
ATOM     25  H   LIG d   1       5.658  -6.852  -7.321  0.00  0.00     0.036 H 
BRANCH  23  26
ATOM     26  C   LIG d   1       4.967  -8.114  -5.717  0.00  0.00    -0.057 C 
ATOM     27  H   LIG d   1       4.460  -7.881  -4.780  0.00  0.00     0.023 H 
ATOM     28  H   LIG d   1       4.553  -9.031  -6.136  0.00  0.00     0.023 H 
ATOM     29  H   LIG d   1       6.033  -8.248  -5.530  0.00  0.00     0.023 H 
ENDBRANCH  23  26
ENDBRANCH  21  23
BRANCH  20  30
ATOM     30  C   LIG d   1       5.687  -4.480  -7.708  0.00  0.00     0.073 C 
ATOM     31  H   LIG d   1       6.495  -3.751  -7.643  0.00  0.00     0.054 H 
ATOM     32  H   LIG d   1       6.103  -5.466  -7.914  0.00  0.00     0.054 H 
BRANCH  30  33
ATOM     33  C   LIG d   1       4.746  -4.089  -8.818  0.00  0.00     0.122 A 
ATOM     34  O   LIG d   1       5.074  -3.948 -10.113  0.00  0.00    -0.466 OA
ATOM     35  C   LIG d   1       3.985  -3.593 -10.814  0.00  0.00     0.092 A 
ATOM     36  C   LIG d   1       2.944  -3.504  -9.967  0.00  0.00    -0.024 A 
ATOM     37  H   LIG d   1       3.951  -3.409 -11.878  0.00  0.00     0.103 H 
ATOM     38  C   LIG d   1       3.433  -3.829  -8.681  0.00  0.00    -0.019 A 
ATOM     39  H   LIG d   1       1.929  -3.239 -10.222  0.00  0.00     0.065 H 
ATOM     40  H   LIG d   1       2.863  -3.860  -7.765  0.00  0.00     0.065 H 
ENDBRANCH  30  33
ENDBRANCH  20  30
ENDBRANCH  17  20
ENDBRANCH  14  17
ENDBRANCH   1  14
BRANCH   1  41
ATOM     41  C   LIG d   1       4.966  -0.610  -7.112  0.00  0.00    -0.041 A 
ATOM     42  C   LIG d   1       5.750  -0.632  -8.250  0.00  0.00    -0.058 A 
ATOM     43  C   LIG d   1       5.191  -0.345  -9.481  0.00  0.00    -0.059 A 
ATOM     44  H   LIG d   1       6.800  -0.878  -8.178  0.00  0.00     0.062 H 
ATOM     45  C   LIG d   1       3.850  -0.025  -9.573  0.00  0.00    -0.050 A 
ATOM     46  H   LIG d   1       5.803  -0.366 -10.370  0.00  0.00     0.062 H 
ATOM     47  C   LIG d   1       3.065  -0.004  -8.434  0.00  0.00    -0.059 A 
ATOM     48  C   LIG d   1       3.623  -0.295  -7.205  0.00  0.00    -0.058 A 
ATOM     49  H   LIG d   1       2.016   0.241  -8.507  0.00  0.00     0.062 H 
ATOM     50  H   LIG d   1       3.010  -0.278  -6.315  0.00  0.00     0.062 H 
BRANCH  45  51
ATOM     51  C   LIG d   1       3.240   0.292 -10.913  0.00  0.00    -0.040 C 
ATOM     52  H   LIG d   1       3.016   1.358 -10.967  0.00  0.00     0.028 H 
ATOM     53  H   LIG d   1       2.321  -0.279 -11.040  0.00  0.00     0.028 H 
ATOM     54  H   LIG d   1       3.943   0.029 -11.704  0.00  0.00     0.028 H 
ENDBRANCH  45  51
ENDBRANCH   1  41
BRANCH   5  55
ATOM     55  C   LIG d   1       4.219  -0.541  -2.189  0.00  0.00    -0.020 C 
ATOM     56  H   LIG d   1       4.339  -1.241  -1.362  0.00  0.00     0.032 H 
BRANCH  55  57
ATOM     57  C   LIG d   1       4.486   0.882  -1.694  0.00  0.00    -0.060 C 
ATOM     58  H   LIG d   1       4.617   1.546  -2.549  0.00  0.00     0.023 H 
ATOM     59  H   LIG d   1       3.642   1.224  -1.095  0.00  0.00     0.023 H 
ATOM     60  H   LIG d   1       5.391   0.892  -1.085  0.00  0.00     0.023 H 
ENDBRANCH  55  57
BRANCH  55  61
ATOM     61  C   LIG d   1       2.791  -0.632  -2.731  0.00  0.00    -0.060 C 
ATOM     62  H   LIG d   1       2.673   0.060  -3.564  0.00  0.00     0.023 H 
ATOM     63  H   LIG d   1       2.596  -1.649  -3.072  0.00  0.00     0.023 H 
ATOM     64  H   LIG d   1       2.086  -0.374  -1.941  0.00  0.00     0.023 H 
ENDBRANCH  55  61
ENDBRANCH   5  55
TORSDOF 12
ENDMDL
MODEL 3
REMARK VINA RESULT:      -5.5      1.799      5.409
REMARK  12 active torsions:
REMARK  status: ('A' for Active; 'I' for Inactive)
REMARK    1  A    between atoms: C_1  and  C_2 
REMARK    2  A    between atoms: C_2  and  C_3 
REMARK       I    between atoms: C_3  and  N_5 
REMARK    3  A    between atoms: N_5  and  C_6 
REMARK    4  A    between atoms: N_5  and  C_25 
REMARK    5  A    between atoms: C_6  and  C_7 
REMARK    6  A    between atoms: C_7  and  C_8 
REMARK    7  A    between atoms: C_8  and  C_18 
REMARK    8  A    between atoms: C_12  and  C_15 
REMARK    9  A    between atoms: C_15  and  C_16 
REMARK   10  A    between atoms: C_15  and  C_17 
REMARK   11  A    between atoms: C_21  and  C_24 
REMARK   12  A    between atoms: C_25  and  C_26 
ROOT
ATOM      1  C   LIG d   1       6.065  -3.266  -5.358  0.00  0.00     0.002 C 
ATOM      2  C   LIG d   1       7.509  -3.704  -5.097  0.00  0.00    -0.020 C 
ATOM      3  C   LIG d   1       7.881  -4.820  -6.076  0.00  0.00     0.049 C 
ATOM      4  O   LIG d   1       6.966  -5.908  -5.927  0.00  0.00    -0.376 OA
ATOM      5  C   LIG d   1       5.606  -5.568  -6.206  0.00  0.00     0.062 C 
ATOM      6  H   LIG d   1       5.526  -5.198  -7.227  0.00  0.00     0.060 H 
ATOM      7  C   LIG d   1       5.143  -4.482  -5.231  0.00  0.00    -0.017 C 
ATOM      8  H   LIG d   1       8.179  -2.856  -5.238  0.00  0.00     0.030 H 
ATOM      9  H   LIG d   1       7.598  -4.071  -4.074  0.00  0.00     0.030 H 
ATOM     10  H   LIG d   1       7.831  -4.440  -7.096  0.00  0.00     0.056 H 
ATOM     11  H   LIG d   1       8.894  -5.166  -5.866  0.00  0.00     0.056 H 
ATOM     12  H   LIG d   1       5.185  -4.866  -4.212  0.00  0.00     0.030 H 
ATOM     13  H   LIG d   1       4.121  -4.191  -5.470  0.00  0.00     0.030 H 
ENDROOT
BRANCH   1  14
ATOM     14  C   LIG d   1       5.955  -2.684  -6.769  0.00  0.00    -0.027 C 
ATOM     15  H   LIG d   1       6.584  -1.796  -6.845  0.00  0.00     0.029 H 
ATOM     16  H   LIG d   1       6.283  -3.425  -7.496  0.00  0.00     0.029 H 
BRANCH  14  17
ATOM     17  C   LIG d   1       4.500  -2.302  -7.050  0.00  0.00     0.016 C 
ATOM     18  H   LIG d   1       3.971  -3.163  -7.457  0.00  0.00     0.046 H 
ATOM     19  H   LIG d   1       4.021  -1.986  -6.123  0.00  0.00     0.046 H 
BRANCH  17  20
ATOM     20  N   LIG d   1       4.462  -1.204  -8.019  0.00  0.00    -0.294 N 
ATOM     21  C   LIG d   1       4.316   0.067  -7.593  0.00  0.00     0.216 C 
ATOM     22  O   LIG d   1       4.216   0.300  -6.408  0.00  0.00    -0.276 OA
BRANCH  21  23
ATOM     23  C   LIG d   1       4.278   1.196  -8.590  0.00  0.00     0.021 C 
ATOM     24  H   LIG d   1       5.068   1.911  -8.360  0.00  0.00     0.036 H 
ATOM     25  H   LIG d   1       4.427   0.800  -9.594  0.00  0.00     0.036 H 
BRANCH  23  26
ATOM     26  C   LIG d   1       2.919   1.895  -8.515  0.00  0.00    -0.057 C 
ATOM     27  H   LIG d   1       2.837   2.431  -7.569  0.00  0.00     0.023 H 
ATOM     28  H   LIG d   1       2.828   2.601  -9.341  0.00  0.00     0.023 H 
ATOM     29  H   LIG d   1       2.124   1.153  -8.582  0.00  0.00     0.023 H 
ENDBRANCH  23  26
ENDBRANCH  21  23
BRANCH  20  30
ATOM     30  C   LIG d   1       4.584  -1.486  -9.452  0.00  0.00     0.073 C 
ATOM     31  H   LIG d   1       5.042  -0.633  -9.952  0.00  0.00     0.054 H 
ATOM     32  H   LIG d   1       5.206  -2.369  -9.596  0.00  0.00     0.054 H 
BRANCH  30  33
ATOM     33  C   LIG d   1       3.216  -1.734 -10.033  0.00  0.00     0.122 A 
ATOM     34  O   LIG d   1       2.383  -2.728  -9.683  0.00  0.00    -0.466 OA
ATOM     35  C   LIG d   1       1.254  -2.639 -10.406  0.00  0.00     0.092 A 
ATOM     36  C   LIG d   1       1.357  -1.580 -11.229  0.00  0.00    -0.024 A 
ATOM     37  H   LIG d   1       0.407  -3.307 -10.339  0.00  0.00     0.103 H 
ATOM     38  C   LIG d   1       2.619  -0.993 -10.984  0.00  0.00    -0.019 A 
ATOM     39  H   LIG d   1       0.615  -1.242 -11.937  0.00  0.00     0.065 H 
ATOM     40  H   LIG d   1       3.027  -0.120 -11.470  0.00  0.00     0.065 H 
ENDBRANCH  30  33
ENDBRANCH  20  30
ENDBRANCH  17  20
ENDBRANCH  14  17
ENDBRANCH   1  14
BRANCH   1  41
ATOM     41  C   LIG d   1       5.664  -2.222  -4.348  0.00  0.00    -0.041 A 
ATOM     42  C   LIG d   1       4.545  -2.416  -3.561  0.00  0.00    -0.058 A 
ATOM     43  C   LIG d   1       4.180  -1.461  -2.630  0.00  0.00    -0.059 A 
ATOM     44  H   LIG d   1       3.958  -3.316  -3.668  0.00  0.00     0.062 H 
ATOM     45  C   LIG d   1       4.927  -0.306  -2.496  0.00  0.00    -0.050 A 
ATOM     46  H   LIG d   1       3.308  -1.614  -2.013  0.00  0.00     0.062 H 
ATOM     47  C   LIG d   1       6.047  -0.112  -3.284  0.00  0.00    -0.059 A 
ATOM     48  C   LIG d   1       6.415  -1.069  -4.210  0.00  0.00    -0.058 A 
ATOM     49  H   LIG d   1       6.634   0.788  -3.175  0.00  0.00     0.062 H 
ATOM     50  H   LIG d   1       7.290  -0.918  -4.826  0.00  0.00     0.062 H 
BRANCH  45  51
ATOM     51  C   LIG d   1       4.528   0.738  -1.486  0.00  0.00    -0.040 C 
ATOM     52  H   LIG d   1       4.031   0.257  -0.644  0.00  0.00     0.028 H 
ATOM     53  H   LIG d   1       3.848   1.452  -1.949  0.00  0.00     0.028 H 
ATOM     54  H   LIG d   1       5.417   1.261  -1.132  0.00  0.00     0.028 H 
ENDBRANCH  45  51
ENDBRANCH   1  41
BRANCH   5  55
ATOM     55  C   LIG d   1       4.726  -6.809  -6.043  0.00  0.00    -0.020 C 
ATOM     56  H   LIG d   1       3.801  -6.535  -5.536  0.00  0.00     0.032 H 
BRANCH  55  57
ATOM     57  C   LIG d   1       4.400  -7.388  -7.421  0.00  0.00    -0.060 C 
ATOM     58  H   LIG d   1       3.910  -6.627  -8.028  0.00  0.00     0.023 H 
ATOM     59  H   LIG d   1       5.322  -7.705  -7.910  0.00  0.00     0.023 H 
ATOM     60  H   LIG d   1       3.736  -8.246  -7.308  0.00  0.00     0.023 H 
ENDBRANCH  55  57
BRANCH  55  61
ATOM     61  C   LIG d   1       5.470  -7.857  -5.213  0.00  0.00    -0.060 C 
ATOM     62  H   LIG d   1       5.770  -8.684  -5.856  0.00  0.00     0.023 H 
ATOM     63  H   LIG d   1       6.356  -7.406  -4.766  0.00  0.00     0.023 H 
ATOM     64  H   LIG d   1       4.816  -8.228  -4.425  0.00  0.00     0.023 H 
ENDBRANCH  55  61
ENDBRANCH   5  55
TORSDOF 12
ENDMDL
MODEL 4
REMARK VINA RESULT:      -5.4      2.475      4.615
REMARK  12 active torsions:
REMARK  status: ('A' for Active; 'I' for Inactive)
REMARK    1  A    between atoms: C_1  and  C_2 
REMARK    2  A    between atoms: C_2  and  C_3 
REMARK       I    between atoms: C_3  and  N_5 
REMARK    3  A    between atoms: N_5  and  C_6 
REMARK    4  A    between atoms: N_5  and  C_25 
REMARK    5  A    between atoms: C_6  and  C_7 
REMARK    6  A    between atoms: C_7  and  C_8 
REMARK    7  A    between atoms: C_8  and  C_18 
REMARK    8  A    between atoms: C_12  and  C_15 
REMARK    9  A    between atoms: C_15  and  C_16 
REMARK   10  A    between atoms: C_15  and  C_17 
REMARK   11  A    between atoms: C_21  and  C_24 
REMARK   12  A    between atoms: C_25  and  C_26 
ROOT
ATOM      1  C   LIG d   1       7.060  -2.664  -4.521  0.00  0.00     0.002 C 
ATOM      2  C   LIG d   1       7.750  -2.048  -5.742  0.00  0.00    -0.020 C 
ATOM      3  C   LIG d   1       8.646  -3.101  -6.398  0.00  0.00     0.049 C 
ATOM      4  O   LIG d   1       9.596  -3.578  -5.443  0.00  0.00    -0.376 OA
ATOM      5  C   LIG d   1       9.010  -4.208  -4.302  0.00  0.00     0.062 C 
ATOM      6  H   LIG d   1       8.403  -5.053  -4.624  0.00  0.00     0.060 H 
ATOM      7  C   LIG d   1       8.128  -3.198  -3.561  0.00  0.00    -0.017 C 
ATOM      8  H   LIG d   1       6.996  -1.714  -6.455  0.00  0.00     0.030 H 
ATOM      9  H   LIG d   1       8.355  -1.197  -5.427  0.00  0.00     0.030 H 
ATOM     10  H   LIG d   1       8.034  -3.932  -6.748  0.00  0.00     0.056 H 
ATOM     11  H   LIG d   1       9.173  -2.656  -7.242  0.00  0.00     0.056 H 
ATOM     12  H   LIG d   1       8.742  -2.372  -3.203  0.00  0.00     0.030 H 
ATOM     13  H   LIG d   1       7.645  -3.688  -2.716  0.00  0.00     0.030 H 
ENDROOT
BRANCH   1  14
ATOM     14  C   LIG d   1       6.154  -3.812  -4.970  0.00  0.00    -0.027 C 
ATOM     15  H   LIG d   1       6.606  -4.319  -5.823  0.00  0.00     0.029 H 
ATOM     16  H   LIG d   1       6.029  -4.519  -4.151  0.00  0.00     0.029 H 
BRANCH  14  17
ATOM     17  C   LIG d   1       4.788  -3.254  -5.375  0.00  0.00     0.016 C 
ATOM     18  H   LIG d   1       4.023  -3.644  -4.705  0.00  0.00     0.046 H 
ATOM     19  H   LIG d   1       4.806  -2.166  -5.312  0.00  0.00     0.046 H 
BRANCH  17  20
ATOM     20  N   LIG d   1       4.483  -3.659  -6.750  0.00  0.00    -0.294 N 
ATOM     21  C   LIG d   1       3.830  -4.815  -6.984  0.00  0.00     0.216 C 
ATOM     22  O   LIG d   1       3.495  -5.519  -6.056  0.00  0.00    -0.276 OA
BRANCH  21  23
ATOM     23  C   LIG d   1       3.517  -5.231  -8.398  0.00  0.00     0.021 C 
ATOM     24  H   LIG d   1       2.441  -5.169  -8.565  0.00  0.00     0.036 H 
ATOM     25  H   LIG d   1       4.031  -4.568  -9.094  0.00  0.00     0.036 H 
BRANCH  23  26
ATOM     26  C   LIG d   1       3.987  -6.669  -8.622  0.00  0.00    -0.057 C 
ATOM     27  H   LIG d   1       5.074  -6.687  -8.707  0.00  0.00     0.023 H 
ATOM     28  H   LIG d   1       3.678  -7.287  -7.779  0.00  0.00     0.023 H 
ATOM     29  H   LIG d   1       3.544  -7.057  -9.539  0.00  0.00     0.023 H 
ENDBRANCH  23  26
ENDBRANCH  21  23
BRANCH  20  30
ATOM     30  C   LIG d   1       4.888  -2.807  -7.871  0.00  0.00     0.073 C 
ATOM     31  H   LIG d   1       5.906  -2.454  -7.710  0.00  0.00     0.054 H 
ATOM     32  H   LIG d   1       4.845  -3.381  -8.797  0.00  0.00     0.054 H 
BRANCH  30  33
ATOM     33  C   LIG d   1       3.956  -1.627  -7.968  0.00  0.00     0.122 A 
ATOM     34  O   LIG d   1       4.009  -0.520  -7.209  0.00  0.00    -0.466 OA
ATOM     35  C   LIG d   1       3.025   0.319  -7.573  0.00  0.00     0.092 A 
ATOM     36  C   LIG d   1       2.330  -0.249  -8.575  0.00  0.00    -0.024 A 
ATOM     37  H   LIG d   1       2.826   1.286  -7.135  0.00  0.00     0.103 H 
ATOM     38  C   LIG d   1       2.933  -1.501  -8.833  0.00  0.00    -0.019 A 
ATOM     39  H   LIG d   1       1.478   0.173  -9.086  0.00  0.00     0.065 H 
ATOM     40  H   LIG d   1       2.629  -2.220  -9.579  0.00  0.00     0.065 H 
ENDBRANCH  30  33
ENDBRANCH  20  30
ENDBRANCH  17  20
ENDBRANCH  14  17
ENDBRANCH   1  14
BRANCH   1  41
ATOM     41  C   LIG d   1       6.236  -1.614  -3.824  0.00  0.00    -0.041 A 
ATOM     42  C   LIG d   1       6.363  -0.284  -4.182  0.00  0.00    -0.058 A 
ATOM     43  C   LIG d   1       5.603   0.679  -3.546  0.00  0.00    -0.059 A 
ATOM     44  H   LIG d   1       7.054   0.001  -4.961  0.00  0.00     0.062 H 
ATOM     45  C   LIG d   1       4.723   0.315  -2.544  0.00  0.00    -0.050 A 
ATOM     46  H   LIG d   1       5.700   1.717  -3.828  0.00  0.00     0.062 H 
ATOM     47  C   LIG d   1       4.595  -1.014  -2.187  0.00  0.00    -0.059 A 
ATOM     48  C   LIG d   1       5.352  -1.978  -2.825  0.00  0.00    -0.058 A 
ATOM     49  H   LIG d   1       3.904  -1.299  -1.407  0.00  0.00     0.062 H 
ATOM     50  H   LIG d   1       5.252  -3.017  -2.546  0.00  0.00     0.062 H 
BRANCH  45  51
ATOM     51  C   LIG d   1       3.898   1.365  -1.847  0.00  0.00    -0.040 C 
ATOM     52  H   LIG d   1       2.865   1.024  -1.773  0.00  0.00     0.028 H 
ATOM     53  H   LIG d   1       3.934   2.294  -2.414  0.00  0.00     0.028 H 
ATOM     54  H   LIG d   1       4.296   1.535  -0.846  0.00  0.00     0.028 H 
ENDBRANCH  45  51
ENDBRANCH   1  41
BRANCH   5  55
ATOM     55  C   LIG d   1      10.116  -4.701  -3.366  0.00  0.00    -0.020 C 
ATOM     56  H   LIG d   1      10.376  -5.728  -3.620  0.00  0.00     0.032 H 
BRANCH  55  57
ATOM     57  C   LIG d   1      11.349  -3.809  -3.521  0.00  0.00    -0.060 C 
ATOM     58  H   LIG d   1      11.168  -3.070  -4.302  0.00  0.00     0.023 H 
ATOM     59  H   LIG d   1      11.552  -3.300  -2.578  0.00  0.00     0.023 H 
ATOM     60  H   LIG d   1      12.209  -4.422  -3.794  0.00  0.00     0.023 H 
ENDBRANCH  55  57
BRANCH  55  61
ATOM     61  C   LIG d   1       9.624  -4.642  -1.919  0.00  0.00    -0.060 C 
ATOM     62  H   LIG d   1       8.736  -4.012  -1.861  0.00  0.00     0.023 H 
ATOM     63  H   LIG d   1       9.377  -5.648  -1.577  0.00  0.00     0.023 H 
ATOM     64  H   LIG d   1      10.407  -4.226  -1.286  0.00  0.00     0.023 H 
ENDBRANCH  55  61
ENDBRANCH   5  55
TORSDOF 12
ENDMDL
MODEL 5
REMARK VINA RESULT:      -5.4      2.416      4.040
REMARK  12 active torsions:
REMARK  status: ('A' for Active; 'I' for Inactive)
REMARK    1  A    between atoms: C_1  and  C_2 
REMARK    2  A    between atoms: C_2  and  C_3 
REMARK       I    between atoms: C_3  and  N_5 
REMARK    3  A    between atoms: N_5  and  C_6 
REMARK    4  A    between atoms: N_5  and  C_25 
REMARK    5  A    between atoms: C_6  and  C_7 
REMARK    6  A    between atoms: C_7  and  C_8 
REMARK    7  A    between atoms: C_8  and  C_18 
REMARK    8  A    between atoms: C_12  and  C_15 
REMARK    9  A    between atoms: C_15  and  C_16 
REMARK   10  A    between atoms: C_15  and  C_17 
REMARK   11  A    between atoms: C_21  and  C_24 
REMARK   12  A    between atoms: C_25  and  C_26 
ROOT
ATOM      1  C   LIG d   1       5.305  -1.300  -5.951  0.00  0.00     0.002 C 
ATOM      2  C   LIG d   1       6.260  -0.105  -6.034  0.00  0.00    -0.020 C 
ATOM      3  C   LIG d   1       7.235  -0.157  -4.855  0.00  0.00     0.049 C 
ATOM      4  O   LIG d   1       6.501  -0.160  -3.630  0.00  0.00    -0.376 OA
ATOM      5  C   LIG d   1       5.627  -1.281  -3.476  0.00  0.00     0.062 C 
ATOM      6  H   LIG d   1       6.206  -2.202  -3.524  0.00  0.00     0.060 H 
ATOM      7  C   LIG d   1       4.586  -1.272  -4.599  0.00  0.00    -0.017 C 
ATOM      8  H   LIG d   1       6.816  -0.146  -6.970  0.00  0.00     0.030 H 
ATOM      9  H   LIG d   1       5.687   0.822  -5.992  0.00  0.00     0.030 H 
ATOM     10  H   LIG d   1       7.835  -1.065  -4.922  0.00  0.00     0.056 H 
ATOM     11  H   LIG d   1       7.889   0.714  -4.885  0.00  0.00     0.056 H 
ATOM     12  H   LIG d   1       3.980  -0.369  -4.527  0.00  0.00     0.030 H 
ATOM     13  H   LIG d   1       3.946  -2.150  -4.509  0.00  0.00     0.030 H 
ENDROOT
BRANCH   1  14
ATOM     14  C   LIG d   1       6.101  -2.599  -6.083  0.00  0.00    -0.027 C 
ATOM     15  H   LIG d   1       6.116  -2.912  -7.127  0.00  0.00     0.029 H 
ATOM     16  H   LIG d   1       7.122  -2.438  -5.737  0.00  0.00     0.029 H 
BRANCH  14  17
ATOM     17  C   LIG d   1       5.442  -3.689  -5.234  0.00  0.00     0.016 C 
ATOM     18  H   LIG d   1       5.864  -3.672  -4.229  0.00  0.00     0.046 H 
ATOM     19  H   LIG d   1       4.368  -3.508  -5.180  0.00  0.00     0.046 H 
BRANCH  17  20
ATOM     20  N   LIG d   1       5.687  -4.998  -5.844  0.00  0.00    -0.294 N 
ATOM     21  C   LIG d   1       4.685  -5.895  -5.941  0.00  0.00     0.216 C 
ATOM     22  O   LIG d   1       3.582  -5.617  -5.523  0.00  0.00    -0.276 OA
BRANCH  21  23
ATOM     23  C   LIG d   1       4.937  -7.242  -6.568  0.00  0.00     0.021 C 
ATOM     24  H   LIG d   1       4.172  -7.443  -7.317  0.00  0.00     0.036 H 
ATOM     25  H   LIG d   1       5.919  -7.243  -7.042  0.00  0.00     0.036 H 
BRANCH  23  26
ATOM     26  C   LIG d   1       4.891  -8.323  -5.488  0.00  0.00    -0.057 C 
ATOM     27  H   LIG d   1       4.475  -9.240  -5.908  0.00  0.00     0.023 H 
ATOM     28  H   LIG d   1       5.900  -8.517  -5.124  0.00  0.00     0.023 H 
ATOM     29  H   LIG d   1       4.265  -7.986  -4.662  0.00  0.00     0.023 H 
ENDBRANCH  23  26
ENDBRANCH  21  23
BRANCH  20  30
ATOM     30  C   LIG d   1       7.021  -5.333  -6.349  0.00  0.00     0.073 C 
ATOM     31  H   LIG d   1       6.953  -6.198  -7.008  0.00  0.00     0.054 H 
ATOM     32  H   LIG d   1       7.423  -4.485  -6.903  0.00  0.00     0.054 H 
BRANCH  30  33
ATOM     33  C   LIG d   1       7.931  -5.654  -5.190  0.00  0.00     0.122 A 
ATOM     34  O   LIG d   1       8.571  -4.757  -4.423  0.00  0.00    -0.466 OA
ATOM     35  C   LIG d   1       9.291  -5.400  -3.489  0.00  0.00     0.092 A 
ATOM     36  C   LIG d   1       9.114  -6.724  -3.653  0.00  0.00    -0.024 A 
ATOM     37  H   LIG d   1       9.907  -4.934  -2.735  0.00  0.00     0.103 H 
ATOM     38  C   LIG d   1       8.233  -6.887  -4.746  0.00  0.00    -0.019 A 
ATOM     39  H   LIG d   1       9.557  -7.509  -3.059  0.00  0.00     0.065 H 
ATOM     40  H   LIG d   1       7.874  -7.823  -5.148  0.00  0.00     0.065 H 
ENDBRANCH  30  33
ENDBRANCH  20  30
ENDBRANCH  17  20
ENDBRANCH  14  17
ENDBRANCH   1  14
BRANCH   1  41
ATOM     41  C   LIG d   1       4.292  -1.214  -7.063  0.00  0.00    -0.041 A 
ATOM     42  C   LIG d   1       4.274  -2.175  -8.057  0.00  0.00    -0.058 A 
ATOM     43  C   LIG d   1       3.341  -2.099  -9.074  0.00  0.00    -0.059 A 
ATOM     44  H   LIG d   1       4.985  -2.987  -8.037  0.00  0.00     0.062 H 
ATOM     45  C   LIG d   1       2.434  -1.057  -9.105  0.00  0.00    -0.050 A 
ATOM     46  H   LIG d   1       3.324  -2.851  -9.849  0.00  0.00     0.062 H 
ATOM     47  C   LIG d   1       2.453  -0.096  -8.110  0.00  0.00    -0.059 A 
ATOM     48  C   LIG d   1       3.382  -0.174  -7.091  0.00  0.00    -0.058 A 
ATOM     49  H   LIG d   1       1.741   0.716  -8.131  0.00  0.00     0.062 H 
ATOM     50  H   LIG d   1       3.397   0.577  -6.314  0.00  0.00     0.062 H 
BRANCH  45  51
ATOM     51  C   LIG d   1       1.420  -0.971 -10.216  0.00  0.00    -0.040 C 
ATOM     52  H   LIG d   1       0.884  -0.024 -10.145  0.00  0.00     0.028 H 
ATOM     53  H   LIG d   1       0.714  -1.795 -10.129  0.00  0.00     0.028 H 
ATOM     54  H   LIG d   1       1.930  -1.028 -11.178  0.00  0.00     0.028 H 
ENDBRANCH  45  51
ENDBRANCH   1  41
BRANCH   5  55
ATOM     55  C   LIG d   1       4.917  -1.193  -2.123  0.00  0.00    -0.020 C 
ATOM     56  H   LIG d   1       5.584  -1.549  -1.338  0.00  0.00     0.032 H 
BRANCH  55  57
ATOM     57  C   LIG d   1       4.533   0.261  -1.843  0.00  0.00    -0.060 C 
ATOM     58  H   LIG d   1       3.533   0.296  -1.410  0.00  0.00     0.023 H 
ATOM     59  H   LIG d   1       5.247   0.699  -1.145  0.00  0.00     0.023 H 
ATOM     60  H   LIG d   1       4.545   0.827  -2.776  0.00  0.00     0.023 H 
ENDBRANCH  55  57
BRANCH  55  61
ATOM     61  C   LIG d   1       3.656  -2.057  -2.152  0.00  0.00    -0.060 C 
ATOM     62  H   LIG d   1       3.422  -2.393  -1.141  0.00  0.00     0.023 H 
ATOM     63  H   LIG d   1       2.822  -1.473  -2.542  0.00  0.00     0.023 H 
ATOM     64  H   LIG d   1       3.823  -2.923  -2.792  0.00  0.00     0.023 H 
ENDBRANCH  55  61
ENDBRANCH   5  55
TORSDOF 12
ENDMDL
MODEL 6
REMARK VINA RESULT:      -5.3      2.067      5.529
REMARK  12 active torsions:
REMARK  status: ('A' for Active; 'I' for Inactive)
REMARK    1  A    between atoms: C_1  and  C_2 
REMARK    2  A    between atoms: C_2  and  C_3 
REMARK       I    between atoms: C_3  and  N_5 
REMARK    3  A    between atoms: N_5  and  C_6 
REMARK    4  A    between atoms: N_5  and  C_25 
REMARK    5  A    between atoms: C_6  and  C_7 
REMARK    6  A    between atoms: C_7  and  C_8 
REMARK    7  A    between atoms: C_8  and  C_18 
REMARK    8  A    between atoms: C_12  and  C_15 
REMARK    9  A    between atoms: C_15  and  C_16 
REMARK   10  A    between atoms: C_15  and  C_17 
REMARK   11  A    between atoms: C_21  and  C_24 
REMARK   12  A    between atoms: C_25  and  C_26 
ROOT
ATOM      1  C   LIG d   1       5.674  -3.175  -5.692  0.00  0.00     0.002 C 
ATOM      2  C   LIG d   1       7.009  -2.843  -6.364  0.00  0.00    -0.020 C 
ATOM      3  C   LIG d   1       7.338  -3.928  -7.393  0.00  0.00     0.049 C 
ATOM      4  O   LIG d   1       7.379  -5.201  -6.744  0.00  0.00    -0.376 OA
ATOM      5  C   LIG d   1       6.143  -5.586  -6.138  0.00  0.00     0.062 C 
ATOM      6  H   LIG d   1       5.361  -5.619  -6.895  0.00  0.00     0.060 H 
ATOM      7  C   LIG d   1       5.767  -4.567  -5.058  0.00  0.00    -0.017 C 
ATOM      8  H   LIG d   1       6.935  -1.877  -6.864  0.00  0.00     0.030 H 
ATOM      9  H   LIG d   1       7.797  -2.803  -5.611  0.00  0.00     0.030 H 
ATOM     10  H   LIG d   1       6.571  -3.939  -8.167  0.00  0.00     0.056 H 
ATOM     11  H   LIG d   1       8.308  -3.720  -7.844  0.00  0.00     0.056 H 
ATOM     12  H   LIG d   1       6.529  -4.563  -4.280  0.00  0.00     0.030 H 
ATOM     13  H   LIG d   1       4.803  -4.835  -4.625  0.00  0.00     0.030 H 
ENDROOT
BRANCH   1  14
ATOM     14  C   LIG d   1       4.557  -3.160  -6.737  0.00  0.00    -0.027 C 
ATOM     15  H   LIG d   1       4.501  -4.135  -7.221  0.00  0.00     0.029 H 
ATOM     16  H   LIG d   1       3.607  -2.940  -6.251  0.00  0.00     0.029 H 
BRANCH  14  17
ATOM     17  C   LIG d   1       4.855  -2.086  -7.785  0.00  0.00     0.016 C 
ATOM     18  H   LIG d   1       5.488  -1.316  -7.347  0.00  0.00     0.046 H 
ATOM     19  H   LIG d   1       5.369  -2.539  -8.634  0.00  0.00     0.046 H 
BRANCH  17  20
ATOM     20  N   LIG d   1       3.598  -1.485  -8.239  0.00  0.00    -0.294 N 
ATOM     21  C   LIG d   1       2.918  -2.038  -9.264  0.00  0.00     0.216 C 
ATOM     22  O   LIG d   1       3.347  -3.031  -9.809  0.00  0.00    -0.276 OA
BRANCH  21  23
ATOM     23  C   LIG d   1       1.625  -1.419  -9.730  0.00  0.00     0.021 C 
ATOM     24  H   LIG d   1       0.832  -2.167  -9.697  0.00  0.00     0.036 H 
ATOM     25  H   LIG d   1       1.365  -0.585  -9.079  0.00  0.00     0.036 H 
BRANCH  23  26
ATOM     26  C   LIG d   1       1.791  -0.914 -11.164  0.00  0.00    -0.057 C 
ATOM     27  H   LIG d   1       1.116  -0.074 -11.335  0.00  0.00     0.023 H 
ATOM     28  H   LIG d   1       2.820  -0.589 -11.319  0.00  0.00     0.023 H 
ATOM     29  H   LIG d   1       1.555  -1.717 -11.862  0.00  0.00     0.023 H 
ENDBRANCH  23  26
ENDBRANCH  21  23
BRANCH  20  30
ATOM     30  C   LIG d   1       3.080  -0.285  -7.579  0.00  0.00     0.073 C 
ATOM     31  H   LIG d   1       1.991  -0.291  -7.616  0.00  0.00     0.054 H 
ATOM     32  H   LIG d   1       3.408  -0.271  -6.540  0.00  0.00     0.054 H 
BRANCH  30  33
ATOM     33  C   LIG d   1       3.600   0.941  -8.286  0.00  0.00     0.122 A 
ATOM     34  O   LIG d   1       4.893   1.251  -8.471  0.00  0.00    -0.466 OA
ATOM     35  C   LIG d   1       4.983   2.413  -9.140  0.00  0.00     0.092 A 
ATOM     36  C   LIG d   1       3.738   2.858  -9.389  0.00  0.00    -0.024 A 
ATOM     37  H   LIG d   1       5.900   2.906  -9.428  0.00  0.00     0.103 H 
ATOM     38  C   LIG d   1       2.846   1.906  -8.843  0.00  0.00    -0.019 A 
ATOM     39  H   LIG d   1       3.473   3.765  -9.910  0.00  0.00     0.065 H 
ATOM     40  H   LIG d   1       1.768   1.948  -8.867  0.00  0.00     0.065 H 
ENDBRANCH  30  33
ENDBRANCH  20  30
ENDBRANCH  17  20
ENDBRANCH  14  17
ENDBRANCH   1  14
BRANCH   1  41
ATOM     41  C   LIG d   1       5.380  -2.154  -4.623  0.00  0.00    -0.041 A 
ATOM     42  C   LIG d   1       4.347  -2.367  -3.729  0.00  0.00    -0.058 A 
ATOM     43  C   LIG d   1       4.080  -1.433  -2.746  0.00  0.00    -0.059 A 
ATOM     44  H   LIG d   1       3.751  -3.266  -3.796  0.00  0.00     0.062 H 
ATOM     45  C   LIG d   1       4.838  -0.281  -2.663  0.00  0.00    -0.050 A 
ATOM     46  H   LIG d   1       3.276  -1.601  -2.046  0.00  0.00     0.062 H 
ATOM     47  C   LIG d   1       5.872  -0.069  -3.557  0.00  0.00    -0.059 A 
ATOM     48  C   LIG d   1       6.142  -1.004  -4.537  0.00  0.00    -0.058 A 
ATOM     49  H   LIG d   1       6.468   0.830  -3.489  0.00  0.00     0.062 H 
ATOM     50  H   LIG d   1       6.949  -0.838  -5.236  0.00  0.00     0.062 H 
BRANCH  45  51
ATOM     51  C   LIG d   1       4.545   0.740  -1.595  0.00  0.00    -0.040 C 
ATOM     52  H   LIG d   1       5.309   0.683  -0.819  0.00  0.00     0.028 H 
ATOM     53  H   LIG d   1       3.568   0.540  -1.158  0.00  0.00     0.028 H 
ATOM     54  H   LIG d   1       4.550   1.738  -2.035  0.00  0.00     0.028 H 
ENDBRANCH  45  51
ENDBRANCH   1  41
BRANCH   5  55
ATOM     55  C   LIG d   1       6.296  -6.969  -5.502  0.00  0.00    -0.020 C 
ATOM     56  H   LIG d   1       6.649  -6.861  -4.476  0.00  0.00     0.032 H 
BRANCH  55  57
ATOM     57  C   LIG d   1       4.942  -7.682  -5.501  0.00  0.00    -0.060 C 
ATOM     58  H   LIG d   1       4.876  -8.338  -6.370  0.00  0.00     0.023 H 
ATOM     59  H   LIG d   1       4.842  -8.273  -4.591  0.00  0.00     0.023 H 
ATOM     60  H   LIG d   1       4.141  -6.943  -5.543  0.00  0.00     0.023 H 
ENDBRANCH  55  57
BRANCH  55  61
ATOM     61  C   LIG d   1       7.305  -7.792  -6.305  0.00  0.00    -0.060 C 
ATOM     62  H   LIG d   1       8.144  -7.159  -6.592  0.00  0.00     0.023 H 
ATOM     63  H   LIG d   1       7.667  -8.620  -5.696  0.00  0.00     0.023 H 
ATOM     64  H   LIG d   1       6.823  -8.185  -7.200  0.00  0.00     0.023 H 
ENDBRANCH  55  61
ENDBRANCH   5  55
TORSDOF 12
ENDMDL
MODEL 7
REMARK VINA RESULT:      -5.2      2.260      4.294
REMARK  12 active torsions:
REMARK  status: ('A' for Active; 'I' for Inactive)
REMARK    1  A    between atoms: C_1  and  C_2 
REMARK    2  A    between atoms: C_2  and  C_3 
REMARK       I    between atoms: C_3  and  N_5 
REMARK    3  A    between atoms: N_5  and  C_6 
REMARK    4  A    between atoms: N_5  and  C_25 
REMARK    5  A    between atoms: C_6  and  C_7 
REMARK    6  A    between atoms: C_7  and  C_8 
REMARK    7  A    between atoms: C_8  and  C_18 
REMARK    8  A    between atoms: C_12  and  C_15 
REMARK    9  A    between atoms: C_15  and  C_16 
REMARK   10  A    between atoms: C_15  and  C_17 
REMARK   11  A    between atoms: C_21  and  C_24 
REMARK   12  A    between atoms: C_25  and  C_26 
ROOT
ATOM      1  C   LIG d   1       6.898  -0.275  -4.989  0.00  0.00     0.002 C 
ATOM      2  C   LIG d   1       7.849  -1.322  -4.402  0.00  0.00    -0.020 C 
ATOM      3  C   LIG d   1       7.035  -2.518  -3.903  0.00  0.00     0.049 C 
ATOM      4  O   LIG d   1       6.081  -2.074  -2.936  0.00  0.00    -0.376 OA
ATOM      5  C   LIG d   1       5.135  -1.129  -3.441  0.00  0.00     0.062 C 
ATOM      6  H   LIG d   1       4.590  -1.571  -4.274  0.00  0.00     0.060 H 
ATOM      7  C   LIG d   1       5.874   0.124  -3.921  0.00  0.00    -0.017 C 
ATOM      8  H   LIG d   1       8.548  -1.651  -5.171  0.00  0.00     0.030 H 
ATOM      9  H   LIG d   1       8.403  -0.885  -3.571  0.00  0.00     0.030 H 
ATOM     10  H   LIG d   1       6.514  -2.978  -4.743  0.00  0.00     0.056 H 
ATOM     11  H   LIG d   1       7.703  -3.248  -3.446  0.00  0.00     0.056 H 
ATOM     12  H   LIG d   1       6.387   0.588  -3.080  0.00  0.00     0.030 H 
ATOM     13  H   LIG d   1       5.159   0.827  -4.347  0.00  0.00     0.030 H 
ENDROOT
BRANCH   1  14
ATOM     14  C   LIG d   1       6.173  -0.864  -6.200  0.00  0.00    -0.027 C 
ATOM     15  H   LIG d   1       6.673  -0.543  -7.114  0.00  0.00     0.029 H 
ATOM     16  H   LIG d   1       6.188  -1.952  -6.141  0.00  0.00     0.029 H 
BRANCH  14  17
ATOM     17  C   LIG d   1       4.723  -0.375  -6.214  0.00  0.00     0.016 C 
ATOM     18  H   LIG d   1       4.076  -1.145  -5.797  0.00  0.00     0.046 H 
ATOM     19  H   LIG d   1       4.640   0.533  -5.616  0.00  0.00     0.046 H 
BRANCH  17  20
ATOM     20  N   LIG d   1       4.317  -0.090  -7.593  0.00  0.00    -0.294 N 
ATOM     21  C   LIG d   1       3.408   0.873  -7.843  0.00  0.00     0.216 C 
ATOM     22  O   LIG d   1       2.925   1.503  -6.926  0.00  0.00    -0.276 OA
BRANCH  21  23
ATOM     23  C   LIG d   1       2.990   1.166  -9.261  0.00  0.00     0.021 C 
ATOM     24  H   LIG d   1       3.271   0.330  -9.902  0.00  0.00     0.036 H 
ATOM     25  H   LIG d   1       1.910   1.308  -9.300  0.00  0.00     0.036 H 
BRANCH  23  26
ATOM     26  C   LIG d   1       3.689   2.437  -9.745  0.00  0.00    -0.057 C 
ATOM     27  H   LIG d   1       4.412   2.183 -10.521  0.00  0.00     0.023 H 
ATOM     28  H   LIG d   1       2.949   3.127 -10.151  0.00  0.00     0.023 H 
ATOM     29  H   LIG d   1       4.205   2.910  -8.909  0.00  0.00     0.023 H 
ENDBRANCH  23  26
ENDBRANCH  21  23
BRANCH  20  30
ATOM     30  C   LIG d   1       4.900  -0.851  -8.700  0.00  0.00     0.073 C 
ATOM     31  H   LIG d   1       4.800  -0.283  -9.625  0.00  0.00     0.054 H 
ATOM     32  H   LIG d   1       5.956  -1.034  -8.500  0.00  0.00     0.054 H 
BRANCH  30  33
ATOM     33  C   LIG d   1       4.180  -2.168  -8.839  0.00  0.00     0.122 A 
ATOM     34  O   LIG d   1       4.416  -3.272  -8.113  0.00  0.00    -0.466 OA
ATOM     35  C   LIG d   1       3.588  -4.253  -8.508  0.00  0.00     0.092 A 
ATOM     36  C   LIG d   1       2.809  -3.779  -9.498  0.00  0.00    -0.024 A 
ATOM     37  H   LIG d   1       3.553  -5.253  -8.101  0.00  0.00     0.103 H 
ATOM     38  C   LIG d   1       3.187  -2.433  -9.707  0.00  0.00    -0.019 A 
ATOM     39  H   LIG d   1       2.040  -4.322 -10.026  0.00  0.00     0.065 H 
ATOM     40  H   LIG d   1       2.762  -1.750 -10.428  0.00  0.00     0.065 H 
ENDBRANCH  30  33
ENDBRANCH  20  30
ENDBRANCH  17  20
ENDBRANCH  14  17
ENDBRANCH   1  14
BRANCH   1  41
ATOM     41  C   LIG d   1       7.683   0.939  -5.412  0.00  0.00    -0.041 A 
ATOM     42  C   LIG d   1       8.057   1.883  -4.473  0.00  0.00    -0.058 A 
ATOM     43  C   LIG d   1       8.782   2.994  -4.860  0.00  0.00    -0.059 A 
ATOM     44  H   LIG d   1       7.786   1.749  -3.436  0.00  0.00     0.062 H 
ATOM     45  C   LIG d   1       9.124   3.168  -6.187  0.00  0.00    -0.050 A 
ATOM     46  H   LIG d   1       9.077   3.729  -4.126  0.00  0.00     0.062 H 
ATOM     47  C   LIG d   1       8.751   2.224  -7.126  0.00  0.00    -0.059 A 
ATOM     48  C   LIG d   1       8.030   1.111  -6.738  0.00  0.00    -0.058 A 
ATOM     49  H   LIG d   1       9.022   2.358  -8.163  0.00  0.00     0.062 H 
ATOM     50  H   LIG d   1       7.738   0.373  -7.472  0.00  0.00     0.062 H 
BRANCH  45  51
ATOM     51  C   LIG d   1       9.910   4.382  -6.611  0.00  0.00    -0.040 C 
ATOM     52  H   LIG d   1      10.646   4.093  -7.362  0.00  0.00     0.028 H 
ATOM     53  H   LIG d   1      10.420   4.806  -5.747  0.00  0.00     0.028 H 
ATOM     54  H   LIG d   1       9.232   5.124  -7.034  0.00  0.00     0.028 H 
ENDBRANCH  45  51
ENDBRANCH   1  41
BRANCH   5  55
ATOM     55  C   LIG d   1       4.153  -0.748  -2.332  0.00  0.00    -0.020 C 
ATOM     56  H   LIG d   1       4.195  -1.491  -1.536  0.00  0.00     0.032 H 
BRANCH  55  57
ATOM     57  C   LIG d   1       4.529   0.624  -1.768  0.00  0.00    -0.060 C 
ATOM     58  H   LIG d   1       5.588   0.634  -1.511  0.00  0.00     0.023 H 
ATOM     59  H   LIG d   1       4.328   1.392  -2.515  0.00  0.00     0.023 H 
ATOM     60  H   LIG d   1       3.937   0.825  -0.874  0.00  0.00     0.023 H 
ENDBRANCH  55  57
BRANCH  55  61
ATOM     61  C   LIG d   1       2.735  -0.693  -2.903  0.00  0.00    -0.060 C 
ATOM     62  H   LIG d   1       2.470  -1.667  -3.313  0.00  0.00     0.023 H 
ATOM     63  H   LIG d   1       2.033  -0.430  -2.111  0.00  0.00     0.023 H 
ATOM     64  H   LIG d   1       2.689   0.058  -3.691  0.00  0.00     0.023 H 
ENDBRANCH  55  61
ENDBRANCH   5  55
TORSDOF 12
ENDMDL
MODEL 8
REMARK VINA RESULT:      -5.2      2.747      5.364
REMARK  12 active torsions:
REMARK  status: ('A' for Active; 'I' for Inactive)
REMARK    1  A    between atoms: C_1  and  C_2 
REMARK    2  A    between atoms: C_2  and  C_3 
REMARK       I    between atoms: C_3  and  N_5 
REMARK    3  A    between atoms: N_5  and  C_6 
REMARK    4  A    between atoms: N_5  and  C_25 
REMARK    5  A    between atoms: C_6  and  C_7 
REMARK    6  A    between atoms: C_7  and  C_8 
REMARK    7  A    between atoms: C_8  and  C_18 
REMARK    8  A    between atoms: C_12  and  C_15 
REMARK    9  A    between atoms: C_15  and  C_16 
REMARK   10  A    between atoms: C_15  and  C_17 
REMARK   11  A    between atoms: C_21  and  C_24 
REMARK   12  A    between atoms: C_25  and  C_26 
ROOT
ATOM      1  C   LIG d   1       7.778  -2.205  -4.424  0.00  0.00     0.002 C 
ATOM      2  C   LIG d   1       8.910  -1.376  -5.035  0.00  0.00    -0.020 C 
ATOM      3  C   LIG d   1       9.949  -2.317  -5.649  0.00  0.00     0.049 C 
ATOM      4  O   LIG d   1      10.434  -3.210  -4.644  0.00  0.00    -0.376 OA
ATOM      5  C   LIG d   1       9.427  -4.045  -4.070  0.00  0.00     0.062 C 
ATOM      6  H   LIG d   1       8.959  -4.642  -4.853  0.00  0.00     0.060 H 
ATOM      7  C   LIG d   1       8.367  -3.172  -3.392  0.00  0.00    -0.017 C 
ATOM      8  H   LIG d   1       8.507  -0.723  -5.809  0.00  0.00     0.030 H 
ATOM      9  H   LIG d   1       9.380  -0.771  -4.258  0.00  0.00     0.030 H 
ATOM     10  H   LIG d   1       9.488  -2.891  -6.453  0.00  0.00     0.056 H 
ATOM     11  H   LIG d   1      10.779  -1.734  -6.048  0.00  0.00     0.056 H 
ATOM     12  H   LIG d   1       8.826  -2.605  -2.583  0.00  0.00     0.030 H 
ATOM     13  H   LIG d   1       7.575  -3.805  -2.992  0.00  0.00     0.030 H 
ENDROOT
BRANCH   1  14
ATOM     14  C   LIG d   1       7.072  -2.998  -5.526  0.00  0.00    -0.027 C 
ATOM     15  H   LIG d   1       7.732  -3.789  -5.882  0.00  0.00     0.029 H 
ATOM     16  H   LIG d   1       6.157  -3.438  -5.130  0.00  0.00     0.029 H 
BRANCH  14  17
ATOM     17  C   LIG d   1       6.726  -2.062  -6.685  0.00  0.00     0.016 C 
ATOM     18  H   LIG d   1       7.257  -1.118  -6.562  0.00  0.00     0.046 H 
ATOM     19  H   LIG d   1       7.023  -2.524  -7.627  0.00  0.00     0.046 H 
BRANCH  17  20
ATOM     20  N   LIG d   1       5.283  -1.811  -6.697  0.00  0.00    -0.294 N 
ATOM     21  C   LIG d   1       4.818  -0.552  -6.833  0.00  0.00     0.216 C 
ATOM     22  O   LIG d   1       5.596   0.371  -6.946  0.00  0.00    -0.276 OA
BRANCH  21  23
ATOM     23  C   LIG d   1       3.334  -0.295  -6.845  0.00  0.00     0.021 C 
ATOM     24  H   LIG d   1       3.093   0.407  -7.644  0.00  0.00     0.036 H 
ATOM     25  H   LIG d   1       2.803  -1.232  -7.014  0.00  0.00     0.036 H 
BRANCH  23  26
ATOM     26  C   LIG d   1       2.909   0.297  -5.501  0.00  0.00    -0.057 C 
ATOM     27  H   LIG d   1       3.644   0.036  -4.739  0.00  0.00     0.023 H 
ATOM     28  H   LIG d   1       2.844   1.382  -5.585  0.00  0.00     0.023 H 
ATOM     29  H   LIG d   1       1.935  -0.104  -5.218  0.00  0.00     0.023 H 
ENDBRANCH  23  26
ENDBRANCH  21  23
BRANCH  20  30
ATOM     30  C   LIG d   1       4.344  -2.927  -6.561  0.00  0.00     0.073 C 
ATOM     31  H   LIG d   1       4.711  -3.621  -5.806  0.00  0.00     0.054 H 
ATOM     32  H   LIG d   1       3.368  -2.546  -6.260  0.00  0.00     0.054 H 
BRANCH  30  33
ATOM     33  C   LIG d   1       4.219  -3.642  -7.882  0.00  0.00     0.122 A 
ATOM     34  O   LIG d   1       3.944  -3.066  -9.064  0.00  0.00    -0.466 OA
ATOM     35  C   LIG d   1       3.911  -4.006 -10.022  0.00  0.00     0.092 A 
ATOM     36  C   LIG d   1       4.166  -5.200  -9.457  0.00  0.00    -0.024 A 
ATOM     37  H   LIG d   1       3.712  -3.833 -11.070  0.00  0.00     0.103 H 
ATOM     38  C   LIG d   1       4.370  -4.964  -8.078  0.00  0.00    -0.019 A 
ATOM     39  H   LIG d   1       4.211  -6.153  -9.961  0.00  0.00     0.065 H 
ATOM     40  H   LIG d   1       4.601  -5.704  -7.326  0.00  0.00     0.065 H 
ENDBRANCH  30  33
ENDBRANCH  20  30
ENDBRANCH  17  20
ENDBRANCH  14  17
ENDBRANCH   1  14
BRANCH   1  41
ATOM     41  C   LIG d   1       6.789  -1.289  -3.749  0.00  0.00    -0.041 A 
ATOM     42  C   LIG d   1       6.993   0.078  -3.762  0.00  0.00    -0.058 A 
ATOM     43  C   LIG d   1       6.084   0.918  -3.148  0.00  0.00    -0.059 A 
ATOM     44  H   LIG d   1       7.861   0.490  -4.256  0.00  0.00     0.062 H 
ATOM     45  C   LIG d   1       4.977   0.392  -2.511  0.00  0.00    -0.050 A 
ATOM     46  H   LIG d   1       6.242   1.987  -3.161  0.00  0.00     0.062 H 
ATOM     47  C   LIG d   1       4.773  -0.976  -2.498  0.00  0.00    -0.059 A 
ATOM     48  C   LIG d   1       5.679  -1.816  -3.116  0.00  0.00    -0.058 A 
ATOM     49  H   LIG d   1       3.905  -1.387  -2.004  0.00  0.00     0.062 H 
ATOM     50  H   LIG d   1       5.520  -2.885  -3.106  0.00  0.00     0.062 H 
BRANCH  45  51
ATOM     51  C   LIG d   1       3.987   1.307  -1.837  0.00  0.00    -0.040 C 
ATOM     52  H   LIG d   1       3.317   1.729  -2.585  0.00  0.00     0.028 H 
ATOM     53  H   LIG d   1       4.520   2.111  -1.331  0.00  0.00     0.028 H 
ATOM     54  H   LIG d   1       3.407   0.740  -1.107  0.00  0.00     0.028 H 
ENDBRANCH  45  51
ENDBRANCH   1  41
BRANCH   5  55
ATOM     55  C   LIG d   1      10.062  -4.973  -3.033  0.00  0.00    -0.020 C 
ATOM     56  H   LIG d   1       9.902  -4.566  -2.034  0.00  0.00     0.032 H 
BRANCH  55  57
ATOM     57  C   LIG d   1       9.421  -6.358  -3.127  0.00  0.00    -0.060 C 
ATOM     58  H   LIG d   1       9.711  -6.831  -4.066  0.00  0.00     0.023 H 
ATOM     59  H   LIG d   1       9.758  -6.973  -2.292  0.00  0.00     0.023 H 
ATOM     60  H   LIG d   1       8.335  -6.261  -3.090  0.00  0.00     0.023 H 
ENDBRANCH  55  57
BRANCH  55  61
ATOM     61  C   LIG d   1      11.564  -5.087  -3.302  0.00  0.00    -0.060 C 
ATOM     62  H   LIG d   1      12.003  -4.090  -3.343  0.00  0.00     0.023 H 
ATOM     63  H   LIG d   1      12.035  -5.658  -2.502  0.00  0.00     0.023 H 
ATOM     64  H   LIG d   1      11.725  -5.594  -4.253  0.00  0.00     0.023 H 
ENDBRANCH  55  61
ENDBRANCH   5  55
TORSDOF 12
ENDMDL
MODEL 9
REMARK VINA RESULT:      -5.1      3.417      5.684
REMARK  12 active torsions:
REMARK  status: ('A' for Active; 'I' for Inactive)
REMARK    1  A    between atoms: C_1  and  C_2 
REMARK    2  A    between atoms: C_2  and  C_3 
REMARK       I    between atoms: C_3  and  N_5 
REMARK    3  A    between atoms: N_5  and  C_6 
REMARK    4  A    between atoms: N_5  and  C_25 
REMARK    5  A    between atoms: C_6  and  C_7 
REMARK    6  A    between atoms: C_7  and  C_8 
REMARK    7  A    between atoms: C_8  and  C_18 
REMARK    8  A    between atoms: C_12  and  C_15 
REMARK    9  A    between atoms: C_15  and  C_16 
REMARK   10  A    between atoms: C_15  and  C_17 
REMARK   11  A    between atoms: C_21  and  C_24 
REMARK   12  A    between atoms: C_25  and  C_26 
ROOT
ATOM      1  C   LIG d   1       9.172   1.499  -5.094  0.00  0.00     0.002 C 
ATOM      2  C   LIG d   1      10.673   1.200  -5.038  0.00  0.00    -0.020 C 
ATOM      3  C   LIG d   1      11.268   1.844  -3.784  0.00  0.00     0.049 C 
ATOM      4  O   LIG d   1      11.012   3.249  -3.804  0.00  0.00    -0.376 OA
ATOM      5  C   LIG d   1       9.624   3.590  -3.808  0.00  0.00     0.062 C 
ATOM      6  H   LIG d   1       9.144   3.173  -2.923  0.00  0.00     0.060 H 
ATOM      7  C   LIG d   1       8.963   3.016  -5.065  0.00  0.00    -0.017 C 
ATOM      8  H   LIG d   1      10.829   0.121  -5.004  0.00  0.00     0.030 H 
ATOM      9  H   LIG d   1      11.159   1.609  -5.924  0.00  0.00     0.030 H 
ATOM     10  H   LIG d   1      10.809   1.404  -2.898  0.00  0.00     0.056 H 
ATOM     11  H   LIG d   1      12.344   1.671  -3.761  0.00  0.00     0.056 H 
ATOM     12  H   LIG d   1       9.415   3.463  -5.950  0.00  0.00     0.030 H 
ATOM     13  H   LIG d   1       7.896   3.236  -5.048  0.00  0.00     0.030 H 
ENDROOT
BRANCH   1  14
ATOM     14  C   LIG d   1       8.478   0.862  -3.888  0.00  0.00    -0.027 C 
ATOM     15  H   LIG d   1       8.520  -0.224  -3.977  0.00  0.00     0.029 H 
ATOM     16  H   LIG d   1       8.982   1.171  -2.973  0.00  0.00     0.029 H 
BRANCH  14  17
ATOM     17  C   LIG d   1       7.017   1.314  -3.844  0.00  0.00     0.016 C 
ATOM     18  H   LIG d   1       6.901   2.096  -3.095  0.00  0.00     0.046 H 
ATOM     19  H   LIG d   1       6.726   1.699  -4.821  0.00  0.00     0.046 H 
BRANCH  17  20
ATOM     20  N   LIG d   1       6.164   0.175  -3.494  0.00  0.00    -0.294 N 
ATOM     21  C   LIG d   1       5.273   0.283  -2.488  0.00  0.00     0.216 C 
ATOM     22  O   LIG d   1       5.178   1.324  -1.873  0.00  0.00    -0.276 OA
BRANCH  21  23
ATOM     23  C   LIG d   1       4.396  -0.888  -2.129  0.00  0.00     0.021 C 
ATOM     24  H   LIG d   1       4.834  -1.805  -2.524  0.00  0.00     0.036 H 
ATOM     25  H   LIG d   1       4.315  -0.963  -1.045  0.00  0.00     0.036 H 
BRANCH  23  26
ATOM     26  C   LIG d   1       3.005  -0.687  -2.732  0.00  0.00    -0.057 C 
ATOM     27  H   LIG d   1       3.063   0.030  -3.551  0.00  0.00     0.023 H 
ATOM     28  H   LIG d   1       2.630  -1.639  -3.108  0.00  0.00     0.023 H 
ATOM     29  H   LIG d   1       2.328  -0.308  -1.966  0.00  0.00     0.023 H 
ENDBRANCH  23  26
ENDBRANCH  21  23
BRANCH  20  30
ATOM     30  C   LIG d   1       6.279  -1.082  -4.237  0.00  0.00     0.073 C 
ATOM     31  H   LIG d   1       7.319  -1.243  -4.521  0.00  0.00     0.054 H 
ATOM     32  H   LIG d   1       5.943  -1.908  -3.610  0.00  0.00     0.054 H 
BRANCH  30  33
ATOM     33  C   LIG d   1       5.425  -1.013  -5.477  0.00  0.00     0.122 A 
ATOM     34  O   LIG d   1       4.809   0.085  -5.946  0.00  0.00    -0.466 OA
ATOM     35  C   LIG d   1       4.139  -0.224  -7.068  0.00  0.00     0.092 A 
ATOM     36  C   LIG d   1       4.322  -1.531  -7.328  0.00  0.00    -0.024 A 
ATOM     37  H   LIG d   1       3.551   0.462  -7.661  0.00  0.00     0.103 H 
ATOM     38  C   LIG d   1       5.156  -2.038  -6.305  0.00  0.00    -0.019 A 
ATOM     39  H   LIG d   1       3.914  -2.084  -8.160  0.00  0.00     0.065 H 
ATOM     40  H   LIG d   1       5.507  -3.054  -6.207  0.00  0.00     0.065 H 
ENDBRANCH  30  33
ENDBRANCH  20  30
ENDBRANCH  17  20
ENDBRANCH  14  17
ENDBRANCH   1  14
BRANCH   1  41
ATOM     41  C   LIG d   1       8.592   0.934  -6.366  0.00  0.00    -0.041 A 
ATOM     42  C   LIG d   1       7.808   1.730  -7.180  0.00  0.00    -0.058 A 
ATOM     43  C   LIG d   1       7.281   1.214  -8.349  0.00  0.00    -0.059 A 
ATOM     44  H   LIG d   1       7.611   2.756  -6.906  0.00  0.00     0.062 H 
ATOM     45  C   LIG d   1       7.527  -0.100  -8.698  0.00  0.00    -0.050 A 
ATOM     46  H   LIG d   1       6.672   1.837  -8.988  0.00  0.00     0.062 H 
ATOM     47  C   LIG d   1       8.312  -0.895  -7.883  0.00  0.00    -0.059 A 
ATOM     48  C   LIG d   1       8.843  -0.378  -6.717  0.00  0.00    -0.058 A 
ATOM     49  H   LIG d   1       8.509  -1.921  -8.158  0.00  0.00     0.062 H 
ATOM     50  H   LIG d   1       9.456  -1.000  -6.080  0.00  0.00     0.062 H 
BRANCH  45  51
ATOM     51  C   LIG d   1       6.949  -0.665  -9.970  0.00  0.00    -0.040 C 
ATOM     52  H   LIG d   1       7.065  -1.748  -9.971  0.00  0.00     0.028 H 
ATOM     53  H   LIG d   1       7.472  -0.242 -10.827  0.00  0.00     0.028 H 
ATOM     54  H   LIG d   1       5.890  -0.413 -10.030  0.00  0.00     0.028 H 
ENDBRANCH  45  51
ENDBRANCH   1  41
BRANCH   5  55
ATOM     55  C   LIG d   1       9.471   5.112  -3.803  0.00  0.00    -0.020 C 
ATOM     56  H   LIG d   1       8.510   5.380  -3.362  0.00  0.00     0.032 H 
BRANCH  55  57
ATOM     57  C   LIG d   1      10.600   5.734  -2.978  0.00  0.00    -0.060 C 
ATOM     58  H   LIG d   1      11.225   4.944  -2.563  0.00  0.00     0.023 H 
ATOM     59  H   LIG d   1      11.205   6.378  -3.617  0.00  0.00     0.023 H 
ATOM     60  H   LIG d   1      10.175   6.325  -2.166  0.00  0.00     0.023 H 
ENDBRANCH  55  57
BRANCH  55  61
ATOM     61  C   LIG d   1       9.539   5.637  -5.238  0.00  0.00    -0.060 C 
ATOM     62  H   LIG d   1      10.569   5.898  -5.482  0.00  0.00     0.023 H 
ATOM     63  H   LIG d   1       9.187   4.867  -5.924  0.00  0.00     0.023 H 
ATOM     64  H   LIG d   1       8.909   6.522  -5.331  0.00  0.00     0.023 H 
ENDBRANCH  55  61
ENDBRANCH   5  55
TORSDOF 12
ENDMDL
MODEL 10
REMARK VINA RESULT:      -4.9      2.838      5.159
REMARK  12 active torsions:
REMARK  status: ('A' for Active; 'I' for Inactive)
REMARK    1  A    between atoms: C_1  and  C_2 
REMARK    2  A    between atoms: C_2  and  C_3 
REMARK       I    between atoms: C_3  and  N_5 
REMARK    3  A    between atoms: N_5  and  C_6 
REMARK    4  A    between atoms: N_5  and  C_25 
REMARK    5  A    between atoms: C_6  and  C_7 
REMARK    6  A    between atoms: C_7  and  C_8 
REMARK    7  A    between atoms: C_8  and  C_18 
REMARK    8  A    between atoms: C_12  and  C_15 
REMARK    9  A    between atoms: C_15  and  C_16 
REMARK   10  A    between atoms: C_15  and  C_17 
REMARK   11  A    between atoms: C_21  and  C_24 
REMARK   12  A    between atoms: C_25  and  C_26 
ROOT
ATOM      1  C   LIG d   1       7.944  -2.345  -4.520  0.00  0.00     0.002 C 
ATOM      2  C   LIG d   1       9.132  -1.517  -5.019  0.00  0.00    -0.020 C 
ATOM      3  C   LIG d   1      10.181  -2.455  -5.623  0.00  0.00     0.049 C 
ATOM      4  O   LIG d   1      10.583  -3.413  -4.642  0.00  0.00    -0.376 OA
ATOM      5  C   LIG d   1       9.522  -4.248  -4.174  0.00  0.00     0.062 C 
ATOM      6  H   LIG d   1       9.086  -4.788  -5.013  0.00  0.00     0.060 H 
ATOM      7  C   LIG d   1       8.447  -3.382  -3.510  0.00  0.00    -0.017 C 
ATOM      8  H   LIG d   1       8.792  -0.813  -5.778  0.00  0.00     0.030 H 
ATOM      9  H   LIG d   1       9.570  -0.969  -4.184  0.00  0.00     0.030 H 
ATOM     10  H   LIG d   1       9.753  -2.971  -6.482  0.00  0.00     0.056 H 
ATOM     11  H   LIG d   1      11.048  -1.875  -5.940  0.00  0.00     0.056 H 
ATOM     12  H   LIG d   1       8.872  -2.873  -2.646  0.00  0.00     0.030 H 
ATOM     13  H   LIG d   1       7.617  -4.012  -3.192  0.00  0.00     0.030 H 
ENDROOT
BRANCH   1  14
ATOM     14  C   LIG d   1       7.285  -3.057  -5.702  0.00  0.00    -0.027 C 
ATOM     15  H   LIG d   1       7.926  -3.873  -6.038  0.00  0.00     0.029 H 
ATOM     16  H   LIG d   1       6.319  -3.457  -5.395  0.00  0.00     0.029 H 
BRANCH  14  17
ATOM     17  C   LIG d   1       7.084  -2.063  -6.848  0.00  0.00     0.016 C 
ATOM     18  H   LIG d   1       6.731  -1.113  -6.447  0.00  0.00     0.046 H 
ATOM     19  H   LIG d   1       8.030  -1.910  -7.367  0.00  0.00     0.046 H 
BRANCH  17  20
ATOM     20  N   LIG d   1       6.092  -2.594  -7.787  0.00  0.00    -0.294 N 
ATOM     21  C   LIG d   1       6.440  -2.845  -9.065  0.00  0.00     0.216 C 
ATOM     22  O   LIG d   1       7.573  -2.630  -9.437  0.00  0.00    -0.276 OA
BRANCH  21  23
ATOM     23  C   LIG d   1       5.419  -3.391 -10.030  0.00  0.00     0.021 C 
ATOM     24  H   LIG d   1       5.825  -4.272 -10.527  0.00  0.00     0.036 H 
ATOM     25  H   LIG d   1       4.515  -3.665  -9.487  0.00  0.00     0.036 H 
BRANCH  23  26
ATOM     26  C   LIG d   1       5.083  -2.325 -11.074  0.00  0.00    -0.057 C 
ATOM     27  H   LIG d   1       4.393  -1.599 -10.644  0.00  0.00     0.023 H 
ATOM     28  H   LIG d   1       5.998  -1.818 -11.382  0.00  0.00     0.023 H 
ATOM     29  H   LIG d   1       4.620  -2.798 -11.940  0.00  0.00     0.023 H 
ENDBRANCH  23  26
ENDBRANCH  21  23
BRANCH  20  30
ATOM     30  C   LIG d   1       4.722  -2.854  -7.336  0.00  0.00     0.073 C 
ATOM     31  H   LIG d   1       4.237  -3.543  -8.027  0.00  0.00     0.054 H 
ATOM     32  H   LIG d   1       4.745  -3.296  -6.340  0.00  0.00     0.054 H 
BRANCH  30  33
ATOM     33  C   LIG d   1       3.953  -1.559  -7.294  0.00  0.00     0.122 A 
ATOM     34  O   LIG d   1       3.231  -1.041  -8.301  0.00  0.00    -0.466 OA
ATOM     35  C   LIG d   1       2.684   0.121  -7.908  0.00  0.00     0.092 A 
ATOM     36  C   LIG d   1       3.054   0.356  -6.636  0.00  0.00    -0.024 A 
ATOM     37  H   LIG d   1       2.054   0.758  -8.511  0.00  0.00     0.103 H 
ATOM     38  C   LIG d   1       3.867  -0.729  -6.239  0.00  0.00    -0.019 A 
ATOM     39  H   LIG d   1       2.778   1.209  -6.034  0.00  0.00     0.065 H 
ATOM     40  H   LIG d   1       4.333  -0.865  -5.274  0.00  0.00     0.065 H 
ENDBRANCH  30  33
ENDBRANCH  20  30
ENDBRANCH  17  20
ENDBRANCH  14  17
ENDBRANCH   1  14
BRANCH   1  41
ATOM     41  C   LIG d   1       6.942  -1.439  -3.854  0.00  0.00    -0.041 A 
ATOM     42  C   LIG d   1       5.807  -1.972  -3.272  0.00  0.00    -0.058 A 
ATOM     43  C   LIG d   1       4.890  -1.141  -2.657  0.00  0.00    -0.059 A 
ATOM     44  H   LIG d   1       5.639  -3.039  -3.294  0.00  0.00     0.062 H 
ATOM     45  C   LIG d   1       5.101   0.224  -2.633  0.00  0.00    -0.050 A 
ATOM     46  H   LIG d   1       4.005  -1.558  -2.199  0.00  0.00     0.062 H 
ATOM     47  C   LIG d   1       6.237   0.757  -3.214  0.00  0.00    -0.059 A 
ATOM     48  C   LIG d   1       7.156  -0.073  -3.825  0.00  0.00    -0.058 A 
ATOM     49  H   LIG d   1       6.404   1.824  -3.191  0.00  0.00     0.062 H 
ATOM     50  H   LIG d   1       8.043   0.343  -4.280  0.00  0.00     0.062 H 
BRANCH  45  51
ATOM     51  C   LIG d   1       4.100   1.131  -1.966  0.00  0.00    -0.040 C 
ATOM     52  H   LIG d   1       3.943   0.805  -0.938  0.00  0.00     0.028 H 
ATOM     53  H   LIG d   1       3.155   1.092  -2.508  0.00  0.00     0.028 H 
ATOM     54  H   LIG d   1       4.478   2.154  -1.969  0.00  0.00     0.028 H 
ENDBRANCH  45  51
ENDBRANCH   1  41
BRANCH   5  55
ATOM     55  C   LIG d   1      10.071  -5.248  -3.154  0.00  0.00    -0.020 C 
ATOM     56  H   LIG d   1      11.160  -5.257  -3.203  0.00  0.00     0.032 H 
BRANCH  55  57
ATOM     57  C   LIG d   1       9.629  -4.836  -1.748  0.00  0.00    -0.060 C 
ATOM     58  H   LIG d   1       8.554  -4.659  -1.742  0.00  0.00     0.023 H 
ATOM     59  H   LIG d   1       9.871  -5.632  -1.043  0.00  0.00     0.023 H 
ATOM     60  H   LIG d   1      10.149  -3.923  -1.455  0.00  0.00     0.023 H 
ENDBRANCH  55  57
BRANCH  55  61
ATOM     61  C   LIG d   1       9.535  -6.645  -3.468  0.00  0.00    -0.060 C 
ATOM     62  H   LIG d   1      10.095  -7.387  -2.899  0.00  0.00     0.023 H 
ATOM     63  H   LIG d   1       8.481  -6.701  -3.196  0.00  0.00     0.023 H 
ATOM     64  H   LIG d   1       9.645  -6.846  -4.534  0.00  0.00     0.023 H 
ENDBRANCH  55  61
ENDBRANCH   5  55
TORSDOF 12
ENDMDL
