MODEL 1
REMARK VINA RESULT:      -6.0      0.000      0.000
REMARK  8 active torsions:
REMARK  status: ('A' for Active; 'I' for Inactive)
REMARK    1  A    between atoms: C_1  and  C_2 
REMARK    2  A    between atoms: C_2  and  O_4 
REMARK    3  A    between atoms: O_4  and  C_5 
REMARK    4  A    between atoms: C_5  and  C_7 
REMARK    5  A    between atoms: C_5  and  C_18 
REMARK    6  A    between atoms: C_9  and  C_12 
REMARK    7  A    between atoms: C_20  and  O_25 
REMARK    8  A    between atoms: O_25  and  C_26 
ROOT
ATOM      1  C   LIG d   1       5.263  -1.907  -5.929  0.00  0.00     0.175 C 
ATOM      2  H   LIG d   1       4.721  -1.651  -5.019  0.00  0.00     0.080 H 
ENDROOT
BRANCH   1   3
ATOM      3  O   LIG d   1       4.842  -3.193  -6.390  0.00  0.00    -0.455 OA
BRANCH   3   4
ATOM      4  C   LIG d   1       4.892  -4.203  -5.508  0.00  0.00     0.304 C 
ATOM      5  O   LIG d   1       4.294  -4.121  -4.462  0.00  0.00    -0.251 OA
BRANCH   4   6
ATOM      6  C   LIG d   1       5.694  -5.440  -5.822  0.00  0.00     0.033 C 
ATOM      7  H   LIG d   1       6.677  -5.363  -5.359  0.00  0.00     0.034 H 
ATOM      8  H   LIG d   1       5.176  -6.317  -5.434  0.00  0.00     0.034 H 
ATOM      9  H   LIG d   1       5.808  -5.533  -6.903  0.00  0.00     0.034 H 
ENDBRANCH   4   6
ENDBRANCH   3   4
ENDBRANCH   1   3
BRANCH   1  10
ATOM     10  C   LIG d   1       6.765  -1.936  -5.638  0.00  0.00     0.130 A 
ATOM     11  H   LIG d   1       7.303  -2.809  -6.008  0.00  0.00     0.066 H 
ATOM     12  O   LIG d   1       7.462  -0.688  -5.609  0.00  0.00    -0.359 OA
ATOM     13  C   LIG d   1       7.250  -1.301  -4.333  0.00  0.00     0.114 A 
ATOM     14  H   LIG d   1       8.109  -1.752  -3.838  0.00  0.00     0.067 H 
BRANCH  13  15
ATOM     15  C   LIG d   1       6.216  -0.691  -3.422  0.00  0.00    -0.016 A 
ATOM     16  C   LIG d   1       6.109   0.683  -3.320  0.00  0.00    -0.056 A 
ATOM     17  C   LIG d   1       5.158   1.243  -2.487  0.00  0.00    -0.061 A 
ATOM     18  H   LIG d   1       6.767   1.320  -3.893  0.00  0.00     0.062 H 
ATOM     19  C   LIG d   1       4.319   0.428  -1.750  0.00  0.00    -0.062 A 
ATOM     20  H   LIG d   1       5.072   2.316  -2.410  0.00  0.00     0.062 H 
ATOM     21  C   LIG d   1       4.430  -0.947  -1.848  0.00  0.00    -0.061 A 
ATOM     22  H   LIG d   1       3.578   0.865  -1.097  0.00  0.00     0.062 H 
ATOM     23  C   LIG d   1       5.377  -1.506  -2.683  0.00  0.00    -0.056 A 
ATOM     24  H   LIG d   1       3.774  -1.583  -1.273  0.00  0.00     0.062 H 
ATOM     25  H   LIG d   1       5.463  -2.580  -2.761  0.00  0.00     0.062 H 
ENDBRANCH  13  15
ENDBRANCH   1  10
BRANCH   1  26
ATOM     26  C   LIG d   1       4.973  -0.860  -7.007  0.00  0.00     0.199 A 
ATOM     27  H   LIG d   1       5.814  -0.172  -7.099  0.00  0.00     0.086 H 
ATOM     28  O   LIG d   1       4.715  -1.499  -8.263  0.00  0.00    -0.446 OA
ATOM     29  C   LIG d   1       3.462  -1.174  -8.640  0.00  0.00     0.336 A 
ATOM     30  C   LIG d   1       2.853  -0.332  -7.687  0.00  0.00     0.064 A 
ATOM     31  O   LIG d   1       2.929  -1.554  -9.666  0.00  0.00    -0.245 OA
ATOM     32  C   LIG d   1       3.709  -0.101  -6.673  0.00  0.00     0.148 A 
ATOM     33  H   LIG d   1       1.852   0.066  -7.758  0.00  0.00     0.072 H 
BRANCH  32  34
ATOM     34  O   LIG d   1       3.482   0.655  -5.579  0.00  0.00    -0.495 OA
BRANCH  34  35
ATOM     35  C   LIG d   1       2.319   0.349  -4.809  0.00  0.00     0.079 C 
ATOM     36  H   LIG d   1       2.311  -0.714  -4.569  0.00  0.00     0.066 H 
ATOM     37  H   LIG d   1       2.331   0.930  -3.886  0.00  0.00     0.066 H 
ATOM     38  H   LIG d   1       1.427   0.598  -5.384  0.00  0.00     0.066 H 
ENDBRANCH  34  35
ENDBRANCH  32  34
ENDBRANCH   1  26
TORSDOF 8
ENDMDL
MODEL 2
REMARK VINA RESULT:      -5.9      1.970      3.496
REMARK  8 active torsions:
REMARK  status: ('A' for Active; 'I' for Inactive)
REMARK    1  A    between atoms: C_1  and  C_2 
REMARK    2  A    between atoms: C_2  and  O_4 
REMARK    3  A    between atoms: O_4  and  C_5 
REMARK    4  A    between atoms: C_5  and  C_7 
REMARK    5  A    between atoms: C_5  and  C_18 
REMARK    6  A    between atoms: C_9  and  C_12 
REMARK    7  A    between atoms: C_20  and  O_25 
REMARK    8  A    between atoms: O_25  and  C_26 
ROOT
ATOM      1  C   LIG d   1       4.065  -0.296  -6.318  0.00  0.00     0.175 C 
ATOM      2  H   LIG d   1       3.915  -1.231  -5.779  0.00  0.00     0.080 H 
ENDROOT
BRANCH   1   3
ATOM      3  O   LIG d   1       5.263   0.332  -5.858  0.00  0.00    -0.455 OA
BRANCH   3   4
ATOM      4  C   LIG d   1       6.359  -0.437  -5.768  0.00  0.00     0.304 C 
ATOM      5  O   LIG d   1       7.382  -0.097  -6.312  0.00  0.00    -0.251 OA
BRANCH   4   6
ATOM      6  C   LIG d   1       6.314  -1.725  -4.987  0.00  0.00     0.033 C 
ATOM      7  H   LIG d   1       5.498  -2.346  -5.356  0.00  0.00     0.034 H 
ATOM      8  H   LIG d   1       7.258  -2.256  -5.107  0.00  0.00     0.034 H 
ATOM      9  H   LIG d   1       6.153  -1.504  -3.931  0.00  0.00     0.034 H 
ENDBRANCH   4   6
ENDBRANCH   3   4
ENDBRANCH   1   3
BRANCH   1  10
ATOM     10  C   LIG d   1       2.875   0.632  -6.071  0.00  0.00     0.130 A 
ATOM     11  H   LIG d   1       2.779   1.473  -6.758  0.00  0.00     0.066 H 
ATOM     12  O   LIG d   1       1.673   0.053  -5.558  0.00  0.00    -0.359 OA
ATOM     13  C   LIG d   1       2.420   0.839  -4.625  0.00  0.00     0.114 A 
ATOM     14  H   LIG d   1       2.023   1.816  -4.352  0.00  0.00     0.067 H 
BRANCH  13  15
ATOM     15  C   LIG d   1       3.177   0.115  -3.541  0.00  0.00    -0.016 A 
ATOM     16  C   LIG d   1       3.010  -1.246  -3.373  0.00  0.00    -0.056 A 
ATOM     17  C   LIG d   1       3.707  -1.912  -2.382  0.00  0.00    -0.061 A 
ATOM     18  H   LIG d   1       2.338  -1.792  -4.019  0.00  0.00     0.062 H 
ATOM     19  C   LIG d   1       4.564  -1.213  -1.551  0.00  0.00    -0.062 A 
ATOM     20  H   LIG d   1       3.580  -2.976  -2.253  0.00  0.00     0.062 H 
ATOM     21  C   LIG d   1       4.726   0.151  -1.716  0.00  0.00    -0.061 A 
ATOM     22  H   LIG d   1       5.107  -1.731  -0.775  0.00  0.00     0.062 H 
ATOM     23  C   LIG d   1       4.033   0.814  -2.709  0.00  0.00    -0.056 A 
ATOM     24  H   LIG d   1       5.396   0.696  -1.067  0.00  0.00     0.062 H 
ATOM     25  H   LIG d   1       4.160   1.879  -2.838  0.00  0.00     0.062 H 
ENDBRANCH  13  15
ENDBRANCH   1  10
BRANCH   1  26
ATOM     26  C   LIG d   1       4.184  -0.585  -7.817  0.00  0.00     0.199 A 
ATOM     27  H   LIG d   1       5.165  -1.005  -8.042  0.00  0.00     0.086 H 
ATOM     28  O   LIG d   1       3.151  -1.486  -8.232  0.00  0.00    -0.446 OA
ATOM     29  C   LIG d   1       2.399  -0.852  -9.155  0.00  0.00     0.336 A 
ATOM     30  C   LIG d   1       2.883   0.451  -9.388  0.00  0.00     0.064 A 
ATOM     31  O   LIG d   1       1.434  -1.341  -9.712  0.00  0.00    -0.245 OA
ATOM     32  C   LIG d   1       3.960   0.681  -8.613  0.00  0.00     0.148 A 
ATOM     33  H   LIG d   1       2.454   1.158 -10.082  0.00  0.00     0.072 H 
BRANCH  32  34
ATOM     34  O   LIG d   1       4.691   1.812  -8.559  0.00  0.00    -0.495 OA
BRANCH  34  35
ATOM     35  C   LIG d   1       6.033   1.742  -9.044  0.00  0.00     0.079 C 
ATOM     36  H   LIG d   1       6.660   1.241  -8.306  0.00  0.00     0.066 H 
ATOM     37  H   LIG d   1       6.053   1.180  -9.978  0.00  0.00     0.066 H 
ATOM     38  H   LIG d   1       6.410   2.750  -9.217  0.00  0.00     0.066 H 
ENDBRANCH  34  35
ENDBRANCH  32  34
ENDBRANCH   1  26
TORSDOF 8
ENDMDL
MODEL 3
REMARK VINA RESULT:      -5.7      1.732      3.340
REMARK  8 active torsions:
REMARK  status: ('A' for Active; 'I' for Inactive)
REMARK    1  A    between atoms: C_1  and  C_2 
REMARK    2  A    between atoms: C_2  and  O_4 
REMARK    3  A    between atoms: O_4  and  C_5 
REMARK    4  A    between atoms: C_5  and  C_7 
REMARK    5  A    between atoms: C_5  and  C_18 
REMARK    6  A    between atoms: C_9  and  C_12 
REMARK    7  A    between atoms: C_20  and  O_25 
REMARK    8  A    between atoms: O_25  and  C_26 
ROOT
ATOM      1  C   LIG d   1       5.268  -1.279  -6.276  0.00  0.00     0.175 C 
ATOM      2  H   LIG d   1       5.106  -0.477  -5.556  0.00  0.00     0.080 H 
ENDROOT
BRANCH   1   3
ATOM      3  O   LIG d   1       4.127  -1.392  -7.130  0.00  0.00    -0.455 OA
BRANCH   3   4
ATOM      4  C   LIG d   1       3.317  -0.325  -7.208  0.00  0.00     0.304 C 
ATOM      5  O   LIG d   1       3.322   0.502  -6.328  0.00  0.00    -0.251 OA
BRANCH   4   6
ATOM      6  C   LIG d   1       2.403  -0.158  -8.394  0.00  0.00     0.033 C 
ATOM      7  H   LIG d   1       1.731   0.682  -8.220  0.00  0.00     0.034 H 
ATOM      8  H   LIG d   1       2.997   0.031  -9.288  0.00  0.00     0.034 H 
ATOM      9  H   LIG d   1       1.818  -1.068  -8.532  0.00  0.00     0.034 H 
ENDBRANCH   4   6
ENDBRANCH   3   4
ENDBRANCH   1   3
BRANCH   1  10
ATOM     10  C   LIG d   1       5.480  -2.598  -5.531  0.00  0.00     0.130 A 
ATOM     11  H   LIG d   1       5.261  -3.503  -6.098  0.00  0.00     0.066 H 
ATOM     12  O   LIG d   1       6.533  -2.656  -4.566  0.00  0.00    -0.359 OA
ATOM     13  C   LIG d   1       5.209  -2.619  -4.026  0.00  0.00     0.114 A 
ATOM     14  H   LIG d   1       4.811  -3.536  -3.594  0.00  0.00     0.067 H 
BRANCH  13  15
ATOM     15  C   LIG d   1       4.750  -1.338  -3.378  0.00  0.00    -0.016 A 
ATOM     16  C   LIG d   1       3.399  -1.083  -3.232  0.00  0.00    -0.056 A 
ATOM     17  C   LIG d   1       2.978   0.091  -2.634  0.00  0.00    -0.061 A 
ATOM     18  H   LIG d   1       2.672  -1.801  -3.582  0.00  0.00     0.062 H 
ATOM     19  C   LIG d   1       3.907   1.013  -2.190  0.00  0.00    -0.062 A 
ATOM     20  H   LIG d   1       1.923   0.288  -2.516  0.00  0.00     0.062 H 
ATOM     21  C   LIG d   1       5.258   0.760  -2.341  0.00  0.00    -0.061 A 
ATOM     22  H   LIG d   1       3.579   1.931  -1.725  0.00  0.00     0.062 H 
ATOM     23  C   LIG d   1       5.679  -0.414  -2.935  0.00  0.00    -0.056 A 
ATOM     24  H   LIG d   1       5.984   1.480  -1.994  0.00  0.00     0.062 H 
ATOM     25  H   LIG d   1       6.734  -0.612  -3.053  0.00  0.00     0.062 H 
ENDBRANCH  13  15
ENDBRANCH   1  10
BRANCH   1  26
ATOM     26  C   LIG d   1       6.506  -0.965  -7.120  0.00  0.00     0.199 A 
ATOM     27  H   LIG d   1       7.331  -1.619  -6.835  0.00  0.00     0.086 H 
ATOM     28  O   LIG d   1       6.209  -1.118  -8.513  0.00  0.00    -0.446 OA
ATOM     29  C   LIG d   1       6.397   0.078  -9.107  0.00  0.00     0.336 A 
ATOM     30  C   LIG d   1       6.816   1.044  -8.170  0.00  0.00     0.064 A 
ATOM     31  O   LIG d   1       6.231   0.292 -10.293  0.00  0.00    -0.245 OA
ATOM     32  C   LIG d   1       6.902   0.484  -6.948  0.00  0.00     0.148 A 
ATOM     33  H   LIG d   1       7.033   2.078  -8.397  0.00  0.00     0.072 H 
BRANCH  32  34
ATOM     34  O   LIG d   1       7.268   1.094  -5.803  0.00  0.00    -0.495 OA
BRANCH  34  35
ATOM     35  C   LIG d   1       8.405   0.562  -5.119  0.00  0.00     0.079 C 
ATOM     36  H   LIG d   1       8.478   1.015  -4.130  0.00  0.00     0.066 H 
ATOM     37  H   LIG d   1       8.295  -0.517  -5.017  0.00  0.00     0.066 H 
ATOM     38  H   LIG d   1       9.307   0.783  -5.688  0.00  0.00     0.066 H 
ENDBRANCH  34  35
ENDBRANCH  32  34
ENDBRANCH   1  26
TORSDOF 8
ENDMDL
MODEL 4
REMARK VINA RESULT:      -5.5      1.770      2.340
REMARK  8 active torsions:
REMARK  status: ('A' for Active; 'I' for Inactive)
REMARK    1  A    between atoms: C_1  and  C_2 
REMARK    2  A    between atoms: C_2  and  O_4 
REMARK    3  A    between atoms: O_4  and  C_5 
REMARK    4  A    between atoms: C_5  and  C_7 
REMARK    5  A    between atoms: C_5  and  C_18 
REMARK    6  A    between atoms: C_9  and  C_12 
REMARK    7  A    between atoms: C_20  and  O_25 
REMARK    8  A    between atoms: O_25  and  C_26 
ROOT
ATOM      1  C   LIG d   1       6.669  -0.784  -5.618  0.00  0.00     0.175 C 
ATOM      2  H   LIG d   1       5.658  -0.981  -5.263  0.00  0.00     0.080 H 
ENDROOT
BRANCH   1   3
ATOM      3  O   LIG d   1       7.381  -2.017  -5.740  0.00  0.00    -0.455 OA
BRANCH   3   4
ATOM      4  C   LIG d   1       6.777  -3.119  -5.268  0.00  0.00     0.304 C 
ATOM      5  O   LIG d   1       7.392  -3.893  -4.574  0.00  0.00    -0.251 OA
BRANCH   4   6
ATOM      6  C   LIG d   1       5.334  -3.390  -5.605  0.00  0.00     0.033 C 
ATOM      7  H   LIG d   1       4.816  -2.446  -5.772  0.00  0.00     0.034 H 
ATOM      8  H   LIG d   1       5.279  -4.000  -6.507  0.00  0.00     0.034 H 
ATOM      9  H   LIG d   1       4.862  -3.922  -4.778  0.00  0.00     0.034 H 
ENDBRANCH   4   6
ENDBRANCH   3   4
ENDBRANCH   1   3
BRANCH   1  10
ATOM     10  C   LIG d   1       7.391   0.126  -4.622  0.00  0.00     0.130 A 
ATOM     11  H   LIG d   1       8.477   0.032  -4.595  0.00  0.00     0.066 H 
ATOM     12  O   LIG d   1       6.828   1.415  -4.368  0.00  0.00    -0.359 OA
ATOM     13  C   LIG d   1       6.673   0.461  -3.313  0.00  0.00     0.114 A 
ATOM     14  H   LIG d   1       7.281   0.590  -2.419  0.00  0.00     0.067 H 
BRANCH  13  15
ATOM     15  C   LIG d   1       5.304  -0.129  -3.092  0.00  0.00    -0.016 A 
ATOM     16  C   LIG d   1       4.178   0.582  -3.462  0.00  0.00    -0.056 A 
ATOM     17  C   LIG d   1       2.921   0.040  -3.264  0.00  0.00    -0.061 A 
ATOM     18  H   LIG d   1       4.279   1.560  -3.909  0.00  0.00     0.062 H 
ATOM     19  C   LIG d   1       2.791  -1.210  -2.687  0.00  0.00    -0.062 A 
ATOM     20  H   LIG d   1       2.042   0.593  -3.556  0.00  0.00     0.062 H 
ATOM     21  C   LIG d   1       3.918  -1.919  -2.312  0.00  0.00    -0.061 A 
ATOM     22  H   LIG d   1       1.810  -1.633  -2.529  0.00  0.00     0.062 H 
ATOM     23  C   LIG d   1       5.173  -1.379  -2.514  0.00  0.00    -0.056 A 
ATOM     24  H   LIG d   1       3.816  -2.895  -1.862  0.00  0.00     0.062 H 
ATOM     25  H   LIG d   1       6.053  -1.932  -2.222  0.00  0.00     0.062 H 
ENDBRANCH  13  15
ENDBRANCH   1  10
BRANCH   1  26
ATOM     26  C   LIG d   1       6.605  -0.095  -6.983  0.00  0.00     0.199 A 
ATOM     27  H   LIG d   1       6.988   0.923  -6.910  0.00  0.00     0.086 H 
ATOM     28  O   LIG d   1       7.357  -0.839  -7.950  0.00  0.00    -0.446 OA
ATOM     29  C   LIG d   1       6.506  -1.230  -8.920  0.00  0.00     0.336 A 
ATOM     30  C   LIG d   1       5.197  -0.778  -8.653  0.00  0.00     0.064 A 
ATOM     31  O   LIG d   1       6.825  -1.884  -9.896  0.00  0.00    -0.245 OA
ATOM     32  C   LIG d   1       5.184  -0.085  -7.498  0.00  0.00     0.148 A 
ATOM     33  H   LIG d   1       4.337  -0.960  -9.279  0.00  0.00     0.072 H 
BRANCH  32  34
ATOM     34  O   LIG d   1       4.116   0.499  -6.918  0.00  0.00    -0.495 OA
BRANCH  34  35
ATOM     35  C   LIG d   1       2.825   0.089  -7.372  0.00  0.00     0.079 C 
ATOM     36  H   LIG d   1       2.259  -0.320  -6.536  0.00  0.00     0.066 H 
ATOM     37  H   LIG d   1       2.295   0.948  -7.784  0.00  0.00     0.066 H 
ATOM     38  H   LIG d   1       2.936  -0.673  -8.144  0.00  0.00     0.066 H 
ENDBRANCH  34  35
ENDBRANCH  32  34
ENDBRANCH   1  26
TORSDOF 8
ENDMDL
MODEL 5
REMARK VINA RESULT:      -5.2      1.859      5.364
REMARK  8 active torsions:
REMARK  status: ('A' for Active; 'I' for Inactive)
REMARK    1  A    between atoms: C_1  and  C_2 
REMARK    2  A    between atoms: C_2  and  O_4 
REMARK    3  A    between atoms: O_4  and  C_5 
REMARK    4  A    between atoms: C_5  and  C_7 
REMARK    5  A    between atoms: C_5  and  C_18 
REMARK    6  A    between atoms: C_9  and  C_12 
REMARK    7  A    between atoms: C_20  and  O_25 
REMARK    8  A    between atoms: O_25  and  C_26 
ROOT
ATOM      1  C   LIG d   1       4.854  -0.793  -6.344  0.00  0.00     0.175 C 
ATOM      2  H   LIG d   1       5.117  -0.042  -7.089  0.00  0.00     0.080 H 
ENDROOT
BRANCH   1   3
ATOM      3  O   LIG d   1       4.751  -2.073  -6.972  0.00  0.00    -0.455 OA
BRANCH   3   4
ATOM      4  C   LIG d   1       5.714  -2.401  -7.847  0.00  0.00     0.304 C 
ATOM      5  O   LIG d   1       6.287  -3.460  -7.744  0.00  0.00    -0.251 OA
BRANCH   4   6
ATOM      6  C   LIG d   1       6.081  -1.450  -8.957  0.00  0.00     0.033 C 
ATOM      7  H   LIG d   1       6.668  -1.978  -9.708  0.00  0.00     0.034 H 
ATOM      8  H   LIG d   1       5.173  -1.058  -9.414  0.00  0.00     0.034 H 
ATOM      9  H   LIG d   1       6.668  -0.627  -8.550  0.00  0.00     0.034 H 
ENDBRANCH   4   6
ENDBRANCH   3   4
ENDBRANCH   1   3
BRANCH   1  10
ATOM     10  C   LIG d   1       3.512  -0.430  -5.705  0.00  0.00     0.130 A 
ATOM     11  H   LIG d   1       3.144  -1.123  -4.949  0.00  0.00     0.066 H 
ATOM     12  O   LIG d   1       3.207   0.957  -5.540  0.00  0.00    -0.359 OA
ATOM     13  C   LIG d   1       2.479   0.289  -6.575  0.00  0.00     0.114 A 
ATOM     14  H   LIG d   1       1.427   0.073  -6.397  0.00  0.00     0.067 H 
BRANCH  13  15
ATOM     15  C   LIG d   1       2.853   0.589  -8.004  0.00  0.00    -0.016 A 
ATOM     16  C   LIG d   1       3.510   1.765  -8.315  0.00  0.00    -0.056 A 
ATOM     17  C   LIG d   1       3.856   2.038  -9.625  0.00  0.00    -0.061 A 
ATOM     18  H   LIG d   1       3.756   2.469  -7.533  0.00  0.00     0.062 H 
ATOM     19  C   LIG d   1       3.537   1.140 -10.626  0.00  0.00    -0.062 A 
ATOM     20  H   LIG d   1       4.372   2.955  -9.867  0.00  0.00     0.062 H 
ATOM     21  C   LIG d   1       2.874  -0.034 -10.316  0.00  0.00    -0.061 A 
ATOM     22  H   LIG d   1       3.804   1.355 -11.650  0.00  0.00     0.062 H 
ATOM     23  C   LIG d   1       2.532  -0.309  -9.006  0.00  0.00    -0.056 A 
ATOM     24  H   LIG d   1       2.626  -0.735 -11.099  0.00  0.00     0.062 H 
ATOM     25  H   LIG d   1       2.015  -1.226  -8.764  0.00  0.00     0.062 H 
ENDBRANCH  13  15
ENDBRANCH   1  10
BRANCH   1  26
ATOM     26  C   LIG d   1       5.937  -0.841  -5.264  0.00  0.00     0.199 A 
ATOM     27  H   LIG d   1       6.703  -1.569  -5.532  0.00  0.00     0.086 H 
ATOM     28  O   LIG d   1       6.522   0.455  -5.090  0.00  0.00    -0.446 OA
ATOM     29  C   LIG d   1       6.296   0.841  -3.818  0.00  0.00     0.336 A 
ATOM     30  C   LIG d   1       5.578  -0.147  -3.113  0.00  0.00     0.064 A 
ATOM     31  O   LIG d   1       6.663   1.899  -3.342  0.00  0.00    -0.245 OA
ATOM     32  C   LIG d   1       5.327  -1.191  -3.925  0.00  0.00     0.148 A 
ATOM     33  H   LIG d   1       5.275  -0.076  -2.079  0.00  0.00     0.072 H 
BRANCH  32  34
ATOM     34  O   LIG d   1       4.664  -2.321  -3.608  0.00  0.00    -0.495 OA
BRANCH  34  35
ATOM     35  C   LIG d   1       3.808  -2.273  -2.465  0.00  0.00     0.079 C 
ATOM     36  H   LIG d   1       3.216  -3.187  -2.415  0.00  0.00     0.066 H 
ATOM     37  H   LIG d   1       4.413  -2.183  -1.562  0.00  0.00     0.066 H 
ATOM     38  H   LIG d   1       3.144  -1.413  -2.545  0.00  0.00     0.066 H 
ENDBRANCH  34  35
ENDBRANCH  32  34
ENDBRANCH   1  26
TORSDOF 8
ENDMDL
MODEL 6
REMARK VINA RESULT:      -5.1      1.852      4.060
REMARK  8 active torsions:
REMARK  status: ('A' for Active; 'I' for Inactive)
REMARK    1  A    between atoms: C_1  and  C_2 
REMARK    2  A    between atoms: C_2  and  O_4 
REMARK    3  A    between atoms: O_4  and  C_5 
REMARK    4  A    between atoms: C_5  and  C_7 
REMARK    5  A    between atoms: C_5  and  C_18 
REMARK    6  A    between atoms: C_9  and  C_12 
REMARK    7  A    between atoms: C_20  and  O_25 
REMARK    8  A    between atoms: O_25  and  C_26 
ROOT
ATOM      1  C   LIG d   1       4.274  -0.565  -5.832  0.00  0.00     0.175 C 
ATOM      2  H   LIG d   1       4.609  -1.574  -6.072  0.00  0.00     0.080 H 
ENDROOT
BRANCH   1   3
ATOM      3  O   LIG d   1       5.341   0.358  -6.058  0.00  0.00    -0.455 OA
BRANCH   3   4
ATOM      4  C   LIG d   1       6.501  -0.148  -6.506  0.00  0.00     0.304 C 
ATOM      5  O   LIG d   1       6.504  -1.171  -7.148  0.00  0.00    -0.251 OA
BRANCH   4   6
ATOM      6  C   LIG d   1       7.798   0.559  -6.208  0.00  0.00     0.033 C 
ATOM      7  H   LIG d   1       7.833   1.500  -6.755  0.00  0.00     0.034 H 
ATOM      8  H   LIG d   1       7.866   0.757  -5.138  0.00  0.00     0.034 H 
ATOM      9  H   LIG d   1       8.633  -0.071  -6.514  0.00  0.00     0.034 H 
ENDBRANCH   4   6
ENDBRANCH   3   4
ENDBRANCH   1   3
BRANCH   1  10
ATOM     10  C   LIG d   1       3.850  -0.505  -4.363  0.00  0.00     0.130 A 
ATOM     11  H   LIG d   1       3.574   0.481  -3.990  0.00  0.00     0.066 H 
ATOM     12  O   LIG d   1       3.168  -1.637  -3.820  0.00  0.00    -0.359 OA
ATOM     13  C   LIG d   1       4.521  -1.473  -3.387  0.00  0.00     0.114 A 
ATOM     14  H   LIG d   1       4.690  -1.130  -2.367  0.00  0.00     0.067 H 
BRANCH  13  15
ATOM     15  C   LIG d   1       5.557  -2.420  -3.937  0.00  0.00    -0.016 A 
ATOM     16  C   LIG d   1       5.166  -3.499  -4.707  0.00  0.00    -0.056 A 
ATOM     17  C   LIG d   1       6.115  -4.366  -5.216  0.00  0.00    -0.061 A 
ATOM     18  H   LIG d   1       4.118  -3.664  -4.915  0.00  0.00     0.062 H 
ATOM     19  C   LIG d   1       7.455  -4.158  -4.946  0.00  0.00    -0.062 A 
ATOM     20  H   LIG d   1       5.811  -5.206  -5.821  0.00  0.00     0.062 H 
ATOM     21  C   LIG d   1       7.846  -3.081  -4.171  0.00  0.00    -0.061 A 
ATOM     22  H   LIG d   1       8.198  -4.836  -5.341  0.00  0.00     0.062 H 
ATOM     23  C   LIG d   1       6.897  -2.213  -3.667  0.00  0.00    -0.056 A 
ATOM     24  H   LIG d   1       8.892  -2.920  -3.961  0.00  0.00     0.062 H 
ATOM     25  H   LIG d   1       7.202  -1.372  -3.062  0.00  0.00     0.062 H 
ENDBRANCH  13  15
ENDBRANCH   1  10
BRANCH   1  26
ATOM     26  C   LIG d   1       3.085  -0.197  -6.722  0.00  0.00     0.199 A 
ATOM     27  H   LIG d   1       2.152  -0.506  -6.250  0.00  0.00     0.086 H 
ATOM     28  O   LIG d   1       3.071   1.213  -6.972  0.00  0.00    -0.446 OA
ATOM     29  C   LIG d   1       3.190   1.396  -8.303  0.00  0.00     0.336 A 
ATOM     30  C   LIG d   1       3.282   0.159  -8.973  0.00  0.00     0.064 A 
ATOM     31  O   LIG d   1       3.212   2.481  -8.852  0.00  0.00    -0.245 OA
ATOM     32  C   LIG d   1       3.226  -0.847  -8.079  0.00  0.00     0.148 A 
ATOM     33  H   LIG d   1       3.384   0.036 -10.041  0.00  0.00     0.072 H 
BRANCH  32  34
ATOM     34  O   LIG d   1       3.284  -2.168  -8.343  0.00  0.00    -0.495 OA
BRANCH  34  35
ATOM     35  C   LIG d   1       2.793  -2.598  -9.614  0.00  0.00     0.079 C 
ATOM     36  H   LIG d   1       3.141  -3.612  -9.813  0.00  0.00     0.066 H 
ATOM     37  H   LIG d   1       1.703  -2.585  -9.605  0.00  0.00     0.066 H 
ATOM     38  H   LIG d   1       3.159  -1.928 -10.391  0.00  0.00     0.066 H 
ENDBRANCH  34  35
ENDBRANCH  32  34
ENDBRANCH   1  26
TORSDOF 8
ENDMDL
MODEL 7
REMARK VINA RESULT:      -5.0      2.052      4.826
REMARK  8 active torsions:
REMARK  status: ('A' for Active; 'I' for Inactive)
REMARK    1  A    between atoms: C_1  and  C_2 
REMARK    2  A    between atoms: C_2  and  O_4 
REMARK    3  A    between atoms: O_4  and  C_5 
REMARK    4  A    between atoms: C_5  and  C_7 
REMARK    5  A    between atoms: C_5  and  C_18 
REMARK    6  A    between atoms: C_9  and  C_12 
REMARK    7  A    between atoms: C_20  and  O_25 
REMARK    8  A    between atoms: O_25  and  C_26 
ROOT
ATOM      1  C   LIG d   1       6.448  -0.316  -6.014  0.00  0.00     0.175 C 
ATOM      2  H   LIG d   1       6.325  -0.554  -4.958  0.00  0.00     0.080 H 
ENDROOT
BRANCH   1   3
ATOM      3  O   LIG d   1       7.005   0.993  -6.147  0.00  0.00    -0.455 OA
BRANCH   3   4
ATOM      4  C   LIG d   1       7.702   1.468  -5.103  0.00  0.00     0.304 C 
ATOM      5  O   LIG d   1       8.541   2.320  -5.275  0.00  0.00    -0.251 OA
BRANCH   4   6
ATOM      6  C   LIG d   1       7.438   0.938  -3.717  0.00  0.00     0.033 C 
ATOM      7  H   LIG d   1       8.141   1.388  -3.016  0.00  0.00     0.034 H 
ATOM      8  H   LIG d   1       6.420   1.187  -3.421  0.00  0.00     0.034 H 
ATOM      9  H   LIG d   1       7.564  -0.145  -3.713  0.00  0.00     0.034 H 
ENDBRANCH   4   6
ENDBRANCH   3   4
ENDBRANCH   1   3
BRANCH   1  10
ATOM     10  C   LIG d   1       5.087  -0.365  -6.710  0.00  0.00     0.130 A 
ATOM     11  H   LIG d   1       5.013   0.189  -7.646  0.00  0.00     0.066 H 
ATOM     12  O   LIG d   1       4.316  -1.562  -6.583  0.00  0.00    -0.359 OA
ATOM     13  C   LIG d   1       3.838  -0.443  -5.829  0.00  0.00     0.114 A 
ATOM     14  H   LIG d   1       2.937   0.057  -6.180  0.00  0.00     0.067 H 
BRANCH  13  15
ATOM     15  C   LIG d   1       4.033  -0.466  -4.335  0.00  0.00    -0.016 A 
ATOM     16  C   LIG d   1       3.861   0.689  -3.598  0.00  0.00    -0.056 A 
ATOM     17  C   LIG d   1       4.036   0.668  -2.226  0.00  0.00    -0.061 A 
ATOM     18  H   LIG d   1       3.586   1.610  -4.092  0.00  0.00     0.062 H 
ATOM     19  C   LIG d   1       4.392  -0.509  -1.594  0.00  0.00    -0.062 A 
ATOM     20  H   LIG d   1       3.897   1.570  -1.649  0.00  0.00     0.062 H 
ATOM     21  C   LIG d   1       4.570  -1.664  -2.333  0.00  0.00    -0.061 A 
ATOM     22  H   LIG d   1       4.532  -0.526  -0.523  0.00  0.00     0.062 H 
ATOM     23  C   LIG d   1       4.391  -1.643  -3.702  0.00  0.00    -0.056 A 
ATOM     24  H   LIG d   1       4.848  -2.583  -1.838  0.00  0.00     0.062 H 
ATOM     25  H   LIG d   1       4.530  -2.545  -4.279  0.00  0.00     0.062 H 
ENDBRANCH  13  15
ENDBRANCH   1  10
BRANCH   1  26
ATOM     26  C   LIG d   1       7.387  -1.338  -6.660  0.00  0.00     0.199 A 
ATOM     27  H   LIG d   1       6.830  -1.989  -7.333  0.00  0.00     0.086 H 
ATOM     28  O   LIG d   1       8.435  -0.668  -7.372  0.00  0.00    -0.446 OA
ATOM     29  C   LIG d   1       9.608  -1.029  -6.813  0.00  0.00     0.336 A 
ATOM     30  C   LIG d   1       9.400  -1.925  -5.745  0.00  0.00     0.064 A 
ATOM     31  O   LIG d   1      10.698  -0.636  -7.183  0.00  0.00    -0.245 OA
ATOM     32  C   LIG d   1       8.082  -2.156  -5.595  0.00  0.00     0.148 A 
ATOM     33  H   LIG d   1      10.181  -2.360  -5.137  0.00  0.00     0.072 H 
BRANCH  32  34
ATOM     34  O   LIG d   1       7.500  -2.956  -4.680  0.00  0.00    -0.495 OA
BRANCH  34  35
ATOM     35  C   LIG d   1       8.233  -4.110  -4.266  0.00  0.00     0.079 C 
ATOM     36  H   LIG d   1       9.090  -4.252  -4.925  0.00  0.00     0.066 H 
ATOM     37  H   LIG d   1       8.582  -3.971  -3.243  0.00  0.00     0.066 H 
ATOM     38  H   LIG d   1       7.588  -4.987  -4.314  0.00  0.00     0.066 H 
ENDBRANCH  34  35
ENDBRANCH  32  34
ENDBRANCH   1  26
TORSDOF 8
ENDMDL
MODEL 8
REMARK VINA RESULT:      -5.0      1.688      4.390
REMARK  8 active torsions:
REMARK  status: ('A' for Active; 'I' for Inactive)
REMARK    1  A    between atoms: C_1  and  C_2 
REMARK    2  A    between atoms: C_2  and  O_4 
REMARK    3  A    between atoms: O_4  and  C_5 
REMARK    4  A    between atoms: C_5  and  C_7 
REMARK    5  A    between atoms: C_5  and  C_18 
REMARK    6  A    between atoms: C_9  and  C_12 
REMARK    7  A    between atoms: C_20  and  O_25 
REMARK    8  A    between atoms: O_25  and  C_26 
ROOT
ATOM      1  C   LIG d   1       4.459  -0.383  -4.707  0.00  0.00     0.175 C 
ATOM      2  H   LIG d   1       5.491  -0.563  -5.007  0.00  0.00     0.080 H 
ENDROOT
BRANCH   1   3
ATOM      3  O   LIG d   1       4.348   0.924  -4.141  0.00  0.00    -0.455 OA
BRANCH   3   4
ATOM      4  C   LIG d   1       5.106   1.189  -3.065  0.00  0.00     0.304 C 
ATOM      5  O   LIG d   1       6.246   1.560  -3.206  0.00  0.00    -0.251 OA
BRANCH   4   6
ATOM      6  C   LIG d   1       4.534   1.022  -1.680  0.00  0.00     0.033 C 
ATOM      7  H   LIG d   1       4.720   1.924  -1.099  0.00  0.00     0.034 H 
ATOM      8  H   LIG d   1       3.460   0.850  -1.749  0.00  0.00     0.034 H 
ATOM      9  H   LIG d   1       5.008   0.170  -1.192  0.00  0.00     0.034 H 
ENDBRANCH   4   6
ENDBRANCH   3   4
ENDBRANCH   1   3
BRANCH   1  10
ATOM     10  C   LIG d   1       4.039  -1.426  -3.670  0.00  0.00     0.130 A 
ATOM     11  H   LIG d   1       3.445  -1.053  -2.837  0.00  0.00     0.066 H 
ATOM     12  O   LIG d   1       3.781  -2.755  -4.129  0.00  0.00    -0.359 OA
ATOM     13  C   LIG d   1       4.999  -2.586  -3.397  0.00  0.00     0.114 A 
ATOM     14  H   LIG d   1       5.041  -2.983  -2.384  0.00  0.00     0.067 H 
BRANCH  13  15
ATOM     15  C   LIG d   1       6.294  -2.622  -4.167  0.00  0.00    -0.016 A 
ATOM     16  C   LIG d   1       6.503  -3.599  -5.122  0.00  0.00    -0.056 A 
ATOM     17  C   LIG d   1       7.689  -3.630  -5.832  0.00  0.00    -0.061 A 
ATOM     18  H   LIG d   1       5.738  -4.337  -5.317  0.00  0.00     0.062 H 
ATOM     19  C   LIG d   1       8.670  -2.689  -5.580  0.00  0.00    -0.062 A 
ATOM     20  H   LIG d   1       7.851  -4.391  -6.580  0.00  0.00     0.062 H 
ATOM     21  C   LIG d   1       8.463  -1.715  -4.621  0.00  0.00    -0.061 A 
ATOM     22  H   LIG d   1       9.598  -2.714  -6.132  0.00  0.00     0.062 H 
ATOM     23  C   LIG d   1       7.276  -1.681  -3.915  0.00  0.00    -0.056 A 
ATOM     24  H   LIG d   1       9.229  -0.980  -4.425  0.00  0.00     0.062 H 
ATOM     25  H   LIG d   1       7.114  -0.920  -3.166  0.00  0.00     0.062 H 
ENDBRANCH  13  15
ENDBRANCH   1  10
BRANCH   1  26
ATOM     26  C   LIG d   1       3.547  -0.486  -5.932  0.00  0.00     0.199 A 
ATOM     27  H   LIG d   1       2.825  -1.291  -5.797  0.00  0.00     0.086 H 
ATOM     28  O   LIG d   1       2.870   0.757  -6.152  0.00  0.00    -0.446 OA
ATOM     29  C   LIG d   1       3.233   1.214  -7.368  0.00  0.00     0.336 A 
ATOM     30  C   LIG d   1       4.135   0.326  -7.989  0.00  0.00     0.064 A 
ATOM     31  O   LIG d   1       2.835   2.252  -7.862  0.00  0.00    -0.245 OA
ATOM     32  C   LIG d   1       4.370  -0.723  -7.179  0.00  0.00     0.148 A 
ATOM     33  H   LIG d   1       4.572   0.467  -8.967  0.00  0.00     0.072 H 
BRANCH  32  34
ATOM     34  O   LIG d   1       5.177  -1.774  -7.429  0.00  0.00    -0.495 OA
BRANCH  34  35
ATOM     35  C   LIG d   1       4.703  -2.750  -8.358  0.00  0.00     0.079 C 
ATOM     36  H   LIG d   1       3.897  -2.322  -8.954  0.00  0.00     0.066 H 
ATOM     37  H   LIG d   1       5.519  -3.052  -9.015  0.00  0.00     0.066 H 
ATOM     38  H   LIG d   1       4.332  -3.619  -7.815  0.00  0.00     0.066 H 
ENDBRANCH  34  35
ENDBRANCH  32  34
ENDBRANCH   1  26
TORSDOF 8
ENDMDL
MODEL 9
REMARK VINA RESULT:      -4.9      1.738      5.309
REMARK  8 active torsions:
REMARK  status: ('A' for Active; 'I' for Inactive)
REMARK    1  A    between atoms: C_1  and  C_2 
REMARK    2  A    between atoms: C_2  and  O_4 
REMARK    3  A    between atoms: O_4  and  C_5 
REMARK    4  A    between atoms: C_5  and  C_7 
REMARK    5  A    between atoms: C_5  and  C_18 
REMARK    6  A    between atoms: C_9  and  C_12 
REMARK    7  A    between atoms: C_20  and  O_25 
REMARK    8  A    between atoms: O_25  and  C_26 
ROOT
ATOM      1  C   LIG d   1       5.067  -1.769  -5.569  0.00  0.00     0.175 C 
ATOM      2  H   LIG d   1       5.500  -2.743  -5.339  0.00  0.00     0.080 H 
ENDROOT
BRANCH   1   3
ATOM      3  O   LIG d   1       4.100  -1.430  -4.573  0.00  0.00    -0.455 OA
BRANCH   3   4
ATOM      4  C   LIG d   1       4.128  -2.136  -3.431  0.00  0.00     0.304 C 
ATOM      5  O   LIG d   1       4.134  -3.343  -3.467  0.00  0.00    -0.251 OA
BRANCH   4   6
ATOM      6  C   LIG d   1       4.154  -1.421  -2.104  0.00  0.00     0.033 C 
ATOM      7  H   LIG d   1       4.227  -0.347  -2.271  0.00  0.00     0.034 H 
ATOM      8  H   LIG d   1       3.239  -1.643  -1.555  0.00  0.00     0.034 H 
ATOM      9  H   LIG d   1       5.015  -1.760  -1.527  0.00  0.00     0.034 H 
ENDBRANCH   4   6
ENDBRANCH   3   4
ENDBRANCH   1   3
BRANCH   1  10
ATOM     10  C   LIG d   1       4.391  -1.821  -6.940  0.00  0.00     0.130 A 
ATOM     11  H   LIG d   1       3.547  -1.146  -7.078  0.00  0.00     0.066 H 
ATOM     12  O   LIG d   1       5.211  -2.102  -8.077  0.00  0.00    -0.359 OA
ATOM     13  C   LIG d   1       4.351  -3.169  -7.664  0.00  0.00     0.114 A 
ATOM     14  H   LIG d   1       3.481  -3.387  -8.282  0.00  0.00     0.067 H 
BRANCH  13  15
ATOM     15  C   LIG d   1       4.979  -4.354  -6.977  0.00  0.00    -0.016 A 
ATOM     16  C   LIG d   1       6.343  -4.559  -7.062  0.00  0.00    -0.056 A 
ATOM     17  C   LIG d   1       6.920  -5.644  -6.429  0.00  0.00    -0.061 A 
ATOM     18  H   LIG d   1       6.960  -3.869  -7.621  0.00  0.00     0.062 H 
ATOM     19  C   LIG d   1       6.132  -6.529  -5.718  0.00  0.00    -0.062 A 
ATOM     20  H   LIG d   1       7.987  -5.802  -6.492  0.00  0.00     0.062 H 
ATOM     21  C   LIG d   1       4.766  -6.327  -5.637  0.00  0.00    -0.061 A 
ATOM     22  H   LIG d   1       6.581  -7.378  -5.225  0.00  0.00     0.062 H 
ATOM     23  C   LIG d   1       4.190  -5.240  -6.267  0.00  0.00    -0.056 A 
ATOM     24  H   LIG d   1       4.150  -7.018  -5.082  0.00  0.00     0.062 H 
ATOM     25  H   LIG d   1       3.124  -5.082  -6.204  0.00  0.00     0.062 H 
ENDBRANCH  13  15
ENDBRANCH   1  10
BRANCH   1  26
ATOM     26  C   LIG d   1       6.173  -0.711  -5.585  0.00  0.00     0.199 A 
ATOM     27  H   LIG d   1       6.494  -0.518  -6.609  0.00  0.00     0.086 H 
ATOM     28  O   LIG d   1       5.711   0.499  -4.974  0.00  0.00    -0.446 OA
ATOM     29  C   LIG d   1       6.496   0.745  -3.905  0.00  0.00     0.336 A 
ATOM     30  C   LIG d   1       7.481  -0.254  -3.765  0.00  0.00     0.064 A 
ATOM     31  O   LIG d   1       6.371   1.701  -3.163  0.00  0.00    -0.245 OA
ATOM     32  C   LIG d   1       7.346  -1.166  -4.746  0.00  0.00     0.148 A 
ATOM     33  H   LIG d   1       8.231  -0.283  -2.988  0.00  0.00     0.072 H 
BRANCH  32  34
ATOM     34  O   LIG d   1       8.103  -2.264  -4.940  0.00  0.00    -0.495 OA
BRANCH  34  35
ATOM     35  C   LIG d   1       8.149  -3.217  -3.876  0.00  0.00     0.079 C 
ATOM     36  H   LIG d   1       8.714  -2.802  -3.042  0.00  0.00     0.066 H 
ATOM     37  H   LIG d   1       7.134  -3.445  -3.549  0.00  0.00     0.066 H 
ATOM     38  H   LIG d   1       8.632  -4.129  -4.226  0.00  0.00     0.066 H 
ENDBRANCH  34  35
ENDBRANCH  32  34
ENDBRANCH   1  26
TORSDOF 8
ENDMDL
