MODEL 1
REMARK VINA RESULT:      -7.4      0.000      0.000
REMARK  7 active torsions:
REMARK  status: ('A' for Active; 'I' for Inactive)
REMARK    1  A    between atoms: C_1  and  C_2 
REMARK    2  A    between atoms: C_8  and  C_36 
REMARK    3  A    between atoms: C_9  and  O_35 
REMARK    4  A    between atoms: C_19  and  C_21 
REMARK    5  A    between atoms: C_21  and  N_66 
REMARK    6  A    between atoms: C_24  and  C_27 
REMARK    7  A    between atoms: C_24  and  O_34 
ROOT
ATOM      1  C   LIG d   1       4.063  -0.944  -2.792  0.00  0.00    -0.032 C 
ATOM      2  H   LIG d   1       3.173  -0.613  -3.323  0.00  0.00     0.031 H 
ATOM      3  C   LIG d   1       4.444   0.096  -1.741  0.00  0.00    -0.046 C 
ATOM      4  C   LIG d   1       4.668   1.441  -2.436  0.00  0.00    -0.034 C 
ATOM      5  C   LIG d   1       5.693   1.259  -3.518  0.00  0.00    -0.084 C 
ATOM      6  C   LIG d   1       5.914   0.121  -4.104  0.00  0.00    -0.061 C 
ATOM      7  C   LIG d   1       5.191  -1.160  -3.797  0.00  0.00     0.018 C 
ATOM      8  C   LIG d   1       4.617  -1.731  -5.089  0.00  0.00     0.072 C 
ATOM      9  H   LIG d   1       3.672  -1.200  -5.296  0.00  0.00     0.061 H 
ATOM     10  C   LIG d   1       5.466  -1.629  -6.316  0.00  0.00     0.041 C 
ATOM     11  H   LIG d   1       4.784  -1.715  -7.186  0.00  0.00     0.037 H 
ATOM     12  C   LIG d   1       6.263  -0.330  -6.505  0.00  0.00     0.113 C 
ATOM     13  H   LIG d   1       5.638   0.486  -6.887  0.00  0.00     0.074 H 
ATOM     14  C   LIG d   1       6.963   0.070  -5.198  0.00  0.00     0.006 C 
ATOM     15  O   LIG d   1       7.334  -0.709  -7.435  0.00  0.00    -0.460 OA
ATOM     16  C   LIG d   1       7.561  -2.031  -7.396  0.00  0.00     0.316 C 
ATOM     17  O   LIG d   1       8.443  -2.611  -7.991  0.00  0.00    -0.250 OA
ATOM     18  C   LIG d   1       6.543  -2.706  -6.488  0.00  0.00     0.105 C 
ATOM     19  H   LIG d   1       7.000  -2.985  -5.544  0.00  0.00     0.047 H 
ATOM     20  H   LIG d   1       3.634   0.190  -1.014  0.00  0.00     0.027 H 
ATOM     21  H   LIG d   1       5.354  -0.210  -1.225  0.00  0.00     0.027 H 
ATOM     22  H   LIG d   1       5.026   2.174  -1.711  0.00  0.00     0.031 H 
ATOM     23  H   LIG d   1       3.731   1.789  -2.872  0.00  0.00     0.031 H 
ATOM     24  H   LIG d   1       6.278   2.116  -3.821  0.00  0.00     0.057 H 
ATOM     25  H   LIG d   1       7.410   1.055  -5.317  0.00  0.00     0.035 H 
ATOM     26  H   LIG d   1       7.728  -0.659  -4.953  0.00  0.00     0.035 H 
ENDROOT
BRANCH  18  27
ATOM     27  C   LIG d   1       5.972  -3.944  -7.192  0.00  0.00    -0.018 C 
ATOM     28  H   LIG d   1       4.959  -3.732  -7.534  0.00  0.00     0.082 H 
ATOM     29  H   LIG d   1       6.598  -4.195  -8.048  0.00  0.00     0.082 H 
BRANCH  27  30
ATOM     30  N   LIG d   1       5.971  -5.072  -6.239  0.00  0.00     0.236 N 
ATOM     31  C   LIG d   1       7.301  -5.718  -6.220  0.00  0.00    -0.029 C 
ATOM     32  C   LIG d   1       7.311  -6.803  -5.142  0.00  0.00     0.021 C 
ATOM     33  H   LIG d   1       7.522  -6.166  -7.189  0.00  0.00     0.082 H 
ATOM     34  H   LIG d   1       8.057  -4.967  -5.986  0.00  0.00     0.082 H 
ATOM     35  C   LIG d   1       6.235  -7.845  -5.464  0.00  0.00     0.101 C 
ATOM     36  H   LIG d   1       7.104  -6.354  -4.171  0.00  0.00     0.035 H 
ATOM     37  H   LIG d   1       8.289  -7.285  -5.119  0.00  0.00     0.035 H 
ATOM     38  C   LIG d   1       4.873  -7.150  -5.553  0.00  0.00     0.021 C 
ATOM     39  C   LIG d   1       4.934  -6.054  -6.619  0.00  0.00    -0.029 C 
ATOM     40  H   LIG d   1       4.628  -6.706  -4.587  0.00  0.00     0.035 H 
ATOM     41  H   LIG d   1       4.110  -7.879  -5.823  0.00  0.00     0.035 H 
ATOM     42  H   LIG d   1       3.971  -5.548  -6.675  0.00  0.00     0.082 H 
ATOM     43  H   LIG d   1       5.167  -6.501  -7.586  0.00  0.00     0.082 H 
ATOM     44  H   LIG d   1       5.762  -4.714  -5.299  0.00  0.00     0.203 HD
BRANCH  35  45
ATOM     45  C   LIG d   1       6.200  -8.884  -4.373  0.00  0.00    -0.016 A 
ATOM     46  C   LIG d   1       5.053  -9.627  -4.164  0.00  0.00    -0.054 A 
ATOM     47  C   LIG d   1       5.019 -10.580  -3.163  0.00  0.00    -0.043 A 
ATOM     48  H   LIG d   1       4.182  -9.462  -4.781  0.00  0.00     0.062 H 
ATOM     49  C   LIG d   1       6.133 -10.791  -2.371  0.00  0.00     0.041 A 
ATOM     50  H   LIG d   1       4.122 -11.161  -3.000  0.00  0.00     0.063 H 
ATOM     51  C   LIG d   1       7.281 -10.047  -2.581  0.00  0.00    -0.043 A 
ATOM     52 CL   LIG d   1       6.092 -11.988  -1.114  0.00  0.00    -0.084 Cl
ATOM     53  C   LIG d   1       7.315  -9.099  -3.585  0.00  0.00    -0.054 A 
ATOM     54  H   LIG d   1       8.152 -10.211  -1.962  0.00  0.00     0.063 H 
ATOM     55  H   LIG d   1       8.212  -8.520  -3.752  0.00  0.00     0.062 H 
ENDBRANCH  35  45
BRANCH  35  56
ATOM     56  O   LIG d   1       6.535  -8.471  -6.712  0.00  0.00    -0.384 OA
ATOM     57  H   LIG d   1       7.358  -8.978  -6.711  0.00  0.00     0.211 HD
ENDBRANCH  35  56
ENDBRANCH  27  30
ENDBRANCH  18  27
BRANCH   8  58
ATOM     58  O   LIG d   1       4.276  -3.108  -4.878  0.00  0.00    -0.391 OA
ATOM     59  H   LIG d   1       3.327  -3.269  -4.785  0.00  0.00     0.210 HD
ENDBRANCH   8  58
BRANCH   7  60
ATOM     60  C   LIG d   1       6.173  -2.161  -3.182  0.00  0.00    -0.053 C 
ATOM     61  H   LIG d   1       7.177  -1.959  -3.554  0.00  0.00     0.024 H 
ATOM     62  H   LIG d   1       6.161  -2.061  -2.097  0.00  0.00     0.024 H 
ATOM     63  H   LIG d   1       5.879  -3.174  -3.458  0.00  0.00     0.024 H 
ENDBRANCH   7  60
BRANCH   1  64
ATOM     64  C   LIG d   1       3.764  -2.266  -2.078  0.00  0.00    -0.061 C 
ATOM     65  H   LIG d   1       2.795  -2.202  -1.584  0.00  0.00     0.023 H 
ATOM     66  H   LIG d   1       3.749  -3.077  -2.806  0.00  0.00     0.023 H 
ATOM     67  H   LIG d   1       4.539  -2.460  -1.335  0.00  0.00     0.023 H 
ENDBRANCH   1  64
TORSDOF 7
ENDMDL
MODEL 2
REMARK VINA RESULT:      -7.0      5.410      9.621
REMARK  7 active torsions:
REMARK  status: ('A' for Active; 'I' for Inactive)
REMARK    1  A    between atoms: C_1  and  C_2 
REMARK    2  A    between atoms: C_8  and  C_36 
REMARK    3  A    between atoms: C_9  and  O_35 
REMARK    4  A    between atoms: C_19  and  C_21 
REMARK    5  A    between atoms: C_21  and  N_66 
REMARK    6  A    between atoms: C_24  and  C_27 
REMARK    7  A    between atoms: C_24  and  O_34 
ROOT
ATOM      1  C   LIG d   1       5.251  -0.332  -2.532  0.00  0.00    -0.032 C 
ATOM      2  H   LIG d   1       5.709  -0.705  -1.618  0.00  0.00     0.031 H 
ATOM      3  C   LIG d   1       3.744  -0.569  -2.478  0.00  0.00    -0.046 C 
ATOM      4  C   LIG d   1       3.486  -2.066  -2.286  0.00  0.00    -0.034 C 
ATOM      5  C   LIG d   1       4.187  -2.820  -3.379  0.00  0.00    -0.084 C 
ATOM      6  C   LIG d   1       5.231  -2.362  -4.003  0.00  0.00    -0.061 C 
ATOM      7  C   LIG d   1       5.885  -1.038  -3.728  0.00  0.00     0.018 C 
ATOM      8  C   LIG d   1       7.369  -1.259  -3.460  0.00  0.00     0.072 C 
ATOM      9  H   LIG d   1       7.472  -1.573  -2.407  0.00  0.00     0.061 H 
ATOM     10  C   LIG d   1       8.069  -2.277  -4.303  0.00  0.00     0.041 C 
ATOM     11  H   LIG d   1       8.977  -2.586  -3.744  0.00  0.00     0.037 H 
ATOM     12  C   LIG d   1       7.294  -3.561  -4.633  0.00  0.00     0.113 C 
ATOM     13  H   LIG d   1       7.296  -4.271  -3.798  0.00  0.00     0.074 H 
ATOM     14  C   LIG d   1       5.861  -3.228  -5.076  0.00  0.00     0.006 C 
ATOM     15  O   LIG d   1       7.973  -4.082  -5.826  0.00  0.00    -0.460 OA
ATOM     16  C   LIG d   1       8.623  -3.106  -6.476  0.00  0.00     0.316 C 
ATOM     17  O   LIG d   1       9.197  -3.229  -7.537  0.00  0.00    -0.250 OA
ATOM     18  C   LIG d   1       8.538  -1.808  -5.685  0.00  0.00     0.105 C 
ATOM     19  H   LIG d   1       7.833  -1.126  -6.148  0.00  0.00     0.047 H 
ATOM     20  H   LIG d   1       3.319  -0.015  -1.639  0.00  0.00     0.027 H 
ATOM     21  H   LIG d   1       3.279  -0.230  -3.404  0.00  0.00     0.027 H 
ATOM     22  H   LIG d   1       2.415  -2.263  -2.334  0.00  0.00     0.031 H 
ATOM     23  H   LIG d   1       3.871  -2.383  -1.317  0.00  0.00     0.031 H 
ATOM     24  H   LIG d   1       3.801  -3.789  -3.664  0.00  0.00     0.057 H 
ATOM     25  H   LIG d   1       5.293  -4.151  -5.177  0.00  0.00     0.035 H 
ATOM     26  H   LIG d   1       5.883  -2.699  -6.023  0.00  0.00     0.035 H 
ENDROOT
BRANCH  18  27
ATOM     27  C   LIG d   1       9.929  -1.167  -5.603  0.00  0.00    -0.018 C 
ATOM     28  H   LIG d   1      10.436  -1.513  -4.703  0.00  0.00     0.082 H 
ATOM     29  H   LIG d   1      10.511  -1.451  -6.480  0.00  0.00     0.082 H 
BRANCH  27  30
ATOM     30  N   LIG d   1       9.771   0.302  -5.576  0.00  0.00     0.236 N 
ATOM     31  C   LIG d   1       9.155   0.767  -6.837  0.00  0.00    -0.029 C 
ATOM     32  C   LIG d   1       8.893   2.271  -6.737  0.00  0.00     0.021 C 
ATOM     33  H   LIG d   1       9.816   0.568  -7.682  0.00  0.00     0.082 H 
ATOM     34  H   LIG d   1       8.210   0.243  -6.984  0.00  0.00     0.082 H 
ATOM     35  C   LIG d   1      10.221   3.001  -6.510  0.00  0.00     0.101 C 
ATOM     36  H   LIG d   1       8.222   2.469  -5.902  0.00  0.00     0.035 H 
ATOM     37  H   LIG d   1       8.437   2.624  -7.662  0.00  0.00     0.035 H 
ATOM     38  C   LIG d   1      10.883   2.458  -5.241  0.00  0.00     0.021 C 
ATOM     39  C   LIG d   1      11.087   0.948  -5.385  0.00  0.00    -0.029 C 
ATOM     40  H   LIG d   1      10.242   2.659  -4.382  0.00  0.00     0.035 H 
ATOM     41  H   LIG d   1      11.847   2.943  -5.098  0.00  0.00     0.035 H 
ATOM     42  H   LIG d   1      11.545   0.555  -4.477  0.00  0.00     0.082 H 
ATOM     43  H   LIG d   1      11.738   0.749  -6.236  0.00  0.00     0.082 H 
ATOM     44  H   LIG d   1       9.158   0.557  -4.792  0.00  0.00     0.203 HD
BRANCH  35  45
ATOM     45  C   LIG d   1       9.962   4.477  -6.351  0.00  0.00    -0.016 A 
ATOM     46  C   LIG d   1       9.603   4.986  -5.117  0.00  0.00    -0.054 A 
ATOM     47  C   LIG d   1       9.365   6.339  -4.969  0.00  0.00    -0.043 A 
ATOM     48  H   LIG d   1       9.509   4.326  -4.267  0.00  0.00     0.062 H 
ATOM     49  C   LIG d   1       9.485   7.185  -6.057  0.00  0.00     0.041 A 
ATOM     50  H   LIG d   1       9.085   6.737  -4.004  0.00  0.00     0.063 H 
ATOM     51  C   LIG d   1       9.843   6.675  -7.292  0.00  0.00    -0.043 A 
ATOM     52 CL   LIG d   1       9.185   8.885  -5.873  0.00  0.00    -0.084 Cl
ATOM     53  C   LIG d   1      10.087   5.323  -7.437  0.00  0.00    -0.054 A 
ATOM     54  H   LIG d   1       9.937   7.335  -8.143  0.00  0.00     0.063 H 
ATOM     55  H   LIG d   1      10.370   4.925  -8.400  0.00  0.00     0.062 H 
ENDBRANCH  35  45
BRANCH  35  56
ATOM     56  O   LIG d   1      11.082   2.784  -7.629  0.00  0.00    -0.384 OA
ATOM     57  H   LIG d   1      10.750   2.133  -8.261  0.00  0.00     0.211 HD
ENDBRANCH  35  56
ENDBRANCH  27  30
ENDBRANCH  18  27
BRANCH   8  58
ATOM     58  O   LIG d   1       8.057  -0.007  -3.583  0.00  0.00    -0.391 OA
ATOM     59  H   LIG d   1       7.489   0.767  -3.467  0.00  0.00     0.210 HD
ENDBRANCH   8  58
BRANCH   7  60
ATOM     60  C   LIG d   1       5.711  -0.126  -4.947  0.00  0.00    -0.053 C 
ATOM     61  H   LIG d   1       5.295   0.829  -4.629  0.00  0.00     0.024 H 
ATOM     62  H   LIG d   1       6.681   0.038  -5.417  0.00  0.00     0.024 H 
ATOM     63  H   LIG d   1       5.036  -0.599  -5.661  0.00  0.00     0.024 H 
ENDBRANCH   7  60
BRANCH   1  64
ATOM     64  C   LIG d   1       5.500   1.175  -2.645  0.00  0.00    -0.061 C 
ATOM     65  H   LIG d   1       4.545   1.698  -2.702  0.00  0.00     0.023 H 
ATOM     66  H   LIG d   1       6.052   1.518  -1.770  0.00  0.00     0.023 H 
ATOM     67  H   LIG d   1       6.081   1.380  -3.545  0.00  0.00     0.023 H 
ENDBRANCH   1  64
TORSDOF 7
ENDMDL
MODEL 3
REMARK VINA RESULT:      -7.0      1.708      2.318
REMARK  7 active torsions:
REMARK  status: ('A' for Active; 'I' for Inactive)
REMARK    1  A    between atoms: C_1  and  C_2 
REMARK    2  A    between atoms: C_8  and  C_36 
REMARK    3  A    between atoms: C_9  and  O_35 
REMARK    4  A    between atoms: C_19  and  C_21 
REMARK    5  A    between atoms: C_21  and  N_66 
REMARK    6  A    between atoms: C_24  and  C_27 
REMARK    7  A    between atoms: C_24  and  O_34 
ROOT
ATOM      1  C   LIG d   1       3.893  -0.342  -3.274  0.00  0.00    -0.032 C 
ATOM      2  H   LIG d   1       3.311   0.429  -3.775  0.00  0.00     0.031 H 
ATOM      3  C   LIG d   1       4.354   0.173  -1.913  0.00  0.00    -0.046 C 
ATOM      4  C   LIG d   1       5.170   1.452  -2.120  0.00  0.00    -0.034 C 
ATOM      5  C   LIG d   1       6.290   1.159  -3.076  0.00  0.00    -0.084 C 
ATOM      6  C   LIG d   1       6.241   0.208  -3.960  0.00  0.00    -0.061 C 
ATOM      7  C   LIG d   1       5.078  -0.723  -4.157  0.00  0.00     0.018 C 
ATOM      8  C   LIG d   1       4.653  -0.688  -5.621  0.00  0.00     0.072 C 
ATOM      9  H   LIG d   1       4.015   0.201  -5.760  0.00  0.00     0.061 H 
ATOM     10  C   LIG d   1       5.741  -0.624  -6.645  0.00  0.00     0.041 C 
ATOM     11  H   LIG d   1       5.285  -0.221  -7.572  0.00  0.00     0.037 H 
ATOM     12  C   LIG d   1       6.950   0.265  -6.322  0.00  0.00     0.113 C 
ATOM     13  H   LIG d   1       6.740   1.327  -6.500  0.00  0.00     0.074 H 
ATOM     14  C   LIG d   1       7.429   0.025  -4.883  0.00  0.00     0.006 C 
ATOM     15  O   LIG d   1       8.011  -0.258  -7.192  0.00  0.00    -0.460 OA
ATOM     16  C   LIG d   1       7.763  -1.529  -7.543  0.00  0.00     0.316 C 
ATOM     17  O   LIG d   1       8.509  -2.239  -8.183  0.00  0.00    -0.250 OA
ATOM     18  C   LIG d   1       6.400  -1.957  -7.019  0.00  0.00     0.105 C 
ATOM     19  H   LIG d   1       6.511  -2.615  -6.164  0.00  0.00     0.047 H 
ATOM     20  H   LIG d   1       3.483   0.392  -1.294  0.00  0.00     0.027 H 
ATOM     21  H   LIG d   1       4.967  -0.579  -1.416  0.00  0.00     0.027 H 
ATOM     22  H   LIG d   1       5.580   1.784  -1.166  0.00  0.00     0.031 H 
ATOM     23  H   LIG d   1       4.530   2.232  -2.532  0.00  0.00     0.031 H 
ATOM     24  H   LIG d   1       7.182   1.768  -3.025  0.00  0.00     0.057 H 
ATOM     25  H   LIG d   1       8.197   0.755  -4.634  0.00  0.00     0.035 H 
ATOM     26  H   LIG d   1       7.827  -0.980  -4.791  0.00  0.00     0.035 H 
ENDROOT
BRANCH  18  27
ATOM     27  C   LIG d   1       5.620  -2.659  -8.137  0.00  0.00    -0.018 C 
ATOM     28  H   LIG d   1       4.624  -2.224  -8.214  0.00  0.00     0.082 H 
ATOM     29  H   LIG d   1       6.147  -2.530  -9.083  0.00  0.00     0.082 H 
BRANCH  27  30
ATOM     30  N   LIG d   1       5.532  -4.099  -7.820  0.00  0.00     0.236 N 
ATOM     31  C   LIG d   1       4.116  -4.520  -7.773  0.00  0.00    -0.029 C 
ATOM     32  C   LIG d   1       4.055  -6.035  -7.563  0.00  0.00     0.021 C 
ATOM     33  H   LIG d   1       3.594  -4.018  -6.958  0.00  0.00     0.082 H 
ATOM     34  H   LIG d   1       3.639  -4.266  -8.721  0.00  0.00     0.082 H 
ATOM     35  C   LIG d   1       4.743  -6.389  -6.241  0.00  0.00     0.101 C 
ATOM     36  H   LIG d   1       4.563  -6.538  -8.385  0.00  0.00     0.035 H 
ATOM     37  H   LIG d   1       3.013  -6.356  -7.529  0.00  0.00     0.035 H 
ATOM     38  C   LIG d   1       6.187  -5.882  -6.275  0.00  0.00     0.021 C 
ATOM     39  C   LIG d   1       6.187  -4.372  -6.524  0.00  0.00    -0.029 C 
ATOM     40  H   LIG d   1       6.730  -6.383  -7.077  0.00  0.00     0.035 H 
ATOM     41  H   LIG d   1       6.669  -6.094  -5.322  0.00  0.00     0.035 H 
ATOM     42  H   LIG d   1       7.214  -4.010  -6.562  0.00  0.00     0.082 H 
ATOM     43  H   LIG d   1       5.655  -3.871  -5.714  0.00  0.00     0.082 H 
ATOM     44  H   LIG d   1       6.014  -4.632  -8.555  0.00  0.00     0.203 HD
BRANCH  35  45
ATOM     45  C   LIG d   1       4.738  -7.885  -6.058  0.00  0.00    -0.016 A 
ATOM     46  C   LIG d   1       4.876  -8.426  -4.793  0.00  0.00    -0.054 A 
ATOM     47  C   LIG d   1       4.873  -9.798  -4.624  0.00  0.00    -0.043 A 
ATOM     48  H   LIG d   1       4.987  -7.777  -3.937  0.00  0.00     0.062 H 
ATOM     49  C   LIG d   1       4.732 -10.630  -5.720  0.00  0.00     0.041 A 
ATOM     50  H   LIG d   1       4.980 -10.221  -3.635  0.00  0.00     0.063 H 
ATOM     51  C   LIG d   1       4.594 -10.088  -6.985  0.00  0.00    -0.043 A 
ATOM     52 CL   LIG d   1       4.728 -12.353  -5.509  0.00  0.00    -0.084 Cl
ATOM     53  C   LIG d   1       4.592  -8.716  -7.153  0.00  0.00    -0.054 A 
ATOM     54  H   LIG d   1       4.484 -10.737  -7.843  0.00  0.00     0.063 H 
ATOM     55  H   LIG d   1       4.481  -8.292  -8.140  0.00  0.00     0.062 H 
ENDBRANCH  35  45
BRANCH  35  56
ATOM     56  O   LIG d   1       4.045  -5.772  -5.159  0.00  0.00    -0.384 OA
ATOM     57  H   LIG d   1       3.191  -5.392  -5.406  0.00  0.00     0.211 HD
ENDBRANCH  35  56
ENDBRANCH  27  30
ENDBRANCH  18  27
BRANCH   8  58
ATOM     58  O   LIG d   1       3.830  -1.830  -5.894  0.00  0.00    -0.391 OA
ATOM     59  H   LIG d   1       2.918  -1.741  -5.584  0.00  0.00     0.210 HD
ENDBRANCH   8  58
BRANCH   7  60
ATOM     60  C   LIG d   1       5.500  -2.146  -3.776  0.00  0.00    -0.053 C 
ATOM     61  H   LIG d   1       6.478  -2.119  -3.298  0.00  0.00     0.024 H 
ATOM     62  H   LIG d   1       4.769  -2.568  -3.087  0.00  0.00     0.024 H 
ATOM     63  H   LIG d   1       5.550  -2.762  -4.675  0.00  0.00     0.024 H 
ENDBRANCH   7  60
BRANCH   1  64
ATOM     64  C   LIG d   1       3.013  -1.576  -3.051  0.00  0.00    -0.061 C 
ATOM     65  H   LIG d   1       3.118  -1.916  -2.021  0.00  0.00     0.023 H 
ATOM     66  H   LIG d   1       1.972  -1.319  -3.245  0.00  0.00     0.023 H 
ATOM     67  H   LIG d   1       3.324  -2.371  -3.730  0.00  0.00     0.023 H 
ENDBRANCH   1  64
TORSDOF 7
ENDMDL
MODEL 4
REMARK VINA RESULT:      -6.8      4.806      8.212
REMARK  7 active torsions:
REMARK  status: ('A' for Active; 'I' for Inactive)
REMARK    1  A    between atoms: C_1  and  C_2 
REMARK    2  A    between atoms: C_8  and  C_36 
REMARK    3  A    between atoms: C_9  and  O_35 
REMARK    4  A    between atoms: C_19  and  C_21 
REMARK    5  A    between atoms: C_21  and  N_66 
REMARK    6  A    between atoms: C_24  and  C_27 
REMARK    7  A    between atoms: C_24  and  O_34 
ROOT
ATOM      1  C   LIG d   1       6.124  -5.853  -5.689  0.00  0.00    -0.032 C 
ATOM      2  H   LIG d   1       5.551  -6.168  -4.819  0.00  0.00     0.031 H 
ATOM      3  C   LIG d   1       7.376  -6.718  -5.813  0.00  0.00    -0.046 C 
ATOM      4  C   LIG d   1       8.192  -6.594  -4.523  0.00  0.00    -0.034 C 
ATOM      5  C   LIG d   1       8.473  -5.141  -4.270  0.00  0.00    -0.084 C 
ATOM      6  C   LIG d   1       7.720  -4.181  -4.719  0.00  0.00    -0.061 C 
ATOM      7  C   LIG d   1       6.478  -4.376  -5.542  0.00  0.00     0.018 C 
ATOM      8  C   LIG d   1       5.319  -3.639  -4.879  0.00  0.00     0.072 C 
ATOM      9  H   LIG d   1       4.934  -4.285  -4.072  0.00  0.00     0.061 H 
ATOM     10  C   LIG d   1       5.616  -2.302  -4.280  0.00  0.00     0.041 C 
ATOM     11  H   LIG d   1       4.820  -2.100  -3.535  0.00  0.00     0.037 H 
ATOM     12  C   LIG d   1       6.957  -2.148  -3.547  0.00  0.00     0.113 C 
ATOM     13  H   LIG d   1       6.928  -2.578  -2.539  0.00  0.00     0.074 H 
ATOM     14  C   LIG d   1       8.099  -2.754  -4.377  0.00  0.00     0.006 C 
ATOM     15  O   LIG d   1       7.189  -0.698  -3.542  0.00  0.00    -0.460 OA
ATOM     16  C   LIG d   1       6.509  -0.098  -4.531  0.00  0.00     0.316 C 
ATOM     17  O   LIG d   1       6.579   1.078  -4.819  0.00  0.00    -0.250 OA
ATOM     18  C   LIG d   1       5.629  -1.112  -5.247  0.00  0.00     0.105 C 
ATOM     19  H   LIG d   1       6.055  -1.371  -6.211  0.00  0.00     0.047 H 
ATOM     20  H   LIG d   1       7.085  -7.759  -5.962  0.00  0.00     0.027 H 
ATOM     21  H   LIG d   1       7.975  -6.389  -6.662  0.00  0.00     0.027 H 
ATOM     22  H   LIG d   1       9.133  -7.135  -4.630  0.00  0.00     0.031 H 
ATOM     23  H   LIG d   1       7.626  -7.009  -3.690  0.00  0.00     0.031 H 
ATOM     24  H   LIG d   1       9.346  -4.880  -3.688  0.00  0.00     0.057 H 
ATOM     25  H   LIG d   1       9.012  -2.753  -3.786  0.00  0.00     0.035 H 
ATOM     26  H   LIG d   1       8.242  -2.174  -5.283  0.00  0.00     0.035 H 
ENDROOT
BRANCH  18  27
ATOM     27  C   LIG d   1       4.220  -0.533  -5.422  0.00  0.00    -0.018 C 
ATOM     28  H   LIG d   1       3.558  -0.952  -4.664  0.00  0.00     0.082 H 
ATOM     29  H   LIG d   1       4.257   0.551  -5.313  0.00  0.00     0.082 H 
BRANCH  27  30
ATOM     30  N   LIG d   1       3.734  -0.871  -6.775  0.00  0.00     0.236 N 
ATOM     31  C   LIG d   1       4.862  -0.866  -7.732  0.00  0.00    -0.029 C 
ATOM     32  C   LIG d   1       4.356  -1.334  -9.098  0.00  0.00     0.021 C 
ATOM     33  H   LIG d   1       5.281   0.136  -7.824  0.00  0.00     0.082 H 
ATOM     34  H   LIG d   1       5.632  -1.551  -7.376  0.00  0.00     0.082 H 
ATOM     35  C   LIG d   1       3.261  -0.381  -9.586  0.00  0.00     0.101 C 
ATOM     36  H   LIG d   1       3.949  -2.341  -9.010  0.00  0.00     0.035 H 
ATOM     37  H   LIG d   1       5.181  -1.336  -9.811  0.00  0.00     0.035 H 
ATOM     38  C   LIG d   1       2.133  -0.339  -8.550  0.00  0.00     0.021 C 
ATOM     39  C   LIG d   1       2.704   0.100  -7.200  0.00  0.00    -0.029 C 
ATOM     40  H   LIG d   1       1.692  -1.331  -8.454  0.00  0.00     0.035 H 
ATOM     41  H   LIG d   1       1.371   0.370  -8.871  0.00  0.00     0.035 H 
ATOM     42  H   LIG d   1       1.906   0.117  -6.456  0.00  0.00     0.082 H 
ATOM     43  H   LIG d   1       3.134   1.098  -7.294  0.00  0.00     0.082 H 
ATOM     44  H   LIG d   1       3.319  -1.810  -6.755  0.00  0.00     0.203 HD
BRANCH  35  45
ATOM     45  C   LIG d   1       2.717  -0.871 -10.903  0.00  0.00    -0.016 A 
ATOM     46  C   LIG d   1       1.384  -1.217 -11.014  0.00  0.00    -0.054 A 
ATOM     47  C   LIG d   1       0.884  -1.668 -12.221  0.00  0.00    -0.043 A 
ATOM     48  H   LIG d   1       0.731  -1.136 -10.157  0.00  0.00     0.062 H 
ATOM     49  C   LIG d   1       1.719  -1.772 -13.319  0.00  0.00     0.041 A 
ATOM     50  H   LIG d   1      -0.159  -1.938 -12.308  0.00  0.00     0.063 H 
ATOM     51  C   LIG d   1       3.053  -1.426 -13.208  0.00  0.00    -0.043 A 
ATOM     52 CL   LIG d   1       1.092  -2.338 -14.836  0.00  0.00    -0.084 Cl
ATOM     53  C   LIG d   1       3.551  -0.970 -12.002  0.00  0.00    -0.054 A 
ATOM     54  H   LIG d   1       3.707  -1.507 -14.065  0.00  0.00     0.063 H 
ATOM     55  H   LIG d   1       4.592  -0.696 -11.915  0.00  0.00     0.062 H 
ENDBRANCH  35  45
BRANCH  35  56
ATOM     56  O   LIG d   1       3.807   0.929  -9.750  0.00  0.00    -0.384 OA
ATOM     57  H   LIG d   1       4.703   0.940 -10.111  0.00  0.00     0.211 HD
ENDBRANCH  35  56
ENDBRANCH  27  30
ENDBRANCH  18  27
BRANCH   8  58
ATOM     58  O   LIG d   1       4.257  -3.493  -5.830  0.00  0.00    -0.391 OA
ATOM     59  H   LIG d   1       3.508  -4.087  -5.679  0.00  0.00     0.210 HD
ENDBRANCH   8  58
BRANCH   7  60
ATOM     60  C   LIG d   1       6.710  -3.815  -6.948  0.00  0.00    -0.053 C 
ATOM     61  H   LIG d   1       7.086  -2.795  -6.874  0.00  0.00     0.024 H 
ATOM     62  H   LIG d   1       7.439  -4.434  -7.470  0.00  0.00     0.024 H 
ATOM     63  H   LIG d   1       5.770  -3.817  -7.499  0.00  0.00     0.024 H 
ENDBRANCH   7  60
BRANCH   1  64
ATOM     64  C   LIG d   1       5.276  -6.046  -6.950  0.00  0.00    -0.061 C 
ATOM     65  H   LIG d   1       5.913  -5.967  -7.831  0.00  0.00     0.023 H 
ATOM     66  H   LIG d   1       4.809  -7.030  -6.926  0.00  0.00     0.023 H 
ATOM     67  H   LIG d   1       4.504  -5.277  -6.989  0.00  0.00     0.023 H 
ENDBRANCH   1  64
TORSDOF 7
ENDMDL
MODEL 5
REMARK VINA RESULT:      -6.8      1.472      1.930
REMARK  7 active torsions:
REMARK  status: ('A' for Active; 'I' for Inactive)
REMARK    1  A    between atoms: C_1  and  C_2 
REMARK    2  A    between atoms: C_8  and  C_36 
REMARK    3  A    between atoms: C_9  and  O_35 
REMARK    4  A    between atoms: C_19  and  C_21 
REMARK    5  A    between atoms: C_21  and  N_66 
REMARK    6  A    between atoms: C_24  and  C_27 
REMARK    7  A    between atoms: C_24  and  O_34 
ROOT
ATOM      1  C   LIG d   1       4.243  -0.976  -3.072  0.00  0.00    -0.032 C 
ATOM      2  H   LIG d   1       3.557  -0.761  -3.889  0.00  0.00     0.031 H 
ATOM      3  C   LIG d   1       4.036   0.043  -1.954  0.00  0.00    -0.046 C 
ATOM      4  C   LIG d   1       4.253   1.448  -2.520  0.00  0.00    -0.034 C 
ATOM      5  C   LIG d   1       5.611   1.505  -3.158  0.00  0.00    -0.084 C 
ATOM      6  C   LIG d   1       6.223   0.459  -3.625  0.00  0.00    -0.061 C 
ATOM      7  C   LIG d   1       5.674  -0.940  -3.602  0.00  0.00     0.018 C 
ATOM      8  C   LIG d   1       5.707  -1.514  -5.014  0.00  0.00     0.072 C 
ATOM      9  H   LIG d   1       4.820  -1.132  -5.548  0.00  0.00     0.061 H 
ATOM     10  C   LIG d   1       6.906  -1.196  -5.850  0.00  0.00     0.041 C 
ATOM     11  H   LIG d   1       6.605  -1.337  -6.908  0.00  0.00     0.037 H 
ATOM     12  C   LIG d   1       7.477   0.225  -5.737  0.00  0.00     0.113 C 
ATOM     13  H   LIG d   1       6.896   0.951  -6.319  0.00  0.00     0.074 H 
ATOM     14  C   LIG d   1       7.584   0.650  -4.265  0.00  0.00     0.006 C 
ATOM     15  O   LIG d   1       8.858   0.086  -6.217  0.00  0.00    -0.460 OA
ATOM     16  C   LIG d   1       9.284  -1.181  -6.099  0.00  0.00     0.316 C 
ATOM     17  O   LIG d   1      10.407  -1.570  -6.336  0.00  0.00    -0.250 OA
ATOM     18  C   LIG d   1       8.144  -2.070  -5.622  0.00  0.00     0.105 C 
ATOM     19  H   LIG d   1       8.277  -2.330  -4.577  0.00  0.00     0.047 H 
ATOM     20  H   LIG d   1       3.018  -0.043  -1.569  0.00  0.00     0.027 H 
ATOM     21  H   LIG d   1       4.741  -0.143  -1.144  0.00  0.00     0.027 H 
ATOM     22  H   LIG d   1       4.195   2.182  -1.715  0.00  0.00     0.031 H 
ATOM     23  H   LIG d   1       3.488   1.666  -3.265  0.00  0.00     0.031 H 
ATOM     24  H   LIG d   1       6.106   2.464  -3.229  0.00  0.00     0.057 H 
ATOM     25  H   LIG d   1       7.864   1.700  -4.214  0.00  0.00     0.035 H 
ATOM     26  H   LIG d   1       8.326   0.041  -3.761  0.00  0.00     0.035 H 
ENDROOT
BRANCH  18  27
ATOM     27  C   LIG d   1       8.088  -3.336  -6.485  0.00  0.00    -0.018 C 
ATOM     28  H   LIG d   1       7.285  -3.242  -7.216  0.00  0.00     0.082 H 
ATOM     29  H   LIG d   1       9.038  -3.464  -7.004  0.00  0.00     0.082 H 
BRANCH  27  30
ATOM     30  N   LIG d   1       7.852  -4.499  -5.605  0.00  0.00     0.236 N 
ATOM     31  C   LIG d   1       9.088  -4.830  -4.864  0.00  0.00    -0.029 C 
ATOM     32  C   LIG d   1       8.786  -5.957  -3.874  0.00  0.00     0.021 C 
ATOM     33  H   LIG d   1       9.872  -5.149  -5.551  0.00  0.00     0.082 H 
ATOM     34  H   LIG d   1       9.421  -3.947  -4.318  0.00  0.00     0.082 H 
ATOM     35  C   LIG d   1       8.300  -7.189  -4.643  0.00  0.00     0.101 C 
ATOM     36  H   LIG d   1       8.013  -5.633  -3.178  0.00  0.00     0.035 H 
ATOM     37  H   LIG d   1       9.692  -6.207  -3.320  0.00  0.00     0.035 H 
ATOM     38  C   LIG d   1       7.063  -6.812  -5.464  0.00  0.00     0.021 C 
ATOM     39  C   LIG d   1       7.414  -5.660  -6.408  0.00  0.00    -0.029 C 
ATOM     40  H   LIG d   1       6.262  -6.502  -4.792  0.00  0.00     0.035 H 
ATOM     41  H   LIG d   1       6.737  -7.674  -6.046  0.00  0.00     0.035 H 
ATOM     42  H   LIG d   1       6.532  -5.380  -6.984  0.00  0.00     0.082 H 
ATOM     43  H   LIG d   1       8.206  -5.976  -7.087  0.00  0.00     0.082 H 
ATOM     44  H   LIG d   1       7.113  -4.262  -4.932  0.00  0.00     0.203 HD
BRANCH  35  45
ATOM     45  C   LIG d   1       7.945  -8.282  -3.669  0.00  0.00    -0.016 A 
ATOM     46  C   LIG d   1       8.695  -8.456  -2.521  0.00  0.00    -0.054 A 
ATOM     47  C   LIG d   1       8.371  -9.459  -1.628  0.00  0.00    -0.043 A 
ATOM     48  H   LIG d   1       9.536  -7.808  -2.323  0.00  0.00     0.062 H 
ATOM     49  C   LIG d   1       7.294 -10.289  -1.882  0.00  0.00     0.041 A 
ATOM     50  H   LIG d   1       8.957  -9.594  -0.730  0.00  0.00     0.063 H 
ATOM     51  C   LIG d   1       6.543 -10.115  -3.030  0.00  0.00    -0.043 A 
ATOM     52 CL   LIG d   1       6.885 -11.549  -0.760  0.00  0.00    -0.084 Cl
ATOM     53  C   LIG d   1       6.865  -9.109  -3.920  0.00  0.00    -0.054 A 
ATOM     54  H   LIG d   1       5.702 -10.764  -3.230  0.00  0.00     0.063 H 
ATOM     55  H   LIG d   1       6.277  -8.970  -4.816  0.00  0.00     0.062 H 
ENDBRANCH  35  45
BRANCH  35  56
ATOM     56  O   LIG d   1       9.333  -7.644  -5.518  0.00  0.00    -0.384 OA
ATOM     57  H   LIG d   1       9.411  -7.134  -6.335  0.00  0.00     0.211 HD
ENDBRANCH  35  56
ENDBRANCH  27  30
ENDBRANCH  18  27
BRANCH   8  58
ATOM     58  O   LIG d   1       5.561  -2.938  -4.941  0.00  0.00    -0.391 OA
ATOM     59  H   LIG d   1       6.389  -3.412  -4.783  0.00  0.00     0.210 HD
ENDBRANCH   8  58
BRANCH   7  60
ATOM     60  C   LIG d   1       6.532  -1.804  -2.673  0.00  0.00    -0.053 C 
ATOM     61  H   LIG d   1       7.586  -1.610  -2.868  0.00  0.00     0.024 H 
ATOM     62  H   LIG d   1       6.303  -1.561  -1.636  0.00  0.00     0.024 H 
ATOM     63  H   LIG d   1       6.316  -2.857  -2.856  0.00  0.00     0.024 H 
ENDBRANCH   7  60
BRANCH   1  64
ATOM     64  C   LIG d   1       3.946  -2.372  -2.515  0.00  0.00    -0.061 C 
ATOM     65  H   LIG d   1       2.869  -2.537  -2.503  0.00  0.00     0.023 H 
ATOM     66  H   LIG d   1       4.423  -3.123  -3.145  0.00  0.00     0.023 H 
ATOM     67  H   LIG d   1       4.337  -2.448  -1.500  0.00  0.00     0.023 H 
ENDBRANCH   1  64
TORSDOF 7
ENDMDL
MODEL 6
REMARK VINA RESULT:      -6.7      2.695      3.894
REMARK  7 active torsions:
REMARK  status: ('A' for Active; 'I' for Inactive)
REMARK    1  A    between atoms: C_1  and  C_2 
REMARK    2  A    between atoms: C_8  and  C_36 
REMARK    3  A    between atoms: C_9  and  O_35 
REMARK    4  A    between atoms: C_19  and  C_21 
REMARK    5  A    between atoms: C_21  and  N_66 
REMARK    6  A    between atoms: C_24  and  C_27 
REMARK    7  A    between atoms: C_24  and  O_34 
ROOT
ATOM      1  C   LIG d   1       6.350   0.650  -3.021  0.00  0.00    -0.032 C 
ATOM      2  H   LIG d   1       6.685   0.245  -2.068  0.00  0.00     0.031 H 
ATOM      3  C   LIG d   1       5.206   1.632  -2.782  0.00  0.00    -0.046 C 
ATOM      4  C   LIG d   1       4.077   0.905  -2.048  0.00  0.00    -0.034 C 
ATOM      5  C   LIG d   1       3.688  -0.308  -2.843  0.00  0.00    -0.084 C 
ATOM      6  C   LIG d   1       4.497  -0.912  -3.660  0.00  0.00    -0.061 C 
ATOM      7  C   LIG d   1       5.918  -0.501  -3.925  0.00  0.00     0.018 C 
ATOM      8  C   LIG d   1       6.835  -1.697  -3.698  0.00  0.00     0.072 C 
ATOM      9  H   LIG d   1       7.018  -1.774  -2.613  0.00  0.00     0.061 H 
ATOM     10  C   LIG d   1       6.344  -3.030  -4.166  0.00  0.00     0.041 C 
ATOM     11  H   LIG d   1       6.910  -3.797  -3.598  0.00  0.00     0.037 H 
ATOM     12  C   LIG d   1       4.853  -3.336  -3.959  0.00  0.00     0.113 C 
ATOM     13  H   LIG d   1       4.632  -3.632  -2.927  0.00  0.00     0.074 H 
ATOM     14  C   LIG d   1       3.992  -2.140  -4.392  0.00  0.00     0.006 C 
ATOM     15  O   LIG d   1       4.577  -4.403  -4.929  0.00  0.00    -0.460 OA
ATOM     16  C   LIG d   1       5.471  -4.388  -5.930  0.00  0.00     0.316 C 
ATOM     17  O   LIG d   1       5.437  -5.096  -6.913  0.00  0.00    -0.250 OA
ATOM     18  C   LIG d   1       6.543  -3.344  -5.653  0.00  0.00     0.105 C 
ATOM     19  H   LIG d   1       6.395  -2.471  -6.281  0.00  0.00     0.047 H 
ATOM     20  H   LIG d   1       5.563   2.463  -2.171  0.00  0.00     0.027 H 
ATOM     21  H   LIG d   1       4.840   2.019  -3.733  0.00  0.00     0.027 H 
ATOM     22  H   LIG d   1       3.217   1.568  -1.947  0.00  0.00     0.031 H 
ATOM     23  H   LIG d   1       4.419   0.601  -1.058  0.00  0.00     0.031 H 
ATOM     24  H   LIG d   1       2.684  -0.694  -2.734  0.00  0.00     0.057 H 
ATOM     25  H   LIG d   1       2.956  -2.326  -4.115  0.00  0.00     0.035 H 
ATOM     26  H   LIG d   1       4.071  -1.999  -5.464  0.00  0.00     0.035 H 
ENDROOT
BRANCH  18  27
ATOM     27  C   LIG d   1       7.928  -3.955  -5.904  0.00  0.00    -0.018 C 
ATOM     28  H   LIG d   1       7.921  -4.491  -6.853  0.00  0.00     0.082 H 
ATOM     29  H   LIG d   1       8.673  -3.160  -5.942  0.00  0.00     0.082 H 
BRANCH  27  30
ATOM     30  N   LIG d   1       8.248  -4.873  -4.792  0.00  0.00     0.236 N 
ATOM     31  C   LIG d   1       9.536  -4.489  -4.176  0.00  0.00    -0.029 C 
ATOM     32  C   LIG d   1       9.786  -5.377  -2.955  0.00  0.00     0.021 C 
ATOM     33  H   LIG d   1      10.352  -4.610  -4.888  0.00  0.00     0.082 H 
ATOM     34  H   LIG d   1       9.481  -3.446  -3.861  0.00  0.00     0.082 H 
ATOM     35  C   LIG d   1       9.843  -6.841  -3.399  0.00  0.00     0.101 C 
ATOM     36  H   LIG d   1       8.978  -5.245  -2.236  0.00  0.00     0.035 H 
ATOM     37  H   LIG d   1      10.734  -5.100  -2.492  0.00  0.00     0.035 H 
ATOM     38  C   LIG d   1       8.532  -7.204  -4.102  0.00  0.00     0.021 C 
ATOM     39  C   LIG d   1       8.317  -6.263  -5.289  0.00  0.00    -0.029 C 
ATOM     40  H   LIG d   1       7.703  -7.101  -3.401  0.00  0.00     0.035 H 
ATOM     41  H   LIG d   1       8.582  -8.233  -4.457  0.00  0.00     0.035 H 
ATOM     42  H   LIG d   1       7.377  -6.509  -5.783  0.00  0.00     0.082 H 
ATOM     43  H   LIG d   1       9.140  -6.376  -5.996  0.00  0.00     0.082 H 
ATOM     44  H   LIG d   1       7.507  -4.809  -4.084  0.00  0.00     0.203 HD
BRANCH  35  45
ATOM     45  C   LIG d   1      10.030  -7.725  -2.193  0.00  0.00    -0.016 A 
ATOM     46  C   LIG d   1      10.965  -7.394  -1.231  0.00  0.00    -0.054 A 
ATOM     47  C   LIG d   1      11.138  -8.204  -0.126  0.00  0.00    -0.043 A 
ATOM     48  H   LIG d   1      11.563  -6.501  -1.344  0.00  0.00     0.062 H 
ATOM     49  C   LIG d   1      10.374  -9.348   0.019  0.00  0.00     0.041 A 
ATOM     50  H   LIG d   1      11.869  -7.944   0.627  0.00  0.00     0.063 H 
ATOM     51  C   LIG d   1       9.438  -9.680  -0.943  0.00  0.00    -0.043 A 
ATOM     52 CL   LIG d   1      10.590 -10.367   1.408  0.00  0.00    -0.084 Cl
ATOM     53  C   LIG d   1       9.262  -8.866  -2.046  0.00  0.00    -0.054 A 
ATOM     54  H   LIG d   1       8.840 -10.574  -0.831  0.00  0.00     0.063 H 
ATOM     55  H   LIG d   1       8.529  -9.123  -2.796  0.00  0.00     0.062 H 
ENDBRANCH  35  45
BRANCH  35  56
ATOM     56  O   LIG d   1      10.935  -7.025  -4.301  0.00  0.00    -0.384 OA
ATOM     57  H   LIG d   1      11.684  -6.436  -4.139  0.00  0.00     0.211 HD
ENDBRANCH  35  56
ENDBRANCH  27  30
ENDBRANCH  18  27
BRANCH   8  58
ATOM     58  O   LIG d   1       8.104  -1.433  -4.311  0.00  0.00    -0.391 OA
ATOM     59  H   LIG d   1       8.240  -0.506  -4.551  0.00  0.00     0.210 HD
ENDBRANCH   8  58
BRANCH   7  60
ATOM     60  C   LIG d   1       6.043  -0.022  -5.375  0.00  0.00    -0.053 C 
ATOM     61  H   LIG d   1       6.107  -0.884  -6.037  0.00  0.00     0.024 H 
ATOM     62  H   LIG d   1       5.169   0.574  -5.637  0.00  0.00     0.024 H 
ATOM     63  H   LIG d   1       6.943   0.586  -5.480  0.00  0.00     0.024 H 
ENDBRANCH   7  60
BRANCH   1  64
ATOM     64  C   LIG d   1       7.505   1.406  -3.685  0.00  0.00    -0.061 C 
ATOM     65  H   LIG d   1       7.159   2.387  -4.010  0.00  0.00     0.023 H 
ATOM     66  H   LIG d   1       8.319   1.526  -2.970  0.00  0.00     0.023 H 
ATOM     67  H   LIG d   1       7.860   0.842  -4.548  0.00  0.00     0.023 H 
ENDBRANCH   1  64
TORSDOF 7
ENDMDL
MODEL 7
REMARK VINA RESULT:      -6.7      6.103      9.583
REMARK  7 active torsions:
REMARK  status: ('A' for Active; 'I' for Inactive)
REMARK    1  A    between atoms: C_1  and  C_2 
REMARK    2  A    between atoms: C_8  and  C_36 
REMARK    3  A    between atoms: C_9  and  O_35 
REMARK    4  A    between atoms: C_19  and  C_21 
REMARK    5  A    between atoms: C_21  and  N_66 
REMARK    6  A    between atoms: C_24  and  C_27 
REMARK    7  A    between atoms: C_24  and  O_34 
ROOT
ATOM      1  C   LIG d   1       4.443  -2.219 -10.935  0.00  0.00    -0.032 C 
ATOM      2  H   LIG d   1       5.149  -1.476 -11.300  0.00  0.00     0.031 H 
ATOM      3  C   LIG d   1       3.289  -2.353 -11.925  0.00  0.00    -0.046 C 
ATOM      4  C   LIG d   1       2.628  -0.984 -12.102  0.00  0.00    -0.034 C 
ATOM      5  C   LIG d   1       2.221  -0.468 -10.752  0.00  0.00    -0.084 C 
ATOM      6  C   LIG d   1       2.801  -0.829  -9.647  0.00  0.00    -0.061 C 
ATOM      7  C   LIG d   1       3.947  -1.796  -9.554  0.00  0.00     0.018 C 
ATOM      8  C   LIG d   1       5.089  -1.145  -8.782  0.00  0.00     0.072 C 
ATOM      9  H   LIG d   1       5.640  -0.498  -9.486  0.00  0.00     0.061 H 
ATOM     10  C   LIG d   1       4.720  -0.308  -7.599  0.00  0.00     0.041 C 
ATOM     11  H   LIG d   1       5.575   0.374  -7.410  0.00  0.00     0.037 H 
ATOM     12  C   LIG d   1       3.470   0.574  -7.731  0.00  0.00     0.113 C 
ATOM     13  H   LIG d   1       3.670   1.490  -8.300  0.00  0.00     0.074 H 
ATOM     14  C   LIG d   1       2.310  -0.222  -8.348  0.00  0.00     0.006 C 
ATOM     15  O   LIG d   1       3.081   0.840  -6.341  0.00  0.00    -0.460 OA
ATOM     16  C   LIG d   1       3.564  -0.101  -5.516  0.00  0.00     0.316 C 
ATOM     17  O   LIG d   1       3.329  -0.184  -4.330  0.00  0.00    -0.250 OA
ATOM     18  C   LIG d   1       4.458  -1.061  -6.290  0.00  0.00     0.105 C 
ATOM     19  H   LIG d   1       3.949  -2.005  -6.453  0.00  0.00     0.047 H 
ATOM     20  H   LIG d   1       3.674  -2.700 -12.886  0.00  0.00     0.027 H 
ATOM     21  H   LIG d   1       2.558  -3.071 -11.552  0.00  0.00     0.027 H 
ATOM     22  H   LIG d   1       1.748  -1.080 -12.738  0.00  0.00     0.031 H 
ATOM     23  H   LIG d   1       3.334  -0.292 -12.561  0.00  0.00     0.031 H 
ATOM     24  H   LIG d   1       1.402   0.236 -10.696  0.00  0.00     0.057 H 
ATOM     25  H   LIG d   1       1.482   0.453  -8.553  0.00  0.00     0.035 H 
ATOM     26  H   LIG d   1       1.995  -1.001  -7.662  0.00  0.00     0.035 H 
ENDROOT
BRANCH  18  27
ATOM     27  C   LIG d   1       5.762  -1.283  -5.513  0.00  0.00    -0.018 C 
ATOM     28  H   LIG d   1       5.538  -1.749  -4.554  0.00  0.00     0.082 H 
ATOM     29  H   LIG d   1       6.420  -1.935  -6.088  0.00  0.00     0.082 H 
BRANCH  27  30
ATOM     30  N   LIG d   1       6.421   0.024  -5.313  0.00  0.00     0.236 N 
ATOM     31  C   LIG d   1       7.621   0.120  -6.172  0.00  0.00    -0.029 C 
ATOM     32  C   LIG d   1       8.217   1.523  -6.037  0.00  0.00     0.021 C 
ATOM     33  H   LIG d   1       8.364  -0.621  -5.876  0.00  0.00     0.082 H 
ATOM     34  H   LIG d   1       7.330  -0.052  -7.209  0.00  0.00     0.082 H 
ATOM     35  C   LIG d   1       8.606   1.768  -4.576  0.00  0.00     0.101 C 
ATOM     36  H   LIG d   1       7.480   2.263  -6.347  0.00  0.00     0.035 H 
ATOM     37  H   LIG d   1       9.102   1.605  -6.668  0.00  0.00     0.035 H 
ATOM     38  C   LIG d   1       7.369   1.592  -3.690  0.00  0.00     0.021 C 
ATOM     39  C   LIG d   1       6.798   0.188  -3.894  0.00  0.00    -0.029 C 
ATOM     40  H   LIG d   1       6.619   2.334  -3.963  0.00  0.00     0.035 H 
ATOM     41  H   LIG d   1       7.649   1.724  -2.646  0.00  0.00     0.035 H 
ATOM     42  H   LIG d   1       5.909   0.064  -3.275  0.00  0.00     0.082 H 
ATOM     43  H   LIG d   1       7.545  -0.553  -3.608  0.00  0.00     0.082 H 
ATOM     44  H   LIG d   1       5.766   0.771  -5.572  0.00  0.00     0.203 HD
BRANCH  35  45
ATOM     45  C   LIG d   1       9.138   3.170  -4.426  0.00  0.00    -0.016 A 
ATOM     46  C   LIG d   1       9.537   3.629  -3.185  0.00  0.00    -0.054 A 
ATOM     47  C   LIG d   1      10.024   4.914  -3.046  0.00  0.00    -0.043 A 
ATOM     48  H   LIG d   1       9.467   2.982  -2.322  0.00  0.00     0.062 H 
ATOM     49  C   LIG d   1      10.113   5.743  -4.150  0.00  0.00     0.041 A 
ATOM     50  H   LIG d   1      10.336   5.272  -2.075  0.00  0.00     0.063 H 
ATOM     51  C   LIG d   1       9.714   5.284  -5.392  0.00  0.00    -0.043 A 
ATOM     52 CL   LIG d   1      10.725   7.358  -3.977  0.00  0.00    -0.084 Cl
ATOM     53  C   LIG d   1       9.232   3.996  -5.531  0.00  0.00    -0.054 A 
ATOM     54  H   LIG d   1       9.783   5.930  -6.256  0.00  0.00     0.063 H 
ATOM     55  H   LIG d   1       8.924   3.636  -6.501  0.00  0.00     0.062 H 
ENDBRANCH  35  45
BRANCH  35  56
ATOM     56  O   LIG d   1       9.611   0.830  -4.186  0.00  0.00    -0.384 OA
ATOM     57  H   LIG d   1      10.462   1.233  -3.967  0.00  0.00     0.211 HD
ENDBRANCH  35  56
ENDBRANCH  27  30
ENDBRANCH  18  27
BRANCH   8  58
ATOM     58  O   LIG d   1       6.005  -2.164  -8.358  0.00  0.00    -0.391 OA
ATOM     59  H   LIG d   1       6.804  -1.823  -7.934  0.00  0.00     0.210 HD
ENDBRANCH   8  58
BRANCH   7  60
ATOM     60  C   LIG d   1       3.485  -3.060  -8.823  0.00  0.00    -0.053 C 
ATOM     61  H   LIG d   1       4.066  -3.913  -9.170  0.00  0.00     0.024 H 
ATOM     62  H   LIG d   1       3.630  -2.932  -7.751  0.00  0.00     0.024 H 
ATOM     63  H   LIG d   1       2.428  -3.232  -9.029  0.00  0.00     0.024 H 
ENDBRANCH   7  60
BRANCH   1  64
ATOM     64  C   LIG d   1       5.146  -3.575 -10.825  0.00  0.00    -0.061 C 
ATOM     65  H   LIG d   1       5.913  -3.525 -10.051  0.00  0.00     0.023 H 
ATOM     66  H   LIG d   1       4.417  -4.342 -10.566  0.00  0.00     0.023 H 
ATOM     67  H   LIG d   1       5.610  -3.822 -11.780  0.00  0.00     0.023 H 
ENDBRANCH   1  64
TORSDOF 7
ENDMDL
MODEL 8
REMARK VINA RESULT:      -6.6      6.903      9.827
REMARK  7 active torsions:
REMARK  status: ('A' for Active; 'I' for Inactive)
REMARK    1  A    between atoms: C_1  and  C_2 
REMARK    2  A    between atoms: C_8  and  C_36 
REMARK    3  A    between atoms: C_9  and  O_35 
REMARK    4  A    between atoms: C_19  and  C_21 
REMARK    5  A    between atoms: C_21  and  N_66 
REMARK    6  A    between atoms: C_24  and  C_27 
REMARK    7  A    between atoms: C_24  and  O_34 
ROOT
ATOM      1  C   LIG d   1      10.117   8.263  -1.463  0.00  0.00    -0.032 C 
ATOM      2  H   LIG d   1      10.085   9.146  -2.097  0.00  0.00     0.031 H 
ATOM      3  C   LIG d   1      10.761   8.621  -0.126  0.00  0.00    -0.046 C 
ATOM      4  C   LIG d   1      12.162   9.180  -0.387  0.00  0.00    -0.034 C 
ATOM      5  C   LIG d   1      12.937   8.178  -1.192  0.00  0.00    -0.084 C 
ATOM      6  C   LIG d   1      12.375   7.302  -1.970  0.00  0.00    -0.061 C 
ATOM      7  C   LIG d   1      10.894   7.163  -2.180  0.00  0.00     0.018 C 
ATOM      8  C   LIG d   1      10.594   7.220  -3.674  0.00  0.00     0.072 C 
ATOM      9  H   LIG d   1      10.576   8.283  -3.968  0.00  0.00     0.061 H 
ATOM     10  C   LIG d   1      11.547   6.517  -4.588  0.00  0.00     0.041 C 
ATOM     11  H   LIG d   1      11.419   6.969  -5.592  0.00  0.00     0.037 H 
ATOM     12  C   LIG d   1      13.040   6.614  -4.245  0.00  0.00     0.113 C 
ATOM     13  H   LIG d   1      13.473   7.573  -4.554  0.00  0.00     0.074 H 
ATOM     14  C   LIG d   1      13.269   6.356  -2.748  0.00  0.00     0.006 C 
ATOM     15  O   LIG d   1      13.635   5.469  -4.946  0.00  0.00    -0.460 OA
ATOM     16  C   LIG d   1      12.717   4.519  -5.183  0.00  0.00     0.316 C 
ATOM     17  O   LIG d   1      12.941   3.431  -5.667  0.00  0.00    -0.250 OA
ATOM     18  C   LIG d   1      11.341   5.007  -4.752  0.00  0.00     0.105 C 
ATOM     19  H   LIG d   1      11.042   4.530  -3.824  0.00  0.00     0.047 H 
ATOM     20  H   LIG d   1      10.155   9.375   0.379  0.00  0.00     0.027 H 
ATOM     21  H   LIG d   1      10.828   7.735   0.506  0.00  0.00     0.027 H 
ATOM     22  H   LIG d   1      12.669   9.358   0.562  0.00  0.00     0.031 H 
ATOM     23  H   LIG d   1      12.086  10.116  -0.940  0.00  0.00     0.031 H 
ATOM     24  H   LIG d   1      14.016   8.183  -1.119  0.00  0.00     0.057 H 
ATOM     25  H   LIG d   1      14.310   6.558  -2.504  0.00  0.00     0.035 H 
ATOM     26  H   LIG d   1      13.025   5.326  -2.512  0.00  0.00     0.035 H 
ENDROOT
BRANCH  18  27
ATOM     27  C   LIG d   1      10.323   4.709  -5.860  0.00  0.00    -0.018 C 
ATOM     28  H   LIG d   1       9.844   5.638  -6.171  0.00  0.00     0.082 H 
ATOM     29  H   LIG d   1      10.835   4.262  -6.712  0.00  0.00     0.082 H 
BRANCH  27  30
ATOM     30  N   LIG d   1       9.320   3.759  -5.338  0.00  0.00     0.236 N 
ATOM     31  C   LIG d   1       9.738   3.263  -4.009  0.00  0.00    -0.029 C 
ATOM     32  C   LIG d   1       8.630   2.376  -3.439  0.00  0.00     0.021 C 
ATOM     33  H   LIG d   1      10.660   2.687  -4.089  0.00  0.00     0.082 H 
ATOM     34  H   LIG d   1       9.899   4.114  -3.347  0.00  0.00     0.082 H 
ATOM     35  C   LIG d   1       8.394   1.192  -4.381  0.00  0.00     0.101 C 
ATOM     36  H   LIG d   1       7.712   2.956  -3.345  0.00  0.00     0.035 H 
ATOM     37  H   LIG d   1       8.928   2.006  -2.457  0.00  0.00     0.035 H 
ATOM     38  C   LIG d   1       8.034   1.722  -5.773  0.00  0.00     0.021 C 
ATOM     39  C   LIG d   1       9.160   2.628  -6.275  0.00  0.00    -0.029 C 
ATOM     40  H   LIG d   1       7.106   2.292  -5.716  0.00  0.00     0.035 H 
ATOM     41  H   LIG d   1       7.906   0.885  -6.458  0.00  0.00     0.035 H 
ATOM     42  H   LIG d   1       8.900   3.018  -7.260  0.00  0.00     0.082 H 
ATOM     43  H   LIG d   1      10.084   2.054  -6.344  0.00  0.00     0.082 H 
ATOM     44  H   LIG d   1       8.420   4.244  -5.244  0.00  0.00     0.203 HD
BRANCH  35  45
ATOM     45  C   LIG d   1       7.262   0.348  -3.855  0.00  0.00    -0.016 A 
ATOM     46  C   LIG d   1       6.193   0.947  -3.216  0.00  0.00    -0.054 A 
ATOM     47  C   LIG d   1       5.155   0.174  -2.732  0.00  0.00    -0.043 A 
ATOM     48  H   LIG d   1       6.169   2.020  -3.093  0.00  0.00     0.062 H 
ATOM     49  C   LIG d   1       5.185  -1.200  -2.888  0.00  0.00     0.041 A 
ATOM     50  H   LIG d   1       4.319   0.643  -2.232  0.00  0.00     0.063 H 
ATOM     51  C   LIG d   1       6.255  -1.799  -3.528  0.00  0.00    -0.043 A 
ATOM     52 CL   LIG d   1       3.881  -2.173  -2.281  0.00  0.00    -0.084 Cl
ATOM     53  C   LIG d   1       7.290  -1.025  -4.016  0.00  0.00    -0.054 A 
ATOM     54  H   LIG d   1       6.280  -2.873  -3.650  0.00  0.00     0.063 H 
ATOM     55  H   LIG d   1       8.124  -1.492  -4.519  0.00  0.00     0.062 H 
ENDBRANCH  35  45
BRANCH  35  56
ATOM     56  O   LIG d   1       9.582   0.403  -4.464  0.00  0.00    -0.384 OA
ATOM     57  H   LIG d   1       9.772  -0.107  -3.665  0.00  0.00     0.211 HD
ENDBRANCH  35  56
ENDBRANCH  27  30
ENDBRANCH  18  27
BRANCH   8  58
ATOM     58  O   LIG d   1       9.274   6.709  -3.903  0.00  0.00    -0.391 OA
ATOM     59  H   LIG d   1       9.130   6.376  -4.800  0.00  0.00     0.210 HD
ENDBRANCH   8  58
BRANCH   7  60
ATOM     60  C   LIG d   1      10.427   5.820  -1.611  0.00  0.00    -0.053 C 
ATOM     61  H   LIG d   1      10.883   5.008  -2.176  0.00  0.00     0.024 H 
ATOM     62  H   LIG d   1      10.723   5.747  -0.565  0.00  0.00     0.024 H 
ATOM     63  H   LIG d   1       9.341   5.752  -1.687  0.00  0.00     0.024 H 
ENDBRANCH   7  60
BRANCH   1  64
ATOM     64  C   LIG d   1       8.688   7.779  -1.197  0.00  0.00    -0.061 C 
ATOM     65  H   LIG d   1       8.548   6.795  -1.643  0.00  0.00     0.023 H 
ATOM     66  H   LIG d   1       8.519   7.718  -0.122  0.00  0.00     0.023 H 
ATOM     67  H   LIG d   1       7.979   8.482  -1.636  0.00  0.00     0.023 H 
ENDBRANCH   1  64
TORSDOF 7
ENDMDL
MODEL 9
REMARK VINA RESULT:      -6.6      5.598      9.639
REMARK  7 active torsions:
REMARK  status: ('A' for Active; 'I' for Inactive)
REMARK    1  A    between atoms: C_1  and  C_2 
REMARK    2  A    between atoms: C_8  and  C_36 
REMARK    3  A    between atoms: C_9  and  O_35 
REMARK    4  A    between atoms: C_19  and  C_21 
REMARK    5  A    between atoms: C_21  and  N_66 
REMARK    6  A    between atoms: C_24  and  C_27 
REMARK    7  A    between atoms: C_24  and  O_34 
ROOT
ATOM      1  C   LIG d   1       2.549   0.177  -8.441  0.00  0.00    -0.032 C 
ATOM      2  H   LIG d   1       1.758  -0.025  -7.721  0.00  0.00     0.031 H 
ATOM      3  C   LIG d   1       2.029  -0.079  -9.853  0.00  0.00    -0.046 C 
ATOM      4  C   LIG d   1       1.538  -1.526  -9.943  0.00  0.00    -0.034 C 
ATOM      5  C   LIG d   1       2.654  -2.440  -9.526  0.00  0.00    -0.084 C 
ATOM      6  C   LIG d   1       3.614  -2.073  -8.731  0.00  0.00    -0.061 C 
ATOM      7  C   LIG d   1       3.750  -0.708  -8.120  0.00  0.00     0.018 C 
ATOM      8  C   LIG d   1       3.887  -0.849  -6.607  0.00  0.00     0.072 C 
ATOM      9  H   LIG d   1       2.873  -0.977  -6.193  0.00  0.00     0.061 H 
ATOM     10  C   LIG d   1       4.725  -1.980  -6.102  0.00  0.00     0.041 C 
ATOM     11  H   LIG d   1       4.409  -2.170  -5.056  0.00  0.00     0.037 H 
ATOM     12  C   LIG d   1       4.613  -3.318  -6.849  0.00  0.00     0.113 C 
ATOM     13  H   LIG d   1       3.713  -3.875  -6.565  0.00  0.00     0.074 H 
ATOM     14  C   LIG d   1       4.674  -3.095  -8.368  0.00  0.00     0.006 C 
ATOM     15  O   LIG d   1       5.853  -4.020  -6.496  0.00  0.00    -0.460 OA
ATOM     16  C   LIG d   1       6.808  -3.154  -6.121  0.00  0.00     0.316 C 
ATOM     17  O   LIG d   1       7.955  -3.444  -5.859  0.00  0.00    -0.250 OA
ATOM     18  C   LIG d   1       6.239  -1.743  -6.072  0.00  0.00     0.105 C 
ATOM     19  H   LIG d   1       6.582  -1.165  -6.923  0.00  0.00     0.047 H 
ATOM     20  H   LIG d   1       1.201   0.601 -10.064  0.00  0.00     0.027 H 
ATOM     21  H   LIG d   1       2.823   0.088 -10.580  0.00  0.00     0.027 H 
ATOM     22  H   LIG d   1       1.245  -1.751 -10.970  0.00  0.00     0.031 H 
ATOM     23  H   LIG d   1       0.683  -1.666  -9.282  0.00  0.00     0.031 H 
ATOM     24  H   LIG d   1       2.661  -3.451  -9.908  0.00  0.00     0.057 H 
ATOM     25  H   LIG d   1       4.461  -4.034  -8.876  0.00  0.00     0.035 H 
ATOM     26  H   LIG d   1       5.658  -2.735  -8.647  0.00  0.00     0.035 H 
ENDROOT
BRANCH  18  27
ATOM     27  C   LIG d   1       6.662  -1.068  -4.761  0.00  0.00    -0.018 C 
ATOM     28  H   LIG d   1       5.817  -1.052  -4.072  0.00  0.00     0.082 H 
ATOM     29  H   LIG d   1       7.484  -1.627  -4.314  0.00  0.00     0.082 H 
BRANCH  27  30
ATOM     30  N   LIG d   1       7.111   0.307  -5.061  0.00  0.00     0.236 N 
ATOM     31  C   LIG d   1       7.982   0.304  -6.256  0.00  0.00    -0.029 C 
ATOM     32  C   LIG d   1       8.336   1.748  -6.616  0.00  0.00     0.021 C 
ATOM     33  H   LIG d   1       8.896  -0.257  -6.062  0.00  0.00     0.082 H 
ATOM     34  H   LIG d   1       7.443  -0.155  -7.086  0.00  0.00     0.082 H 
ATOM     35  C   LIG d   1       9.075   2.395  -5.440  0.00  0.00     0.101 C 
ATOM     36  H   LIG d   1       7.423   2.306  -6.824  0.00  0.00     0.035 H 
ATOM     37  H   LIG d   1       8.977   1.757  -7.498  0.00  0.00     0.035 H 
ATOM     38  C   LIG d   1       8.191   2.325  -4.192  0.00  0.00     0.021 C 
ATOM     39  C   LIG d   1       7.840   0.864  -3.902  0.00  0.00    -0.029 C 
ATOM     40  H   LIG d   1       7.275   2.892  -4.362  0.00  0.00     0.035 H 
ATOM     41  H   LIG d   1       8.727   2.746  -3.342  0.00  0.00     0.035 H 
ATOM     42  H   LIG d   1       7.199   0.811  -3.022  0.00  0.00     0.082 H 
ATOM     43  H   LIG d   1       8.756   0.300  -3.719  0.00  0.00     0.082 H 
ATOM     44  H   LIG d   1       6.289   0.892  -5.249  0.00  0.00     0.203 HD
BRANCH  35  45
ATOM     45  C   LIG d   1       9.373   3.836  -5.766  0.00  0.00    -0.016 A 
ATOM     46  C   LIG d   1       9.723   4.195  -7.054  0.00  0.00    -0.054 A 
ATOM     47  C   LIG d   1       9.998   5.516  -7.354  0.00  0.00    -0.043 A 
ATOM     48  H   LIG d   1       9.782   3.443  -7.827  0.00  0.00     0.062 H 
ATOM     49  C   LIG d   1       9.922   6.479  -6.364  0.00  0.00     0.041 A 
ATOM     50  H   LIG d   1      10.271   5.796  -8.361  0.00  0.00     0.063 H 
ATOM     51  C   LIG d   1       9.572   6.120  -5.075  0.00  0.00    -0.043 A 
ATOM     52 CL   LIG d   1      10.267   8.139  -6.739  0.00  0.00    -0.084 Cl
ATOM     53  C   LIG d   1       9.292   4.800  -4.778  0.00  0.00    -0.054 A 
ATOM     54  H   LIG d   1       9.513   6.872  -4.301  0.00  0.00     0.063 H 
ATOM     55  H   LIG d   1       9.015   4.519  -3.772  0.00  0.00     0.062 H 
ENDBRANCH  35  45
BRANCH  35  56
ATOM     56  O   LIG d   1      10.297   1.696  -5.201  0.00  0.00    -0.384 OA
ATOM     57  H   LIG d   1      10.571   1.122  -5.929  0.00  0.00     0.211 HD
ENDBRANCH  35  56
ENDBRANCH  27  30
ENDBRANCH  18  27
BRANCH   8  58
ATOM     58  O   LIG d   1       4.398   0.378  -6.070  0.00  0.00    -0.391 OA
ATOM     59  H   LIG d   1       4.428   0.403  -5.103  0.00  0.00     0.210 HD
ENDBRANCH   8  58
BRANCH   7  60
ATOM     60  C   LIG d   1       4.995  -0.020  -8.688  0.00  0.00    -0.053 C 
ATOM     61  H   LIG d   1       5.373   0.702  -7.966  0.00  0.00     0.024 H 
ATOM     62  H   LIG d   1       5.762  -0.768  -8.889  0.00  0.00     0.024 H 
ATOM     63  H   LIG d   1       4.736   0.492  -9.615  0.00  0.00     0.024 H 
ENDBRANCH   7  60
BRANCH   1  64
ATOM     64  C   LIG d   1       2.964   1.648  -8.338  0.00  0.00    -0.061 C 
ATOM     65  H   LIG d   1       2.627   2.055  -7.384  0.00  0.00     0.023 H 
ATOM     66  H   LIG d   1       4.049   1.724  -8.403  0.00  0.00     0.023 H 
ATOM     67  H   LIG d   1       2.510   2.211  -9.154  0.00  0.00     0.023 H 
ENDBRANCH   1  64
TORSDOF 7
ENDMDL
