MODEL 1
REMARK VINA RESULT:      -5.7      0.000      0.000
REMARK  17 active torsions:
REMARK  status: ('A' for Active; 'I' for Inactive)
REMARK    1  A    between atoms: C_1  and  C_2 
REMARK       I    between atoms: C_2  and  N_4 
REMARK    2  A    between atoms: N_4  and  C_5 
REMARK    3  A    between atoms: C_7  and  O_36 
REMARK    4  A    between atoms: C_9  and  O_32 
REMARK    5  A    between atoms: C_11  and  C_27 
REMARK    6  A    between atoms: C_14  and  O_16 
REMARK    7  A    between atoms: O_16  and  C_17 
REMARK    8  A    between atoms: C_20  and  C_25 
REMARK    9  A    between atoms: C_22  and  O_23 
REMARK   10  A    between atoms: O_23  and  C_24 
REMARK   11  A    between atoms: C_27  and  O_28 
REMARK   12  A    between atoms: O_28  and  C_29 
REMARK   13  A    between atoms: C_29  and  C_31 
REMARK   14  A    between atoms: O_32  and  C_33 
REMARK   15  A    between atoms: C_33  and  C_35 
REMARK   16  A    between atoms: O_36  and  C_37 
REMARK   17  A    between atoms: C_37  and  C_39 
ROOT
ATOM      1  C   LIG d   1       4.758  -4.040  -6.790  0.00  0.00     0.126 C 
ATOM      2  H   LIG d   1       3.961  -3.854  -6.071  0.00  0.00     0.060 H 
ATOM      3  C   LIG d   1       4.209  -3.895  -8.213  0.00  0.00     0.166 C 
ATOM      4  H   LIG d   1       4.993  -4.129  -8.932  0.00  0.00     0.079 H 
ATOM      5  C   LIG d   1       3.738  -2.451  -8.421  0.00  0.00     0.171 C 
ATOM      6  H   LIG d   1       2.920  -2.232  -7.734  0.00  0.00     0.080 H 
ATOM      7  C   LIG d   1       4.904  -1.498  -8.147  0.00  0.00     0.137 C 
ATOM      8  H   LIG d   1       5.706  -1.691  -8.860  0.00  0.00     0.067 H 
ATOM      9  O   LIG d   1       5.389  -1.707  -6.819  0.00  0.00    -0.330 OA
ATOM     10  C   LIG d   1       5.885  -3.025  -6.580  0.00  0.00     0.225 C 
ATOM     11  H   LIG d   1       6.700  -3.238  -7.273  0.00  0.00     0.108 H 
ENDROOT
BRANCH  10  12
ATOM     12  O   LIG d   1       6.365  -3.118  -5.237  0.00  0.00    -0.458 OA
BRANCH  12  13
ATOM     13  C   LIG d   1       5.907  -2.194  -4.354  0.00  0.00     0.165 A 
ATOM     14  C   LIG d   1       6.662  -1.052  -4.088  0.00  0.00     0.162 A 
ATOM     15  C   LIG d   1       6.201  -0.114  -3.188  0.00  0.00    -0.006 A 
ATOM     16  C   LIG d   1       4.972  -0.309  -2.546  0.00  0.00     0.018 A 
ATOM     17  H   LIG d   1       6.786   0.769  -2.977  0.00  0.00     0.066 H 
ATOM     18  C   LIG d   1       4.217  -1.456  -2.823  0.00  0.00    -0.048 A 
ATOM     19  C   LIG d   1       4.685  -2.386  -3.723  0.00  0.00    -0.015 A 
ATOM     20  H   LIG d   1       3.268  -1.609  -2.330  0.00  0.00     0.063 H 
ATOM     21  H   LIG d   1       4.101  -3.270  -3.936  0.00  0.00     0.066 H 
BRANCH  14  22
ATOM     22  O   LIG d   1       7.855  -0.866  -4.713  0.00  0.00    -0.491 OA
BRANCH  22  23
ATOM     23  C   LIG d   1       8.008   0.335  -5.475  0.00  0.00     0.079 C 
ATOM     24  H   LIG d   1       8.937   0.829  -5.190  0.00  0.00     0.066 H 
ATOM     25  H   LIG d   1       8.038   0.090  -6.536  0.00  0.00     0.066 H 
ATOM     26  H   LIG d   1       7.167   0.999  -5.279  0.00  0.00     0.066 H 
ENDBRANCH  22  23
ENDBRANCH  14  22
BRANCH  16  27
ATOM     27  C   LIG d   1       4.475   0.685  -1.586  0.00  0.00     0.150 C 
ATOM     28  O   LIG d   1       3.563   1.424  -1.894  0.00  0.00    -0.296 OA
ATOM     29  H   LIG d   1       4.924   0.761  -0.606  0.00  0.00     0.108 H 
ENDBRANCH  16  27
ENDBRANCH  12  13
ENDBRANCH  10  12
BRANCH   1  30
ATOM     30  N   LIG d   1       5.279  -5.397  -6.602  0.00  0.00    -0.303 N 
ATOM     31  C   LIG d   1       4.783  -6.179  -5.624  0.00  0.00     0.210 C 
ATOM     32  O   LIG d   1       3.905  -5.762  -4.900  0.00  0.00    -0.276 OA
ATOM     33  H   LIG d   1       5.981  -5.731  -7.182  0.00  0.00     0.149 HD
BRANCH  31  34
ATOM     34  C   LIG d   1       5.319  -7.575  -5.431  0.00  0.00     0.012 C 
ATOM     35  H   LIG d   1       5.093  -7.915  -4.420  0.00  0.00     0.032 H 
ATOM     36  H   LIG d   1       4.854  -8.247  -6.152  0.00  0.00     0.032 H 
ATOM     37  H   LIG d   1       6.398  -7.573  -5.580  0.00  0.00     0.032 H 
ENDBRANCH  31  34
ENDBRANCH   1  30
BRANCH   3  38
ATOM     38  O   LIG d   1       3.091  -4.802  -8.398  0.00  0.00    -0.456 OA
BRANCH  38  39
ATOM     39  C   LIG d   1       3.303  -5.879  -9.170  0.00  0.00     0.304 C 
ATOM     40  O   LIG d   1       3.298  -6.985  -8.681  0.00  0.00    -0.251 OA
BRANCH  39  41
ATOM     41  C   LIG d   1       3.546  -5.711 -10.648  0.00  0.00     0.033 C 
ATOM     42  H   LIG d   1       2.592  -5.669 -11.171  0.00  0.00     0.034 H 
ATOM     43  H   LIG d   1       4.097  -4.787 -10.823  0.00  0.00     0.034 H 
ATOM     44  H   LIG d   1       4.127  -6.556 -11.018  0.00  0.00     0.034 H 
ENDBRANCH  39  41
ENDBRANCH  38  39
ENDBRANCH   3  38
BRANCH   7  45
ATOM     45  C   LIG d   1       4.427  -0.052  -8.295  0.00  0.00     0.122 C 
ATOM     46  H   LIG d   1       4.184   0.146  -9.338  0.00  0.00     0.072 H 
ATOM     47  H   LIG d   1       3.539   0.102  -7.680  0.00  0.00     0.072 H 
BRANCH  45  48
ATOM     48  O   LIG d   1       5.478   0.852  -7.862  0.00  0.00    -0.462 OA
BRANCH  48  49
ATOM     49  C   LIG d   1       6.111   1.553  -8.815  0.00  0.00     0.304 C 
ATOM     50  O   LIG d   1       5.593   2.540  -9.284  0.00  0.00    -0.251 OA
BRANCH  49  51
ATOM     51  C   LIG d   1       7.465   1.109  -9.303  0.00  0.00     0.033 C 
ATOM     52  H   LIG d   1       7.455   1.040 -10.390  0.00  0.00     0.034 H 
ATOM     53  H   LIG d   1       8.219   1.833  -8.991  0.00  0.00     0.034 H 
ATOM     54  H   LIG d   1       7.702   0.133  -8.878  0.00  0.00     0.034 H 
ENDBRANCH  49  51
ENDBRANCH  48  49
ENDBRANCH  45  48
ENDBRANCH   7  45
BRANCH   5  55
ATOM     55  O   LIG d   1       3.283  -2.282  -9.788  0.00  0.00    -0.455 OA
BRANCH  55  56
ATOM     56  C   LIG d   1       1.970  -2.074  -9.973  0.00  0.00     0.304 C 
ATOM     57  O   LIG d   1       1.230  -3.012 -10.149  0.00  0.00    -0.251 OA
BRANCH  56  58
ATOM     58  C   LIG d   1       1.419  -0.671  -9.960  0.00  0.00     0.033 C 
ATOM     59  H   LIG d   1       0.381  -0.686 -10.294  0.00  0.00     0.034 H 
ATOM     60  H   LIG d   1       1.471  -0.270  -8.948  0.00  0.00     0.034 H 
ATOM     61  H   LIG d   1       2.008  -0.044 -10.630  0.00  0.00     0.034 H 
ENDBRANCH  56  58
ENDBRANCH  55  56
ENDBRANCH   5  55
TORSDOF 17
ENDMDL
MODEL 2
REMARK VINA RESULT:      -5.6      1.726      5.591
REMARK  17 active torsions:
REMARK  status: ('A' for Active; 'I' for Inactive)
REMARK    1  A    between atoms: C_1  and  C_2 
REMARK       I    between atoms: C_2  and  N_4 
REMARK    2  A    between atoms: N_4  and  C_5 
REMARK    3  A    between atoms: C_7  and  O_36 
REMARK    4  A    between atoms: C_9  and  O_32 
REMARK    5  A    between atoms: C_11  and  C_27 
REMARK    6  A    between atoms: C_14  and  O_16 
REMARK    7  A    between atoms: O_16  and  C_17 
REMARK    8  A    between atoms: C_20  and  C_25 
REMARK    9  A    between atoms: C_22  and  O_23 
REMARK   10  A    between atoms: O_23  and  C_24 
REMARK   11  A    between atoms: C_27  and  O_28 
REMARK   12  A    between atoms: O_28  and  C_29 
REMARK   13  A    between atoms: C_29  and  C_31 
REMARK   14  A    between atoms: O_32  and  C_33 
REMARK   15  A    between atoms: C_33  and  C_35 
REMARK   16  A    between atoms: O_36  and  C_37 
REMARK   17  A    between atoms: C_37  and  C_39 
ROOT
ATOM      1  C   LIG d   1       5.136  -3.857  -6.904  0.00  0.00     0.126 C 
ATOM      2  H   LIG d   1       6.109  -3.958  -7.383  0.00  0.00     0.060 H 
ATOM      3  C   LIG d   1       4.119  -4.754  -7.617  0.00  0.00     0.166 C 
ATOM      4  H   LIG d   1       3.135  -4.617  -7.170  0.00  0.00     0.079 H 
ATOM      5  C   LIG d   1       4.550  -6.217  -7.465  0.00  0.00     0.171 C 
ATOM      6  H   LIG d   1       5.513  -6.365  -7.956  0.00  0.00     0.080 H 
ATOM      7  C   LIG d   1       4.678  -6.551  -5.977  0.00  0.00     0.137 C 
ATOM      8  H   LIG d   1       3.706  -6.441  -5.496  0.00  0.00     0.067 H 
ATOM      9  O   LIG d   1       5.614  -5.660  -5.368  0.00  0.00    -0.330 OA
ATOM     10  C   LIG d   1       5.240  -4.283  -5.437  0.00  0.00     0.225 C 
ATOM     11  H   LIG d   1       4.276  -4.144  -4.949  0.00  0.00     0.108 H 
ENDROOT
BRANCH  10  12
ATOM     12  O   LIG d   1       6.228  -3.487  -4.779  0.00  0.00    -0.458 OA
BRANCH  12  13
ATOM     13  C   LIG d   1       5.780  -2.456  -4.018  0.00  0.00     0.165 A 
ATOM     14  C   LIG d   1       6.524  -1.278  -3.936  0.00  0.00     0.162 A 
ATOM     15  C   LIG d   1       6.073  -0.230  -3.159  0.00  0.00    -0.006 A 
ATOM     16  C   LIG d   1       4.867  -0.350  -2.458  0.00  0.00     0.018 A 
ATOM     17  H   LIG d   1       6.650   0.681  -3.091  0.00  0.00     0.066 H 
ATOM     18  C   LIG d   1       4.124  -1.534  -2.550  0.00  0.00    -0.048 A 
ATOM     19  C   LIG d   1       4.581  -2.574  -3.328  0.00  0.00    -0.015 A 
ATOM     20  H   LIG d   1       3.193  -1.630  -2.012  0.00  0.00     0.063 H 
ATOM     21  H   LIG d   1       4.006  -3.486  -3.398  0.00  0.00     0.066 H 
BRANCH  14  22
ATOM     22  O   LIG d   1       7.694  -1.165  -4.618  0.00  0.00    -0.491 OA
BRANCH  22  23
ATOM     23  C   LIG d   1       7.993   0.112  -5.187  0.00  0.00     0.079 C 
ATOM     24  H   LIG d   1       7.310   0.310  -6.014  0.00  0.00     0.066 H 
ATOM     25  H   LIG d   1       7.877   0.885  -4.427  0.00  0.00     0.066 H 
ATOM     26  H   LIG d   1       9.019   0.115  -5.554  0.00  0.00     0.066 H 
ENDBRANCH  22  23
ENDBRANCH  14  22
BRANCH  16  27
ATOM     27  C   LIG d   1       4.383   0.761  -1.629  0.00  0.00     0.150 C 
ATOM     28  O   LIG d   1       3.457   1.445  -2.012  0.00  0.00    -0.296 OA
ATOM     29  H   LIG d   1       4.852   0.970  -0.679  0.00  0.00     0.108 H 
ENDBRANCH  16  27
ENDBRANCH  12  13
ENDBRANCH  10  12
BRANCH   1  30
ATOM     30  N   LIG d   1       4.696  -2.462  -6.979  0.00  0.00    -0.303 N 
ATOM     31  C   LIG d   1       5.507  -1.527  -7.511  0.00  0.00     0.210 C 
ATOM     32  O   LIG d   1       6.602  -1.841  -7.929  0.00  0.00    -0.276 OA
ATOM     33  H   LIG d   1       3.820  -2.211  -6.645  0.00  0.00     0.149 HD
BRANCH  31  34
ATOM     34  C   LIG d   1       5.055  -0.091  -7.588  0.00  0.00     0.012 C 
ATOM     35  H   LIG d   1       5.048   0.342  -6.588  0.00  0.00     0.032 H 
ATOM     36  H   LIG d   1       5.739   0.472  -8.223  0.00  0.00     0.032 H 
ATOM     37  H   LIG d   1       4.051  -0.049  -8.009  0.00  0.00     0.032 H 
ENDBRANCH  31  34
ENDBRANCH   1  30
BRANCH   3  38
ATOM     38  O   LIG d   1       4.067  -4.406  -9.026  0.00  0.00    -0.456 OA
BRANCH  38  39
ATOM     39  C   LIG d   1       2.920  -3.877  -9.480  0.00  0.00     0.304 C 
ATOM     40  O   LIG d   1       2.673  -2.710  -9.285  0.00  0.00    -0.251 OA
BRANCH  39  41
ATOM     41  C   LIG d   1       1.940  -4.738 -10.234  0.00  0.00     0.033 C 
ATOM     42  H   LIG d   1       1.543  -4.180 -11.081  0.00  0.00     0.034 H 
ATOM     43  H   LIG d   1       2.445  -5.634 -10.594  0.00  0.00     0.034 H 
ATOM     44  H   LIG d   1       1.123  -5.023  -9.572  0.00  0.00     0.034 H 
ENDBRANCH  39  41
ENDBRANCH  38  39
ENDBRANCH   3  38
BRANCH   7  45
ATOM     45  C   LIG d   1       5.166  -7.992  -5.818  0.00  0.00     0.122 C 
ATOM     46  H   LIG d   1       5.366  -8.419  -6.800  0.00  0.00     0.072 H 
ATOM     47  H   LIG d   1       6.082  -8.002  -5.225  0.00  0.00     0.072 H 
BRANCH  45  48
ATOM     48  O   LIG d   1       4.146  -8.778  -5.147  0.00  0.00    -0.462 OA
BRANCH  48  49
ATOM     49  C   LIG d   1       4.544  -9.544  -4.119  0.00  0.00     0.304 C 
ATOM     50  O   LIG d   1       5.721  -9.653  -3.867  0.00  0.00    -0.251 OA
BRANCH  49  51
ATOM     51  C   LIG d   1       3.524 -10.267  -3.278  0.00  0.00     0.033 C 
ATOM     52  H   LIG d   1       2.529  -9.888  -3.509  0.00  0.00     0.034 H 
ATOM     53  H   LIG d   1       3.566 -11.334  -3.494  0.00  0.00     0.034 H 
ATOM     54  H   LIG d   1       3.741 -10.102  -2.223  0.00  0.00     0.034 H 
ENDBRANCH  49  51
ENDBRANCH  48  49
ENDBRANCH  45  48
ENDBRANCH   7  45
BRANCH   5  55
ATOM     55  O   LIG d   1       3.557  -7.081  -8.074  0.00  0.00    -0.455 OA
BRANCH  55  56
ATOM     56  C   LIG d   1       3.905  -7.705  -9.210  0.00  0.00     0.304 C 
ATOM     57  O   LIG d   1       3.056  -8.195  -9.915  0.00  0.00    -0.251 OA
BRANCH  56  58
ATOM     58  C   LIG d   1       5.357  -7.795  -9.606  0.00  0.00     0.033 C 
ATOM     59  H   LIG d   1       5.566  -7.063 -10.387  0.00  0.00     0.034 H 
ATOM     60  H   LIG d   1       5.984  -7.590  -8.738  0.00  0.00     0.034 H 
ATOM     61  H   LIG d   1       5.570  -8.797  -9.980  0.00  0.00     0.034 H 
ENDBRANCH  56  58
ENDBRANCH  55  56
ENDBRANCH   5  55
TORSDOF 17
ENDMDL
MODEL 3
REMARK VINA RESULT:      -5.4      1.825      5.442
REMARK  17 active torsions:
REMARK  status: ('A' for Active; 'I' for Inactive)
REMARK    1  A    between atoms: C_1  and  C_2 
REMARK       I    between atoms: C_2  and  N_4 
REMARK    2  A    between atoms: N_4  and  C_5 
REMARK    3  A    between atoms: C_7  and  O_36 
REMARK    4  A    between atoms: C_9  and  O_32 
REMARK    5  A    between atoms: C_11  and  C_27 
REMARK    6  A    between atoms: C_14  and  O_16 
REMARK    7  A    between atoms: O_16  and  C_17 
REMARK    8  A    between atoms: C_20  and  C_25 
REMARK    9  A    between atoms: C_22  and  O_23 
REMARK   10  A    between atoms: O_23  and  C_24 
REMARK   11  A    between atoms: C_27  and  O_28 
REMARK   12  A    between atoms: O_28  and  C_29 
REMARK   13  A    between atoms: C_29  and  C_31 
REMARK   14  A    between atoms: O_32  and  C_33 
REMARK   15  A    between atoms: C_33  and  C_35 
REMARK   16  A    between atoms: O_36  and  C_37 
REMARK   17  A    between atoms: C_37  and  C_39 
ROOT
ATOM      1  C   LIG d   1       4.171  -3.493  -8.133  0.00  0.00     0.126 C 
ATOM      2  H   LIG d   1       5.052  -3.488  -8.774  0.00  0.00     0.060 H 
ATOM      3  C   LIG d   1       3.216  -4.603  -8.585  0.00  0.00     0.166 C 
ATOM      4  H   LIG d   1       2.313  -4.577  -7.975  0.00  0.00     0.079 H 
ATOM      5  C   LIG d   1       3.910  -5.958  -8.415  0.00  0.00     0.171 C 
ATOM      6  H   LIG d   1       4.786  -6.003  -9.063  0.00  0.00     0.080 H 
ATOM      7  C   LIG d   1       4.344  -6.123  -6.957  0.00  0.00     0.137 C 
ATOM      8  H   LIG d   1       3.463  -6.119  -6.314  0.00  0.00     0.067 H 
ATOM      9  O   LIG d   1       5.204  -5.042  -6.591  0.00  0.00    -0.330 OA
ATOM     10  C   LIG d   1       4.594  -3.753  -6.684  0.00  0.00     0.225 C 
ATOM     11  H   LIG d   1       3.717  -3.719  -6.038  0.00  0.00     0.108 H 
ENDROOT
BRANCH  10  12
ATOM     12  O   LIG d   1       5.529  -2.753  -6.274  0.00  0.00    -0.458 OA
BRANCH  12  13
ATOM     13  C   LIG d   1       5.237  -2.065  -5.141  0.00  0.00     0.165 A 
ATOM     14  C   LIG d   1       5.365  -0.676  -5.117  0.00  0.00     0.162 A 
ATOM     15  C   LIG d   1       5.074   0.024  -3.965  0.00  0.00    -0.006 A 
ATOM     16  C   LIG d   1       4.646  -0.661  -2.821  0.00  0.00     0.018 A 
ATOM     17  H   LIG d   1       5.177   1.099  -3.943  0.00  0.00     0.066 H 
ATOM     18  C   LIG d   1       4.515  -2.056  -2.855  0.00  0.00    -0.048 A 
ATOM     19  C   LIG d   1       4.806  -2.746  -4.010  0.00  0.00    -0.015 A 
ATOM     20  H   LIG d   1       4.184  -2.588  -1.975  0.00  0.00     0.063 H 
ATOM     21  H   LIG d   1       4.705  -3.821  -4.034  0.00  0.00     0.066 H 
BRANCH  14  22
ATOM     22  O   LIG d   1       5.782  -0.014  -6.229  0.00  0.00    -0.491 OA
BRANCH  22  23
ATOM     23  C   LIG d   1       7.172   0.312  -6.308  0.00  0.00     0.079 C 
ATOM     24  H   LIG d   1       7.536   0.590  -5.319  0.00  0.00     0.066 H 
ATOM     25  H   LIG d   1       7.727  -0.553  -6.669  0.00  0.00     0.066 H 
ATOM     26  H   LIG d   1       7.310   1.146  -6.995  0.00  0.00     0.066 H 
ENDBRANCH  22  23
ENDBRANCH  14  22
BRANCH  16  27
ATOM     27  C   LIG d   1       4.335   0.078  -1.591  0.00  0.00     0.150 C 
ATOM     28  O   LIG d   1       4.818   1.176  -1.405  0.00  0.00    -0.296 OA
ATOM     29  H   LIG d   1       3.679  -0.356  -0.852  0.00  0.00     0.108 H 
ENDBRANCH  16  27
ENDBRANCH  12  13
ENDBRANCH  10  12
BRANCH   1  30
ATOM     30  N   LIG d   1       3.494  -2.197  -8.220  0.00  0.00    -0.303 N 
ATOM     31  C   LIG d   1       4.012  -1.217  -8.985  0.00  0.00     0.210 C 
ATOM     32  O   LIG d   1       5.038  -1.407  -9.602  0.00  0.00    -0.276 OA
ATOM     33  H   LIG d   1       2.672  -2.046  -7.727  0.00  0.00     0.149 HD
BRANCH  31  34
ATOM     34  C   LIG d   1       3.315   0.117  -9.075  0.00  0.00     0.012 C 
ATOM     35  H   LIG d   1       4.028   0.880  -9.386  0.00  0.00     0.032 H 
ATOM     36  H   LIG d   1       2.507   0.057  -9.805  0.00  0.00     0.032 H 
ATOM     37  H   LIG d   1       2.904   0.378  -8.100  0.00  0.00     0.032 H 
ENDBRANCH  31  34
ENDBRANCH   1  30
BRANCH   3  38
ATOM     38  O   LIG d   1       2.867  -4.405  -9.980  0.00  0.00    -0.456 OA
BRANCH  38  39
ATOM     39  C   LIG d   1       1.591  -4.091 -10.250  0.00  0.00     0.304 C 
ATOM     40  O   LIG d   1       1.217  -2.945 -10.155  0.00  0.00    -0.251 OA
BRANCH  39  41
ATOM     41  C   LIG d   1       0.622  -5.165 -10.670  0.00  0.00     0.033 C 
ATOM     42  H   LIG d   1      -0.397  -4.835 -10.469  0.00  0.00     0.034 H 
ATOM     43  H   LIG d   1       0.736  -5.361 -11.736  0.00  0.00     0.034 H 
ATOM     44  H   LIG d   1       0.826  -6.077 -10.109  0.00  0.00     0.034 H 
ENDBRANCH  39  41
ENDBRANCH  38  39
ENDBRANCH   3  38
BRANCH   7  45
ATOM     45  C   LIG d   1       5.090  -7.448  -6.792  0.00  0.00     0.122 C 
ATOM     46  H   LIG d   1       5.352  -7.842  -7.773  0.00  0.00     0.072 H 
ATOM     47  H   LIG d   1       5.999  -7.283  -6.212  0.00  0.00     0.072 H 
BRANCH  45  48
ATOM     48  O   LIG d   1       4.240  -8.400  -6.099  0.00  0.00    -0.462 OA
BRANCH  48  49
ATOM     49  C   LIG d   1       4.693  -8.885  -4.932  0.00  0.00     0.304 C 
ATOM     50  O   LIG d   1       3.922  -9.380  -4.144  0.00  0.00    -0.251 OA
BRANCH  49  51
ATOM     51  C   LIG d   1       6.162  -8.812  -4.605  0.00  0.00     0.033 C 
ATOM     52  H   LIG d   1       6.497  -9.776  -4.220  0.00  0.00     0.034 H 
ATOM     53  H   LIG d   1       6.723  -8.565  -5.506  0.00  0.00     0.034 H 
ATOM     54  H   LIG d   1       6.328  -8.042  -3.851  0.00  0.00     0.034 H 
ENDBRANCH  49  51
ENDBRANCH  48  49
ENDBRANCH  45  48
ENDBRANCH   7  45
BRANCH   5  55
ATOM     55  O   LIG d   1       2.989  -7.022  -8.771  0.00  0.00    -0.455 OA
BRANCH  55  56
ATOM     56  C   LIG d   1       3.290  -7.751  -9.856  0.00  0.00     0.304 C 
ATOM     57  O   LIG d   1       4.394  -7.684 -10.342  0.00  0.00    -0.251 OA
BRANCH  56  58
ATOM     58  C   LIG d   1       2.251  -8.654 -10.470  0.00  0.00     0.033 C 
ATOM     59  H   LIG d   1       2.177  -8.450 -11.539  0.00  0.00     0.034 H 
ATOM     60  H   LIG d   1       2.538  -9.695 -10.317  0.00  0.00     0.034 H 
ATOM     61  H   LIG d   1       1.285  -8.471  -9.997  0.00  0.00     0.034 H 
ENDBRANCH  56  58
ENDBRANCH  55  56
ENDBRANCH   5  55
TORSDOF 17
ENDMDL
MODEL 4
REMARK VINA RESULT:      -5.4      5.443      9.569
REMARK  17 active torsions:
REMARK  status: ('A' for Active; 'I' for Inactive)
REMARK    1  A    between atoms: C_1  and  C_2 
REMARK       I    between atoms: C_2  and  N_4 
REMARK    2  A    between atoms: N_4  and  C_5 
REMARK    3  A    between atoms: C_7  and  O_36 
REMARK    4  A    between atoms: C_9  and  O_32 
REMARK    5  A    between atoms: C_11  and  C_27 
REMARK    6  A    between atoms: C_14  and  O_16 
REMARK    7  A    between atoms: O_16  and  C_17 
REMARK    8  A    between atoms: C_20  and  C_25 
REMARK    9  A    between atoms: C_22  and  O_23 
REMARK   10  A    between atoms: O_23  and  C_24 
REMARK   11  A    between atoms: C_27  and  O_28 
REMARK   12  A    between atoms: O_28  and  C_29 
REMARK   13  A    between atoms: C_29  and  C_31 
REMARK   14  A    between atoms: O_32  and  C_33 
REMARK   15  A    between atoms: C_33  and  C_35 
REMARK   16  A    between atoms: O_36  and  C_37 
REMARK   17  A    between atoms: C_37  and  C_39 
ROOT
ATOM      1  C   LIG d   1      10.709   1.514  -4.459  0.00  0.00     0.126 C 
ATOM      2  H   LIG d   1      10.725   1.917  -5.471  0.00  0.00     0.060 H 
ATOM      3  C   LIG d   1      11.805   2.185  -3.624  0.00  0.00     0.166 C 
ATOM      4  H   LIG d   1      11.821   1.749  -2.626  0.00  0.00     0.079 H 
ATOM      5  C   LIG d   1      11.506   3.685  -3.521  0.00  0.00     0.171 C 
ATOM      6  H   LIG d   1      11.538   4.132  -4.516  0.00  0.00     0.080 H 
ATOM      7  C   LIG d   1      10.113   3.880  -2.918  0.00  0.00     0.137 C 
ATOM      8  H   LIG d   1      10.094   3.469  -1.908  0.00  0.00     0.067 H 
ATOM      9  O   LIG d   1       9.146   3.205  -3.724  0.00  0.00    -0.330 OA
ATOM     10  C   LIG d   1       9.347   1.793  -3.818  0.00  0.00     0.225 C 
ATOM     11  H   LIG d   1       9.318   1.355  -2.820  0.00  0.00     0.108 H 
ENDROOT
BRANCH  10  12
ATOM     12  O   LIG d   1       8.315   1.217  -4.623  0.00  0.00    -0.458 OA
BRANCH  12  13
ATOM     13  C   LIG d   1       7.329   0.549  -3.973  0.00  0.00     0.165 A 
ATOM     14  C   LIG d   1       7.312  -0.846  -3.981  0.00  0.00     0.162 A 
ATOM     15  C   LIG d   1       6.307  -1.527  -3.325  0.00  0.00    -0.006 A 
ATOM     16  C   LIG d   1       5.308  -0.816  -2.648  0.00  0.00     0.018 A 
ATOM     17  H   LIG d   1       6.289  -2.607  -3.334  0.00  0.00     0.066 H 
ATOM     18  C   LIG d   1       5.336   0.585  -2.640  0.00  0.00    -0.048 A 
ATOM     19  C   LIG d   1       6.343   1.256  -3.296  0.00  0.00    -0.015 A 
ATOM     20  H   LIG d   1       4.569   1.137  -2.118  0.00  0.00     0.063 H 
ATOM     21  H   LIG d   1       6.363   2.336  -3.289  0.00  0.00     0.066 H 
BRANCH  14  22
ATOM     22  O   LIG d   1       8.282  -1.533  -4.639  0.00  0.00    -0.491 OA
BRANCH  22  23
ATOM     23  C   LIG d   1       8.284  -2.956  -4.491  0.00  0.00     0.079 C 
ATOM     24  H   LIG d   1       7.519  -3.246  -3.770  0.00  0.00     0.066 H 
ATOM     25  H   LIG d   1       8.073  -3.422  -5.453  0.00  0.00     0.066 H 
ATOM     26  H   LIG d   1       9.262  -3.282  -4.136  0.00  0.00     0.066 H 
ENDBRANCH  22  23
ENDBRANCH  14  22
BRANCH  16  27
ATOM     27  C   LIG d   1       4.236  -1.535  -1.948  0.00  0.00     0.150 C 
ATOM     28  O   LIG d   1       3.647  -2.438  -2.506  0.00  0.00    -0.296 OA
ATOM     29  H   LIG d   1       3.971  -1.260  -0.938  0.00  0.00     0.108 H 
ENDBRANCH  16  27
ENDBRANCH  12  13
ENDBRANCH  10  12
BRANCH   1  30
ATOM     30  N   LIG d   1      10.943   0.069  -4.503  0.00  0.00    -0.303 N 
ATOM     31  C   LIG d   1      11.372  -0.509  -5.642  0.00  0.00     0.210 C 
ATOM     32  O   LIG d   1      11.565   0.166  -6.630  0.00  0.00    -0.276 OA
ATOM     33  H   LIG d   1      10.789  -0.471  -3.712  0.00  0.00     0.149 HD
BRANCH  31  34
ATOM     34  C   LIG d   1      11.612  -1.997  -5.688  0.00  0.00     0.012 C 
ATOM     35  H   LIG d   1      12.569  -2.196  -6.170  0.00  0.00     0.032 H 
ATOM     36  H   LIG d   1      11.628  -2.394  -4.673  0.00  0.00     0.032 H 
ATOM     37  H   LIG d   1      10.814  -2.476  -6.253  0.00  0.00     0.032 H 
ENDBRANCH  31  34
ENDBRANCH   1  30
BRANCH   3  38
ATOM     38  O   LIG d   1      13.093   1.988  -4.263  0.00  0.00    -0.456 OA
BRANCH  38  39
ATOM     39  C   LIG d   1      14.029   1.335  -3.558  0.00  0.00     0.304 C 
ATOM     40  O   LIG d   1      13.869   0.171  -3.273  0.00  0.00    -0.251 OA
BRANCH  39  41
ATOM     41  C   LIG d   1      15.280   2.052  -3.120  0.00  0.00     0.033 C 
ATOM     42  H   LIG d   1      16.129   1.686  -3.696  0.00  0.00     0.034 H 
ATOM     43  H   LIG d   1      15.163   3.123  -3.286  0.00  0.00     0.034 H 
ATOM     44  H   LIG d   1      15.453   1.865  -2.060  0.00  0.00     0.034 H 
ENDBRANCH  39  41
ENDBRANCH  38  39
ENDBRANCH   3  38
BRANCH   7  45
ATOM     45  C   LIG d   1       9.783   5.373  -2.867  0.00  0.00     0.122 C 
ATOM     46  H   LIG d   1      10.477   5.921  -3.503  0.00  0.00     0.072 H 
ATOM     47  H   LIG d   1       8.763   5.532  -3.221  0.00  0.00     0.072 H 
BRANCH  45  48
ATOM     48  O   LIG d   1       9.900   5.849  -1.500  0.00  0.00    -0.462 OA
BRANCH  48  49
ATOM     49  C   LIG d   1       9.807   7.174  -1.305  0.00  0.00     0.304 C 
ATOM     50  O   LIG d   1       8.765   7.657  -0.929  0.00  0.00    -0.251 OA
BRANCH  49  51
ATOM     51  C   LIG d   1      11.000   8.058  -1.556  0.00  0.00     0.033 C 
ATOM     52  H   LIG d   1      11.494   7.750  -2.477  0.00  0.00     0.034 H 
ATOM     53  H   LIG d   1      10.672   9.094  -1.649  0.00  0.00     0.034 H 
ATOM     54  H   LIG d   1      11.697   7.972  -0.723  0.00  0.00     0.034 H 
ENDBRANCH  49  51
ENDBRANCH  48  49
ENDBRANCH  45  48
ENDBRANCH   7  45
BRANCH   5  55
ATOM     55  O   LIG d   1      12.496   4.320  -2.671  0.00  0.00    -0.455 OA
BRANCH  55  56
ATOM     56  C   LIG d   1      13.285   5.244  -3.241  0.00  0.00     0.304 C 
ATOM     57  O   LIG d   1      13.257   5.408  -4.437  0.00  0.00    -0.251 OA
BRANCH  56  58
ATOM     58  C   LIG d   1      14.206   6.079  -2.387  0.00  0.00     0.033 C 
ATOM     59  H   LIG d   1      14.320   5.609  -1.410  0.00  0.00     0.034 H 
ATOM     60  H   LIG d   1      15.180   6.155  -2.870  0.00  0.00     0.034 H 
ATOM     61  H   LIG d   1      13.783   7.076  -2.264  0.00  0.00     0.034 H 
ENDBRANCH  56  58
ENDBRANCH  55  56
ENDBRANCH   5  55
TORSDOF 17
ENDMDL
MODEL 5
REMARK VINA RESULT:      -5.3      1.979      7.525
REMARK  17 active torsions:
REMARK  status: ('A' for Active; 'I' for Inactive)
REMARK    1  A    between atoms: C_1  and  C_2 
REMARK       I    between atoms: C_2  and  N_4 
REMARK    2  A    between atoms: N_4  and  C_5 
REMARK    3  A    between atoms: C_7  and  O_36 
REMARK    4  A    between atoms: C_9  and  O_32 
REMARK    5  A    between atoms: C_11  and  C_27 
REMARK    6  A    between atoms: C_14  and  O_16 
REMARK    7  A    between atoms: O_16  and  C_17 
REMARK    8  A    between atoms: C_20  and  C_25 
REMARK    9  A    between atoms: C_22  and  O_23 
REMARK   10  A    between atoms: O_23  and  C_24 
REMARK   11  A    between atoms: C_27  and  O_28 
REMARK   12  A    between atoms: O_28  and  C_29 
REMARK   13  A    between atoms: C_29  and  C_31 
REMARK   14  A    between atoms: O_32  and  C_33 
REMARK   15  A    between atoms: C_33  and  C_35 
REMARK   16  A    between atoms: O_36  and  C_37 
REMARK   17  A    between atoms: C_37  and  C_39 
ROOT
ATOM      1  C   LIG d   1       4.932  -0.839  -7.697  0.00  0.00     0.126 C 
ATOM      2  H   LIG d   1       4.041  -0.348  -7.308  0.00  0.00     0.060 H 
ATOM      3  C   LIG d   1       6.181  -0.186  -7.095  0.00  0.00     0.166 C 
ATOM      4  H   LIG d   1       7.074  -0.644  -7.520  0.00  0.00     0.079 H 
ATOM      5  C   LIG d   1       6.172  -0.397  -5.577  0.00  0.00     0.171 C 
ATOM      6  H   LIG d   1       5.305   0.104  -5.145  0.00  0.00     0.080 H 
ATOM      7  C   LIG d   1       6.098  -1.896  -5.278  0.00  0.00     0.137 C 
ATOM      8  H   LIG d   1       6.985  -2.389  -5.675  0.00  0.00     0.067 H 
ATOM      9  O   LIG d   1       4.932  -2.447  -5.892  0.00  0.00    -0.330 OA
ATOM     10  C   LIG d   1       4.907  -2.322  -7.315  0.00  0.00     0.225 C 
ATOM     11  H   LIG d   1       5.779  -2.821  -7.739  0.00  0.00     0.108 H 
ENDROOT
BRANCH  10  12
ATOM     12  O   LIG d   1       3.717  -2.925  -7.827  0.00  0.00    -0.458 OA
BRANCH  12  13
ATOM     13  C   LIG d   1       3.858  -4.101  -8.489  0.00  0.00     0.165 A 
ATOM     14  C   LIG d   1       3.721  -5.307  -7.800  0.00  0.00     0.162 A 
ATOM     15  C   LIG d   1       3.869  -6.505  -8.469  0.00  0.00    -0.006 A 
ATOM     16  C   LIG d   1       4.152  -6.507  -9.841  0.00  0.00     0.018 A 
ATOM     17  H   LIG d   1       3.768  -7.439  -7.937  0.00  0.00     0.066 H 
ATOM     18  C   LIG d   1       4.281  -5.292 -10.526  0.00  0.00    -0.048 A 
ATOM     19  C   LIG d   1       4.131  -4.102  -9.850  0.00  0.00    -0.015 A 
ATOM     20  H   LIG d   1       4.498  -5.289 -11.584  0.00  0.00     0.063 H 
ATOM     21  H   LIG d   1       4.231  -3.166 -10.380  0.00  0.00     0.066 H 
BRANCH  14  22
ATOM     22  O   LIG d   1       3.448  -5.301  -6.468  0.00  0.00    -0.491 OA
BRANCH  22  23
ATOM     23  C   LIG d   1       4.460  -5.808  -5.596  0.00  0.00     0.079 C 
ATOM     24  H   LIG d   1       4.847  -4.997  -4.979  0.00  0.00     0.066 H 
ATOM     25  H   LIG d   1       4.035  -6.581  -4.956  0.00  0.00     0.066 H 
ATOM     26  H   LIG d   1       5.271  -6.233  -6.188  0.00  0.00     0.066 H 
ENDBRANCH  22  23
ENDBRANCH  14  22
BRANCH  16  27
ATOM     27  C   LIG d   1       4.311  -7.778 -10.559  0.00  0.00     0.150 C 
ATOM     28  O   LIG d   1       4.360  -8.821  -9.942  0.00  0.00    -0.296 OA
ATOM     29  H   LIG d   1       4.385  -7.784 -11.636  0.00  0.00     0.108 H 
ENDBRANCH  16  27
ENDBRANCH  12  13
ENDBRANCH  10  12
BRANCH   1  30
ATOM     30  N   LIG d   1       4.966  -0.709  -9.155  0.00  0.00    -0.303 N 
ATOM     31  C   LIG d   1       3.972  -0.064  -9.797  0.00  0.00     0.210 C 
ATOM     32  O   LIG d   1       3.050   0.409  -9.168  0.00  0.00    -0.276 OA
ATOM     33  H   LIG d   1       5.704  -1.087  -9.659  0.00  0.00     0.149 HD
BRANCH  31  34
ATOM     34  C   LIG d   1       4.007   0.070 -11.298  0.00  0.00     0.012 C 
ATOM     35  H   LIG d   1       4.820  -0.535 -11.699  0.00  0.00     0.032 H 
ATOM     36  H   LIG d   1       3.060  -0.273 -11.716  0.00  0.00     0.032 H 
ATOM     37  H   LIG d   1       4.164   1.114 -11.566  0.00  0.00     0.032 H 
ENDBRANCH  31  34
ENDBRANCH   1  30
BRANCH   3  38
ATOM     38  O   LIG d   1       6.176   1.235  -7.389  0.00  0.00    -0.456 OA
BRANCH  38  39
ATOM     39  C   LIG d   1       7.125   1.688  -8.223  0.00  0.00     0.304 C 
ATOM     40  O   LIG d   1       6.898   1.773  -9.408  0.00  0.00    -0.251 OA
BRANCH  39  41
ATOM     41  C   LIG d   1       8.473   2.091  -7.685  0.00  0.00     0.033 C 
ATOM     42  H   LIG d   1       8.451   3.141  -7.397  0.00  0.00     0.034 H 
ATOM     43  H   LIG d   1       8.715   1.480  -6.815  0.00  0.00     0.034 H 
ATOM     44  H   LIG d   1       9.231   1.941  -8.454  0.00  0.00     0.034 H 
ENDBRANCH  39  41
ENDBRANCH  38  39
ENDBRANCH   3  38
BRANCH   7  45
ATOM     45  C   LIG d   1       6.029  -2.111  -3.765  0.00  0.00     0.122 C 
ATOM     46  H   LIG d   1       6.684  -2.936  -3.485  0.00  0.00     0.072 H 
ATOM     47  H   LIG d   1       6.349  -1.203  -3.253  0.00  0.00     0.072 H 
BRANCH  45  48
ATOM     48  O   LIG d   1       4.663  -2.426  -3.382  0.00  0.00    -0.462 OA
BRANCH  48  49
ATOM     49  C   LIG d   1       4.014  -1.517  -2.637  0.00  0.00     0.304 C 
ATOM     50  O   LIG d   1       4.439  -1.216  -1.546  0.00  0.00    -0.251 OA
BRANCH  49  51
ATOM     51  C   LIG d   1       2.757  -0.874  -3.160  0.00  0.00     0.033 C 
ATOM     52  H   LIG d   1       1.907  -1.195  -2.558  0.00  0.00     0.034 H 
ATOM     53  H   LIG d   1       2.852   0.210  -3.104  0.00  0.00     0.034 H 
ATOM     54  H   LIG d   1       2.601  -1.171  -4.197  0.00  0.00     0.034 H 
ENDBRANCH  49  51
ENDBRANCH  48  49
ENDBRANCH  45  48
ENDBRANCH   7  45
BRANCH   5  55
ATOM     55  O   LIG d   1       7.386   0.154  -5.004  0.00  0.00    -0.455 OA
BRANCH  55  56
ATOM     56  C   LIG d   1       7.246   1.172  -4.141  0.00  0.00     0.304 C 
ATOM     57  O   LIG d   1       6.170   1.394  -3.638  0.00  0.00    -0.251 OA
BRANCH  56  58
ATOM     58  C   LIG d   1       8.431   2.038  -3.798  0.00  0.00     0.033 C 
ATOM     59  H   LIG d   1       9.323   1.643  -4.285  0.00  0.00     0.034 H 
ATOM     60  H   LIG d   1       8.249   3.056  -4.143  0.00  0.00     0.034 H 
ATOM     61  H   LIG d   1       8.578   2.042  -2.717  0.00  0.00     0.034 H 
ENDBRANCH  56  58
ENDBRANCH  55  56
ENDBRANCH   5  55
TORSDOF 17
ENDMDL
MODEL 6
REMARK VINA RESULT:      -5.3      9.223     13.365
REMARK  17 active torsions:
REMARK  status: ('A' for Active; 'I' for Inactive)
REMARK    1  A    between atoms: C_1  and  C_2 
REMARK       I    between atoms: C_2  and  N_4 
REMARK    2  A    between atoms: N_4  and  C_5 
REMARK    3  A    between atoms: C_7  and  O_36 
REMARK    4  A    between atoms: C_9  and  O_32 
REMARK    5  A    between atoms: C_11  and  C_27 
REMARK    6  A    between atoms: C_14  and  O_16 
REMARK    7  A    between atoms: O_16  and  C_17 
REMARK    8  A    between atoms: C_20  and  C_25 
REMARK    9  A    between atoms: C_22  and  O_23 
REMARK   10  A    between atoms: O_23  and  C_24 
REMARK   11  A    between atoms: C_27  and  O_28 
REMARK   12  A    between atoms: O_28  and  C_29 
REMARK   13  A    between atoms: C_29  and  C_31 
REMARK   14  A    between atoms: O_32  and  C_33 
REMARK   15  A    between atoms: C_33  and  C_35 
REMARK   16  A    between atoms: O_36  and  C_37 
REMARK   17  A    between atoms: C_37  and  C_39 
ROOT
ATOM      1  C   LIG d   1      10.366   9.434  -4.143  0.00  0.00     0.126 C 
ATOM      2  H   LIG d   1      11.416   9.719  -4.095  0.00  0.00     0.060 H 
ATOM      3  C   LIG d   1       9.555  10.572  -4.773  0.00  0.00     0.166 C 
ATOM      4  H   LIG d   1       8.498  10.308  -4.777  0.00  0.00     0.079 H 
ATOM      5  C   LIG d   1      10.033  10.787  -6.213  0.00  0.00     0.171 C 
ATOM      6  H   LIG d   1      11.079  11.099  -6.207  0.00  0.00     0.080 H 
ATOM      7  C   LIG d   1       9.897   9.475  -6.990  0.00  0.00     0.137 C 
ATOM      8  H   LIG d   1       8.846   9.185  -7.030  0.00  0.00     0.067 H 
ATOM      9  O   LIG d   1      10.648   8.452  -6.333  0.00  0.00    -0.330 OA
ATOM     10  C   LIG d   1      10.215   8.175  -5.000  0.00  0.00     0.225 C 
ATOM     11  H   LIG d   1       9.169   7.867  -5.015  0.00  0.00     0.108 H 
ENDROOT
BRANCH  10  12
ATOM     12  O   LIG d   1      11.013   7.125  -4.448  0.00  0.00    -0.458 OA
BRANCH  12  13
ATOM     13  C   LIG d   1      10.436   5.900  -4.349  0.00  0.00     0.165 A 
ATOM     14  C   LIG d   1      10.182   5.352  -3.091  0.00  0.00     0.162 A 
ATOM     15  C   LIG d   1       9.600   4.105  -2.987  0.00  0.00    -0.006 A 
ATOM     16  C   LIG d   1       9.260   3.395  -4.145  0.00  0.00     0.018 A 
ATOM     17  H   LIG d   1       9.407   3.676  -2.014  0.00  0.00     0.066 H 
ATOM     18  C   LIG d   1       9.513   3.956  -5.404  0.00  0.00    -0.048 A 
ATOM     19  C   LIG d   1      10.093   5.200  -5.498  0.00  0.00    -0.015 A 
ATOM     20  H   LIG d   1       9.251   3.412  -6.299  0.00  0.00     0.063 H 
ATOM     21  H   LIG d   1      10.287   5.631  -6.469  0.00  0.00     0.066 H 
BRANCH  14  22
ATOM     22  O   LIG d   1      10.514   6.044  -1.969  0.00  0.00    -0.491 OA
BRANCH  22  23
ATOM     23  C   LIG d   1      11.582   5.520  -1.176  0.00  0.00     0.079 C 
ATOM     24  H   LIG d   1      11.924   6.284  -0.478  0.00  0.00     0.066 H 
ATOM     25  H   LIG d   1      11.229   4.652  -0.619  0.00  0.00     0.066 H 
ATOM     26  H   LIG d   1      12.405   5.224  -1.826  0.00  0.00     0.066 H 
ENDBRANCH  22  23
ENDBRANCH  14  22
BRANCH  16  27
ATOM     27  C   LIG d   1       8.641   2.068  -4.041  0.00  0.00     0.150 C 
ATOM     28  O   LIG d   1       7.480   1.913  -4.358  0.00  0.00    -0.296 OA
ATOM     29  H   LIG d   1       9.219   1.229  -3.680  0.00  0.00     0.108 H 
ENDBRANCH  16  27
ENDBRANCH  12  13
ENDBRANCH  10  12
BRANCH   1  30
ATOM     30  N   LIG d   1       9.868   9.169  -2.791  0.00  0.00    -0.303 N 
ATOM     31  C   LIG d   1      10.649   9.424  -1.724  0.00  0.00     0.210 C 
ATOM     32  O   LIG d   1      11.764   9.874  -1.881  0.00  0.00    -0.276 OA
ATOM     33  H   LIG d   1       8.976   8.810  -2.665  0.00  0.00     0.149 HD
BRANCH  31  34
ATOM     34  C   LIG d   1      10.138   9.151  -0.332  0.00  0.00     0.012 C 
ATOM     35  H   LIG d   1       9.115   9.518  -0.242  0.00  0.00     0.032 H 
ATOM     36  H   LIG d   1      10.156   8.078  -0.142  0.00  0.00     0.032 H 
ATOM     37  H   LIG d   1      10.772   9.660   0.394  0.00  0.00     0.032 H 
ENDBRANCH  31  34
ENDBRANCH   1  30
BRANCH   3  38
ATOM     38  O   LIG d   1       9.750  11.790  -4.008  0.00  0.00    -0.456 OA
BRANCH  38  39
ATOM     39  C   LIG d   1       8.664  12.327  -3.431  0.00  0.00     0.304 C 
ATOM     40  O   LIG d   1       7.723  11.625  -3.142  0.00  0.00    -0.251 OA
BRANCH  39  41
ATOM     41  C   LIG d   1       8.617  13.805  -3.144  0.00  0.00     0.033 C 
ATOM     42  H   LIG d   1       8.369  13.964  -2.095  0.00  0.00     0.034 H 
ATOM     43  H   LIG d   1       9.589  14.249  -3.358  0.00  0.00     0.034 H 
ATOM     44  H   LIG d   1       7.858  14.273  -3.771  0.00  0.00     0.034 H 
ENDBRANCH  39  41
ENDBRANCH  38  39
ENDBRANCH   3  38
BRANCH   7  45
ATOM     45  C   LIG d   1      10.428   9.666  -8.412  0.00  0.00     0.122 C 
ATOM     46  H   LIG d   1      10.438  10.727  -8.657  0.00  0.00     0.072 H 
ATOM     47  H   LIG d   1      11.442   9.268  -8.477  0.00  0.00     0.072 H 
BRANCH  45  48
ATOM     48  O   LIG d   1       9.570   8.961  -9.348  0.00  0.00    -0.462 OA
BRANCH  48  49
ATOM     49  C   LIG d   1       9.922   7.707  -9.672  0.00  0.00     0.304 C 
ATOM     50  O   LIG d   1      10.898   7.511 -10.358  0.00  0.00    -0.251 OA
BRANCH  49  51
ATOM     51  C   LIG d   1       9.101   6.543  -9.181  0.00  0.00     0.033 C 
ATOM     52  H   LIG d   1       8.434   6.878  -8.387  0.00  0.00     0.034 H 
ATOM     53  H   LIG d   1       8.513   6.139 -10.005  0.00  0.00     0.034 H 
ATOM     54  H   LIG d   1       9.765   5.768  -8.795  0.00  0.00     0.034 H 
ENDBRANCH  49  51
ENDBRANCH  48  49
ENDBRANCH  45  48
ENDBRANCH   7  45
BRANCH   5  55
ATOM     55  O   LIG d   1       9.224  11.812  -6.845  0.00  0.00    -0.455 OA
BRANCH  55  56
ATOM     56  C   LIG d   1       9.874  12.847  -7.398  0.00  0.00     0.304 C 
ATOM     57  O   LIG d   1       9.349  13.493  -8.273  0.00  0.00    -0.251 OA
BRANCH  56  58
ATOM     58  C   LIG d   1      11.261  13.204  -6.928  0.00  0.00     0.033 C 
ATOM     59  H   LIG d   1      11.878  13.472  -7.787  0.00  0.00     0.034 H 
ATOM     60  H   LIG d   1      11.206  14.049  -6.241  0.00  0.00     0.034 H 
ATOM     61  H   LIG d   1      11.703  12.348  -6.416  0.00  0.00     0.034 H 
ENDBRANCH  56  58
ENDBRANCH  55  56
ENDBRANCH   5  55
TORSDOF 17
ENDMDL
MODEL 7
REMARK VINA RESULT:      -5.2      8.510     12.887
REMARK  17 active torsions:
REMARK  status: ('A' for Active; 'I' for Inactive)
REMARK    1  A    between atoms: C_1  and  C_2 
REMARK       I    between atoms: C_2  and  N_4 
REMARK    2  A    between atoms: N_4  and  C_5 
REMARK    3  A    between atoms: C_7  and  O_36 
REMARK    4  A    between atoms: C_9  and  O_32 
REMARK    5  A    between atoms: C_11  and  C_27 
REMARK    6  A    between atoms: C_14  and  O_16 
REMARK    7  A    between atoms: O_16  and  C_17 
REMARK    8  A    between atoms: C_20  and  C_25 
REMARK    9  A    between atoms: C_22  and  O_23 
REMARK   10  A    between atoms: O_23  and  C_24 
REMARK   11  A    between atoms: C_27  and  O_28 
REMARK   12  A    between atoms: O_28  and  C_29 
REMARK   13  A    between atoms: C_29  and  C_31 
REMARK   14  A    between atoms: O_32  and  C_33 
REMARK   15  A    between atoms: C_33  and  C_35 
REMARK   16  A    between atoms: O_36  and  C_37 
REMARK   17  A    between atoms: C_37  and  C_39 
ROOT
ATOM      1  C   LIG d   1      10.264   6.931  -3.046  0.00  0.00     0.126 C 
ATOM      2  H   LIG d   1       9.304   6.492  -2.778  0.00  0.00     0.060 H 
ATOM      3  C   LIG d   1      11.372   5.888  -2.868  0.00  0.00     0.166 C 
ATOM      4  H   LIG d   1      12.338   6.341  -3.089  0.00  0.00     0.079 H 
ATOM      5  C   LIG d   1      11.120   4.723  -3.831  0.00  0.00     0.171 C 
ATOM      6  H   LIG d   1      10.176   4.239  -3.578  0.00  0.00     0.080 H 
ATOM      7  C   LIG d   1      11.052   5.260  -5.263  0.00  0.00     0.137 C 
ATOM      8  H   LIG d   1      12.010   5.708  -5.529  0.00  0.00     0.067 H 
ATOM      9  O   LIG d   1      10.024   6.248  -5.352  0.00  0.00    -0.330 OA
ATOM     10  C   LIG d   1      10.230   7.383  -4.509  0.00  0.00     0.225 C 
ATOM     11  H   LIG d   1      11.177   7.858  -4.765  0.00  0.00     0.108 H 
ENDROOT
BRANCH  10  12
ATOM     12  O   LIG d   1       9.163   8.315  -4.694  0.00  0.00    -0.458 OA
BRANCH  12  13
ATOM     13  C   LIG d   1       9.425   9.408  -5.456  0.00  0.00     0.165 A 
ATOM     14  C   LIG d   1       9.476  10.671  -4.865  0.00  0.00     0.162 A 
ATOM     15  C   LIG d   1       9.737  11.784  -5.637  0.00  0.00    -0.006 A 
ATOM     16  C   LIG d   1       9.956  11.643  -7.013  0.00  0.00     0.018 A 
ATOM     17  H   LIG d   1       9.772  12.763  -5.182  0.00  0.00     0.066 H 
ATOM     18  C   LIG d   1       9.910  10.370  -7.597  0.00  0.00    -0.048 A 
ATOM     19  C   LIG d   1       9.649   9.265  -6.819  0.00  0.00    -0.015 A 
ATOM     20  H   LIG d   1      10.079  10.257  -8.658  0.00  0.00     0.063 H 
ATOM     21  H   LIG d   1       9.613   8.285  -7.271  0.00  0.00     0.066 H 
BRANCH  14  22
ATOM     22  O   LIG d   1       9.262  10.805  -3.529  0.00  0.00    -0.491 OA
BRANCH  22  23
ATOM     23  C   LIG d   1       8.310  11.790  -3.120  0.00  0.00     0.079 C 
ATOM     24  H   LIG d   1       7.533  11.316  -2.519  0.00  0.00     0.066 H 
ATOM     25  H   LIG d   1       8.811  12.556  -2.528  0.00  0.00     0.066 H 
ATOM     26  H   LIG d   1       7.860  12.248  -4.001  0.00  0.00     0.066 H 
ENDBRANCH  22  23
ENDBRANCH  14  22
BRANCH  16  27
ATOM     27  C   LIG d   1      10.235  12.823  -7.840  0.00  0.00     0.150 C 
ATOM     28  O   LIG d   1       9.319  13.453  -8.327  0.00  0.00    -0.296 OA
ATOM     29  H   LIG d   1      11.255  13.130  -8.017  0.00  0.00     0.108 H 
ENDBRANCH  16  27
ENDBRANCH  12  13
ENDBRANCH  10  12
BRANCH   1  30
ATOM     30  N   LIG d   1      10.534   8.084  -2.184  0.00  0.00    -0.303 N 
ATOM     31  C   LIG d   1       9.701   8.372  -1.165  0.00  0.00     0.210 C 
ATOM     32  O   LIG d   1       8.729   7.677  -0.960  0.00  0.00    -0.276 OA
ATOM     33  H   LIG d   1      11.311   8.641  -2.347  0.00  0.00     0.149 HD
BRANCH  31  34
ATOM     34  C   LIG d   1       9.977   9.559  -0.277  0.00  0.00     0.012 C 
ATOM     35  H   LIG d   1       9.659   9.334   0.741  0.00  0.00     0.032 H 
ATOM     36  H   LIG d   1      11.046   9.776  -0.283  0.00  0.00     0.032 H 
ATOM     37  H   LIG d   1       9.429  10.424  -0.647  0.00  0.00     0.032 H 
ENDBRANCH  31  34
ENDBRANCH   1  30
BRANCH   3  38
ATOM     38  O   LIG d   1      11.365   5.400  -1.501  0.00  0.00    -0.456 OA
BRANCH  38  39
ATOM     39  C   LIG d   1      12.429   5.701  -0.741  0.00  0.00     0.304 C 
ATOM     40  O   LIG d   1      12.271   6.110   0.386  0.00  0.00    -0.251 OA
BRANCH  39  41
ATOM     41  C   LIG d   1      13.821   5.530  -1.291  0.00  0.00     0.033 C 
ATOM     42  H   LIG d   1      14.014   4.472  -1.468  0.00  0.00     0.034 H 
ATOM     43  H   LIG d   1      13.912   6.078  -2.228  0.00  0.00     0.034 H 
ATOM     44  H   LIG d   1      14.545   5.915  -0.573  0.00  0.00     0.034 H 
ENDBRANCH  39  41
ENDBRANCH  38  39
ENDBRANCH   3  38
BRANCH   7  45
ATOM     45  C   LIG d   1      10.742   4.111  -6.224  0.00  0.00     0.122 C 
ATOM     46  H   LIG d   1      10.988   4.413  -7.242  0.00  0.00     0.072 H 
ATOM     47  H   LIG d   1      11.335   3.238  -5.950  0.00  0.00     0.072 H 
BRANCH  45  48
ATOM     48  O   LIG d   1       9.330   3.781  -6.146  0.00  0.00    -0.462 OA
BRANCH  48  49
ATOM     49  C   LIG d   1       9.015   2.488  -5.974  0.00  0.00     0.304 C 
ATOM     50  O   LIG d   1       7.971   2.185  -5.444  0.00  0.00    -0.251 OA
BRANCH  49  51
ATOM     51  C   LIG d   1       9.962   1.413  -6.440  0.00  0.00     0.033 C 
ATOM     52  H   LIG d   1       9.455   0.448  -6.421  0.00  0.00     0.034 H 
ATOM     53  H   LIG d   1      10.287   1.631  -7.457  0.00  0.00     0.034 H 
ATOM     54  H   LIG d   1      10.829   1.382  -5.780  0.00  0.00     0.034 H 
ENDBRANCH  49  51
ENDBRANCH  48  49
ENDBRANCH  45  48
ENDBRANCH   7  45
BRANCH   5  55
ATOM     55  O   LIG d   1      12.203   3.762  -3.724  0.00  0.00    -0.455 OA
BRANCH  55  56
ATOM     56  C   LIG d   1      11.869   2.500  -3.416  0.00  0.00     0.304 C 
ATOM     57  O   LIG d   1      10.815   2.269  -2.873  0.00  0.00    -0.251 OA
BRANCH  56  58
ATOM     58  C   LIG d   1      12.809   1.369  -3.747  0.00  0.00     0.033 C 
ATOM     59  H   LIG d   1      13.430   1.147  -2.878  0.00  0.00     0.034 H 
ATOM     60  H   LIG d   1      12.232   0.484  -4.018  0.00  0.00     0.034 H 
ATOM     61  H   LIG d   1      13.445   1.659  -4.584  0.00  0.00     0.034 H 
ENDBRANCH  56  58
ENDBRANCH  55  56
ENDBRANCH   5  55
TORSDOF 17
ENDMDL
MODEL 8
REMARK VINA RESULT:      -5.1     11.801     16.425
REMARK  17 active torsions:
REMARK  status: ('A' for Active; 'I' for Inactive)
REMARK    1  A    between atoms: C_1  and  C_2 
REMARK       I    between atoms: C_2  and  N_4 
REMARK    2  A    between atoms: N_4  and  C_5 
REMARK    3  A    between atoms: C_7  and  O_36 
REMARK    4  A    between atoms: C_9  and  O_32 
REMARK    5  A    between atoms: C_11  and  C_27 
REMARK    6  A    between atoms: C_14  and  O_16 
REMARK    7  A    between atoms: O_16  and  C_17 
REMARK    8  A    between atoms: C_20  and  C_25 
REMARK    9  A    between atoms: C_22  and  O_23 
REMARK   10  A    between atoms: O_23  and  C_24 
REMARK   11  A    between atoms: C_27  and  O_28 
REMARK   12  A    between atoms: O_28  and  C_29 
REMARK   13  A    between atoms: C_29  and  C_31 
REMARK   14  A    between atoms: O_32  and  C_33 
REMARK   15  A    between atoms: C_33  and  C_35 
REMARK   16  A    between atoms: O_36  and  C_37 
REMARK   17  A    between atoms: C_37  and  C_39 
ROOT
ATOM      1  C   LIG d   1      10.466  10.932  -0.312  0.00  0.00     0.126 C 
ATOM      2  H   LIG d   1       9.575  10.997   0.311  0.00  0.00     0.060 H 
ATOM      3  C   LIG d   1      11.443   9.919   0.294  0.00  0.00     0.166 C 
ATOM      4  H   LIG d   1      12.355   9.889  -0.301  0.00  0.00     0.079 H 
ATOM      5  C   LIG d   1      10.788   8.533   0.295  0.00  0.00     0.171 C 
ATOM      6  H   LIG d   1       9.901   8.550   0.931  0.00  0.00     0.080 H 
ATOM      7  C   LIG d   1      10.383   8.168  -1.135  0.00  0.00     0.137 C 
ATOM      8  H   LIG d   1      11.274   8.112  -1.761  0.00  0.00     0.067 H 
ATOM      9  O   LIG d   1       9.501   9.166  -1.651  0.00  0.00    -0.330 OA
ATOM     10  C   LIG d   1      10.075  10.473  -1.719  0.00  0.00     0.225 C 
ATOM     11  H   LIG d   1      10.962  10.447  -2.353  0.00  0.00     0.108 H 
ENDROOT
BRANCH  10  12
ATOM     12  O   LIG d   1       9.122  11.384  -2.270  0.00  0.00    -0.458 OA
BRANCH  12  13
ATOM     13  C   LIG d   1       9.336  11.805  -3.543  0.00  0.00     0.165 A 
ATOM     14  C   LIG d   1       9.602  13.151  -3.794  0.00  0.00     0.162 A 
ATOM     15  C   LIG d   1       9.815  13.583  -5.087  0.00  0.00    -0.006 A 
ATOM     16  C   LIG d   1       9.769  12.666  -6.145  0.00  0.00     0.018 A 
ATOM     17  H   LIG d   1      10.017  14.625  -5.284  0.00  0.00     0.066 H 
ATOM     18  C   LIG d   1       9.506  11.315  -5.883  0.00  0.00    -0.048 A 
ATOM     19  C   LIG d   1       9.296  10.894  -4.589  0.00  0.00    -0.015 A 
ATOM     20  H   LIG d   1       9.471  10.605  -6.696  0.00  0.00     0.063 H 
ATOM     21  H   LIG d   1       9.094   9.852  -4.389  0.00  0.00     0.066 H 
BRANCH  14  22
ATOM     22  O   LIG d   1       9.646  14.039  -2.765  0.00  0.00    -0.491 OA
BRANCH  22  23
ATOM     23  C   LIG d   1       8.477  14.830  -2.540  0.00  0.00     0.079 C 
ATOM     24  H   LIG d   1       8.362  15.547  -3.354  0.00  0.00     0.066 H 
ATOM     25  H   LIG d   1       7.601  14.182  -2.501  0.00  0.00     0.066 H 
ATOM     26  H   LIG d   1       8.576  15.364  -1.595  0.00  0.00     0.066 H 
ENDBRANCH  22  23
ENDBRANCH  14  22
BRANCH  16  27
ATOM     27  C   LIG d   1       9.994  13.119  -7.523  0.00  0.00     0.150 C 
ATOM     28  O   LIG d   1       9.050  13.379  -8.238  0.00  0.00    -0.296 OA
ATOM     29  H   LIG d   1      11.001  13.218  -7.901  0.00  0.00     0.108 H 
ENDBRANCH  16  27
ENDBRANCH  12  13
ENDBRANCH  10  12
BRANCH   1  30
ATOM     30  N   LIG d   1      11.108  12.247  -0.387  0.00  0.00    -0.303 N 
ATOM     31  C   LIG d   1      10.722  13.233   0.447  0.00  0.00     0.210 C 
ATOM     32  O   LIG d   1       9.844  13.032   1.258  0.00  0.00    -0.276 OA
ATOM     33  H   LIG d   1      11.811  12.407  -1.036  0.00  0.00     0.149 HD
BRANCH  31  34
ATOM     34  C   LIG d   1      11.382  14.586   0.370  0.00  0.00     0.012 C 
ATOM     35  H   LIG d   1      11.335  14.956  -0.654  0.00  0.00     0.032 H 
ATOM     36  H   LIG d   1      10.865  15.281   1.032  0.00  0.00     0.032 H 
ATOM     37  H   LIG d   1      12.424  14.499   0.677  0.00  0.00     0.032 H 
ENDBRANCH  31  34
ENDBRANCH   1  30
BRANCH   3  38
ATOM     38  O   LIG d   1      11.762  10.307   1.656  0.00  0.00    -0.456 OA
BRANCH  38  39
ATOM     39  C   LIG d   1      13.062  10.368   1.982  0.00  0.00     0.304 C 
ATOM     40  O   LIG d   1      13.495   9.679   2.876  0.00  0.00    -0.251 OA
BRANCH  39  41
ATOM     41  C   LIG d   1      13.984  11.297   1.236  0.00  0.00     0.033 C 
ATOM     42  H   LIG d   1      14.214  10.873   0.259  0.00  0.00     0.034 H 
ATOM     43  H   LIG d   1      13.500  12.265   1.107  0.00  0.00     0.034 H 
ATOM     44  H   LIG d   1      14.907  11.426   1.802  0.00  0.00     0.034 H 
ENDBRANCH  39  41
ENDBRANCH  38  39
ENDBRANCH   3  38
BRANCH   7  45
ATOM     45  C   LIG d   1       9.675   6.811  -1.134  0.00  0.00     0.122 C 
ATOM     46  H   LIG d   1      10.061   6.200  -0.319  0.00  0.00     0.072 H 
ATOM     47  H   LIG d   1       8.603   6.962  -0.999  0.00  0.00     0.072 H 
BRANCH  45  48
ATOM     48  O   LIG d   1       9.914   6.139  -2.399  0.00  0.00    -0.462 OA
BRANCH  48  49
ATOM     49  C   LIG d   1      10.363   4.876  -2.343  0.00  0.00     0.304 C 
ATOM     50  O   LIG d   1      11.294   4.597  -1.623  0.00  0.00    -0.251 OA
BRANCH  49  51
ATOM     51  C   LIG d   1       9.710   3.805  -3.177  0.00  0.00     0.033 C 
ATOM     52  H   LIG d   1       8.886   3.361  -2.618  0.00  0.00     0.034 H 
ATOM     53  H   LIG d   1       9.329   4.244  -4.099  0.00  0.00     0.034 H 
ATOM     54  H   LIG d   1      10.443   3.035  -3.417  0.00  0.00     0.034 H 
ENDBRANCH  49  51
ENDBRANCH  48  49
ENDBRANCH  45  48
ENDBRANCH   7  45
BRANCH   5  55
ATOM     55  O   LIG d   1      11.730   7.552   0.800  0.00  0.00    -0.455 OA
BRANCH  55  56
ATOM     56  C   LIG d   1      11.359   6.853   1.884  0.00  0.00     0.304 C 
ATOM     57  O   LIG d   1      11.363   7.378   2.972  0.00  0.00    -0.251 OA
BRANCH  56  58
ATOM     58  C   LIG d   1      10.939   5.412   1.745  0.00  0.00     0.033 C 
ATOM     59  H   LIG d   1      11.823   4.773   1.749  0.00  0.00     0.034 H 
ATOM     60  H   LIG d   1      10.290   5.140   2.578  0.00  0.00     0.034 H 
ATOM     61  H   LIG d   1      10.400   5.280   0.806  0.00  0.00     0.034 H 
ENDBRANCH  56  58
ENDBRANCH  55  56
ENDBRANCH   5  55
TORSDOF 17
ENDMDL
MODEL 9
REMARK VINA RESULT:      -5.1      4.192      7.863
REMARK  17 active torsions:
REMARK  status: ('A' for Active; 'I' for Inactive)
REMARK    1  A    between atoms: C_1  and  C_2 
REMARK       I    between atoms: C_2  and  N_4 
REMARK    2  A    between atoms: N_4  and  C_5 
REMARK    3  A    between atoms: C_7  and  O_36 
REMARK    4  A    between atoms: C_9  and  O_32 
REMARK    5  A    between atoms: C_11  and  C_27 
REMARK    6  A    between atoms: C_14  and  O_16 
REMARK    7  A    between atoms: O_16  and  C_17 
REMARK    8  A    between atoms: C_20  and  C_25 
REMARK    9  A    between atoms: C_22  and  O_23 
REMARK   10  A    between atoms: O_23  and  C_24 
REMARK   11  A    between atoms: C_27  and  O_28 
REMARK   12  A    between atoms: O_28  and  C_29 
REMARK   13  A    between atoms: C_29  and  C_31 
REMARK   14  A    between atoms: O_32  and  C_33 
REMARK   15  A    between atoms: C_33  and  C_35 
REMARK   16  A    between atoms: O_36  and  C_37 
REMARK   17  A    between atoms: C_37  and  C_39 
ROOT
ATOM      1  C   LIG d   1       9.488   2.656  -5.531  0.00  0.00     0.126 C 
ATOM      2  H   LIG d   1      10.368   2.040  -5.715  0.00  0.00     0.060 H 
ATOM      3  C   LIG d   1       9.295   3.633  -6.696  0.00  0.00     0.166 C 
ATOM      4  H   LIG d   1       8.444   4.282  -6.490  0.00  0.00     0.079 H 
ATOM      5  C   LIG d   1       9.031   2.835  -7.977  0.00  0.00     0.171 C 
ATOM      6  H   LIG d   1       9.903   2.222  -8.210  0.00  0.00     0.080 H 
ATOM      7  C   LIG d   1       7.813   1.933  -7.766  0.00  0.00     0.137 C 
ATOM      8  H   LIG d   1       6.934   2.548  -7.573  0.00  0.00     0.067 H 
ATOM      9  O   LIG d   1       8.046   1.072  -6.650  0.00  0.00    -0.330 OA
ATOM     10  C   LIG d   1       8.251   1.761  -5.415  0.00  0.00     0.225 C 
ATOM     11  H   LIG d   1       7.378   2.375  -5.192  0.00  0.00     0.108 H 
ENDROOT
BRANCH  10  12
ATOM     12  O   LIG d   1       8.448   0.811  -4.365  0.00  0.00    -0.458 OA
BRANCH  12  13
ATOM     13  C   LIG d   1       7.337   0.230  -3.845  0.00  0.00     0.165 A 
ATOM     14  C   LIG d   1       7.174  -1.154  -3.925  0.00  0.00     0.162 A 
ATOM     15  C   LIG d   1       6.044  -1.746  -3.401  0.00  0.00    -0.006 A 
ATOM     16  C   LIG d   1       5.064  -0.958  -2.785  0.00  0.00     0.018 A 
ATOM     17  H   LIG d   1       5.913  -2.817  -3.467  0.00  0.00     0.066 H 
ATOM     18  C   LIG d   1       5.239   0.430  -2.704  0.00  0.00    -0.048 A 
ATOM     19  C   LIG d   1       6.370   1.013  -3.228  0.00  0.00    -0.015 A 
ATOM     20  H   LIG d   1       4.486   1.041  -2.228  0.00  0.00     0.063 H 
ATOM     21  H   LIG d   1       6.503   2.083  -3.164  0.00  0.00     0.066 H 
BRANCH  14  22
ATOM     22  O   LIG d   1       8.127  -1.916  -4.525  0.00  0.00    -0.491 OA
BRANCH  22  23
ATOM     23  C   LIG d   1       8.472  -3.146  -3.883  0.00  0.00     0.079 C 
ATOM     24  H   LIG d   1       7.948  -3.969  -4.370  0.00  0.00     0.066 H 
ATOM     25  H   LIG d   1       9.547  -3.306  -3.957  0.00  0.00     0.066 H 
ATOM     26  H   LIG d   1       8.183  -3.101  -2.833  0.00  0.00     0.066 H 
ENDBRANCH  22  23
ENDBRANCH  14  22
BRANCH  16  27
ATOM     27  C   LIG d   1       3.859  -1.583  -2.226  0.00  0.00     0.150 C 
ATOM     28  O   LIG d   1       3.620  -2.750  -2.453  0.00  0.00    -0.296 OA
ATOM     29  H   LIG d   1       3.184  -1.002  -1.614  0.00  0.00     0.108 H 
ENDBRANCH  16  27
ENDBRANCH  12  13
ENDBRANCH  10  12
BRANCH   1  30
ATOM     30  N   LIG d   1       9.668   3.408  -4.286  0.00  0.00    -0.303 N 
ATOM     31  C   LIG d   1      10.792   3.250  -3.561  0.00  0.00     0.210 C 
ATOM     32  O   LIG d   1      11.656   2.488  -3.938  0.00  0.00    -0.276 OA
ATOM     33  H   LIG d   1       8.977   4.018  -3.985  0.00  0.00     0.149 HD
BRANCH  31  34
ATOM     34  C   LIG d   1      10.977   4.023  -2.280  0.00  0.00     0.012 C 
ATOM     35  H   LIG d   1      12.041   4.124  -2.066  0.00  0.00     0.032 H 
ATOM     36  H   LIG d   1      10.532   5.013  -2.385  0.00  0.00     0.032 H 
ATOM     37  H   LIG d   1      10.490   3.492  -1.462  0.00  0.00     0.032 H 
ENDBRANCH  31  34
ENDBRANCH   1  30
BRANCH   3  38
ATOM     38  O   LIG d   1      10.492   4.437  -6.860  0.00  0.00    -0.456 OA
BRANCH  38  39
ATOM     39  C   LIG d   1      10.366   5.761  -6.685  0.00  0.00     0.304 C 
ATOM     40  O   LIG d   1       9.760   6.189  -5.730  0.00  0.00    -0.251 OA
BRANCH  39  41
ATOM     41  C   LIG d   1      10.978   6.715  -7.678  0.00  0.00     0.033 C 
ATOM     42  H   LIG d   1      10.584   7.716  -7.510  0.00  0.00     0.034 H 
ATOM     43  H   LIG d   1      12.061   6.725  -7.553  0.00  0.00     0.034 H 
ATOM     44  H   LIG d   1      10.732   6.393  -8.690  0.00  0.00     0.034 H 
ENDBRANCH  39  41
ENDBRANCH  38  39
ENDBRANCH   3  38
BRANCH   7  45
ATOM     45  C   LIG d   1       7.579   1.089  -9.021  0.00  0.00     0.122 C 
ATOM     46  H   LIG d   1       8.470   1.116  -9.648  0.00  0.00     0.072 H 
ATOM     47  H   LIG d   1       7.370   0.058  -8.732  0.00  0.00     0.072 H 
BRANCH  45  48
ATOM     48  O   LIG d   1       6.449   1.623  -9.761  0.00  0.00    -0.462 OA
BRANCH  48  49
ATOM     49  C   LIG d   1       5.233   1.463  -9.216  0.00  0.00     0.304 C 
ATOM     50  O   LIG d   1       4.941   0.416  -8.687  0.00  0.00    -0.251 OA
BRANCH  49  51
ATOM     51  C   LIG d   1       4.232   2.588  -9.264  0.00  0.00     0.033 C 
ATOM     52  H   LIG d   1       4.058   2.962  -8.255  0.00  0.00     0.034 H 
ATOM     53  H   LIG d   1       4.619   3.393  -9.889  0.00  0.00     0.034 H 
ATOM     54  H   LIG d   1       3.295   2.222  -9.683  0.00  0.00     0.034 H 
ENDBRANCH  49  51
ENDBRANCH  48  49
ENDBRANCH  45  48
ENDBRANCH   7  45
BRANCH   5  55
ATOM     55  O   LIG d   1       8.774   3.750  -9.074  0.00  0.00    -0.455 OA
BRANCH  55  56
ATOM     56  C   LIG d   1       9.712   3.834 -10.030  0.00  0.00     0.304 C 
ATOM     57  O   LIG d   1      10.453   2.903 -10.233  0.00  0.00    -0.251 OA
BRANCH  56  58
ATOM     58  C   LIG d   1       9.839   5.091 -10.852  0.00  0.00     0.033 C 
ATOM     59  H   LIG d   1       9.667   5.960 -10.217  0.00  0.00     0.034 H 
ATOM     60  H   LIG d   1      10.841   5.146 -11.280  0.00  0.00     0.034 H 
ATOM     61  H   LIG d   1       9.102   5.077 -11.656  0.00  0.00     0.034 H 
ENDBRANCH  56  58
ENDBRANCH  55  56
ENDBRANCH   5  55
TORSDOF 17
ENDMDL
