MODEL 1
REMARK VINA RESULT:      -6.7      0.000      0.000
REMARK  10 active torsions:
REMARK  status: ('A' for Active; 'I' for Inactive)
REMARK    1  A    between atoms: C_1  and  O_2 
REMARK    2  A    between atoms: O_2  and  C_3 
REMARK    3  A    between atoms: C_5  and  C_13 
REMARK    4  A    between atoms: C_6  and  O_11 
REMARK    5  A    between atoms: C_8  and  O_9 
REMARK    6  A    between atoms: O_9  and  C_10 
REMARK    7  A    between atoms: O_11  and  C_12 
REMARK    8  A    between atoms: C_20  and  O_24 
REMARK    9  A    between atoms: O_24  and  C_25 
REMARK   10  A    between atoms: C_25  and  C_26 
ROOT
ATOM      1  C   LIG d   1      10.397   6.098  -4.920  0.00  0.00    -0.005 C 
ATOM      2  C   LIG d   1       9.897   4.909  -5.350  0.00  0.00     0.176 A 
ATOM      3  C   LIG d   1       9.837   4.446  -6.741  0.00  0.00     0.232 A 
ATOM      4  O   LIG d   1      10.217   5.032  -7.740  0.00  0.00    -0.283 OA
ATOM      5  C   LIG d   1       9.216   3.110  -6.660  0.00  0.00     0.068 A 
ATOM      6  C   LIG d   1       8.884   2.152  -7.619  0.00  0.00    -0.044 A 
ATOM      7  C   LIG d   1       8.297   0.980  -7.235  0.00  0.00    -0.019 A 
ATOM      8  C   LIG d   1       8.030   0.739  -5.889  0.00  0.00     0.124 A 
ATOM      9  C   LIG d   1       8.355   1.681  -4.927  0.00  0.00     0.023 A 
ATOM     10  C   LIG d   1       8.952   2.878  -5.300  0.00  0.00     0.143 A 
ATOM     11  O   LIG d   1       9.359   3.940  -4.571  0.00  0.00    -0.451 OA
ATOM     12  H   LIG d   1      10.697   6.848  -5.637  0.00  0.00     0.066 H 
ATOM     13  H   LIG d   1       9.091   2.338  -8.662  0.00  0.00     0.063 H 
ATOM     14  H   LIG d   1       8.040   0.238  -7.976  0.00  0.00     0.065 H 
ATOM     15  H   LIG d   1       8.144   1.484  -3.886  0.00  0.00     0.069 H 
ENDROOT
BRANCH   1  16
ATOM     16  C   LIG d   1      10.531   6.362  -3.486  0.00  0.00     0.024 A 
ATOM     17  C   LIG d   1       9.505   7.022  -2.792  0.00  0.00    -0.005 A 
ATOM     18  C   LIG d   1       9.635   7.263  -1.441  0.00  0.00     0.162 A 
ATOM     19  H   LIG d   1       8.614   7.336  -3.315  0.00  0.00     0.066 H 
ATOM     20  C   LIG d   1      10.788   6.862  -0.764  0.00  0.00     0.165 A 
ATOM     21  C   LIG d   1      11.806   6.209  -1.442  0.00  0.00     0.026 A 
ATOM     22  C   LIG d   1      11.688   5.955  -2.797  0.00  0.00     0.131 A 
ATOM     23  H   LIG d   1      12.694   5.897  -0.911  0.00  0.00     0.069 H 
BRANCH  18  24
ATOM     24  O   LIG d   1       8.638   7.898  -0.767  0.00  0.00    -0.491 OA
BRANCH  24  25
ATOM     25  C   LIG d   1       8.649   9.327  -0.786  0.00  0.00     0.079 C 
ATOM     26  H   LIG d   1       9.416   9.674  -1.478  0.00  0.00     0.066 H 
ATOM     27  H   LIG d   1       7.675   9.693  -1.108  0.00  0.00     0.066 H 
ATOM     28  H   LIG d   1       8.866   9.701   0.215  0.00  0.00     0.066 H 
ENDBRANCH  24  25
ENDBRANCH  18  24
BRANCH  20  29
ATOM     29  O   LIG d   1      10.910   7.108   0.566  0.00  0.00    -0.491 OA
BRANCH  29  30
ATOM     30  C   LIG d   1      11.066   5.976   1.424  0.00  0.00     0.079 C 
ATOM     31  H   LIG d   1      11.437   6.304   2.395  0.00  0.00     0.066 H 
ATOM     32  H   LIG d   1      11.777   5.278   0.980  0.00  0.00     0.066 H 
ATOM     33  H   LIG d   1      10.103   5.481   1.552  0.00  0.00     0.066 H 
ENDBRANCH  29  30
ENDBRANCH  20  29
BRANCH  22  34
ATOM     34  O   LIG d   1      12.685   5.316  -3.459  0.00  0.00    -0.494 OA
BRANCH  34  35
ATOM     35  C   LIG d   1      12.823   3.913  -3.227  0.00  0.00     0.079 C 
ATOM     36  H   LIG d   1      13.431   3.751  -2.337  0.00  0.00     0.066 H 
ATOM     37  H   LIG d   1      11.839   3.470  -3.082  0.00  0.00     0.066 H 
ATOM     38  H   LIG d   1      13.308   3.449  -4.087  0.00  0.00     0.066 H 
ENDBRANCH  34  35
ENDBRANCH  22  34
ENDBRANCH   1  16
BRANCH   8  39
ATOM     39  O   LIG d   1       7.447  -0.429  -5.518  0.00  0.00    -0.487 OA
BRANCH  39  40
ATOM     40  C   LIG d   1       7.407  -0.719  -4.120  0.00  0.00     0.116 C 
ATOM     41  H   LIG d   1       7.885  -1.682  -3.934  0.00  0.00     0.075 H 
ATOM     42  H   LIG d   1       7.937   0.060  -3.571  0.00  0.00     0.075 H 
BRANCH  40  43
ATOM     43  C   LIG d   1       5.973  -0.772  -3.658  0.00  0.00     0.008 A 
ATOM     44  C   LIG d   1       5.241  -1.935  -3.811  0.00  0.00     0.050 A 
ATOM     45  C   LIG d   1       3.926  -1.987  -3.382  0.00  0.00    -0.008 A 
ATOM     46 CL   LIG d   1       5.972  -3.333  -4.535  0.00  0.00    -0.083 Cl
ATOM     47  C   LIG d   1       3.343  -0.869  -2.809  0.00  0.00     0.125 A 
ATOM     48  H   LIG d   1       3.355  -2.895  -3.497  0.00  0.00     0.066 H 
ATOM     49  C   LIG d   1       4.076   0.296  -2.662  0.00  0.00    -0.026 A 
ATOM     50  F   LIG d   1       2.058  -0.916  -2.395  0.00  0.00    -0.205 F 
ATOM     51  C   LIG d   1       5.390   0.343  -3.086  0.00  0.00    -0.051 A 
ATOM     52  H   LIG d   1       3.622   1.168  -2.216  0.00  0.00     0.065 H 
ATOM     53  H   LIG d   1       5.962   1.252  -2.971  0.00  0.00     0.062 H 
ENDBRANCH  40  43
ENDBRANCH  39  40
ENDBRANCH   8  39
TORSDOF 10
ENDMDL
MODEL 2
REMARK VINA RESULT:      -6.6      6.731     12.467
REMARK  10 active torsions:
REMARK  status: ('A' for Active; 'I' for Inactive)
REMARK    1  A    between atoms: C_1  and  O_2 
REMARK    2  A    between atoms: O_2  and  C_3 
REMARK    3  A    between atoms: C_5  and  C_13 
REMARK    4  A    between atoms: C_6  and  O_11 
REMARK    5  A    between atoms: C_8  and  O_9 
REMARK    6  A    between atoms: O_9  and  C_10 
REMARK    7  A    between atoms: O_11  and  C_12 
REMARK    8  A    between atoms: C_20  and  O_24 
REMARK    9  A    between atoms: O_24  and  C_25 
REMARK   10  A    between atoms: C_25  and  C_26 
ROOT
ATOM      1  C   LIG d   1       4.970  -8.965  -6.317  0.00  0.00    -0.005 C 
ATOM      2  C   LIG d   1       4.847  -7.634  -6.569  0.00  0.00     0.176 A 
ATOM      3  C   LIG d   1       4.068  -7.024  -7.653  0.00  0.00     0.232 A 
ATOM      4  O   LIG d   1       3.405  -7.590  -8.505  0.00  0.00    -0.283 OA
ATOM      5  C   LIG d   1       4.266  -5.573  -7.480  0.00  0.00     0.068 A 
ATOM      6  C   LIG d   1       3.799  -4.456  -8.174  0.00  0.00    -0.044 A 
ATOM      7  C   LIG d   1       4.164  -3.203  -7.772  0.00  0.00    -0.019 A 
ATOM      8  C   LIG d   1       5.001  -3.037  -6.672  0.00  0.00     0.124 A 
ATOM      9  C   LIG d   1       5.472  -4.137  -5.973  0.00  0.00     0.023 A 
ATOM     10  C   LIG d   1       5.110  -5.418  -6.368  0.00  0.00     0.143 A 
ATOM     11  O   LIG d   1       5.427  -6.631  -5.866  0.00  0.00    -0.451 OA
ATOM     12  H   LIG d   1       4.558  -9.685  -7.010  0.00  0.00     0.066 H 
ATOM     13  H   LIG d   1       3.149  -4.584  -9.027  0.00  0.00     0.063 H 
ATOM     14  H   LIG d   1       3.803  -2.339  -8.309  0.00  0.00     0.065 H 
ATOM     15  H   LIG d   1       6.121  -3.997  -5.120  0.00  0.00     0.069 H 
ENDROOT
BRANCH   1  16
ATOM     16  C   LIG d   1       5.657  -9.423  -5.108  0.00  0.00     0.024 A 
ATOM     17  C   LIG d   1       7.059  -9.465  -5.068  0.00  0.00    -0.005 A 
ATOM     18  C   LIG d   1       7.700  -9.892  -3.924  0.00  0.00     0.162 A 
ATOM     19  H   LIG d   1       7.634  -9.159  -5.929  0.00  0.00     0.066 H 
ATOM     20  C   LIG d   1       6.959 -10.293  -2.812  0.00  0.00     0.165 A 
ATOM     21  C   LIG d   1       5.573 -10.254  -2.843  0.00  0.00     0.026 A 
ATOM     22  C   LIG d   1       4.915  -9.822  -3.982  0.00  0.00     0.131 A 
ATOM     23  H   LIG d   1       5.004 -10.561  -1.978  0.00  0.00     0.069 H 
BRANCH  18  24
ATOM     24  O   LIG d   1       9.060  -9.928  -3.883  0.00  0.00    -0.491 OA
BRANCH  24  25
ATOM     25  C   LIG d   1       9.737  -8.681  -3.718  0.00  0.00     0.079 C 
ATOM     26  H   LIG d   1       9.762  -8.152  -4.671  0.00  0.00     0.066 H 
ATOM     27  H   LIG d   1       9.212  -8.076  -2.980  0.00  0.00     0.066 H 
ATOM     28  H   LIG d   1      10.757  -8.864  -3.378  0.00  0.00     0.066 H 
ENDBRANCH  24  25
ENDBRANCH  18  24
BRANCH  20  29
ATOM     29  O   LIG d   1       7.597 -10.718  -1.692  0.00  0.00    -0.491 OA
BRANCH  29  30
ATOM     30  C   LIG d   1       6.804 -11.382  -0.705  0.00  0.00     0.079 C 
ATOM     31  H   LIG d   1       6.608 -12.405  -1.025  0.00  0.00     0.066 H 
ATOM     32  H   LIG d   1       5.860 -10.852  -0.581  0.00  0.00     0.066 H 
ATOM     33  H   LIG d   1       7.341 -11.395   0.244  0.00  0.00     0.066 H 
ENDBRANCH  29  30
ENDBRANCH  20  29
BRANCH  22  34
ATOM     34  O   LIG d   1       3.559  -9.785  -4.012  0.00  0.00    -0.494 OA
BRANCH  34  35
ATOM     35  C   LIG d   1       2.868 -10.963  -3.591  0.00  0.00     0.079 C 
ATOM     36  H   LIG d   1       1.812 -10.734  -3.451  0.00  0.00     0.066 H 
ATOM     37  H   LIG d   1       2.976 -11.738  -4.350  0.00  0.00     0.066 H 
ATOM     38  H   LIG d   1       3.291 -11.315  -2.650  0.00  0.00     0.066 H 
ENDBRANCH  34  35
ENDBRANCH  22  34
ENDBRANCH   1  16
BRANCH   8  39
ATOM     39  O   LIG d   1       5.359  -1.787  -6.281  0.00  0.00    -0.487 OA
BRANCH  39  40
ATOM     40  C   LIG d   1       4.304  -0.853  -6.048  0.00  0.00     0.116 C 
ATOM     41  H   LIG d   1       4.370  -0.042  -6.774  0.00  0.00     0.075 H 
ATOM     42  H   LIG d   1       3.343  -1.357  -6.153  0.00  0.00     0.075 H 
BRANCH  40  43
ATOM     43  C   LIG d   1       4.427  -0.292  -4.655  0.00  0.00     0.008 A 
ATOM     44  C   LIG d   1       3.302   0.161  -3.990  0.00  0.00     0.050 A 
ATOM     45  C   LIG d   1       3.414   0.671  -2.709  0.00  0.00    -0.008 A 
ATOM     46 CL   LIG d   1       1.748   0.084  -4.761  0.00  0.00    -0.083 Cl
ATOM     47  C   LIG d   1       4.654   0.737  -2.098  0.00  0.00     0.125 A 
ATOM     48  H   LIG d   1       2.535   1.021  -2.188  0.00  0.00     0.066 H 
ATOM     49  C   LIG d   1       5.781   0.289  -2.767  0.00  0.00    -0.026 A 
ATOM     50  F   LIG d   1       4.766   1.240  -0.849  0.00  0.00    -0.205 F 
ATOM     51  C   LIG d   1       5.666  -0.226  -4.044  0.00  0.00    -0.051 A 
ATOM     52  H   LIG d   1       6.748   0.340  -2.291  0.00  0.00     0.065 H 
ATOM     53  H   LIG d   1       6.544  -0.576  -4.566  0.00  0.00     0.062 H 
ENDBRANCH  40  43
ENDBRANCH  39  40
ENDBRANCH   8  39
TORSDOF 10
ENDMDL
MODEL 3
REMARK VINA RESULT:      -6.6      7.524     13.144
REMARK  10 active torsions:
REMARK  status: ('A' for Active; 'I' for Inactive)
REMARK    1  A    between atoms: C_1  and  O_2 
REMARK    2  A    between atoms: O_2  and  C_3 
REMARK    3  A    between atoms: C_5  and  C_13 
REMARK    4  A    between atoms: C_6  and  O_11 
REMARK    5  A    between atoms: C_8  and  O_9 
REMARK    6  A    between atoms: O_9  and  C_10 
REMARK    7  A    between atoms: O_11  and  C_12 
REMARK    8  A    between atoms: C_20  and  O_24 
REMARK    9  A    between atoms: O_24  and  C_25 
REMARK   10  A    between atoms: C_25  and  C_26 
ROOT
ATOM      1  C   LIG d   1       0.746  -3.678 -11.869  0.00  0.00    -0.005 C 
ATOM      2  C   LIG d   1       1.469  -2.745 -11.193  0.00  0.00     0.176 A 
ATOM      3  C   LIG d   1       2.104  -1.554 -11.772  0.00  0.00     0.232 A 
ATOM      4  O   LIG d   1       2.096  -1.196 -12.937  0.00  0.00    -0.283 OA
ATOM      5  C   LIG d   1       2.751  -0.887 -10.627  0.00  0.00     0.068 A 
ATOM      6  C   LIG d   1       3.507   0.280 -10.504  0.00  0.00    -0.044 A 
ATOM      7  C   LIG d   1       3.991   0.652  -9.282  0.00  0.00    -0.019 A 
ATOM      8  C   LIG d   1       3.731  -0.129  -8.159  0.00  0.00     0.124 A 
ATOM      9  C   LIG d   1       2.982  -1.289  -8.266  0.00  0.00     0.023 A 
ATOM     10  C   LIG d   1       2.482  -1.683  -9.501  0.00  0.00     0.143 A 
ATOM     11  O   LIG d   1       1.738  -2.749  -9.866  0.00  0.00    -0.451 OA
ATOM     12  H   LIG d   1       0.689  -3.640 -12.947  0.00  0.00     0.066 H 
ATOM     13  H   LIG d   1       3.708   0.886 -11.375  0.00  0.00     0.063 H 
ATOM     14  H   LIG d   1       4.576   1.555  -9.187  0.00  0.00     0.065 H 
ATOM     15  H   LIG d   1       2.786  -1.888  -7.388  0.00  0.00     0.069 H 
ENDROOT
BRANCH   1  16
ATOM     16  C   LIG d   1       0.044  -4.733 -11.135  0.00  0.00     0.024 A 
ATOM     17  C   LIG d   1      -1.204  -4.472 -10.548  0.00  0.00    -0.005 A 
ATOM     18  C   LIG d   1      -1.862  -5.471  -9.864  0.00  0.00     0.162 A 
ATOM     19  H   LIG d   1      -1.649  -3.493 -10.637  0.00  0.00     0.066 H 
ATOM     20  C   LIG d   1      -1.287  -6.737  -9.743  0.00  0.00     0.165 A 
ATOM     21  C   LIG d   1      -0.054  -7.003 -10.320  0.00  0.00     0.026 A 
ATOM     22  C   LIG d   1       0.616  -6.012 -11.016  0.00  0.00     0.131 A 
ATOM     23  H   LIG d   1       0.385  -7.986 -10.227  0.00  0.00     0.069 H 
BRANCH  18  24
ATOM     24  O   LIG d   1      -3.075  -5.221  -9.299  0.00  0.00    -0.491 OA
BRANCH  24  25
ATOM     25  C   LIG d   1      -4.140  -4.861 -10.180  0.00  0.00     0.079 C 
ATOM     26  H   LIG d   1      -4.492  -3.859  -9.934  0.00  0.00     0.066 H 
ATOM     27  H   LIG d   1      -3.782  -4.878 -11.209  0.00  0.00     0.066 H 
ATOM     28  H   LIG d   1      -4.959  -5.572 -10.069  0.00  0.00     0.066 H 
ENDBRANCH  24  25
ENDBRANCH  18  24
BRANCH  20  29
ATOM     29  O   LIG d   1      -1.939  -7.714  -9.061  0.00  0.00    -0.491 OA
BRANCH  29  30
ATOM     30  C   LIG d   1      -2.660  -8.675  -9.836  0.00  0.00     0.079 C 
ATOM     31  H   LIG d   1      -3.552  -8.208 -10.254  0.00  0.00     0.066 H 
ATOM     32  H   LIG d   1      -2.950  -9.510  -9.199  0.00  0.00     0.066 H 
ATOM     33  H   LIG d   1      -2.027  -9.038 -10.646  0.00  0.00     0.066 H 
ENDBRANCH  29  30
ENDBRANCH  20  29
BRANCH  22  34
ATOM     34  O   LIG d   1       1.822  -6.273 -11.580  0.00  0.00    -0.494 OA
BRANCH  34  35
ATOM     35  C   LIG d   1       2.894  -6.605 -10.695  0.00  0.00     0.079 C 
ATOM     36  H   LIG d   1       2.957  -5.857  -9.904  0.00  0.00     0.066 H 
ATOM     37  H   LIG d   1       2.713  -7.585 -10.256  0.00  0.00     0.066 H 
ATOM     38  H   LIG d   1       3.832  -6.624 -11.251  0.00  0.00     0.066 H 
ENDBRANCH  34  35
ENDBRANCH  22  34
ENDBRANCH   1  16
BRANCH   8  39
ATOM     39  O   LIG d   1       4.217   0.249  -6.949  0.00  0.00    -0.487 OA
BRANCH  39  40
ATOM     40  C   LIG d   1       4.480  -0.787  -6.002  0.00  0.00     0.116 C 
ATOM     41  H   LIG d   1       3.677  -1.524  -6.038  0.00  0.00     0.075 H 
ATOM     42  H   LIG d   1       5.426  -1.270  -6.244  0.00  0.00     0.075 H 
BRANCH  40  43
ATOM     43  C   LIG d   1       4.557  -0.196  -4.618  0.00  0.00     0.008 A 
ATOM     44  C   LIG d   1       3.404   0.222  -3.979  0.00  0.00     0.050 A 
ATOM     45  C   LIG d   1       3.473   0.759  -2.707  0.00  0.00    -0.008 A 
ATOM     46 CL   LIG d   1       1.867   0.065  -4.772  0.00  0.00    -0.083 Cl
ATOM     47  C   LIG d   1       4.700   0.890  -2.078  0.00  0.00     0.125 A 
ATOM     48  H   LIG d   1       2.572   1.082  -2.206  0.00  0.00     0.066 H 
ATOM     49  C   LIG d   1       5.854   0.477  -2.721  0.00  0.00    -0.026 A 
ATOM     50  F   LIG d   1       4.770   1.420  -0.837  0.00  0.00    -0.205 F 
ATOM     51  C   LIG d   1       5.782  -0.066  -3.990  0.00  0.00    -0.051 A 
ATOM     52  H   LIG d   1       6.811   0.577  -2.232  0.00  0.00     0.065 H 
ATOM     53  H   LIG d   1       6.683  -0.388  -4.491  0.00  0.00     0.062 H 
ENDBRANCH  40  43
ENDBRANCH  39  40
ENDBRANCH   8  39
TORSDOF 10
ENDMDL
MODEL 4
REMARK VINA RESULT:      -6.6      2.339      3.244
REMARK  10 active torsions:
REMARK  status: ('A' for Active; 'I' for Inactive)
REMARK    1  A    between atoms: C_1  and  O_2 
REMARK    2  A    between atoms: O_2  and  C_3 
REMARK    3  A    between atoms: C_5  and  C_13 
REMARK    4  A    between atoms: C_6  and  O_11 
REMARK    5  A    between atoms: C_8  and  O_9 
REMARK    6  A    between atoms: O_9  and  C_10 
REMARK    7  A    between atoms: O_11  and  C_12 
REMARK    8  A    between atoms: C_20  and  O_24 
REMARK    9  A    between atoms: O_24  and  C_25 
REMARK   10  A    between atoms: C_25  and  C_26 
ROOT
ATOM      1  C   LIG d   1      12.906   5.272  -2.329  0.00  0.00    -0.005 C 
ATOM      2  C   LIG d   1      12.090   4.324  -2.865  0.00  0.00     0.176 A 
ATOM      3  C   LIG d   1      12.518   3.119  -3.586  0.00  0.00     0.232 A 
ATOM      4  O   LIG d   1      13.657   2.759  -3.828  0.00  0.00    -0.283 OA
ATOM      5  C   LIG d   1      11.260   2.440  -3.950  0.00  0.00     0.068 A 
ATOM      6  C   LIG d   1      10.977   1.257  -4.635  0.00  0.00    -0.044 A 
ATOM      7  C   LIG d   1       9.680   0.877  -4.829  0.00  0.00    -0.019 A 
ATOM      8  C   LIG d   1       8.639   1.666  -4.344  0.00  0.00     0.124 A 
ATOM      9  C   LIG d   1       8.906   2.841  -3.663  0.00  0.00     0.023 A 
ATOM     10  C   LIG d   1      10.219   3.243  -3.456  0.00  0.00     0.143 A 
ATOM     11  O   LIG d   1      10.736   4.325  -2.834  0.00  0.00    -0.451 OA
ATOM     12  H   LIG d   1      13.970   5.233  -2.511  0.00  0.00     0.066 H 
ATOM     13  H   LIG d   1      11.784   0.645  -5.010  0.00  0.00     0.063 H 
ATOM     14  H   LIG d   1       9.461  -0.038  -5.359  0.00  0.00     0.065 H 
ATOM     15  H   LIG d   1       8.091   3.446  -3.290  0.00  0.00     0.069 H 
ENDROOT
BRANCH   1  16
ATOM     16  C   LIG d   1      12.342   6.342  -1.505  0.00  0.00     0.024 A 
ATOM     17  C   LIG d   1      12.101   6.127  -0.139  0.00  0.00    -0.005 A 
ATOM     18  C   LIG d   1      11.575   7.142   0.632  0.00  0.00     0.162 A 
ATOM     19  H   LIG d   1      12.330   5.172   0.306  0.00  0.00     0.066 H 
ATOM     20  C   LIG d   1      11.272   8.377   0.057  0.00  0.00     0.165 A 
ATOM     21  C   LIG d   1      11.508   8.598  -1.292  0.00  0.00     0.026 A 
ATOM     22  C   LIG d   1      12.041   7.591  -2.078  0.00  0.00     0.131 A 
ATOM     23  H   LIG d   1      11.276   9.557  -1.731  0.00  0.00     0.069 H 
BRANCH  18  24
ATOM     24  O   LIG d   1      11.345   6.936   1.958  0.00  0.00    -0.491 OA
BRANCH  24  25
ATOM     25  C   LIG d   1      10.859   5.648   2.340  0.00  0.00     0.079 C 
ATOM     26  H   LIG d   1       9.815   5.550   2.039  0.00  0.00     0.066 H 
ATOM     27  H   LIG d   1      11.452   4.876   1.852  0.00  0.00     0.066 H 
ATOM     28  H   LIG d   1      10.937   5.537   3.421  0.00  0.00     0.066 H 
ENDBRANCH  24  25
ENDBRANCH  18  24
BRANCH  20  29
ATOM     29  O   LIG d   1      10.748   9.369   0.822  0.00  0.00    -0.491 OA
BRANCH  29  30
ATOM     30  C   LIG d   1      10.405  10.588   0.159  0.00  0.00     0.079 C 
ATOM     31  H   LIG d   1       9.940  11.269   0.871  0.00  0.00     0.066 H 
ATOM     32  H   LIG d   1       9.709  10.377  -0.652  0.00  0.00     0.066 H 
ATOM     33  H   LIG d   1      11.307  11.047  -0.246  0.00  0.00     0.066 H 
ENDBRANCH  29  30
ENDBRANCH  20  29
BRANCH  22  34
ATOM     34  O   LIG d   1      12.271   7.808  -3.397  0.00  0.00    -0.494 OA
BRANCH  34  35
ATOM     35  C   LIG d   1      11.127   7.971  -4.237  0.00  0.00     0.079 C 
ATOM     36  H   LIG d   1      11.271   7.408  -5.160  0.00  0.00     0.066 H 
ATOM     37  H   LIG d   1      10.241   7.603  -3.720  0.00  0.00     0.066 H 
ATOM     38  H   LIG d   1      10.997   9.027  -4.474  0.00  0.00     0.066 H 
ENDBRANCH  34  35
ENDBRANCH  22  34
ENDBRANCH   1  16
BRANCH   8  39
ATOM     39  O   LIG d   1       7.353   1.279  -4.543  0.00  0.00    -0.487 OA
BRANCH  39  40
ATOM     40  C   LIG d   1       6.456   1.417  -3.440  0.00  0.00     0.116 C 
ATOM     41  H   LIG d   1       7.020   1.676  -2.543  0.00  0.00     0.075 H 
ATOM     42  H   LIG d   1       5.735   2.205  -3.654  0.00  0.00     0.075 H 
BRANCH  40  43
ATOM     43  C   LIG d   1       5.728   0.117  -3.217  0.00  0.00     0.008 A 
ATOM     44  C   LIG d   1       4.467   0.119  -2.650  0.00  0.00     0.050 A 
ATOM     45  C   LIG d   1       3.795  -1.075  -2.451  0.00  0.00    -0.008 A 
ATOM     46 CL   LIG d   1       3.721   1.620  -2.196  0.00  0.00    -0.083 Cl
ATOM     47  C   LIG d   1       4.393  -2.271  -2.809  0.00  0.00     0.125 A 
ATOM     48  H   LIG d   1       2.809  -1.073  -2.013  0.00  0.00     0.066 H 
ATOM     49  C   LIG d   1       5.659  -2.272  -3.371  0.00  0.00    -0.026 A 
ATOM     50  F   LIG d   1       3.741  -3.438  -2.610  0.00  0.00    -0.205 F 
ATOM     51  C   LIG d   1       6.325  -1.078  -3.574  0.00  0.00    -0.051 A 
ATOM     52  H   LIG d   1       6.125  -3.204  -3.650  0.00  0.00     0.065 H 
ATOM     53  H   LIG d   1       7.312  -1.079  -4.012  0.00  0.00     0.062 H 
ENDBRANCH  40  43
ENDBRANCH  39  40
ENDBRANCH   8  39
TORSDOF 10
ENDMDL
MODEL 5
REMARK VINA RESULT:      -6.6      1.631      2.500
REMARK  10 active torsions:
REMARK  status: ('A' for Active; 'I' for Inactive)
REMARK    1  A    between atoms: C_1  and  O_2 
REMARK    2  A    between atoms: O_2  and  C_3 
REMARK    3  A    between atoms: C_5  and  C_13 
REMARK    4  A    between atoms: C_6  and  O_11 
REMARK    5  A    between atoms: C_8  and  O_9 
REMARK    6  A    between atoms: O_9  and  C_10 
REMARK    7  A    between atoms: O_11  and  C_12 
REMARK    8  A    between atoms: C_20  and  O_24 
REMARK    9  A    between atoms: O_24  and  C_25 
REMARK   10  A    between atoms: C_25  and  C_26 
ROOT
ATOM      1  C   LIG d   1      10.393   7.293  -5.042  0.00  0.00    -0.005 C 
ATOM      2  C   LIG d   1       9.978   6.026  -5.308  0.00  0.00     0.176 A 
ATOM      3  C   LIG d   1      10.141   5.309  -6.579  0.00  0.00     0.232 A 
ATOM      4  O   LIG d   1      10.666   5.714  -7.602  0.00  0.00    -0.283 OA
ATOM      5  C   LIG d   1       9.528   3.989  -6.340  0.00  0.00     0.068 A 
ATOM      6  C   LIG d   1       9.359   2.857  -7.138  0.00  0.00    -0.044 A 
ATOM      7  C   LIG d   1       8.732   1.754  -6.631  0.00  0.00    -0.019 A 
ATOM      8  C   LIG d   1       8.261   1.758  -5.321  0.00  0.00     0.124 A 
ATOM      9  C   LIG d   1       8.422   2.875  -4.518  0.00  0.00     0.023 A 
ATOM     10  C   LIG d   1       9.057   4.004  -5.017  0.00  0.00     0.143 A 
ATOM     11  O   LIG d   1       9.335   5.198  -4.450  0.00  0.00    -0.451 OA
ATOM     12  H   LIG d   1      10.793   7.908  -5.835  0.00  0.00     0.066 H 
ATOM     13  H   LIG d   1       9.725   2.853  -8.155  0.00  0.00     0.063 H 
ATOM     14  H   LIG d   1       8.601   0.878  -7.248  0.00  0.00     0.065 H 
ATOM     15  H   LIG d   1       8.053   2.867  -3.502  0.00  0.00     0.069 H 
ENDROOT
BRANCH   1  16
ATOM     16  C   LIG d   1      10.298   7.825  -3.681  0.00  0.00     0.024 A 
ATOM     17  C   LIG d   1      10.190   6.950  -2.589  0.00  0.00    -0.005 A 
ATOM     18  C   LIG d   1      10.107   7.457  -1.310  0.00  0.00     0.162 A 
ATOM     19  H   LIG d   1      10.178   5.883  -2.751  0.00  0.00     0.066 H 
ATOM     20  C   LIG d   1      10.118   8.837  -1.099  0.00  0.00     0.165 A 
ATOM     21  C   LIG d   1      10.224   9.708  -2.172  0.00  0.00     0.026 A 
ATOM     22  C   LIG d   1      10.315   9.214  -3.462  0.00  0.00     0.131 A 
ATOM     23  H   LIG d   1      10.236  10.775  -2.003  0.00  0.00     0.069 H 
BRANCH  18  24
ATOM     24  O   LIG d   1      10.007   6.609  -0.250  0.00  0.00    -0.491 OA
BRANCH  24  25
ATOM     25  C   LIG d   1      11.213   5.990   0.201  0.00  0.00     0.079 C 
ATOM     26  H   LIG d   1      11.254   4.964  -0.165  0.00  0.00     0.066 H 
ATOM     27  H   LIG d   1      12.071   6.545  -0.177  0.00  0.00     0.066 H 
ATOM     28  H   LIG d   1      11.234   5.987   1.291  0.00  0.00     0.066 H 
ENDBRANCH  24  25
ENDBRANCH  18  24
BRANCH  20  29
ATOM     29  O   LIG d   1      10.028   9.328   0.164  0.00  0.00    -0.491 OA
BRANCH  29  30
ATOM     30  C   LIG d   1       9.920  10.747   0.302  0.00  0.00     0.079 C 
ATOM     31  H   LIG d   1       9.107  10.983   0.987  0.00  0.00     0.066 H 
ATOM     32  H   LIG d   1       9.718  11.192  -0.671  0.00  0.00     0.066 H 
ATOM     33  H   LIG d   1      10.855  11.146   0.697  0.00  0.00     0.066 H 
ENDBRANCH  29  30
ENDBRANCH  20  29
BRANCH  22  34
ATOM     34  O   LIG d   1      10.418  10.067  -4.512  0.00  0.00    -0.494 OA
BRANCH  34  35
ATOM     35  C   LIG d   1       9.315  10.943  -4.748  0.00  0.00     0.079 C 
ATOM     36  H   LIG d   1       9.482  11.887  -4.229  0.00  0.00     0.066 H 
ATOM     37  H   LIG d   1       9.219  11.127  -5.817  0.00  0.00     0.066 H 
ATOM     38  H   LIG d   1       8.399  10.482  -4.375  0.00  0.00     0.066 H 
ENDBRANCH  34  35
ENDBRANCH  22  34
ENDBRANCH   1  16
BRANCH   8  39
ATOM     39  O   LIG d   1       7.638   0.657  -4.827  0.00  0.00    -0.487 OA
BRANCH  39  40
ATOM     40  C   LIG d   1       7.410   0.619  -3.417  0.00  0.00     0.116 C 
ATOM     41  H   LIG d   1       8.081  -0.110  -2.960  0.00  0.00     0.075 H 
ATOM     42  H   LIG d   1       7.600   1.603  -2.991  0.00  0.00     0.075 H 
BRANCH  40  43
ATOM     43  C   LIG d   1       5.981   0.223  -3.150  0.00  0.00     0.008 A 
ATOM     44  C   LIG d   1       5.600  -1.103  -3.253  0.00  0.00     0.050 A 
ATOM     45  C   LIG d   1       4.289  -1.468  -3.002  0.00  0.00    -0.008 A 
ATOM     46 CL   LIG d   1       6.768  -2.310  -3.691  0.00  0.00    -0.083 Cl
ATOM     47  C   LIG d   1       3.357  -0.503  -2.659  0.00  0.00     0.125 A 
ATOM     48  H   LIG d   1       3.992  -2.503  -3.079  0.00  0.00     0.066 H 
ATOM     49  C   LIG d   1       3.739   0.824  -2.562  0.00  0.00    -0.026 A 
ATOM     50  F   LIG d   1       2.076  -0.857  -2.419  0.00  0.00    -0.205 F 
ATOM     51  C   LIG d   1       5.050   1.186  -2.807  0.00  0.00    -0.051 A 
ATOM     52  H   LIG d   1       3.013   1.577  -2.294  0.00  0.00     0.065 H 
ATOM     53  H   LIG d   1       5.347   2.221  -2.731  0.00  0.00     0.062 H 
ENDBRANCH  40  43
ENDBRANCH  39  40
ENDBRANCH   8  39
TORSDOF 10
ENDMDL
MODEL 6
REMARK VINA RESULT:      -6.5      1.672      2.732
REMARK  10 active torsions:
REMARK  status: ('A' for Active; 'I' for Inactive)
REMARK    1  A    between atoms: C_1  and  O_2 
REMARK    2  A    between atoms: O_2  and  C_3 
REMARK    3  A    between atoms: C_5  and  C_13 
REMARK    4  A    between atoms: C_6  and  O_11 
REMARK    5  A    between atoms: C_8  and  O_9 
REMARK    6  A    between atoms: O_9  and  C_10 
REMARK    7  A    between atoms: O_11  and  C_12 
REMARK    8  A    between atoms: C_20  and  O_24 
REMARK    9  A    between atoms: O_24  and  C_25 
REMARK   10  A    between atoms: C_25  and  C_26 
ROOT
ATOM      1  C   LIG d   1      11.691   6.917  -4.322  0.00  0.00    -0.005 C 
ATOM      2  C   LIG d   1      10.964   5.845  -4.737  0.00  0.00     0.176 A 
ATOM      3  C   LIG d   1      10.865   5.345  -6.114  0.00  0.00     0.232 A 
ATOM      4  O   LIG d   1      11.405   5.792  -7.111  0.00  0.00    -0.283 OA
ATOM      5  C   LIG d   1       9.967   4.179  -6.021  0.00  0.00     0.068 A 
ATOM      6  C   LIG d   1       9.477   3.273  -6.963  0.00  0.00    -0.044 A 
ATOM      7  C   LIG d   1       8.635   2.271  -6.570  0.00  0.00    -0.019 A 
ATOM      8  C   LIG d   1       8.265   2.152  -5.233  0.00  0.00     0.124 A 
ATOM      9  C   LIG d   1       8.744   3.043  -4.288  0.00  0.00     0.023 A 
ATOM     10  C   LIG d   1       9.601   4.068  -4.669  0.00  0.00     0.143 A 
ATOM     11  O   LIG d   1      10.197   5.048  -3.955  0.00  0.00    -0.451 OA
ATOM     12  H   LIG d   1      12.176   7.553  -5.048  0.00  0.00     0.066 H 
ATOM     13  H   LIG d   1       9.764   3.365  -8.000  0.00  0.00     0.063 H 
ATOM     14  H   LIG d   1       8.256   1.571  -7.299  0.00  0.00     0.065 H 
ATOM     15  H   LIG d   1       8.451   2.941  -3.252  0.00  0.00     0.069 H 
ENDROOT
BRANCH   1  16
ATOM     16  C   LIG d   1      11.816   7.208  -2.893  0.00  0.00     0.024 A 
ATOM     17  C   LIG d   1      12.787   6.549  -2.123  0.00  0.00    -0.005 A 
ATOM     18  C   LIG d   1      12.903   6.832  -0.778  0.00  0.00     0.162 A 
ATOM     19  H   LIG d   1      13.444   5.827  -2.583  0.00  0.00     0.066 H 
ATOM     20  C   LIG d   1      12.052   7.762  -0.179  0.00  0.00     0.165 A 
ATOM     21  C   LIG d   1      11.090   8.417  -0.934  0.00  0.00     0.026 A 
ATOM     22  C   LIG d   1      10.965   8.148  -2.285  0.00  0.00     0.131 A 
ATOM     23  H   LIG d   1      10.437   9.139  -0.466  0.00  0.00     0.069 H 
BRANCH  18  24
ATOM     24  O   LIG d   1      13.848   6.198  -0.032  0.00  0.00    -0.491 OA
BRANCH  24  25
ATOM     25  C   LIG d   1      15.196   6.256  -0.503  0.00  0.00     0.079 C 
ATOM     26  H   LIG d   1      15.196   6.413  -1.582  0.00  0.00     0.066 H 
ATOM     27  H   LIG d   1      15.716   7.080  -0.016  0.00  0.00     0.066 H 
ATOM     28  H   LIG d   1      15.702   5.319  -0.272  0.00  0.00     0.066 H 
ENDBRANCH  24  25
ENDBRANCH  18  24
BRANCH  20  29
ATOM     29  O   LIG d   1      12.169   8.029   1.146  0.00  0.00    -0.491 OA
BRANCH  29  30
ATOM     30  C   LIG d   1      12.063   9.398   1.544  0.00  0.00     0.079 C 
ATOM     31  H   LIG d   1      11.012   9.681   1.597  0.00  0.00     0.066 H 
ATOM     32  H   LIG d   1      12.573  10.029   0.816  0.00  0.00     0.066 H 
ATOM     33  H   LIG d   1      12.524   9.529   2.523  0.00  0.00     0.066 H 
ENDBRANCH  29  30
ENDBRANCH  20  29
BRANCH  22  34
ATOM     34  O   LIG d   1      10.023   8.789  -3.022  0.00  0.00    -0.494 OA
BRANCH  34  35
ATOM     35  C   LIG d   1       9.917  10.204  -2.850  0.00  0.00     0.079 C 
ATOM     36  H   LIG d   1      10.206  10.705  -3.773  0.00  0.00     0.066 H 
ATOM     37  H   LIG d   1       8.888  10.463  -2.602  0.00  0.00     0.066 H 
ATOM     38  H   LIG d   1      10.576  10.522  -2.042  0.00  0.00     0.066 H 
ENDBRANCH  34  35
ENDBRANCH  22  34
ENDBRANCH   1  16
BRANCH   8  39
ATOM     39  O   LIG d   1       7.428   1.153  -4.854  0.00  0.00    -0.487 OA
BRANCH  39  40
ATOM     40  C   LIG d   1       7.287   0.922  -3.451  0.00  0.00     0.116 C 
ATOM     41  H   LIG d   1       8.018   0.179  -3.130  0.00  0.00     0.075 H 
ATOM     42  H   LIG d   1       7.454   1.853  -2.910  0.00  0.00     0.075 H 
BRANCH  40  43
ATOM     43  C   LIG d   1       5.897   0.416  -3.162  0.00  0.00     0.008 A 
ATOM     44  C   LIG d   1       5.632  -0.941  -3.207  0.00  0.00     0.050 A 
ATOM     45  C   LIG d   1       4.358  -1.406  -2.936  0.00  0.00    -0.008 A 
ATOM     46 CL   LIG d   1       6.900  -2.061  -3.596  0.00  0.00    -0.083 Cl
ATOM     47  C   LIG d   1       3.346  -0.512  -2.631  0.00  0.00     0.125 A 
ATOM     48  H   LIG d   1       4.151  -2.465  -2.966  0.00  0.00     0.066 H 
ATOM     49  C   LIG d   1       3.611   0.847  -2.592  0.00  0.00    -0.026 A 
ATOM     50  F   LIG d   1       2.100  -0.965  -2.371  0.00  0.00    -0.205 F 
ATOM     51  C   LIG d   1       4.886   1.309  -2.858  0.00  0.00    -0.051 A 
ATOM     52  H   LIG d   1       2.823   1.545  -2.355  0.00  0.00     0.065 H 
ATOM     53  H   LIG d   1       5.093   2.369  -2.827  0.00  0.00     0.062 H 
ENDBRANCH  40  43
ENDBRANCH  39  40
ENDBRANCH   8  39
TORSDOF 10
ENDMDL
MODEL 7
REMARK VINA RESULT:      -6.5      7.621     13.182
REMARK  10 active torsions:
REMARK  status: ('A' for Active; 'I' for Inactive)
REMARK    1  A    between atoms: C_1  and  O_2 
REMARK    2  A    between atoms: O_2  and  C_3 
REMARK    3  A    between atoms: C_5  and  C_13 
REMARK    4  A    between atoms: C_6  and  O_11 
REMARK    5  A    between atoms: C_8  and  O_9 
REMARK    6  A    between atoms: O_9  and  C_10 
REMARK    7  A    between atoms: O_11  and  C_12 
REMARK    8  A    between atoms: C_20  and  O_24 
REMARK    9  A    between atoms: O_24  and  C_25 
REMARK   10  A    between atoms: C_25  and  C_26 
ROOT
ATOM      1  C   LIG d   1       1.475  -3.215 -12.322  0.00  0.00    -0.005 C 
ATOM      2  C   LIG d   1       1.970  -2.250 -11.501  0.00  0.00     0.176 A 
ATOM      3  C   LIG d   1       2.833  -1.131 -11.899  0.00  0.00     0.232 A 
ATOM      4  O   LIG d   1       3.252  -0.872 -13.014  0.00  0.00    -0.283 OA
ATOM      5  C   LIG d   1       3.078  -0.390 -10.648  0.00  0.00     0.068 A 
ATOM      6  C   LIG d   1       3.810   0.760 -10.347  0.00  0.00    -0.044 A 
ATOM      7  C   LIG d   1       3.859   1.218  -9.061  0.00  0.00    -0.019 A 
ATOM      8  C   LIG d   1       3.181   0.542  -8.050  0.00  0.00     0.124 A 
ATOM      9  C   LIG d   1       2.451  -0.600  -8.335  0.00  0.00     0.023 A 
ATOM     10  C   LIG d   1       2.390  -1.081  -9.637  0.00  0.00     0.143 A 
ATOM     11  O   LIG d   1       1.760  -2.151 -10.166  0.00  0.00    -0.451 OA
ATOM     12  H   LIG d   1       1.799  -3.265 -13.351  0.00  0.00     0.066 H 
ATOM     13  H   LIG d   1       4.336   1.285 -11.130  0.00  0.00     0.063 H 
ATOM     14  H   LIG d   1       4.425   2.108  -8.828  0.00  0.00     0.065 H 
ATOM     15  H   LIG d   1       1.928  -1.118  -7.543  0.00  0.00     0.069 H 
ENDROOT
BRANCH   1  16
ATOM     16  C   LIG d   1       0.502  -4.183 -11.813  0.00  0.00     0.024 A 
ATOM     17  C   LIG d   1       0.931  -5.267 -11.032  0.00  0.00    -0.005 A 
ATOM     18  C   LIG d   1       0.009  -6.172 -10.551  0.00  0.00     0.162 A 
ATOM     19  H   LIG d   1       1.979  -5.389 -10.804  0.00  0.00     0.066 H 
ATOM     20  C   LIG d   1      -1.347  -6.020 -10.847  0.00  0.00     0.165 A 
ATOM     21  C   LIG d   1      -1.778  -4.951 -11.618  0.00  0.00     0.026 A 
ATOM     22  C   LIG d   1      -0.865  -4.031 -12.103  0.00  0.00     0.131 A 
ATOM     23  H   LIG d   1      -2.829  -4.836 -11.841  0.00  0.00     0.069 H 
BRANCH  18  24
ATOM     24  O   LIG d   1       0.423  -7.221  -9.789  0.00  0.00    -0.491 OA
BRANCH  24  25
ATOM     25  C   LIG d   1       1.118  -8.275 -10.457  0.00  0.00     0.079 C 
ATOM     26  H   LIG d   1       0.397  -8.949 -10.921  0.00  0.00     0.066 H 
ATOM     27  H   LIG d   1       1.767  -7.854 -11.224  0.00  0.00     0.066 H 
ATOM     28  H   LIG d   1       1.720  -8.828  -9.736  0.00  0.00     0.066 H 
ENDBRANCH  24  25
ENDBRANCH  18  24
BRANCH  20  29
ATOM     29  O   LIG d   1      -2.247  -6.919 -10.375  0.00  0.00    -0.491 OA
BRANCH  29  30
ATOM     30  C   LIG d   1      -2.856  -6.628  -9.115  0.00  0.00     0.079 C 
ATOM     31  H   LIG d   1      -2.899  -7.536  -8.514  0.00  0.00     0.066 H 
ATOM     32  H   LIG d   1      -3.865  -6.250  -9.277  0.00  0.00     0.066 H 
ATOM     33  H   LIG d   1      -2.266  -5.875  -8.592  0.00  0.00     0.066 H 
ENDBRANCH  29  30
ENDBRANCH  20  29
BRANCH  22  34
ATOM     34  O   LIG d   1      -1.289  -2.985 -12.858  0.00  0.00    -0.494 OA
BRANCH  34  35
ATOM     35  C   LIG d   1      -2.513  -3.156 -13.575  0.00  0.00     0.079 C 
ATOM     36  H   LIG d   1      -2.579  -4.181 -13.941  0.00  0.00     0.066 H 
ATOM     37  H   LIG d   1      -3.353  -2.950 -12.913  0.00  0.00     0.066 H 
ATOM     38  H   LIG d   1      -2.538  -2.467 -14.420  0.00  0.00     0.066 H 
ENDBRANCH  34  35
ENDBRANCH  22  34
ENDBRANCH   1  16
BRANCH   8  39
ATOM     39  O   LIG d   1       3.236   1.006  -6.776  0.00  0.00    -0.487 OA
BRANCH  39  40
ATOM     40  C   LIG d   1       2.489   0.289  -5.791  0.00  0.00     0.116 C 
ATOM     41  H   LIG d   1       1.481   0.701  -5.729  0.00  0.00     0.075 H 
ATOM     42  H   LIG d   1       2.434  -0.763  -6.071  0.00  0.00     0.075 H 
BRANCH  40  43
ATOM     43  C   LIG d   1       3.168   0.418  -4.452  0.00  0.00     0.008 A 
ATOM     44  C   LIG d   1       4.009  -0.584  -4.004  0.00  0.00     0.050 A 
ATOM     45  C   LIG d   1       4.638  -0.463  -2.778  0.00  0.00    -0.008 A 
ATOM     46 CL   LIG d   1       4.282  -1.991  -4.984  0.00  0.00    -0.083 Cl
ATOM     47  C   LIG d   1       4.415   0.656  -1.995  0.00  0.00     0.125 A 
ATOM     48  H   LIG d   1       5.298  -1.244  -2.429  0.00  0.00     0.066 H 
ATOM     49  C   LIG d   1       3.568   1.656  -2.442  0.00  0.00    -0.026 A 
ATOM     50  F   LIG d   1       5.024   0.773  -0.794  0.00  0.00    -0.205 F 
ATOM     51  C   LIG d   1       2.946   1.536  -3.670  0.00  0.00    -0.051 A 
ATOM     52  H   LIG d   1       3.394   2.530  -1.832  0.00  0.00     0.065 H 
ATOM     53  H   LIG d   1       2.285   2.316  -4.019  0.00  0.00     0.062 H 
ENDBRANCH  40  43
ENDBRANCH  39  40
ENDBRANCH   8  39
TORSDOF 10
ENDMDL
MODEL 8
REMARK VINA RESULT:      -6.5      2.063      3.090
REMARK  10 active torsions:
REMARK  status: ('A' for Active; 'I' for Inactive)
REMARK    1  A    between atoms: C_1  and  O_2 
REMARK    2  A    between atoms: O_2  and  C_3 
REMARK    3  A    between atoms: C_5  and  C_13 
REMARK    4  A    between atoms: C_6  and  O_11 
REMARK    5  A    between atoms: C_8  and  O_9 
REMARK    6  A    between atoms: O_9  and  C_10 
REMARK    7  A    between atoms: O_11  and  C_12 
REMARK    8  A    between atoms: C_20  and  O_24 
REMARK    9  A    between atoms: O_24  and  C_25 
REMARK   10  A    between atoms: C_25  and  C_26 
ROOT
ATOM      1  C   LIG d   1      12.459   6.456  -2.249  0.00  0.00    -0.005 C 
ATOM      2  C   LIG d   1      11.815   5.343  -2.689  0.00  0.00     0.176 A 
ATOM      3  C   LIG d   1      12.447   4.118  -3.194  0.00  0.00     0.232 A 
ATOM      4  O   LIG d   1      13.638   3.885  -3.307  0.00  0.00    -0.283 OA
ATOM      5  C   LIG d   1      11.318   3.231  -3.533  0.00  0.00     0.068 A 
ATOM      6  C   LIG d   1      11.242   1.938  -4.052  0.00  0.00    -0.044 A 
ATOM      7  C   LIG d   1      10.023   1.362  -4.269  0.00  0.00    -0.019 A 
ATOM      8  C   LIG d   1       8.855   2.063  -3.975  0.00  0.00     0.124 A 
ATOM      9  C   LIG d   1       8.916   3.347  -3.460  0.00  0.00     0.023 A 
ATOM     10  C   LIG d   1      10.148   3.947  -3.232  0.00  0.00     0.143 A 
ATOM     11  O   LIG d   1      10.473   5.165  -2.746  0.00  0.00    -0.451 OA
ATOM     12  H   LIG d   1      13.531   6.537  -2.354  0.00  0.00     0.066 H 
ATOM     13  H   LIG d   1      12.147   1.394  -4.280  0.00  0.00     0.063 H 
ATOM     14  H   LIG d   1       9.964   0.362  -4.671  0.00  0.00     0.065 H 
ATOM     15  H   LIG d   1       8.004   3.882  -3.235  0.00  0.00     0.069 H 
ENDROOT
BRANCH   1  16
ATOM     16  C   LIG d   1      11.700   7.546  -1.630  0.00  0.00     0.024 A 
ATOM     17  C   LIG d   1      11.133   8.550  -2.429  0.00  0.00    -0.005 A 
ATOM     18  C   LIG d   1      10.416   9.570  -1.840  0.00  0.00     0.162 A 
ATOM     19  H   LIG d   1      11.254   8.522  -3.501  0.00  0.00     0.066 H 
ATOM     20  C   LIG d   1      10.262   9.612  -0.454  0.00  0.00     0.165 A 
ATOM     21  C   LIG d   1      10.819   8.622   0.342  0.00  0.00     0.026 A 
ATOM     22  C   LIG d   1      11.537   7.589  -0.234  0.00  0.00     0.131 A 
ATOM     23  H   LIG d   1      10.693   8.658   1.414  0.00  0.00     0.069 H 
BRANCH  18  24
ATOM     24  O   LIG d   1       9.861  10.543  -2.614  0.00  0.00    -0.491 OA
BRANCH  24  25
ATOM     25  C   LIG d   1       9.876  10.335  -4.028  0.00  0.00     0.079 C 
ATOM     26  H   LIG d   1      10.154  11.263  -4.528  0.00  0.00     0.066 H 
ATOM     27  H   LIG d   1      10.599   9.558  -4.274  0.00  0.00     0.066 H 
ATOM     28  H   LIG d   1       8.884  10.027  -4.360  0.00  0.00     0.066 H 
ENDBRANCH  24  25
ENDBRANCH  18  24
BRANCH  20  29
ATOM     29  O   LIG d   1       9.559  10.623   0.118  0.00  0.00    -0.491 OA
BRANCH  29  30
ATOM     30  C   LIG d   1      10.312  11.708   0.666  0.00  0.00     0.079 C 
ATOM     31  H   LIG d   1      10.603  12.388  -0.135  0.00  0.00     0.066 H 
ATOM     32  H   LIG d   1      11.204  11.320   1.157  0.00  0.00     0.066 H 
ATOM     33  H   LIG d   1       9.701  12.244   1.392  0.00  0.00     0.066 H 
ENDBRANCH  29  30
ENDBRANCH  20  29
BRANCH  22  34
ATOM     34  O   LIG d   1      12.082   6.622   0.545  0.00  0.00    -0.494 OA
BRANCH  34  35
ATOM     35  C   LIG d   1      11.180   5.816   1.305  0.00  0.00     0.079 C 
ATOM     36  H   LIG d   1      11.346   5.988   2.369  0.00  0.00     0.066 H 
ATOM     37  H   LIG d   1      10.154   6.079   1.050  0.00  0.00     0.066 H 
ATOM     38  H   LIG d   1      11.352   4.763   1.077  0.00  0.00     0.066 H 
ENDBRANCH  34  35
ENDBRANCH  22  34
ENDBRANCH   1  16
BRANCH   8  39
ATOM     39  O   LIG d   1       7.648   1.482  -4.196  0.00  0.00    -0.487 OA
BRANCH  39  40
ATOM     40  C   LIG d   1       7.495   0.126  -3.776  0.00  0.00     0.116 C 
ATOM     41  H   LIG d   1       7.792  -0.542  -4.585  0.00  0.00     0.075 H 
ATOM     42  H   LIG d   1       8.123  -0.059  -2.905  0.00  0.00     0.075 H 
BRANCH  40  43
ATOM     43  C   LIG d   1       6.053  -0.129  -3.418  0.00  0.00     0.008 A 
ATOM     44  C   LIG d   1       5.519  -1.397  -3.560  0.00  0.00     0.050 A 
ATOM     45  C   LIG d   1       4.198  -1.633  -3.226  0.00  0.00    -0.008 A 
ATOM     46 CL   LIG d   1       6.510  -2.695  -4.150  0.00  0.00    -0.083 Cl
ATOM     47  C   LIG d   1       3.407  -0.596  -2.761  0.00  0.00     0.125 A 
ATOM     48  H   LIG d   1       3.782  -2.624  -3.333  0.00  0.00     0.066 H 
ATOM     49  C   LIG d   1       3.941   0.674  -2.625  0.00  0.00    -0.026 A 
ATOM     50  F   LIG d   1       2.114  -0.824  -2.440  0.00  0.00    -0.205 F 
ATOM     51  C   LIG d   1       5.263   0.906  -2.953  0.00  0.00    -0.051 A 
ATOM     52  H   LIG d   1       3.326   1.483  -2.262  0.00  0.00     0.065 H 
ATOM     53  H   LIG d   1       5.680   1.897  -2.847  0.00  0.00     0.062 H 
ENDBRANCH  40  43
ENDBRANCH  39  40
ENDBRANCH   8  39
TORSDOF 10
ENDMDL
MODEL 9
REMARK VINA RESULT:      -6.5      5.688     10.128
REMARK  10 active torsions:
REMARK  status: ('A' for Active; 'I' for Inactive)
REMARK    1  A    between atoms: C_1  and  O_2 
REMARK    2  A    between atoms: O_2  and  C_3 
REMARK    3  A    between atoms: C_5  and  C_13 
REMARK    4  A    between atoms: C_6  and  O_11 
REMARK    5  A    between atoms: C_8  and  O_9 
REMARK    6  A    between atoms: O_9  and  C_10 
REMARK    7  A    between atoms: O_11  and  C_12 
REMARK    8  A    between atoms: C_20  and  O_24 
REMARK    9  A    between atoms: O_24  and  C_25 
REMARK   10  A    between atoms: C_25  and  C_26 
ROOT
ATOM      1  C   LIG d   1       4.634   1.031 -10.722  0.00  0.00    -0.005 C 
ATOM      2  C   LIG d   1       5.377   0.773  -9.612  0.00  0.00     0.176 A 
ATOM      3  C   LIG d   1       6.355   1.675  -8.994  0.00  0.00     0.232 A 
ATOM      4  O   LIG d   1       6.671   2.796  -9.357  0.00  0.00    -0.283 OA
ATOM      5  C   LIG d   1       6.869   0.925  -7.833  0.00  0.00     0.068 A 
ATOM      6  C   LIG d   1       7.810   1.220  -6.845  0.00  0.00    -0.044 A 
ATOM      7  C   LIG d   1       8.089   0.301  -5.875  0.00  0.00    -0.019 A 
ATOM      8  C   LIG d   1       7.439  -0.931  -5.869  0.00  0.00     0.124 A 
ATOM      9  C   LIG d   1       6.503  -1.237  -6.843  0.00  0.00     0.023 A 
ATOM     10  C   LIG d   1       6.207  -0.313  -7.837  0.00  0.00     0.143 A 
ATOM     11  O   LIG d   1       5.350  -0.367  -8.880  0.00  0.00    -0.451 OA
ATOM     12  H   LIG d   1       4.818   1.928 -11.297  0.00  0.00     0.066 H 
ATOM     13  H   LIG d   1       8.314   2.175  -6.849  0.00  0.00     0.063 H 
ATOM     14  H   LIG d   1       8.817   0.529  -5.110  0.00  0.00     0.065 H 
ATOM     15  H   LIG d   1       6.004  -2.195  -6.829  0.00  0.00     0.069 H 
ENDROOT
BRANCH   1  16
ATOM     16  C   LIG d   1       3.587   0.097 -11.137  0.00  0.00     0.024 A 
ATOM     17  C   LIG d   1       3.732  -0.644 -12.320  0.00  0.00    -0.005 A 
ATOM     18  C   LIG d   1       2.744  -1.526 -12.702  0.00  0.00     0.162 A 
ATOM     19  H   LIG d   1       4.618  -0.527 -12.926  0.00  0.00     0.066 H 
ATOM     20  C   LIG d   1       1.596  -1.676 -11.923  0.00  0.00     0.165 A 
ATOM     21  C   LIG d   1       1.445  -0.948 -10.753  0.00  0.00     0.026 A 
ATOM     22  C   LIG d   1       2.430  -0.063 -10.353  0.00  0.00     0.131 A 
ATOM     23  H   LIG d   1       0.556  -1.071 -10.151  0.00  0.00     0.069 H 
BRANCH  18  24
ATOM     24  O   LIG d   1       2.887  -2.249 -13.846  0.00  0.00    -0.491 OA
BRANCH  24  25
ATOM     25  C   LIG d   1       3.218  -1.527 -15.034  0.00  0.00     0.079 C 
ATOM     26  H   LIG d   1       2.798  -0.523 -14.977  0.00  0.00     0.066 H 
ATOM     27  H   LIG d   1       4.301  -1.463 -15.130  0.00  0.00     0.066 H 
ATOM     28  H   LIG d   1       2.806  -2.045 -15.900  0.00  0.00     0.066 H 
ENDBRANCH  24  25
ENDBRANCH  18  24
BRANCH  20  29
ATOM     29  O   LIG d   1       0.625  -2.542 -12.310  0.00  0.00    -0.491 OA
BRANCH  29  30
ATOM     30  C   LIG d   1      -0.460  -2.004 -13.069  0.00  0.00     0.079 C 
ATOM     31  H   LIG d   1      -0.074  -1.546 -13.980  0.00  0.00     0.066 H 
ATOM     32  H   LIG d   1      -0.981  -1.253 -12.476  0.00  0.00     0.066 H 
ATOM     33  H   LIG d   1      -1.153  -2.804 -13.331  0.00  0.00     0.066 H 
ENDBRANCH  29  30
ENDBRANCH  20  29
BRANCH  22  34
ATOM     34  O   LIG d   1       2.281   0.650  -9.208  0.00  0.00    -0.494 OA
BRANCH  34  35
ATOM     35  C   LIG d   1       2.298  -0.082  -7.981  0.00  0.00     0.079 C 
ATOM     36  H   LIG d   1       2.848   0.483  -7.228  0.00  0.00     0.066 H 
ATOM     37  H   LIG d   1       1.276  -0.245  -7.640  0.00  0.00     0.066 H 
ATOM     38  H   LIG d   1       2.786  -1.045  -8.139  0.00  0.00     0.066 H 
ENDBRANCH  34  35
ENDBRANCH  22  34
ENDBRANCH   1  16
BRANCH   8  39
ATOM     39  O   LIG d   1       7.725  -1.838  -4.900  0.00  0.00    -0.487 OA
BRANCH  39  40
ATOM     40  C   LIG d   1       7.515  -1.431  -3.547  0.00  0.00     0.116 C 
ATOM     41  H   LIG d   1       7.925  -2.183  -2.873  0.00  0.00     0.075 H 
ATOM     42  H   LIG d   1       8.012  -0.477  -3.373  0.00  0.00     0.075 H 
BRANCH  40  43
ATOM     43  C   LIG d   1       6.037  -1.280  -3.292  0.00  0.00     0.008 A 
ATOM     44  C   LIG d   1       5.491  -0.023  -3.109  0.00  0.00     0.050 A 
ATOM     45  C   LIG d   1       4.134   0.116  -2.881  0.00  0.00    -0.008 A 
ATOM     46 CL   LIG d   1       6.509   1.383  -3.175  0.00  0.00    -0.083 Cl
ATOM     47  C   LIG d   1       3.325  -1.006  -2.823  0.00  0.00     0.125 A 
ATOM     48  H   LIG d   1       3.707   1.098  -2.742  0.00  0.00     0.066 H 
ATOM     49  C   LIG d   1       3.874  -2.265  -3.000  0.00  0.00    -0.026 A 
ATOM     50  F   LIG d   1       2.000  -0.872  -2.594  0.00  0.00    -0.205 F 
ATOM     51  C   LIG d   1       5.229  -2.401  -3.234  0.00  0.00    -0.051 A 
ATOM     52  H   LIG d   1       3.244  -3.140  -2.955  0.00  0.00     0.065 H 
ATOM     53  H   LIG d   1       5.656  -3.383  -3.372  0.00  0.00     0.062 H 
ENDBRANCH  40  43
ENDBRANCH  39  40
ENDBRANCH   8  39
TORSDOF 10
ENDMDL
MODEL 10
REMARK VINA RESULT:      -6.3      7.588     13.362
REMARK  10 active torsions:
REMARK  status: ('A' for Active; 'I' for Inactive)
REMARK    1  A    between atoms: C_1  and  O_2 
REMARK    2  A    between atoms: O_2  and  C_3 
REMARK    3  A    between atoms: C_5  and  C_13 
REMARK    4  A    between atoms: C_6  and  O_11 
REMARK    5  A    between atoms: C_8  and  O_9 
REMARK    6  A    between atoms: O_9  and  C_10 
REMARK    7  A    between atoms: O_11  and  C_12 
REMARK    8  A    between atoms: C_20  and  O_24 
REMARK    9  A    between atoms: O_24  and  C_25 
REMARK   10  A    between atoms: C_25  and  C_26 
ROOT
ATOM      1  C   LIG d   1       0.789  -3.817 -11.794  0.00  0.00    -0.005 C 
ATOM      2  C   LIG d   1       1.307  -2.823 -11.024  0.00  0.00     0.176 A 
ATOM      3  C   LIG d   1       1.079  -1.384 -11.197  0.00  0.00     0.232 A 
ATOM      4  O   LIG d   1       0.398  -0.832 -12.044  0.00  0.00    -0.283 OA
ATOM      5  C   LIG d   1       1.857  -0.753 -10.114  0.00  0.00     0.068 A 
ATOM      6  C   LIG d   1       2.056   0.574  -9.729  0.00  0.00    -0.044 A 
ATOM      7  C   LIG d   1       2.855   0.859  -8.658  0.00  0.00    -0.019 A 
ATOM      8  C   LIG d   1       3.470  -0.170  -7.950  0.00  0.00     0.124 A 
ATOM      9  C   LIG d   1       3.281  -1.491  -8.321  0.00  0.00     0.023 A 
ATOM     10  C   LIG d   1       2.472  -1.799  -9.407  0.00  0.00     0.143 A 
ATOM     11  O   LIG d   1       2.132  -2.983  -9.961  0.00  0.00    -0.451 OA
ATOM     12  H   LIG d   1       0.234  -3.573 -12.689  0.00  0.00     0.066 H 
ATOM     13  H   LIG d   1       1.579   1.372 -10.277  0.00  0.00     0.063 H 
ATOM     14  H   LIG d   1       3.009   1.886  -8.361  0.00  0.00     0.065 H 
ATOM     15  H   LIG d   1       3.763  -2.282  -7.765  0.00  0.00     0.069 H 
ENDROOT
BRANCH   1  16
ATOM     16  C   LIG d   1       0.980  -5.217 -11.411  0.00  0.00     0.024 A 
ATOM     17  C   LIG d   1       2.112  -5.920 -11.853  0.00  0.00    -0.005 A 
ATOM     18  C   LIG d   1       2.289  -7.236 -11.484  0.00  0.00     0.162 A 
ATOM     19  H   LIG d   1       2.844  -5.429 -12.476  0.00  0.00     0.066 H 
ATOM     20  C   LIG d   1       1.341  -7.875 -10.683  0.00  0.00     0.165 A 
ATOM     21  C   LIG d   1       0.220  -7.188 -10.242  0.00  0.00     0.026 A 
ATOM     22  C   LIG d   1       0.032  -5.864 -10.599  0.00  0.00     0.131 A 
ATOM     23  H   LIG d   1      -0.508  -7.686  -9.618  0.00  0.00     0.069 H 
BRANCH  18  24
ATOM     24  O   LIG d   1       3.388  -7.917 -11.907  0.00  0.00    -0.491 OA
BRANCH  24  25
ATOM     25  C   LIG d   1       3.679  -7.876 -13.306  0.00  0.00     0.079 C 
ATOM     26  H   LIG d   1       4.136  -8.818 -13.609  0.00  0.00     0.066 H 
ATOM     27  H   LIG d   1       2.757  -7.721 -13.864  0.00  0.00     0.066 H 
ATOM     28  H   LIG d   1       4.369  -7.056 -13.509  0.00  0.00     0.066 H 
ENDBRANCH  24  25
ENDBRANCH  18  24
BRANCH  20  29
ATOM     29  O   LIG d   1       1.519  -9.174 -10.329  0.00  0.00    -0.491 OA
BRANCH  29  30
ATOM     30  C   LIG d   1       0.755 -10.151 -11.040  0.00  0.00     0.079 C 
ATOM     31  H   LIG d   1       0.562 -11.003 -10.389  0.00  0.00     0.066 H 
ATOM     32  H   LIG d   1       1.313 -10.481 -11.916  0.00  0.00     0.066 H 
ATOM     33  H   LIG d   1      -0.191  -9.712 -11.356  0.00  0.00     0.066 H 
ENDBRANCH  29  30
ENDBRANCH  20  29
BRANCH  22  34
ATOM     34  O   LIG d   1      -1.066  -5.192 -10.167  0.00  0.00    -0.494 OA
BRANCH  34  35
ATOM     35  C   LIG d   1      -2.033  -5.938  -9.427  0.00  0.00     0.079 C 
ATOM     36  H   LIG d   1      -2.970  -5.970  -9.983  0.00  0.00     0.066 H 
ATOM     37  H   LIG d   1      -1.668  -6.953  -9.270  0.00  0.00     0.066 H 
ATOM     38  H   LIG d   1      -2.201  -5.459  -8.461  0.00  0.00     0.066 H 
ENDBRANCH  34  35
ENDBRANCH  22  34
ENDBRANCH   1  16
BRANCH   8  39
ATOM     39  O   LIG d   1       4.263   0.124  -6.888  0.00  0.00    -0.487 OA
BRANCH  39  40
ATOM     40  C   LIG d   1       4.458  -0.906  -5.919  0.00  0.00     0.116 C 
ATOM     41  H   LIG d   1       3.620  -1.604  -5.956  0.00  0.00     0.075 H 
ATOM     42  H   LIG d   1       5.384  -1.439  -6.135  0.00  0.00     0.075 H 
BRANCH  40  43
ATOM     43  C   LIG d   1       4.540  -0.294  -4.544  0.00  0.00     0.008 A 
ATOM     44  C   LIG d   1       3.390   0.140  -3.910  0.00  0.00     0.050 A 
ATOM     45  C   LIG d   1       3.463   0.696  -2.646  0.00  0.00    -0.008 A 
ATOM     46 CL   LIG d   1       1.851  -0.021  -4.699  0.00  0.00    -0.083 Cl
ATOM     47  C   LIG d   1       4.691   0.829  -2.021  0.00  0.00     0.125 A 
ATOM     48  H   LIG d   1       2.565   1.031  -2.150  0.00  0.00     0.066 H 
ATOM     49  C   LIG d   1       5.843   0.400  -2.658  0.00  0.00    -0.026 A 
ATOM     50  F   LIG d   1       4.766   1.377  -0.788  0.00  0.00    -0.205 F 
ATOM     51  C   LIG d   1       5.766  -0.162  -3.919  0.00  0.00    -0.051 A 
ATOM     52  H   LIG d   1       6.801   0.502  -2.171  0.00  0.00     0.065 H 
ATOM     53  H   LIG d   1       6.664  -0.496  -4.416  0.00  0.00     0.062 H 
ENDBRANCH  40  43
ENDBRANCH  39  40
ENDBRANCH   8  39
TORSDOF 10
ENDMDL
