MODEL 1
REMARK VINA RESULT:      -6.4      0.000      0.000
REMARK  9 active torsions:
REMARK  status: ('A' for Active; 'I' for Inactive)
REMARK    1  A    between atoms: C_1  and  C_2 
REMARK    2  A    between atoms: C_2  and  O_3 
REMARK    3  A    between atoms: O_3  and  C_4 
REMARK    4  A    between atoms: C_4  and  C_6 
REMARK    5  A    between atoms: C_7  and  N_33 
REMARK    6  A    between atoms: C_11  and  O_32 
REMARK    7  A    between atoms: C_25  and  C_30 
REMARK    8  A    between atoms: C_25  and  C_31 
REMARK    9  A    between atoms: C_27  and  C_29 
ROOT
ATOM      1  C   LIG d   1       3.836  -0.987  -7.622  0.00  0.00     0.117 C 
ATOM      2  C   LIG d   1       3.442  -1.772  -8.659  0.00  0.00     0.196 C 
ATOM      3  O   LIG d   1       3.721  -3.085  -8.700  0.00  0.00    -0.441 OA
ATOM      4  C   LIG d   1       4.054  -3.747  -7.565  0.00  0.00     0.138 A 
ATOM      5  C   LIG d   1       3.951  -5.131  -7.529  0.00  0.00     0.022 A 
ATOM      6  C   LIG d   1       4.287  -5.822  -6.376  0.00  0.00     0.120 A 
ATOM      7  C   LIG d   1       4.730  -5.129  -5.258  0.00  0.00    -0.020 A 
ATOM      8  C   LIG d   1       4.831  -3.752  -5.295  0.00  0.00    -0.050 A 
ATOM      9  C   LIG d   1       4.494  -3.059  -6.444  0.00  0.00     0.019 A 
ATOM     10  C   LIG d   1       4.606  -1.560  -6.467  0.00  0.00     0.139 A 
ATOM     11  C   LIG d   1       6.037  -1.130  -6.508  0.00  0.00    -0.002 A 
ATOM     12  C   LIG d   1       7.072  -1.304  -7.401  0.00  0.00    -0.055 A 
ATOM     13  C   LIG d   1       8.295  -0.731  -7.069  0.00  0.00    -0.061 A 
ATOM     14  C   LIG d   1       8.490  -0.015  -5.897  0.00  0.00    -0.057 A 
ATOM     15  C   LIG d   1       7.461   0.160  -5.003  0.00  0.00    -0.023 A 
ATOM     16  C   LIG d   1       6.236  -0.411  -5.338  0.00  0.00     0.045 A 
ATOM     17  N   LIG d   1       5.080  -0.338  -4.563  0.00  0.00    -0.264 N 
ATOM     18  C   LIG d   1       4.072  -0.991  -5.161  0.00  0.00     0.240 A 
ATOM     19  O   LIG d   1       2.941  -1.106  -4.739  0.00  0.00    -0.274 OA
ATOM     20  C   LIG d   1       5.091   0.389  -3.282  0.00  0.00     0.037 C 
ATOM     21  C   LIG d   1       6.164   1.482  -3.356  0.00  0.00    -0.025 C 
ATOM     22  C   LIG d   1       7.540   0.906  -3.703  0.00  0.00    -0.015 C 
ATOM     23  H   LIG d   1       7.859   0.226  -2.913  0.00  0.00     0.035 H 
ATOM     24  H   LIG d   1       3.607  -5.669  -8.400  0.00  0.00     0.069 H 
ATOM     25  H   LIG d   1       4.995  -5.666  -4.359  0.00  0.00     0.065 H 
ATOM     26  H   LIG d   1       5.175  -3.215  -4.424  0.00  0.00     0.062 H 
ATOM     27  H   LIG d   1       6.939  -1.860  -8.318  0.00  0.00     0.062 H 
ATOM     28  H   LIG d   1       9.124  -0.849  -7.750  0.00  0.00     0.062 H 
ATOM     29  H   LIG d   1       9.460   0.410  -5.686  0.00  0.00     0.062 H 
ATOM     30  H   LIG d   1       6.223   1.987  -2.391  0.00  0.00     0.029 H 
ATOM     31  H   LIG d   1       5.880   2.207  -4.118  0.00  0.00     0.029 H 
ENDROOT
BRANCH   1  32
ATOM     32  C   LIG d   1       3.519   0.378  -7.631  0.00  0.00     0.342 C 
ATOM     33  O   LIG d   1       2.460   0.761  -7.167  0.00  0.00    -0.245 OA
BRANCH  32  34
ATOM     34  O   LIG d   1       4.387   1.269  -8.157  0.00  0.00    -0.462 OA
BRANCH  34  35
ATOM     35  C   LIG d   1       3.836   2.313  -8.963  0.00  0.00     0.090 C 
ATOM     36  H   LIG d   1       2.809   2.506  -8.655  0.00  0.00     0.070 H 
ATOM     37  H   LIG d   1       4.430   3.219  -8.838  0.00  0.00     0.070 H 
BRANCH  35  38
ATOM     38  C   LIG d   1       3.858   1.888 -10.432  0.00  0.00    -0.031 C 
ATOM     39  H   LIG d   1       2.979   2.286 -10.940  0.00  0.00     0.026 H 
ATOM     40  H   LIG d   1       4.758   2.276 -10.909  0.00  0.00     0.026 H 
ATOM     41  H   LIG d   1       3.853   0.800 -10.496  0.00  0.00     0.026 H 
ENDBRANCH  35  38
ENDBRANCH  34  35
ENDBRANCH  32  34
ENDBRANCH   1  32
BRANCH   2  42
ATOM     42  N   LIG d   1       2.742  -1.208  -9.692  0.00  0.00    -0.329 N 
ATOM     43  H   LIG d   1       2.066  -1.725 -10.157  0.00  0.00     0.145 HD
ATOM     44  H   LIG d   1       2.924  -0.294  -9.957  0.00  0.00     0.145 HD
ENDBRANCH   2  42
BRANCH  20  45
ATOM     45  C   LIG d   1       5.418  -0.578  -2.143  0.00  0.00    -0.043 C 
ATOM     46  H   LIG d   1       5.069  -1.578  -2.402  0.00  0.00     0.025 H 
ATOM     47  H   LIG d   1       6.497  -0.600  -1.985  0.00  0.00     0.025 H 
ATOM     48  H   LIG d   1       4.924  -0.246  -1.231  0.00  0.00     0.025 H 
ENDBRANCH  20  45
BRANCH  20  49
ATOM     49  C   LIG d   1       3.721   1.027  -3.040  0.00  0.00    -0.043 C 
ATOM     50  H   LIG d   1       3.329   0.692  -2.080  0.00  0.00     0.025 H 
ATOM     51  H   LIG d   1       3.822   2.112  -3.034  0.00  0.00     0.025 H 
ATOM     52  H   LIG d   1       3.036   0.731  -3.836  0.00  0.00     0.025 H 
ENDBRANCH  20  49
BRANCH   6  53
ATOM     53  O   LIG d   1       4.186  -7.177  -6.341  0.00  0.00    -0.507 OA
ATOM     54  H   LIG d   1       5.038  -7.635  -6.327  0.00  0.00     0.292 HD
ENDBRANCH   6  53
BRANCH  22  55
ATOM     55  C   LIG d   1       8.551   2.047  -3.832  0.00  0.00    -0.058 C 
ATOM     56  H   LIG d   1       8.161   2.937  -3.337  0.00  0.00     0.024 H 
ATOM     57  H   LIG d   1       9.491   1.754  -3.364  0.00  0.00     0.024 H 
ATOM     58  H   LIG d   1       8.723   2.263  -4.886  0.00  0.00     0.024 H 
ENDBRANCH  22  55
TORSDOF 9
ENDMDL
MODEL 2
REMARK VINA RESULT:      -6.3      2.415      4.888
REMARK  9 active torsions:
REMARK  status: ('A' for Active; 'I' for Inactive)
REMARK    1  A    between atoms: C_1  and  C_2 
REMARK    2  A    between atoms: C_2  and  O_3 
REMARK    3  A    between atoms: O_3  and  C_4 
REMARK    4  A    between atoms: C_4  and  C_6 
REMARK    5  A    between atoms: C_7  and  N_33 
REMARK    6  A    between atoms: C_11  and  O_32 
REMARK    7  A    between atoms: C_25  and  C_30 
REMARK    8  A    between atoms: C_25  and  C_31 
REMARK    9  A    between atoms: C_27  and  C_29 
ROOT
ATOM      1  C   LIG d   1       7.385  -2.884  -5.259  0.00  0.00     0.117 C 
ATOM      2  C   LIG d   1       8.122  -3.935  -4.813  0.00  0.00     0.196 C 
ATOM      3  O   LIG d   1       7.610  -5.172  -4.724  0.00  0.00    -0.441 OA
ATOM      4  C   LIG d   1       6.494  -5.500  -5.420  0.00  0.00     0.138 A 
ATOM      5  C   LIG d   1       6.202  -6.838  -5.647  0.00  0.00     0.022 A 
ATOM      6  C   LIG d   1       5.065  -7.190  -6.357  0.00  0.00     0.120 A 
ATOM      7  C   LIG d   1       4.219  -6.202  -6.842  0.00  0.00    -0.020 A 
ATOM      8  C   LIG d   1       4.513  -4.871  -6.618  0.00  0.00    -0.050 A 
ATOM      9  C   LIG d   1       5.647  -4.517  -5.910  0.00  0.00     0.019 A 
ATOM     10  C   LIG d   1       5.954  -3.064  -5.677  0.00  0.00     0.139 A 
ATOM     11  C   LIG d   1       5.021  -2.473  -4.671  0.00  0.00    -0.002 A 
ATOM     12  C   LIG d   1       4.758  -2.716  -3.340  0.00  0.00    -0.055 A 
ATOM     13  C   LIG d   1       3.784  -1.927  -2.735  0.00  0.00    -0.061 A 
ATOM     14  C   LIG d   1       3.096  -0.936  -3.419  0.00  0.00    -0.057 A 
ATOM     15  C   LIG d   1       3.354  -0.692  -4.747  0.00  0.00    -0.023 A 
ATOM     16  C   LIG d   1       4.331  -1.480  -5.351  0.00  0.00     0.045 A 
ATOM     17  N   LIG d   1       4.733  -1.378  -6.681  0.00  0.00    -0.264 N 
ATOM     18  C   LIG d   1       5.689  -2.278  -6.953  0.00  0.00     0.240 A 
ATOM     19  O   LIG d   1       6.242  -2.437  -8.020  0.00  0.00    -0.274 OA
ATOM     20  C   LIG d   1       4.117  -0.376  -7.567  0.00  0.00     0.037 C 
ATOM     21  C   LIG d   1       3.636   0.800  -6.706  0.00  0.00    -0.025 C 
ATOM     22  C   LIG d   1       2.681   0.342  -5.600  0.00  0.00    -0.015 C 
ATOM     23  H   LIG d   1       1.784  -0.085  -6.049  0.00  0.00     0.035 H 
ATOM     24  H   LIG d   1       6.860  -7.606  -5.269  0.00  0.00     0.069 H 
ATOM     25  H   LIG d   1       3.332  -6.474  -7.394  0.00  0.00     0.065 H 
ATOM     26  H   LIG d   1       3.853  -4.104  -6.996  0.00  0.00     0.062 H 
ATOM     27  H   LIG d   1       5.283  -3.484  -2.791  0.00  0.00     0.062 H 
ATOM     28  H   LIG d   1       3.557  -2.092  -1.693  0.00  0.00     0.062 H 
ATOM     29  H   LIG d   1       2.349  -0.351  -2.903  0.00  0.00     0.062 H 
ATOM     30  H   LIG d   1       3.123   1.520  -7.344  0.00  0.00     0.029 H 
ATOM     31  H   LIG d   1       4.501   1.283  -6.251  0.00  0.00     0.029 H 
ENDROOT
BRANCH   1  32
ATOM     32  C   LIG d   1       7.970  -1.612  -5.331  0.00  0.00     0.342 C 
ATOM     33  O   LIG d   1       8.608  -1.288  -6.317  0.00  0.00    -0.245 OA
BRANCH  32  34
ATOM     34  O   LIG d   1       7.829  -0.745  -4.304  0.00  0.00    -0.462 OA
BRANCH  34  35
ATOM     35  C   LIG d   1       7.234   0.520  -4.601  0.00  0.00     0.090 C 
ATOM     36  H   LIG d   1       8.016   1.251  -4.803  0.00  0.00     0.070 H 
ATOM     37  H   LIG d   1       6.591   0.422  -5.476  0.00  0.00     0.070 H 
BRANCH  35  38
ATOM     38  C   LIG d   1       6.399   0.984  -3.406  0.00  0.00    -0.031 C 
ATOM     39  H   LIG d   1       5.724   0.184  -3.100  0.00  0.00     0.026 H 
ATOM     40  H   LIG d   1       7.061   1.236  -2.577  0.00  0.00     0.026 H 
ATOM     41  H   LIG d   1       5.818   1.863  -3.687  0.00  0.00     0.026 H 
ENDBRANCH  35  38
ENDBRANCH  34  35
ENDBRANCH  32  34
ENDBRANCH   1  32
BRANCH   2  42
ATOM     42  N   LIG d   1       9.423  -3.725  -4.442  0.00  0.00    -0.329 N 
ATOM     43  H   LIG d   1       9.900  -4.407  -3.944  0.00  0.00     0.145 HD
ATOM     44  H   LIG d   1       9.866  -2.895  -4.676  0.00  0.00     0.145 HD
ENDBRANCH   2  42
BRANCH  20  45
ATOM     45  C   LIG d   1       2.926  -0.997  -8.299  0.00  0.00    -0.043 C 
ATOM     46  H   LIG d   1       2.092  -1.112  -7.607  0.00  0.00     0.025 H 
ATOM     47  H   LIG d   1       2.628  -0.348  -9.123  0.00  0.00     0.025 H 
ATOM     48  H   LIG d   1       3.210  -1.973  -8.691  0.00  0.00     0.025 H 
ENDBRANCH  20  45
BRANCH  20  49
ATOM     49  C   LIG d   1       5.148   0.118  -8.583  0.00  0.00    -0.043 C 
ATOM     50  H   LIG d   1       5.130   1.207  -8.620  0.00  0.00     0.025 H 
ATOM     51  H   LIG d   1       6.141  -0.220  -8.286  0.00  0.00     0.025 H 
ATOM     52  H   LIG d   1       4.908  -0.284  -9.569  0.00  0.00     0.025 H 
ENDBRANCH  20  49
BRANCH   6  53
ATOM     53  O   LIG d   1       4.779  -8.500  -6.579  0.00  0.00    -0.507 OA
ATOM     54  H   LIG d   1       4.486  -8.691  -7.481  0.00  0.00     0.292 HD
ENDBRANCH   6  53
BRANCH  22  55
ATOM     55  C   LIG d   1       2.293   1.543  -4.734  0.00  0.00    -0.058 C 
ATOM     56  H   LIG d   1       1.998   2.374  -5.376  0.00  0.00     0.024 H 
ATOM     57  H   LIG d   1       1.459   1.270  -4.087  0.00  0.00     0.024 H 
ATOM     58  H   LIG d   1       3.145   1.840  -4.123  0.00  0.00     0.024 H 
ENDBRANCH  22  55
TORSDOF 9
ENDMDL
MODEL 3
REMARK VINA RESULT:      -6.1      2.136      5.087
REMARK  9 active torsions:
REMARK  status: ('A' for Active; 'I' for Inactive)
REMARK    1  A    between atoms: C_1  and  C_2 
REMARK    2  A    between atoms: C_2  and  O_3 
REMARK    3  A    between atoms: O_3  and  C_4 
REMARK    4  A    between atoms: C_4  and  C_6 
REMARK    5  A    between atoms: C_7  and  N_33 
REMARK    6  A    between atoms: C_11  and  O_32 
REMARK    7  A    between atoms: C_25  and  C_30 
REMARK    8  A    between atoms: C_25  and  C_31 
REMARK    9  A    between atoms: C_27  and  C_29 
ROOT
ATOM      1  C   LIG d   1       4.317  -0.848  -5.284  0.00  0.00     0.117 C 
ATOM      2  C   LIG d   1       3.385   0.114  -5.513  0.00  0.00     0.196 C 
ATOM      3  O   LIG d   1       3.325   0.780  -6.677  0.00  0.00    -0.441 OA
ATOM      4  C   LIG d   1       3.919   0.272  -7.784  0.00  0.00     0.138 A 
ATOM      5  C   LIG d   1       3.532   0.731  -9.036  0.00  0.00     0.022 A 
ATOM      6  C   LIG d   1       4.130   0.222 -10.178  0.00  0.00     0.120 A 
ATOM      7  C   LIG d   1       5.116  -0.749 -10.068  0.00  0.00    -0.020 A 
ATOM      8  C   LIG d   1       5.499  -1.206  -8.822  0.00  0.00    -0.050 A 
ATOM      9  C   LIG d   1       4.903  -0.700  -7.681  0.00  0.00     0.019 A 
ATOM     10  C   LIG d   1       5.328  -1.211  -6.332  0.00  0.00     0.139 A 
ATOM     11  C   LIG d   1       6.685  -0.702  -5.970  0.00  0.00    -0.002 A 
ATOM     12  C   LIG d   1       7.222   0.549  -5.756  0.00  0.00    -0.055 A 
ATOM     13  C   LIG d   1       8.572   0.610  -5.426  0.00  0.00    -0.061 A 
ATOM     14  C   LIG d   1       9.364  -0.523  -5.313  0.00  0.00    -0.057 A 
ATOM     15  C   LIG d   1       8.834  -1.773  -5.526  0.00  0.00    -0.023 A 
ATOM     16  C   LIG d   1       7.481  -1.833  -5.852  0.00  0.00     0.045 A 
ATOM     17  N   LIG d   1       6.768  -3.004  -6.100  0.00  0.00    -0.264 N 
ATOM     18  C   LIG d   1       5.488  -2.723  -6.389  0.00  0.00     0.240 A 
ATOM     19  O   LIG d   1       4.618  -3.526  -6.649  0.00  0.00    -0.274 OA
ATOM     20  C   LIG d   1       7.440  -4.312  -6.021  0.00  0.00     0.037 C 
ATOM     21  C   LIG d   1       8.614  -4.194  -5.040  0.00  0.00    -0.025 C 
ATOM     22  C   LIG d   1       9.578  -3.073  -5.439  0.00  0.00    -0.015 C 
ATOM     23  H   LIG d   1      10.021  -3.304  -6.409  0.00  0.00     0.035 H 
ATOM     24  H   LIG d   1       2.765   1.487  -9.120  0.00  0.00     0.069 H 
ATOM     25  H   LIG d   1       5.585  -1.145 -10.956  0.00  0.00     0.065 H 
ATOM     26  H   LIG d   1       6.267  -1.961  -8.739  0.00  0.00     0.062 H 
ATOM     27  H   LIG d   1       6.621   1.444  -5.842  0.00  0.00     0.062 H 
ATOM     28  H   LIG d   1       9.020   1.577  -5.252  0.00  0.00     0.062 H 
ATOM     29  H   LIG d   1      10.407  -0.422  -5.054  0.00  0.00     0.062 H 
ATOM     30  H   LIG d   1       9.156  -5.139  -5.019  0.00  0.00     0.029 H 
ATOM     31  H   LIG d   1       8.224  -3.988  -4.043  0.00  0.00     0.029 H 
ENDROOT
BRANCH   1  32
ATOM     32  C   LIG d   1       4.334  -1.512  -4.049  0.00  0.00     0.342 C 
ATOM     33  O   LIG d   1       3.625  -2.486  -3.870  0.00  0.00    -0.245 OA
BRANCH  32  34
ATOM     34  O   LIG d   1       5.135  -1.068  -3.056  0.00  0.00    -0.462 OA
BRANCH  34  35
ATOM     35  C   LIG d   1       4.502  -0.687  -1.833  0.00  0.00     0.090 C 
ATOM     36  H   LIG d   1       3.458  -0.998  -1.851  0.00  0.00     0.070 H 
ATOM     37  H   LIG d   1       5.010  -1.166  -0.996  0.00  0.00     0.070 H 
BRANCH  35  38
ATOM     38  C   LIG d   1       4.577   0.833  -1.672  0.00  0.00    -0.031 C 
ATOM     39  H   LIG d   1       5.612   1.159  -1.775  0.00  0.00     0.026 H 
ATOM     40  H   LIG d   1       3.969   1.310  -2.441  0.00  0.00     0.026 H 
ATOM     41  H   LIG d   1       4.203   1.114  -0.687  0.00  0.00     0.026 H 
ENDBRANCH  35  38
ENDBRANCH  34  35
ENDBRANCH  32  34
ENDBRANCH   1  32
BRANCH   2  42
ATOM     42  N   LIG d   1       2.481   0.413  -4.528  0.00  0.00    -0.329 N 
ATOM     43  H   LIG d   1       2.404  -0.162  -3.751  0.00  0.00     0.145 HD
ATOM     44  H   LIG d   1       1.918   1.198  -4.610  0.00  0.00     0.145 HD
ENDBRANCH   2  42
BRANCH  20  45
ATOM     45  C   LIG d   1       7.963  -4.708  -7.403  0.00  0.00    -0.043 C 
ATOM     46  H   LIG d   1       8.736  -5.469  -7.295  0.00  0.00     0.025 H 
ATOM     47  H   LIG d   1       7.142  -5.107  -8.000  0.00  0.00     0.025 H 
ATOM     48  H   LIG d   1       8.381  -3.833  -7.898  0.00  0.00     0.025 H 
ENDBRANCH  20  45
BRANCH  20  49
ATOM     49  C   LIG d   1       6.454  -5.369  -5.519  0.00  0.00    -0.043 C 
ATOM     50  H   LIG d   1       6.854  -5.843  -4.622  0.00  0.00     0.025 H 
ATOM     51  H   LIG d   1       5.501  -4.895  -5.285  0.00  0.00     0.025 H 
ATOM     52  H   LIG d   1       6.304  -6.123  -6.293  0.00  0.00     0.025 H 
ENDBRANCH  20  49
BRANCH   6  53
ATOM     53  O   LIG d   1       3.751   0.672 -11.403  0.00  0.00    -0.507 OA
ATOM     54  H   LIG d   1       4.149   1.518 -11.651  0.00  0.00     0.292 HD
ENDBRANCH   6  53
BRANCH  22  55
ATOM     55  C   LIG d   1      10.685  -2.956  -4.390  0.00  0.00    -0.058 C 
ATOM     56  H   LIG d   1      11.321  -3.841  -4.432  0.00  0.00     0.024 H 
ATOM     57  H   LIG d   1      11.285  -2.068  -4.590  0.00  0.00     0.024 H 
ATOM     58  H   LIG d   1      10.239  -2.877  -3.399  0.00  0.00     0.024 H 
ENDBRANCH  22  55
TORSDOF 9
ENDMDL
MODEL 4
REMARK VINA RESULT:      -6.0      8.669     12.432
REMARK  9 active torsions:
REMARK  status: ('A' for Active; 'I' for Inactive)
REMARK    1  A    between atoms: C_1  and  C_2 
REMARK    2  A    between atoms: C_2  and  O_3 
REMARK    3  A    between atoms: O_3  and  C_4 
REMARK    4  A    between atoms: C_4  and  C_6 
REMARK    5  A    between atoms: C_7  and  N_33 
REMARK    6  A    between atoms: C_11  and  O_32 
REMARK    7  A    between atoms: C_25  and  C_30 
REMARK    8  A    between atoms: C_25  and  C_31 
REMARK    9  A    between atoms: C_27  and  C_29 
ROOT
ATOM      1  C   LIG d   1       9.866   8.855  -2.253  0.00  0.00     0.117 C 
ATOM      2  C   LIG d   1       9.443  10.143  -2.156  0.00  0.00     0.196 C 
ATOM      3  O   LIG d   1       9.599  11.017  -3.163  0.00  0.00    -0.441 OA
ATOM      4  C   LIG d   1       9.820  10.572  -4.423  0.00  0.00     0.138 A 
ATOM      5  C   LIG d   1       9.584  11.421  -5.496  0.00  0.00     0.022 A 
ATOM      6  C   LIG d   1       9.806  10.982  -6.792  0.00  0.00     0.120 A 
ATOM      7  C   LIG d   1      10.264   9.691  -7.015  0.00  0.00    -0.020 A 
ATOM      8  C   LIG d   1      10.496   8.847  -5.947  0.00  0.00    -0.050 A 
ATOM      9  C   LIG d   1      10.274   9.282  -4.653  0.00  0.00     0.019 A 
ATOM     10  C   LIG d   1      10.529   8.350  -3.501  0.00  0.00     0.139 A 
ATOM     11  C   LIG d   1      11.994   8.148  -3.289  0.00  0.00    -0.002 A 
ATOM     12  C   LIG d   1      13.045   8.975  -2.957  0.00  0.00    -0.055 A 
ATOM     13  C   LIG d   1      14.302   8.390  -2.852  0.00  0.00    -0.061 A 
ATOM     14  C   LIG d   1      14.514   7.036  -3.067  0.00  0.00    -0.057 A 
ATOM     15  C   LIG d   1      13.470   6.206  -3.399  0.00  0.00    -0.023 A 
ATOM     16  C   LIG d   1      12.211   6.793  -3.501  0.00  0.00     0.045 A 
ATOM     17  N   LIG d   1      11.036   6.118  -3.822  0.00  0.00    -0.264 N 
ATOM     18  C   LIG d   1       9.996   6.966  -3.842  0.00  0.00     0.240 A 
ATOM     19  O   LIG d   1       8.843   6.682  -4.086  0.00  0.00    -0.274 OA
ATOM     20  C   LIG d   1      11.061   4.668  -4.080  0.00  0.00     0.037 C 
ATOM     21  C   LIG d   1      12.235   4.059  -3.303  0.00  0.00    -0.025 C 
ATOM     22  C   LIG d   1      13.564   4.731  -3.660  0.00  0.00    -0.015 C 
ATOM     23  H   LIG d   1      13.784   4.563  -4.715  0.00  0.00     0.035 H 
ATOM     24  H   LIG d   1       9.228  12.426  -5.322  0.00  0.00     0.069 H 
ATOM     25  H   LIG d   1      10.439   9.347  -8.024  0.00  0.00     0.065 H 
ATOM     26  H   LIG d   1      10.852   7.842  -6.123  0.00  0.00     0.062 H 
ATOM     27  H   LIG d   1      12.899  10.033  -2.788  0.00  0.00     0.062 H 
ATOM     28  H   LIG d   1      15.144   9.012  -2.592  0.00  0.00     0.062 H 
ATOM     29  H   LIG d   1      15.510   6.629  -2.972  0.00  0.00     0.062 H 
ATOM     30  H   LIG d   1      12.301   2.995  -3.535  0.00  0.00     0.029 H 
ATOM     31  H   LIG d   1      12.053   4.177  -2.235  0.00  0.00     0.029 H 
ENDROOT
BRANCH   1  32
ATOM     32  C   LIG d   1       9.680   7.985  -1.169  0.00  0.00     0.342 C 
ATOM     33  O   LIG d   1       8.560   7.600  -0.882  0.00  0.00    -0.245 OA
BRANCH  32  34
ATOM     34  O   LIG d   1      10.742   7.575  -0.443  0.00  0.00    -0.462 OA
BRANCH  34  35
ATOM     35  C   LIG d   1      10.807   6.184  -0.116  0.00  0.00     0.090 C 
ATOM     36  H   LIG d   1      10.298   6.009   0.831  0.00  0.00     0.070 H 
ATOM     37  H   LIG d   1      10.323   5.604  -0.902  0.00  0.00     0.070 H 
BRANCH  35  38
ATOM     38  C   LIG d   1      12.271   5.757   0.004  0.00  0.00    -0.031 C 
ATOM     39  H   LIG d   1      12.553   5.714   1.056  0.00  0.00     0.026 H 
ATOM     40  H   LIG d   1      12.400   4.772  -0.446  0.00  0.00     0.026 H 
ATOM     41  H   LIG d   1      12.904   6.478  -0.514  0.00  0.00     0.026 H 
ENDBRANCH  35  38
ENDBRANCH  34  35
ENDBRANCH  32  34
ENDBRANCH   1  32
BRANCH   2  42
ATOM     42  N   LIG d   1       8.844  10.561  -0.998  0.00  0.00    -0.329 N 
ATOM     43  H   LIG d   1       9.388  10.843  -0.246  0.00  0.00     0.145 HD
ATOM     44  H   LIG d   1       7.877  10.574  -0.931  0.00  0.00     0.145 HD
ENDBRANCH   2  42
BRANCH  20  45
ATOM     45  C   LIG d   1      11.247   4.413  -5.577  0.00  0.00    -0.043 C 
ATOM     46  H   LIG d   1      11.124   5.348  -6.123  0.00  0.00     0.025 H 
ATOM     47  H   LIG d   1      12.247   4.018  -5.756  0.00  0.00     0.025 H 
ATOM     48  H   LIG d   1      10.505   3.693  -5.918  0.00  0.00     0.025 H 
ENDBRANCH  20  45
BRANCH  20  49
ATOM     49  C   LIG d   1       9.748   4.037  -3.608  0.00  0.00    -0.043 C 
ATOM     50  H   LIG d   1       9.895   3.585  -2.628  0.00  0.00     0.025 H 
ATOM     51  H   LIG d   1       8.979   4.806  -3.543  0.00  0.00     0.025 H 
ATOM     52  H   LIG d   1       9.437   3.271  -4.320  0.00  0.00     0.025 H 
ENDBRANCH  20  49
BRANCH   6  53
ATOM     53  O   LIG d   1       9.575  11.813  -7.842  0.00  0.00    -0.507 OA
ATOM     54  H   LIG d   1       8.695  11.719  -8.232  0.00  0.00     0.292 HD
ENDBRANCH   6  53
BRANCH  22  55
ATOM     55  C   LIG d   1      14.683   4.133  -2.806  0.00  0.00    -0.058 C 
ATOM     56  H   LIG d   1      14.350   3.184  -2.383  0.00  0.00     0.024 H 
ATOM     57  H   LIG d   1      15.564   3.966  -3.425  0.00  0.00     0.024 H 
ATOM     58  H   LIG d   1      14.932   4.822  -1.999  0.00  0.00     0.024 H 
ENDBRANCH  22  55
TORSDOF 9
ENDMDL
MODEL 5
REMARK VINA RESULT:      -6.0      2.487      6.467
REMARK  9 active torsions:
REMARK  status: ('A' for Active; 'I' for Inactive)
REMARK    1  A    between atoms: C_1  and  C_2 
REMARK    2  A    between atoms: C_2  and  O_3 
REMARK    3  A    between atoms: O_3  and  C_4 
REMARK    4  A    between atoms: C_4  and  C_6 
REMARK    5  A    between atoms: C_7  and  N_33 
REMARK    6  A    between atoms: C_11  and  O_32 
REMARK    7  A    between atoms: C_25  and  C_30 
REMARK    8  A    between atoms: C_25  and  C_31 
REMARK    9  A    between atoms: C_27  and  C_29 
ROOT
ATOM      1  C   LIG d   1       5.487   0.357  -4.369  0.00  0.00     0.117 C 
ATOM      2  C   LIG d   1       5.648   1.256  -3.362  0.00  0.00     0.196 C 
ATOM      3  O   LIG d   1       6.848   1.777  -3.063  0.00  0.00    -0.441 OA
ATOM      4  C   LIG d   1       7.855   1.735  -3.969  0.00  0.00     0.138 A 
ATOM      5  C   LIG d   1       8.933   2.599  -3.830  0.00  0.00     0.022 A 
ATOM      6  C   LIG d   1       9.970   2.569  -4.748  0.00  0.00     0.120 A 
ATOM      7  C   LIG d   1       9.930   1.672  -5.807  0.00  0.00    -0.020 A 
ATOM      8  C   LIG d   1       8.856   0.815  -5.945  0.00  0.00    -0.050 A 
ATOM      9  C   LIG d   1       7.819   0.844  -5.031  0.00  0.00     0.019 A 
ATOM     10  C   LIG d   1       6.655  -0.094  -5.197  0.00  0.00     0.139 A 
ATOM     11  C   LIG d   1       7.045  -1.496  -4.860  0.00  0.00    -0.002 A 
ATOM     12  C   LIG d   1       7.495  -2.126  -3.720  0.00  0.00    -0.055 A 
ATOM     13  C   LIG d   1       7.758  -3.489  -3.813  0.00  0.00    -0.061 A 
ATOM     14  C   LIG d   1       7.583  -4.204  -4.989  0.00  0.00    -0.057 A 
ATOM     15  C   LIG d   1       7.136  -3.580  -6.129  0.00  0.00    -0.023 A 
ATOM     16  C   LIG d   1       6.870  -2.216  -6.034  0.00  0.00     0.045 A 
ATOM     17  N   LIG d   1       6.407  -1.416  -7.077  0.00  0.00    -0.264 N 
ATOM     18  C   LIG d   1       6.253  -0.149  -6.664  0.00  0.00     0.240 A 
ATOM     19  O   LIG d   1       5.865   0.782  -7.336  0.00  0.00    -0.274 OA
ATOM     20  C   LIG d   1       6.156  -2.001  -8.405  0.00  0.00     0.037 C 
ATOM     21  C   LIG d   1       5.813  -3.485  -8.222  0.00  0.00    -0.025 C 
ATOM     22  C   LIG d   1       6.910  -4.234  -7.460  0.00  0.00    -0.015 C 
ATOM     23  H   LIG d   1       7.834  -4.210  -8.038  0.00  0.00     0.035 H 
ATOM     24  H   LIG d   1       8.963   3.296  -3.005  0.00  0.00     0.069 H 
ATOM     25  H   LIG d   1      10.738   1.646  -6.523  0.00  0.00     0.065 H 
ATOM     26  H   LIG d   1       8.827   0.118  -6.770  0.00  0.00     0.062 H 
ATOM     27  H   LIG d   1       7.639  -1.585  -2.796  0.00  0.00     0.062 H 
ATOM     28  H   LIG d   1       8.110  -4.010  -2.936  0.00  0.00     0.062 H 
ATOM     29  H   LIG d   1       7.802  -5.261  -5.008  0.00  0.00     0.062 H 
ATOM     30  H   LIG d   1       5.685  -3.943  -9.204  0.00  0.00     0.029 H 
ATOM     31  H   LIG d   1       4.877  -3.567  -7.670  0.00  0.00     0.029 H 
ENDROOT
BRANCH   1  32
ATOM     32  C   LIG d   1       4.211  -0.157  -4.637  0.00  0.00     0.342 C 
ATOM     33  O   LIG d   1       3.380   0.535  -5.198  0.00  0.00    -0.245 OA
BRANCH  32  34
ATOM     34  O   LIG d   1       3.901  -1.420  -4.272  0.00  0.00    -0.462 OA
BRANCH  34  35
ATOM     35  C   LIG d   1       3.214  -1.585  -3.029  0.00  0.00     0.090 C 
ATOM     36  H   LIG d   1       2.717  -0.654  -2.762  0.00  0.00     0.070 H 
ATOM     37  H   LIG d   1       2.473  -2.379  -3.127  0.00  0.00     0.070 H 
BRANCH  35  38
ATOM     38  C   LIG d   1       4.219  -1.959  -1.937  0.00  0.00    -0.031 C 
ATOM     39  H   LIG d   1       4.215  -3.039  -1.792  0.00  0.00     0.026 H 
ATOM     40  H   LIG d   1       5.217  -1.637  -2.236  0.00  0.00     0.026 H 
ATOM     41  H   LIG d   1       3.942  -1.465  -1.005  0.00  0.00     0.026 H 
ENDBRANCH  35  38
ENDBRANCH  34  35
ENDBRANCH  32  34
ENDBRANCH   1  32
BRANCH   2  42
ATOM     42  N   LIG d   1       4.555   1.638  -2.631  0.00  0.00    -0.329 N 
ATOM     43  H   LIG d   1       3.811   1.027  -2.517  0.00  0.00     0.145 HD
ATOM     44  H   LIG d   1       4.525   2.521  -2.230  0.00  0.00     0.145 HD
ENDBRANCH   2  42
BRANCH  20  45
ATOM     45  C   LIG d   1       7.409  -1.866  -9.273  0.00  0.00    -0.043 C 
ATOM     46  H   LIG d   1       7.284  -1.033  -9.965  0.00  0.00     0.025 H 
ATOM     47  H   LIG d   1       8.274  -1.682  -8.635  0.00  0.00     0.025 H 
ATOM     48  H   LIG d   1       7.562  -2.786  -9.836  0.00  0.00     0.025 H 
ENDBRANCH  20  45
BRANCH  20  49
ATOM     49  C   LIG d   1       4.984  -1.279  -9.073  0.00  0.00    -0.043 C 
ATOM     50  H   LIG d   1       5.364  -0.599  -9.835  0.00  0.00     0.025 H 
ATOM     51  H   LIG d   1       4.323  -2.011  -9.536  0.00  0.00     0.025 H 
ATOM     52  H   LIG d   1       4.431  -0.713  -8.323  0.00  0.00     0.025 H 
ENDBRANCH  20  49
BRANCH   6  53
ATOM     53  O   LIG d   1      11.025   3.414  -4.612  0.00  0.00    -0.507 OA
ATOM     54  H   LIG d   1      11.873   3.032  -4.880  0.00  0.00     0.292 HD
ENDBRANCH   6  53
BRANCH  22  55
ATOM     55  C   LIG d   1       6.480  -5.687  -7.248  0.00  0.00    -0.058 C 
ATOM     56  H   LIG d   1       7.148  -6.162  -6.528  0.00  0.00     0.024 H 
ATOM     57  H   LIG d   1       5.459  -5.713  -6.867  0.00  0.00     0.024 H 
ATOM     58  H   LIG d   1       6.528  -6.222  -8.196  0.00  0.00     0.024 H 
ENDBRANCH  22  55
TORSDOF 9
ENDMDL
MODEL 6
REMARK VINA RESULT:      -6.0      2.339      5.850
REMARK  9 active torsions:
REMARK  status: ('A' for Active; 'I' for Inactive)
REMARK    1  A    between atoms: C_1  and  C_2 
REMARK    2  A    between atoms: C_2  and  O_3 
REMARK    3  A    between atoms: O_3  and  C_4 
REMARK    4  A    between atoms: C_4  and  C_6 
REMARK    5  A    between atoms: C_7  and  N_33 
REMARK    6  A    between atoms: C_11  and  O_32 
REMARK    7  A    between atoms: C_25  and  C_30 
REMARK    8  A    between atoms: C_25  and  C_31 
REMARK    9  A    between atoms: C_27  and  C_29 
ROOT
ATOM      1  C   LIG d   1       6.692  -0.313  -7.182  0.00  0.00     0.117 C 
ATOM      2  C   LIG d   1       7.185   0.609  -6.315  0.00  0.00     0.196 C 
ATOM      3  O   LIG d   1       6.638   0.808  -5.105  0.00  0.00    -0.441 OA
ATOM      4  C   LIG d   1       5.842  -0.140  -4.554  0.00  0.00     0.138 A 
ATOM      5  C   LIG d   1       5.611  -0.123  -3.184  0.00  0.00     0.022 A 
ATOM      6  C   LIG d   1       4.799  -1.085  -2.605  0.00  0.00     0.120 A 
ATOM      7  C   LIG d   1       4.216  -2.066  -3.396  0.00  0.00    -0.020 A 
ATOM      8  C   LIG d   1       4.449  -2.082  -4.757  0.00  0.00    -0.050 A 
ATOM      9  C   LIG d   1       5.260  -1.125  -5.338  0.00  0.00     0.019 A 
ATOM     10  C   LIG d   1       5.506  -1.158  -6.821  0.00  0.00     0.139 A 
ATOM     11  C   LIG d   1       4.289  -0.729  -7.576  0.00  0.00    -0.002 A 
ATOM     12  C   LIG d   1       3.554   0.434  -7.641  0.00  0.00    -0.055 A 
ATOM     13  C   LIG d   1       2.452   0.439  -8.490  0.00  0.00    -0.061 A 
ATOM     14  C   LIG d   1       2.088  -0.666  -9.246  0.00  0.00    -0.057 A 
ATOM     15  C   LIG d   1       2.817  -1.830  -9.183  0.00  0.00    -0.023 A 
ATOM     16  C   LIG d   1       3.923  -1.832  -8.335  0.00  0.00     0.045 A 
ATOM     17  N   LIG d   1       4.782  -2.911  -8.142  0.00  0.00    -0.264 N 
ATOM     18  C   LIG d   1       5.745  -2.595  -7.263  0.00  0.00     0.240 A 
ATOM     19  O   LIG d   1       6.641  -3.319  -6.889  0.00  0.00    -0.274 OA
ATOM     20  C   LIG d   1       4.559  -4.175  -8.865  0.00  0.00     0.037 C 
ATOM     21  C   LIG d   1       3.835  -3.858 -10.180  0.00  0.00    -0.025 C 
ATOM     22  C   LIG d   1       2.530  -3.092  -9.941  0.00  0.00    -0.015 C 
ATOM     23  H   LIG d   1       1.845  -3.714  -9.365  0.00  0.00     0.035 H 
ATOM     24  H   LIG d   1       6.064   0.641  -2.570  0.00  0.00     0.069 H 
ATOM     25  H   LIG d   1       3.582  -2.815  -2.947  0.00  0.00     0.065 H 
ATOM     26  H   LIG d   1       3.994  -2.846  -5.371  0.00  0.00     0.062 H 
ATOM     27  H   LIG d   1       3.821   1.305  -7.059  0.00  0.00     0.062 H 
ATOM     28  H   LIG d   1       1.858   1.337  -8.564  0.00  0.00     0.062 H 
ATOM     29  H   LIG d   1       1.223  -0.611  -9.890  0.00  0.00     0.062 H 
ATOM     30  H   LIG d   1       3.610  -4.792 -10.696  0.00  0.00     0.029 H 
ATOM     31  H   LIG d   1       4.490  -3.256 -10.809  0.00  0.00     0.029 H 
ENDROOT
BRANCH   1  32
ATOM     32  C   LIG d   1       7.302  -0.478  -8.434  0.00  0.00     0.342 C 
ATOM     33  O   LIG d   1       8.313  -1.149  -8.537  0.00  0.00    -0.245 OA
BRANCH  32  34
ATOM     34  O   LIG d   1       6.768   0.111  -9.527  0.00  0.00    -0.462 OA
BRANCH  34  35
ATOM     35  C   LIG d   1       6.514  -0.728 -10.656  0.00  0.00     0.090 C 
ATOM     36  H   LIG d   1       7.356  -0.676 -11.345  0.00  0.00     0.070 H 
ATOM     37  H   LIG d   1       6.381  -1.756 -10.321  0.00  0.00     0.070 H 
BRANCH  35  38
ATOM     38  C   LIG d   1       5.244  -0.255 -11.366  0.00  0.00    -0.031 C 
ATOM     39  H   LIG d   1       4.661   0.372 -10.692  0.00  0.00     0.026 H 
ATOM     40  H   LIG d   1       5.516   0.321 -12.251  0.00  0.00     0.026 H 
ATOM     41  H   LIG d   1       4.651  -1.120 -11.664  0.00  0.00     0.026 H 
ENDBRANCH  35  38
ENDBRANCH  34  35
ENDBRANCH  32  34
ENDBRANCH   1  32
BRANCH   2  42
ATOM     42  N   LIG d   1       8.269   1.359  -6.686  0.00  0.00    -0.329 N 
ATOM     43  H   LIG d   1       8.405   1.585  -7.619  0.00  0.00     0.145 HD
ATOM     44  H   LIG d   1       8.901   1.662  -6.016  0.00  0.00     0.145 HD
ENDBRANCH   2  42
BRANCH  20  45
ATOM     45  C   LIG d   1       3.696  -5.110  -8.016  0.00  0.00    -0.043 C 
ATOM     46  H   LIG d   1       2.881  -4.545  -7.566  0.00  0.00     0.025 H 
ATOM     47  H   LIG d   1       3.286  -5.899  -8.648  0.00  0.00     0.025 H 
ATOM     48  H   LIG d   1       4.307  -5.555  -7.231  0.00  0.00     0.025 H 
ENDBRANCH  20  45
BRANCH  20  49
ATOM     49  C   LIG d   1       5.903  -4.842  -9.165  0.00  0.00    -0.043 C 
ATOM     50  H   LIG d   1       6.290  -4.469 -10.113  0.00  0.00     0.025 H 
ATOM     51  H   LIG d   1       6.609  -4.610  -8.368  0.00  0.00     0.025 H 
ATOM     52  H   LIG d   1       5.767  -5.922  -9.227  0.00  0.00     0.025 H 
ENDBRANCH  20  49
BRANCH   6  53
ATOM     53  O   LIG d   1       4.573  -1.068  -1.265  0.00  0.00    -0.507 OA
ATOM     54  H   LIG d   1       5.046  -0.366  -0.796  0.00  0.00     0.292 HD
ENDBRANCH   6  53
BRANCH  22  55
ATOM     55  C   LIG d   1       1.891  -2.743 -11.287  0.00  0.00    -0.058 C 
ATOM     56  H   LIG d   1       2.078  -3.549 -11.998  0.00  0.00     0.024 H 
ATOM     57  H   LIG d   1       0.817  -2.615 -11.157  0.00  0.00     0.024 H 
ATOM     58  H   LIG d   1       2.325  -1.818 -11.665  0.00  0.00     0.024 H 
ENDBRANCH  22  55
TORSDOF 9
ENDMDL
MODEL 7
REMARK VINA RESULT:      -5.8      9.281     12.769
REMARK  9 active torsions:
REMARK  status: ('A' for Active; 'I' for Inactive)
REMARK    1  A    between atoms: C_1  and  C_2 
REMARK    2  A    between atoms: C_2  and  O_3 
REMARK    3  A    between atoms: O_3  and  C_4 
REMARK    4  A    between atoms: C_4  and  C_6 
REMARK    5  A    between atoms: C_7  and  N_33 
REMARK    6  A    between atoms: C_11  and  O_32 
REMARK    7  A    between atoms: C_25  and  C_30 
REMARK    8  A    between atoms: C_25  and  C_31 
REMARK    9  A    between atoms: C_27  and  C_29 
ROOT
ATOM      1  C   LIG d   1      10.642   6.308  -2.971  0.00  0.00     0.117 C 
ATOM      2  C   LIG d   1       9.768   5.704  -3.819  0.00  0.00     0.196 C 
ATOM      3  O   LIG d   1       9.119   6.388  -4.774  0.00  0.00    -0.441 OA
ATOM      4  C   LIG d   1       9.581   7.595  -5.181  0.00  0.00     0.138 A 
ATOM      5  C   LIG d   1       9.168   8.105  -6.405  0.00  0.00     0.022 A 
ATOM      6  C   LIG d   1       9.631   9.338  -6.835  0.00  0.00     0.120 A 
ATOM      7  C   LIG d   1      10.509  10.063  -6.040  0.00  0.00    -0.020 A 
ATOM      8  C   LIG d   1      10.920   9.553  -4.825  0.00  0.00    -0.050 A 
ATOM      9  C   LIG d   1      10.461   8.322  -4.394  0.00  0.00     0.019 A 
ATOM     10  C   LIG d   1      10.921   7.780  -3.069  0.00  0.00     0.139 A 
ATOM     11  C   LIG d   1      10.291   8.524  -1.937  0.00  0.00    -0.002 A 
ATOM     12  C   LIG d   1       8.995   8.706  -1.504  0.00  0.00    -0.055 A 
ATOM     13  C   LIG d   1       8.812   9.494  -0.373  0.00  0.00    -0.061 A 
ATOM     14  C   LIG d   1       9.869  10.080   0.307  0.00  0.00    -0.057 A 
ATOM     15  C   LIG d   1      11.163   9.902  -0.121  0.00  0.00    -0.023 A 
ATOM     16  C   LIG d   1      11.346   9.110  -1.252  0.00  0.00     0.045 A 
ATOM     17  N   LIG d   1      12.577   8.813  -1.831  0.00  0.00    -0.264 N 
ATOM     18  C   LIG d   1      12.414   8.031  -2.909  0.00  0.00     0.240 A 
ATOM     19  O   LIG d   1      13.293   7.601  -3.624  0.00  0.00    -0.274 OA
ATOM     20  C   LIG d   1      13.820   9.344  -1.245  0.00  0.00     0.037 C 
ATOM     21  C   LIG d   1      13.590   9.566   0.256  0.00  0.00    -0.025 C 
ATOM     22  C   LIG d   1      12.391  10.482   0.518  0.00  0.00    -0.015 C 
ATOM     23  H   LIG d   1      12.589  11.468   0.097  0.00  0.00     0.035 H 
ATOM     24  H   LIG d   1       8.484   7.541  -7.022  0.00  0.00     0.069 H 
ATOM     25  H   LIG d   1      10.869  11.025  -6.373  0.00  0.00     0.065 H 
ATOM     26  H   LIG d   1      11.604  10.119  -4.208  0.00  0.00     0.062 H 
ATOM     27  H   LIG d   1       8.158   8.259  -2.022  0.00  0.00     0.062 H 
ATOM     28  H   LIG d   1       7.808   9.654  -0.009  0.00  0.00     0.062 H 
ATOM     29  H   LIG d   1       9.673  10.684   1.182  0.00  0.00     0.062 H 
ATOM     30  H   LIG d   1      14.483  10.016   0.689  0.00  0.00     0.029 H 
ATOM     31  H   LIG d   1      13.412   8.602   0.733  0.00  0.00     0.029 H 
ENDROOT
BRANCH   1  32
ATOM     32  C   LIG d   1      11.291   5.545  -1.991  0.00  0.00     0.342 C 
ATOM     33  O   LIG d   1      12.273   4.886  -2.282  0.00  0.00    -0.245 OA
BRANCH  32  34
ATOM     34  O   LIG d   1      10.827   5.540  -0.723  0.00  0.00    -0.462 OA
BRANCH  34  35
ATOM     35  C   LIG d   1      11.765   5.841   0.313  0.00  0.00     0.090 C 
ATOM     36  H   LIG d   1      12.220   4.917   0.671  0.00  0.00     0.070 H 
ATOM     37  H   LIG d   1      12.539   6.500  -0.079  0.00  0.00     0.070 H 
BRANCH  35  38
ATOM     38  C   LIG d   1      11.043   6.535   1.469  0.00  0.00    -0.031 C 
ATOM     39  H   LIG d   1       9.966   6.425   1.345  0.00  0.00     0.026 H 
ATOM     40  H   LIG d   1      11.347   6.081   2.413  0.00  0.00     0.026 H 
ATOM     41  H   LIG d   1      11.302   7.594   1.477  0.00  0.00     0.026 H 
ENDBRANCH  35  38
ENDBRANCH  34  35
ENDBRANCH  32  34
ENDBRANCH   1  32
BRANCH   2  42
ATOM     42  N   LIG d   1       9.543   4.359  -3.694  0.00  0.00    -0.329 N 
ATOM     43  H   LIG d   1       8.708   4.041  -3.318  0.00  0.00     0.145 HD
ATOM     44  H   LIG d   1      10.219   3.725  -3.981  0.00  0.00     0.145 HD
ENDBRANCH   2  42
BRANCH  20  45
ATOM     45  C   LIG d   1      14.179  10.673  -1.912  0.00  0.00    -0.043 C 
ATOM     46  H   LIG d   1      14.042  10.587  -2.990  0.00  0.00     0.025 H 
ATOM     47  H   LIG d   1      13.531  11.460  -1.525  0.00  0.00     0.025 H 
ATOM     48  H   LIG d   1      15.218  10.919  -1.696  0.00  0.00     0.025 H 
ENDBRANCH  20  45
BRANCH  20  49
ATOM     49  C   LIG d   1      14.956   8.340  -1.449  0.00  0.00    -0.043 C 
ATOM     50  H   LIG d   1      14.750   7.732  -2.330  0.00  0.00     0.025 H 
ATOM     51  H   LIG d   1      15.894   8.876  -1.588  0.00  0.00     0.025 H 
ATOM     52  H   LIG d   1      15.034   7.695  -0.572  0.00  0.00     0.025 H 
ENDBRANCH  20  49
BRANCH   6  53
ATOM     53  O   LIG d   1       9.226   9.838  -8.032  0.00  0.00    -0.507 OA
ATOM     54  H   LIG d   1       9.065  10.792  -8.026  0.00  0.00     0.292 HD
ENDBRANCH   6  53
BRANCH  22  55
ATOM     55  C   LIG d   1      12.168  10.608   2.027  0.00  0.00    -0.058 C 
ATOM     56  H   LIG d   1      11.174  10.237   2.280  0.00  0.00     0.024 H 
ATOM     57  H   LIG d   1      12.920  10.023   2.556  0.00  0.00     0.024 H 
ATOM     58  H   LIG d   1      12.250  11.654   2.319  0.00  0.00     0.024 H 
ENDBRANCH  22  55
TORSDOF 9
ENDMDL
MODEL 8
REMARK VINA RESULT:      -5.7      2.680      5.153
REMARK  9 active torsions:
REMARK  status: ('A' for Active; 'I' for Inactive)
REMARK    1  A    between atoms: C_1  and  C_2 
REMARK    2  A    between atoms: C_2  and  O_3 
REMARK    3  A    between atoms: O_3  and  C_4 
REMARK    4  A    between atoms: C_4  and  C_6 
REMARK    5  A    between atoms: C_7  and  N_33 
REMARK    6  A    between atoms: C_11  and  O_32 
REMARK    7  A    between atoms: C_25  and  C_30 
REMARK    8  A    between atoms: C_25  and  C_31 
REMARK    9  A    between atoms: C_27  and  C_29 
ROOT
ATOM      1  C   LIG d   1       4.523  -1.181  -5.710  0.00  0.00     0.117 C 
ATOM      2  C   LIG d   1       4.394  -1.775  -4.494  0.00  0.00     0.196 C 
ATOM      3  O   LIG d   1       5.350  -2.571  -3.990  0.00  0.00    -0.441 OA
ATOM      4  C   LIG d   1       6.614  -2.509  -4.474  0.00  0.00     0.138 A 
ATOM      5  C   LIG d   1       7.660  -3.015  -3.714  0.00  0.00     0.022 A 
ATOM      6  C   LIG d   1       8.958  -2.960  -4.195  0.00  0.00     0.120 A 
ATOM      7  C   LIG d   1       9.211  -2.398  -5.440  0.00  0.00    -0.020 A 
ATOM      8  C   LIG d   1       8.170  -1.894  -6.194  0.00  0.00    -0.050 A 
ATOM      9  C   LIG d   1       6.873  -1.946  -5.715  0.00  0.00     0.019 A 
ATOM     10  C   LIG d   1       5.751  -1.390  -6.547  0.00  0.00     0.139 A 
ATOM     11  C   LIG d   1       5.461  -2.275  -7.716  0.00  0.00    -0.002 A 
ATOM     12  C   LIG d   1       5.031  -3.576  -7.859  0.00  0.00    -0.055 A 
ATOM     13  C   LIG d   1       4.878  -4.052  -9.157  0.00  0.00    -0.061 A 
ATOM     14  C   LIG d   1       5.140  -3.271 -10.274  0.00  0.00    -0.057 A 
ATOM     15  C   LIG d   1       5.570  -1.973 -10.136  0.00  0.00    -0.023 A 
ATOM     16  C   LIG d   1       5.720  -1.497  -8.836  0.00  0.00     0.045 A 
ATOM     17  N   LIG d   1       6.140  -0.212  -8.497  0.00  0.00    -0.264 N 
ATOM     18  C   LIG d   1       6.184  -0.068  -7.164  0.00  0.00     0.240 A 
ATOM     19  O   LIG d   1       6.508   0.932  -6.561  0.00  0.00    -0.274 OA
ATOM     20  C   LIG d   1       6.460   0.765  -9.551  0.00  0.00     0.037 C 
ATOM     21  C   LIG d   1       5.643   0.414 -10.801  0.00  0.00    -0.025 C 
ATOM     22  C   LIG d   1       5.891  -1.027 -11.256  0.00  0.00    -0.015 C 
ATOM     23  H   LIG d   1       6.937  -1.143 -11.541  0.00  0.00     0.035 H 
ATOM     24  H   LIG d   1       7.462  -3.452  -2.746  0.00  0.00     0.069 H 
ATOM     25  H   LIG d   1      10.222  -2.356  -5.817  0.00  0.00     0.065 H 
ATOM     26  H   LIG d   1       8.369  -1.458  -7.162  0.00  0.00     0.062 H 
ATOM     27  H   LIG d   1       4.824  -4.200  -7.001  0.00  0.00     0.062 H 
ATOM     28  H   LIG d   1       4.541  -5.067  -9.301  0.00  0.00     0.062 H 
ATOM     29  H   LIG d   1       5.005  -3.688 -11.261  0.00  0.00     0.062 H 
ATOM     30  H   LIG d   1       5.918   1.094 -11.608  0.00  0.00     0.029 H 
ATOM     31  H   LIG d   1       4.584   0.539 -10.578  0.00  0.00     0.029 H 
ENDROOT
BRANCH   1  32
ATOM     32  C   LIG d   1       3.492  -0.360  -6.189  0.00  0.00     0.342 C 
ATOM     33  O   LIG d   1       3.215   0.674  -5.607  0.00  0.00    -0.245 OA
BRANCH  32  34
ATOM     34  O   LIG d   1       2.805  -0.717  -7.296  0.00  0.00    -0.462 OA
BRANCH  34  35
ATOM     35  C   LIG d   1       2.603   0.293  -8.288  0.00  0.00     0.090 C 
ATOM     36  H   LIG d   1       1.818   0.974  -7.959  0.00  0.00     0.070 H 
ATOM     37  H   LIG d   1       3.530   0.848  -8.433  0.00  0.00     0.070 H 
BRANCH  35  38
ATOM     38  C   LIG d   1       2.190  -0.363  -9.607  0.00  0.00    -0.031 C 
ATOM     39  H   LIG d   1       1.141  -0.656  -9.555  0.00  0.00     0.026 H 
ATOM     40  H   LIG d   1       2.329   0.345 -10.424  0.00  0.00     0.026 H 
ATOM     41  H   LIG d   1       2.806  -1.246  -9.782  0.00  0.00     0.026 H 
ENDBRANCH  35  38
ENDBRANCH  34  35
ENDBRANCH  32  34
ENDBRANCH   1  32
BRANCH   2  42
ATOM     42  N   LIG d   1       3.256  -1.556  -3.765  0.00  0.00    -0.329 N 
ATOM     43  H   LIG d   1       2.419  -1.369  -4.217  0.00  0.00     0.145 HD
ATOM     44  H   LIG d   1       3.288  -1.588  -2.796  0.00  0.00     0.145 HD
ENDBRANCH   2  42
BRANCH  20  45
ATOM     45  C   LIG d   1       7.954   0.701  -9.878  0.00  0.00    -0.043 C 
ATOM     46  H   LIG d   1       8.505   0.371  -8.997  0.00  0.00     0.025 H 
ATOM     47  H   LIG d   1       8.116  -0.005 -10.693  0.00  0.00     0.025 H 
ATOM     48  H   LIG d   1       8.303   1.688 -10.177  0.00  0.00     0.025 H 
ENDBRANCH  20  45
BRANCH  20  49
ATOM     49  C   LIG d   1       6.096   2.174  -9.076  0.00  0.00    -0.043 C 
ATOM     50  H   LIG d   1       6.233   2.880  -9.895  0.00  0.00     0.025 H 
ATOM     51  H   LIG d   1       5.056   2.190  -8.752  0.00  0.00     0.025 H 
ATOM     52  H   LIG d   1       6.741   2.454  -8.243  0.00  0.00     0.025 H 
ENDBRANCH  20  49
BRANCH   6  53
ATOM     53  O   LIG d   1       9.982  -3.454  -3.451  0.00  0.00    -0.507 OA
ATOM     54  H   LIG d   1      10.001  -4.421  -3.403  0.00  0.00     0.292 HD
ENDBRANCH   6  53
BRANCH  22  55
ATOM     55  C   LIG d   1       4.999  -1.341 -12.459  0.00  0.00    -0.058 C 
ATOM     56  H   LIG d   1       5.090  -2.398 -12.713  0.00  0.00     0.024 H 
ATOM     57  H   LIG d   1       3.962  -1.116 -12.211  0.00  0.00     0.024 H 
ATOM     58  H   LIG d   1       5.310  -0.736 -13.310  0.00  0.00     0.024 H 
ENDBRANCH  22  55
TORSDOF 9
ENDMDL
MODEL 9
REMARK VINA RESULT:      -5.5      2.379      4.506
REMARK  9 active torsions:
REMARK  status: ('A' for Active; 'I' for Inactive)
REMARK    1  A    between atoms: C_1  and  C_2 
REMARK    2  A    between atoms: C_2  and  O_3 
REMARK    3  A    between atoms: O_3  and  C_4 
REMARK    4  A    between atoms: C_4  and  C_6 
REMARK    5  A    between atoms: C_7  and  N_33 
REMARK    6  A    between atoms: C_11  and  O_32 
REMARK    7  A    between atoms: C_25  and  C_30 
REMARK    8  A    between atoms: C_25  and  C_31 
REMARK    9  A    between atoms: C_27  and  C_29 
ROOT
ATOM      1  C   LIG d   1       5.528  -1.850  -4.442  0.00  0.00     0.117 C 
ATOM      2  C   LIG d   1       4.568  -2.690  -3.974  0.00  0.00     0.196 C 
ATOM      3  O   LIG d   1       4.176  -3.772  -4.664  0.00  0.00    -0.441 OA
ATOM      4  C   LIG d   1       4.966  -4.281  -5.640  0.00  0.00     0.138 A 
ATOM      5  C   LIG d   1       4.768  -5.588  -6.065  0.00  0.00     0.022 A 
ATOM      6  C   LIG d   1       5.568  -6.123  -7.063  0.00  0.00     0.120 A 
ATOM      7  C   LIG d   1       6.567  -5.349  -7.637  0.00  0.00    -0.020 A 
ATOM      8  C   LIG d   1       6.765  -4.051  -7.212  0.00  0.00    -0.050 A 
ATOM      9  C   LIG d   1       5.969  -3.515  -6.215  0.00  0.00     0.019 A 
ATOM     10  C   LIG d   1       6.199  -2.099  -5.761  0.00  0.00     0.139 A 
ATOM     11  C   LIG d   1       5.736  -1.124  -6.794  0.00  0.00    -0.002 A 
ATOM     12  C   LIG d   1       4.518  -0.829  -7.366  0.00  0.00    -0.055 A 
ATOM     13  C   LIG d   1       4.497   0.180  -8.324  0.00  0.00    -0.061 A 
ATOM     14  C   LIG d   1       5.638   0.872  -8.703  0.00  0.00    -0.057 A 
ATOM     15  C   LIG d   1       6.856   0.581  -8.136  0.00  0.00    -0.023 A 
ATOM     16  C   LIG d   1       6.875  -0.427  -7.175  0.00  0.00     0.045 A 
ATOM     17  N   LIG d   1       8.008  -0.859  -6.489  0.00  0.00    -0.264 N 
ATOM     18  C   LIG d   1       7.694  -1.844  -5.634  0.00  0.00     0.240 A 
ATOM     19  O   LIG d   1       8.459  -2.424  -4.895  0.00  0.00    -0.274 OA
ATOM     20  C   LIG d   1       9.317  -0.237  -6.754  0.00  0.00     0.037 C 
ATOM     21  C   LIG d   1       9.080   1.201  -7.234  0.00  0.00    -0.025 C 
ATOM     22  C   LIG d   1       8.161   1.248  -8.458  0.00  0.00    -0.015 C 
ATOM     23  H   LIG d   1       8.638   0.729  -9.291  0.00  0.00     0.035 H 
ATOM     24  H   LIG d   1       3.990  -6.189  -5.618  0.00  0.00     0.069 H 
ATOM     25  H   LIG d   1       7.190  -5.764  -8.416  0.00  0.00     0.065 H 
ATOM     26  H   LIG d   1       7.543  -3.451  -7.660  0.00  0.00     0.062 H 
ATOM     27  H   LIG d   1       3.619  -1.358  -7.085  0.00  0.00     0.062 H 
ATOM     28  H   LIG d   1       3.557   0.434  -8.789  0.00  0.00     0.062 H 
ATOM     29  H   LIG d   1       5.569   1.647  -9.452  0.00  0.00     0.062 H 
ATOM     30  H   LIG d   1      10.039   1.651  -7.492  0.00  0.00     0.029 H 
ATOM     31  H   LIG d   1       8.625   1.774  -6.427  0.00  0.00     0.029 H 
ENDROOT
BRANCH   1  32
ATOM     32  C   LIG d   1       5.898  -0.732  -3.680  0.00  0.00     0.342 C 
ATOM     33  O   LIG d   1       6.724  -0.846  -2.792  0.00  0.00    -0.245 OA
BRANCH  32  34
ATOM     34  O   LIG d   1       5.337   0.470  -3.930  0.00  0.00    -0.462 OA
BRANCH  34  35
ATOM     35  C   LIG d   1       5.126   1.333  -2.810  0.00  0.00     0.090 C 
ATOM     36  H   LIG d   1       5.844   1.093  -2.026  0.00  0.00     0.070 H 
ATOM     37  H   LIG d   1       5.259   2.370  -3.120  0.00  0.00     0.070 H 
BRANCH  35  38
ATOM     38  C   LIG d   1       3.705   1.139  -2.277  0.00  0.00    -0.031 C 
ATOM     39  H   LIG d   1       3.412   0.096  -2.392  0.00  0.00     0.026 H 
ATOM     40  H   LIG d   1       3.673   1.411  -1.222  0.00  0.00     0.026 H 
ATOM     41  H   LIG d   1       3.017   1.775  -2.836  0.00  0.00     0.026 H 
ENDBRANCH  35  38
ENDBRANCH  34  35
ENDBRANCH  32  34
ENDBRANCH   1  32
BRANCH   2  42
ATOM     42  N   LIG d   1       3.982  -2.423  -2.765  0.00  0.00    -0.329 N 
ATOM     43  H   LIG d   1       4.333  -1.715  -2.203  0.00  0.00     0.145 HD
ATOM     44  H   LIG d   1       3.218  -2.943  -2.472  0.00  0.00     0.145 HD
ENDBRANCH   2  42
BRANCH  20  45
ATOM     45  C   LIG d   1      10.054  -1.026  -7.837  0.00  0.00    -0.043 C 
ATOM     46  H   LIG d   1       9.670  -0.744  -8.817  0.00  0.00     0.025 H 
ATOM     47  H   LIG d   1      11.120  -0.804  -7.786  0.00  0.00     0.025 H 
ATOM     48  H   LIG d   1       9.897  -2.093  -7.679  0.00  0.00     0.025 H 
ENDBRANCH  20  45
BRANCH  20  49
ATOM     49  C   LIG d   1      10.149  -0.220  -5.470  0.00  0.00    -0.043 C 
ATOM     50  H   LIG d   1      10.461  -1.236  -5.227  0.00  0.00     0.025 H 
ATOM     51  H   LIG d   1      11.029   0.406  -5.615  0.00  0.00     0.025 H 
ATOM     52  H   LIG d   1       9.549   0.181  -4.653  0.00  0.00     0.025 H 
ENDBRANCH  20  49
BRANCH   6  53
ATOM     53  O   LIG d   1       5.373  -7.402  -7.479  0.00  0.00    -0.507 OA
ATOM     54  H   LIG d   1       6.008  -8.035  -7.114  0.00  0.00     0.292 HD
ENDBRANCH   6  53
BRANCH  22  55
ATOM     55  C   LIG d   1       7.905   2.705  -8.847  0.00  0.00    -0.058 C 
ATOM     56  H   LIG d   1       8.802   3.121  -9.308  0.00  0.00     0.024 H 
ATOM     57  H   LIG d   1       7.077   2.753  -9.555  0.00  0.00     0.024 H 
ATOM     58  H   LIG d   1       7.654   3.280  -7.956  0.00  0.00     0.024 H 
ENDBRANCH  22  55
TORSDOF 9
ENDMDL
MODEL 10
REMARK VINA RESULT:      -5.5     10.670     12.943
REMARK  9 active torsions:
REMARK  status: ('A' for Active; 'I' for Inactive)
REMARK    1  A    between atoms: C_1  and  C_2 
REMARK    2  A    between atoms: C_2  and  O_3 
REMARK    3  A    between atoms: O_3  and  C_4 
REMARK    4  A    between atoms: C_4  and  C_6 
REMARK    5  A    between atoms: C_7  and  N_33 
REMARK    6  A    between atoms: C_11  and  O_32 
REMARK    7  A    between atoms: C_25  and  C_30 
REMARK    8  A    between atoms: C_25  and  C_31 
REMARK    9  A    between atoms: C_27  and  C_29 
ROOT
ATOM      1  C   LIG d   1       9.700   9.878  -2.628  0.00  0.00     0.117 C 
ATOM      2  C   LIG d   1       8.989  10.792  -3.339  0.00  0.00     0.196 C 
ATOM      3  O   LIG d   1       9.154  10.944  -4.663  0.00  0.00    -0.441 OA
ATOM      4  C   LIG d   1       9.730   9.961  -5.395  0.00  0.00     0.138 A 
ATOM      5  C   LIG d   1       9.543   9.937  -6.771  0.00  0.00     0.022 A 
ATOM      6  C   LIG d   1      10.126   8.938  -7.534  0.00  0.00     0.120 A 
ATOM      7  C   LIG d   1      10.898   7.961  -6.921  0.00  0.00    -0.020 A 
ATOM      8  C   LIG d   1      11.082   7.984  -5.553  0.00  0.00    -0.050 A 
ATOM      9  C   LIG d   1      10.500   8.979  -4.788  0.00  0.00     0.019 A 
ATOM     10  C   LIG d   1      10.708   8.990  -3.299  0.00  0.00     0.139 A 
ATOM     11  C   LIG d   1      12.102   9.402  -2.955  0.00  0.00    -0.002 A 
ATOM     12  C   LIG d   1      12.846  10.545  -3.148  0.00  0.00    -0.055 A 
ATOM     13  C   LIG d   1      14.151  10.539  -2.667  0.00  0.00    -0.061 A 
ATOM     14  C   LIG d   1      14.701   9.443  -2.018  0.00  0.00    -0.057 A 
ATOM     15  C   LIG d   1      13.964   8.300  -1.824  0.00  0.00    -0.023 A 
ATOM     16  C   LIG d   1      12.656   8.309  -2.303  0.00  0.00     0.045 A 
ATOM     17  N   LIG d   1      11.757   7.250  -2.197  0.00  0.00    -0.264 N 
ATOM     18  C   LIG d   1      10.582   7.572  -2.760  0.00  0.00     0.240 A 
ATOM     19  O   LIG d   1       9.600   6.865  -2.826  0.00  0.00    -0.274 OA
ATOM     20  C   LIG d   1      12.160   5.999  -1.532  0.00  0.00     0.037 C 
ATOM     21  C   LIG d   1      13.250   6.328  -0.504  0.00  0.00    -0.025 C 
ATOM     22  C   LIG d   1      14.438   7.049  -1.145  0.00  0.00    -0.015 C 
ATOM     23  H   LIG d   1      14.908   6.393  -1.878  0.00  0.00     0.035 H 
ATOM     24  H   LIG d   1       8.942  10.698  -7.247  0.00  0.00     0.069 H 
ATOM     25  H   LIG d   1      11.354   7.182  -7.514  0.00  0.00     0.065 H 
ATOM     26  H   LIG d   1      11.683   7.223  -5.078  0.00  0.00     0.062 H 
ATOM     27  H   LIG d   1      12.435  11.408  -3.653  0.00  0.00     0.062 H 
ATOM     28  H   LIG d   1      14.758  11.421  -2.803  0.00  0.00     0.062 H 
ATOM     29  H   LIG d   1      15.721   9.489  -1.663  0.00  0.00     0.062 H 
ATOM     30  H   LIG d   1      13.599   5.401  -0.048  0.00  0.00     0.029 H 
ATOM     31  H   LIG d   1      12.824   6.964   0.272  0.00  0.00     0.029 H 
ENDROOT
BRANCH   1  32
ATOM     32  C   LIG d   1       9.488   9.762  -1.247  0.00  0.00     0.342 C 
ATOM     33  O   LIG d   1       8.461   9.261  -0.828  0.00  0.00    -0.245 OA
BRANCH  32  34
ATOM     34  O   LIG d   1      10.424  10.208  -0.382  0.00  0.00    -0.462 OA
BRANCH  34  35
ATOM     35  C   LIG d   1      10.814   9.319   0.667  0.00  0.00     0.090 C 
ATOM     36  H   LIG d   1      10.133   9.431   1.510  0.00  0.00     0.070 H 
ATOM     37  H   LIG d   1      10.779   8.292   0.304  0.00  0.00     0.070 H 
BRANCH  35  38
ATOM     38  C   LIG d   1      12.239   9.652   1.115  0.00  0.00    -0.031 C 
ATOM     39  H   LIG d   1      12.404   9.268   2.122  0.00  0.00     0.026 H 
ATOM     40  H   LIG d   1      12.951   9.192   0.430  0.00  0.00     0.026 H 
ATOM     41  H   LIG d   1      12.378  10.734   1.111  0.00  0.00     0.026 H 
ENDBRANCH  35  38
ENDBRANCH  34  35
ENDBRANCH  32  34
ENDBRANCH   1  32
BRANCH   2  42
ATOM     42  N   LIG d   1       8.081  11.582  -2.687  0.00  0.00    -0.329 N 
ATOM     43  H   LIG d   1       8.003  11.534  -1.722  0.00  0.00     0.145 HD
ATOM     44  H   LIG d   1       7.515  12.187  -3.191  0.00  0.00     0.145 HD
ENDBRANCH   2  42
BRANCH  20  45
ATOM     45  C   LIG d   1      12.711   5.018  -2.569  0.00  0.00    -0.043 C 
ATOM     46  H   LIG d   1      13.580   5.457  -3.060  0.00  0.00     0.025 H 
ATOM     47  H   LIG d   1      13.002   4.092  -2.073  0.00  0.00     0.025 H 
ATOM     48  H   LIG d   1      11.943   4.806  -3.313  0.00  0.00     0.025 H 
ENDBRANCH  20  45
BRANCH  20  49
ATOM     49  C   LIG d   1      10.953   5.379  -0.825  0.00  0.00    -0.043 C 
ATOM     50  H   LIG d   1      10.206   6.150  -0.639  0.00  0.00     0.025 H 
ATOM     51  H   LIG d   1      10.524   4.601  -1.454  0.00  0.00     0.025 H 
ATOM     52  H   LIG d   1      11.272   4.944   0.124  0.00  0.00     0.025 H 
ENDBRANCH  20  49
BRANCH   6  53
ATOM     53  O   LIG d   1       9.942   8.915  -8.880  0.00  0.00    -0.507 OA
ATOM     54  H   LIG d   1       9.022   9.035  -9.154  0.00  0.00     0.292 HD
ENDBRANCH   6  53
BRANCH  22  55
ATOM     55  C   LIG d   1      15.457   7.413  -0.062  0.00  0.00    -0.058 C 
ATOM     56  H   LIG d   1      16.334   7.866  -0.526  0.00  0.00     0.024 H 
ATOM     57  H   LIG d   1      15.009   8.121   0.636  0.00  0.00     0.024 H 
ATOM     58  H   LIG d   1      15.753   6.512   0.475  0.00  0.00     0.024 H 
ENDBRANCH  22  55
TORSDOF 9
ENDMDL
