MODEL 1
REMARK VINA RESULT:      -6.2      0.000      0.000
REMARK  3 active torsions:
REMARK  status: ('A' for Active; 'I' for Inactive)
REMARK    1  A    between atoms: C_1  and  C_2 
REMARK    2  A    between atoms: C_2  and  C_14 
REMARK    3  A    between atoms: C_7  and  C_11 
REMARK       I    between atoms: C_11  and  N_13 
ROOT
ATOM      1  C   LIG d   1       5.214  -1.551  -3.439  0.00  0.00    -0.010 C 
ATOM      2  C   LIG d   1       4.299  -1.342  -2.194  0.00  0.00    -0.031 C 
ATOM      3  H   LIG d   1       4.316  -2.136  -1.447  0.00  0.00     0.031 H 
ATOM      4  C   LIG d   1       4.663   0.086  -1.683  0.00  0.00    -0.048 C 
ATOM      5  C   LIG d   1       4.093   1.037  -2.760  0.00  0.00    -0.035 C 
ATOM      6  C   LIG d   1       3.435   0.091  -3.811  0.00  0.00     0.068 C 
ATOM      7  C   LIG d   1       2.916  -1.061  -2.880  0.00  0.00    -0.032 C 
ATOM      8  C   LIG d   1       4.618  -0.603  -4.499  0.00  0.00    -0.056 C 
ATOM      9  C   LIG d   1       5.039  -0.426  -5.727  0.00  0.00    -0.098 C 
ATOM     10  H   LIG d   1       4.191   0.278  -0.719  0.00  0.00     0.027 H 
ATOM     11  H   LIG d   1       5.743   0.199  -1.606  0.00  0.00     0.027 H 
ATOM     12  H   LIG d   1       3.346   1.701  -2.325  0.00  0.00     0.028 H 
ATOM     13  H   LIG d   1       4.895   1.617  -3.218  0.00  0.00     0.028 H 
ATOM     14  H   LIG d   1       2.552  -1.923  -3.439  0.00  0.00     0.028 H 
ATOM     15  H   LIG d   1       2.173  -0.695  -2.172  0.00  0.00     0.028 H 
ATOM     16  H   LIG d   1       4.535   0.276  -6.375  0.00  0.00     0.053 H 
ATOM     17  H   LIG d   1       5.890  -0.982  -6.092  0.00  0.00     0.053 H 
ENDROOT
BRANCH   1  18
ATOM     18  C   LIG d   1       6.656  -1.154  -3.113  0.00  0.00    -0.056 C 
ATOM     19  H   LIG d   1       7.034  -0.490  -3.889  0.00  0.00     0.024 H 
ATOM     20  H   LIG d   1       6.683  -0.642  -2.151  0.00  0.00     0.024 H 
ATOM     21  H   LIG d   1       7.276  -2.049  -3.066  0.00  0.00     0.024 H 
ENDBRANCH   1  18
BRANCH   1  22
ATOM     22  C   LIG d   1       5.153  -3.007  -3.906  0.00  0.00    -0.056 C 
ATOM     23  H   LIG d   1       5.855  -3.604  -3.326  0.00  0.00     0.024 H 
ATOM     24  H   LIG d   1       4.143  -3.391  -3.762  0.00  0.00     0.024 H 
ATOM     25  H   LIG d   1       5.416  -3.060  -4.963  0.00  0.00     0.024 H 
ENDBRANCH   1  22
BRANCH   6  26
ATOM     26  C   LIG d   1       2.425   0.730  -4.729  0.00  0.00     0.221 C 
ATOM     27  O   LIG d   1       2.547   1.893  -5.048  0.00  0.00    -0.275 OA
ATOM     28  N   LIG d   1       1.385   0.008  -5.195  0.00  0.00    -0.329 N 
ATOM     29  H   LIG d   1       1.288  -0.923  -4.940  0.00  0.00     0.145 HD
ATOM     30  H   LIG d   1       0.736   0.420  -5.786  0.00  0.00     0.145 HD
ENDBRANCH   6  26
TORSDOF 3
ENDMDL
MODEL 2
REMARK VINA RESULT:      -5.6      1.480      2.964
REMARK  3 active torsions:
REMARK  status: ('A' for Active; 'I' for Inactive)
REMARK    1  A    between atoms: C_1  and  C_2 
REMARK    2  A    between atoms: C_2  and  C_14 
REMARK    3  A    between atoms: C_7  and  C_11 
REMARK       I    between atoms: C_11  and  N_13 
ROOT
ATOM      1  C   LIG d   1       4.684  -0.487  -2.662  0.00  0.00    -0.010 C 
ATOM      2  C   LIG d   1       6.089  -0.716  -3.298  0.00  0.00    -0.031 C 
ATOM      3  H   LIG d   1       6.944  -0.396  -2.702  0.00  0.00     0.031 H 
ATOM      4  C   LIG d   1       6.077  -2.215  -3.730  0.00  0.00    -0.048 C 
ATOM      5  C   LIG d   1       5.089  -2.266  -4.917  0.00  0.00    -0.035 C 
ATOM      6  C   LIG d   1       4.607  -0.793  -5.091  0.00  0.00     0.068 C 
ATOM      7  C   LIG d   1       5.908  -0.013  -4.689  0.00  0.00    -0.032 C 
ATOM      8  C   LIG d   1       3.722  -0.529  -3.866  0.00  0.00    -0.056 C 
ATOM      9  C   LIG d   1       2.421  -0.378  -3.843  0.00  0.00    -0.098 C 
ATOM     10  H   LIG d   1       7.071  -2.527  -4.049  0.00  0.00     0.027 H 
ATOM     11  H   LIG d   1       5.726  -2.843  -2.913  0.00  0.00     0.027 H 
ATOM     12  H   LIG d   1       5.595  -2.610  -5.819  0.00  0.00     0.028 H 
ATOM     13  H   LIG d   1       4.247  -2.918  -4.683  0.00  0.00     0.028 H 
ATOM     14  H   LIG d   1       5.743   1.060  -4.588  0.00  0.00     0.028 H 
ATOM     15  H   LIG d   1       6.730  -0.232  -5.371  0.00  0.00     0.028 H 
ATOM     16  H   LIG d   1       1.854  -0.435  -4.761  0.00  0.00     0.053 H 
ATOM     17  H   LIG d   1       1.914  -0.196  -2.907  0.00  0.00     0.053 H 
ENDROOT
BRANCH   1  18
ATOM     18  C   LIG d   1       4.359  -1.608  -1.673  0.00  0.00    -0.056 C 
ATOM     19  H   LIG d   1       4.174  -1.180  -0.687  0.00  0.00     0.024 H 
ATOM     20  H   LIG d   1       3.471  -2.142  -2.009  0.00  0.00     0.024 H 
ATOM     21  H   LIG d   1       5.200  -2.298  -1.616  0.00  0.00     0.024 H 
ENDBRANCH   1  18
BRANCH   1  22
ATOM     22  C   LIG d   1       4.632   0.874  -1.964  0.00  0.00    -0.056 C 
ATOM     23  H   LIG d   1       5.207   1.599  -2.538  0.00  0.00     0.024 H 
ATOM     24  H   LIG d   1       3.596   1.205  -1.893  0.00  0.00     0.024 H 
ATOM     25  H   LIG d   1       5.055   0.785  -0.963  0.00  0.00     0.024 H 
ENDBRANCH   1  22
BRANCH   6  26
ATOM     26  C   LIG d   1       3.997  -0.454  -6.427  0.00  0.00     0.221 C 
ATOM     27  O   LIG d   1       3.893   0.705  -6.770  0.00  0.00    -0.275 OA
ATOM     28  N   LIG d   1       3.568  -1.439  -7.242  0.00  0.00    -0.329 N 
ATOM     29  H   LIG d   1       3.652  -2.366  -6.968  0.00  0.00     0.145 HD
ATOM     30  H   LIG d   1       3.176  -1.220  -8.102  0.00  0.00     0.145 HD
ENDBRANCH   6  26
TORSDOF 3
ENDMDL
MODEL 3
REMARK VINA RESULT:      -5.5      1.952      2.662
REMARK  3 active torsions:
REMARK  status: ('A' for Active; 'I' for Inactive)
REMARK    1  A    between atoms: C_1  and  C_2 
REMARK    2  A    between atoms: C_2  and  C_14 
REMARK    3  A    between atoms: C_7  and  C_11 
REMARK       I    between atoms: C_11  and  N_13 
ROOT
ATOM      1  C   LIG d   1       5.714  -1.692  -4.599  0.00  0.00    -0.010 C 
ATOM      2  C   LIG d   1       4.223  -2.084  -4.370  0.00  0.00    -0.031 C 
ATOM      3  H   LIG d   1       3.769  -2.716  -5.134  0.00  0.00     0.031 H 
ATOM      4  C   LIG d   1       4.191  -2.642  -2.913  0.00  0.00    -0.048 C 
ATOM      5  C   LIG d   1       4.419  -1.401  -2.020  0.00  0.00    -0.035 C 
ATOM      6  C   LIG d   1       4.558  -0.215  -3.023  0.00  0.00     0.068 C 
ATOM      7  C   LIG d   1       3.571  -0.674  -4.153  0.00  0.00    -0.032 C 
ATOM      8  C   LIG d   1       5.911  -0.448  -3.710  0.00  0.00    -0.056 C 
ATOM      9  C   LIG d   1       7.006   0.257  -3.568  0.00  0.00    -0.098 C 
ATOM     10  H   LIG d   1       3.222  -3.092  -2.699  0.00  0.00     0.027 H 
ATOM     11  H   LIG d   1       4.988  -3.370  -2.767  0.00  0.00     0.027 H 
ATOM     12  H   LIG d   1       3.565  -1.244  -1.361  0.00  0.00     0.028 H 
ATOM     13  H   LIG d   1       5.333  -1.517  -1.436  0.00  0.00     0.028 H 
ATOM     14  H   LIG d   1       3.633  -0.051  -5.046  0.00  0.00     0.028 H 
ATOM     15  H   LIG d   1       2.548  -0.746  -3.782  0.00  0.00     0.028 H 
ATOM     16  H   LIG d   1       7.017   1.110  -2.905  0.00  0.00     0.053 H 
ATOM     17  H   LIG d   1       7.898  -0.014  -4.113  0.00  0.00     0.053 H 
ENDROOT
BRANCH   1  18
ATOM     18  C   LIG d   1       6.638  -2.826  -4.151  0.00  0.00    -0.056 C 
ATOM     19  H   LIG d   1       7.479  -2.904  -4.840  0.00  0.00     0.024 H 
ATOM     20  H   LIG d   1       7.009  -2.617  -3.147  0.00  0.00     0.024 H 
ATOM     21  H   LIG d   1       6.085  -3.765  -4.146  0.00  0.00     0.024 H 
ENDBRANCH   1  18
BRANCH   1  22
ATOM     22  C   LIG d   1       5.955  -1.358  -6.073  0.00  0.00    -0.056 C 
ATOM     23  H   LIG d   1       5.022  -1.455  -6.625  0.00  0.00     0.024 H 
ATOM     24  H   LIG d   1       6.324  -0.335  -6.158  0.00  0.00     0.024 H 
ATOM     25  H   LIG d   1       6.695  -2.046  -6.485  0.00  0.00     0.024 H 
ENDBRANCH   1  22
BRANCH   6  26
ATOM     26  C   LIG d   1       4.342   1.161  -2.449  0.00  0.00     0.221 C 
ATOM     27  O   LIG d   1       4.681   1.402  -1.309  0.00  0.00    -0.275 OA
ATOM     28  N   LIG d   1       3.772   2.124  -3.201  0.00  0.00    -0.329 N 
ATOM     29  H   LIG d   1       3.501   1.931  -4.112  0.00  0.00     0.145 HD
ATOM     30  H   LIG d   1       3.633   3.010  -2.830  0.00  0.00     0.145 HD
ENDBRANCH   6  26
TORSDOF 3
ENDMDL
MODEL 4
REMARK VINA RESULT:      -5.3      2.512      3.642
REMARK  3 active torsions:
REMARK  status: ('A' for Active; 'I' for Inactive)
REMARK    1  A    between atoms: C_1  and  C_2 
REMARK    2  A    between atoms: C_2  and  C_14 
REMARK    3  A    between atoms: C_7  and  C_11 
REMARK       I    between atoms: C_11  and  N_13 
ROOT
ATOM      1  C   LIG d   1       3.315   0.301  -3.764  0.00  0.00    -0.010 C 
ATOM      2  C   LIG d   1       3.878   0.810  -2.402  0.00  0.00    -0.031 C 
ATOM      3  H   LIG d   1       3.215   1.446  -1.816  0.00  0.00     0.031 H 
ATOM      4  C   LIG d   1       4.395  -0.479  -1.692  0.00  0.00    -0.048 C 
ATOM      5  C   LIG d   1       5.640  -0.896  -2.508  0.00  0.00    -0.035 C 
ATOM      6  C   LIG d   1       5.758   0.186  -3.625  0.00  0.00     0.068 C 
ATOM      7  C   LIG d   1       5.235   1.452  -2.859  0.00  0.00    -0.032 C 
ATOM      8  C   LIG d   1       4.575  -0.095  -4.561  0.00  0.00    -0.056 C 
ATOM      9  C   LIG d   1       4.621  -0.575  -5.778  0.00  0.00    -0.098 C 
ATOM     10  H   LIG d   1       4.672  -0.261  -0.661  0.00  0.00     0.027 H 
ATOM     11  H   LIG d   1       3.637  -1.261  -1.724  0.00  0.00     0.027 H 
ATOM     12  H   LIG d   1       6.529  -0.890  -1.876  0.00  0.00     0.028 H 
ATOM     13  H   LIG d   1       5.494  -1.883  -2.946  0.00  0.00     0.028 H 
ATOM     14  H   LIG d   1       5.084   2.309  -3.516  0.00  0.00     0.028 H 
ATOM     15  H   LIG d   1       5.878   1.699  -2.014  0.00  0.00     0.028 H 
ATOM     16  H   LIG d   1       5.573  -0.821  -6.226  0.00  0.00     0.053 H 
ATOM     17  H   LIG d   1       3.708  -0.728  -6.334  0.00  0.00     0.053 H 
ENDROOT
BRANCH   1  18
ATOM     18  C   LIG d   1       2.413  -0.915  -3.545  0.00  0.00    -0.056 C 
ATOM     19  H   LIG d   1       2.614  -1.346  -2.564  0.00  0.00     0.024 H 
ATOM     20  H   LIG d   1       1.369  -0.607  -3.599  0.00  0.00     0.024 H 
ATOM     21  H   LIG d   1       2.613  -1.659  -4.316  0.00  0.00     0.024 H 
ENDBRANCH   1  18
BRANCH   1  22
ATOM     22  C   LIG d   1       2.545   1.417  -4.472  0.00  0.00    -0.056 C 
ATOM     23  H   LIG d   1       3.242   2.044  -5.027  0.00  0.00     0.024 H 
ATOM     24  H   LIG d   1       1.822   0.979  -5.161  0.00  0.00     0.024 H 
ATOM     25  H   LIG d   1       2.021   2.023  -3.731  0.00  0.00     0.024 H 
ENDBRANCH   1  22
BRANCH   6  26
ATOM     26  C   LIG d   1       7.106   0.302  -4.288  0.00  0.00     0.221 C 
ATOM     27  O   LIG d   1       7.392   1.303  -4.910  0.00  0.00    -0.275 OA
ATOM     28  N   LIG d   1       7.995  -0.707  -4.189  0.00  0.00    -0.329 N 
ATOM     29  H   LIG d   1       7.767  -1.507  -3.691  0.00  0.00     0.145 HD
ATOM     30  H   LIG d   1       8.863  -0.632  -4.616  0.00  0.00     0.145 HD
ENDBRANCH   6  26
TORSDOF 3
ENDMDL
MODEL 5
REMARK VINA RESULT:      -5.3      2.826      3.955
REMARK  3 active torsions:
REMARK  status: ('A' for Active; 'I' for Inactive)
REMARK    1  A    between atoms: C_1  and  C_2 
REMARK    2  A    between atoms: C_2  and  C_14 
REMARK    3  A    between atoms: C_7  and  C_11 
REMARK       I    between atoms: C_11  and  N_13 
ROOT
ATOM      1  C   LIG d   1       4.374   0.546  -2.587  0.00  0.00    -0.010 C 
ATOM      2  C   LIG d   1       3.570  -0.784  -2.462  0.00  0.00    -0.031 C 
ATOM      3  H   LIG d   1       2.821  -0.820  -1.670  0.00  0.00     0.031 H 
ATOM      4  C   LIG d   1       3.053  -1.059  -3.907  0.00  0.00    -0.048 C 
ATOM      5  C   LIG d   1       4.322  -1.433  -4.707  0.00  0.00    -0.035 C 
ATOM      6  C   LIG d   1       5.480  -1.356  -3.664  0.00  0.00     0.068 C 
ATOM      7  C   LIG d   1       4.735  -1.831  -2.368  0.00  0.00    -0.032 C 
ATOM      8  C   LIG d   1       5.637   0.143  -3.374  0.00  0.00    -0.056 C 
ATOM      9  C   LIG d   1       6.631   0.920  -3.725  0.00  0.00    -0.098 C 
ATOM     10  H   LIG d   1       2.345  -1.888  -3.907  0.00  0.00     0.027 H 
ATOM     11  H   LIG d   1       2.589  -0.164  -4.322  0.00  0.00     0.027 H 
ATOM     12  H   LIG d   1       4.236  -2.444  -5.106  0.00  0.00     0.028 H 
ATOM     13  H   LIG d   1       4.486  -0.719  -5.514  0.00  0.00     0.028 H 
ATOM     14  H   LIG d   1       5.333  -1.700  -1.465  0.00  0.00     0.028 H 
ATOM     15  H   LIG d   1       4.376  -2.855  -2.468  0.00  0.00     0.028 H 
ATOM     16  H   LIG d   1       7.462   0.515  -4.285  0.00  0.00     0.053 H 
ATOM     17  H   LIG d   1       6.620   1.966  -3.456  0.00  0.00     0.053 H 
ENDROOT
BRANCH   1  18
ATOM     18  C   LIG d   1       3.565   1.587  -3.364  0.00  0.00    -0.056 C 
ATOM     19  H   LIG d   1       2.603   1.160  -3.650  0.00  0.00     0.024 H 
ATOM     20  H   LIG d   1       3.401   2.462  -2.737  0.00  0.00     0.024 H 
ATOM     21  H   LIG d   1       4.113   1.878  -4.260  0.00  0.00     0.024 H 
ENDBRANCH   1  18
BRANCH   1  22
ATOM     22  C   LIG d   1       4.738   1.081  -1.200  0.00  0.00    -0.056 C 
ATOM     23  H   LIG d   1       5.721   1.548  -1.237  0.00  0.00     0.024 H 
ATOM     24  H   LIG d   1       3.996   1.817  -0.889  0.00  0.00     0.024 H 
ATOM     25  H   LIG d   1       4.754   0.256  -0.486  0.00  0.00     0.024 H 
ENDBRANCH   1  22
BRANCH   6  26
ATOM     26  C   LIG d   1       6.743  -2.090  -4.030  0.00  0.00     0.221 C 
ATOM     27  O   LIG d   1       6.911  -2.479  -5.167  0.00  0.00    -0.275 OA
ATOM     28  N   LIG d   1       7.688  -2.314  -3.095  0.00  0.00    -0.329 N 
ATOM     29  H   LIG d   1       7.555  -2.002  -2.186  0.00  0.00     0.145 HD
ATOM     30  H   LIG d   1       8.502  -2.786  -3.331  0.00  0.00     0.145 HD
ENDBRANCH   6  26
TORSDOF 3
ENDMDL
MODEL 6
REMARK VINA RESULT:      -5.2      2.538      3.749
REMARK  3 active torsions:
REMARK  status: ('A' for Active; 'I' for Inactive)
REMARK    1  A    between atoms: C_1  and  C_2 
REMARK    2  A    between atoms: C_2  and  C_14 
REMARK    3  A    between atoms: C_7  and  C_11 
REMARK       I    between atoms: C_11  and  N_13 
ROOT
ATOM      1  C   LIG d   1       3.561  -0.119  -3.243  0.00  0.00    -0.010 C 
ATOM      2  C   LIG d   1       4.400  -0.879  -2.171  0.00  0.00    -0.031 C 
ATOM      3  H   LIG d   1       4.352  -0.485  -1.156  0.00  0.00     0.031 H 
ATOM      4  C   LIG d   1       3.987  -2.373  -2.346  0.00  0.00    -0.048 C 
ATOM      5  C   LIG d   1       4.603  -2.787  -3.703  0.00  0.00    -0.035 C 
ATOM      6  C   LIG d   1       5.334  -1.506  -4.209  0.00  0.00     0.068 C 
ATOM      7  C   LIG d   1       5.815  -0.889  -2.849  0.00  0.00    -0.032 C 
ATOM      8  C   LIG d   1       4.203  -0.538  -4.581  0.00  0.00    -0.056 C 
ATOM      9  C   LIG d   1       3.850  -0.151  -5.782  0.00  0.00    -0.098 C 
ATOM     10  H   LIG d   1       4.400  -2.980  -1.541  0.00  0.00     0.027 H 
ATOM     11  H   LIG d   1       2.902  -2.467  -2.374  0.00  0.00     0.027 H 
ATOM     12  H   LIG d   1       5.314  -3.602  -3.565  0.00  0.00     0.028 H 
ATOM     13  H   LIG d   1       3.819  -3.081  -4.401  0.00  0.00     0.028 H 
ATOM     14  H   LIG d   1       6.224   0.116  -2.962  0.00  0.00     0.028 H 
ATOM     15  H   LIG d   1       6.512  -1.553  -2.336  0.00  0.00     0.028 H 
ATOM     16  H   LIG d   1       4.380  -0.524  -6.646  0.00  0.00     0.053 H 
ATOM     17  H   LIG d   1       3.030   0.539  -5.908  0.00  0.00     0.053 H 
ENDROOT
BRANCH   1  18
ATOM     18  C   LIG d   1       2.098  -0.562  -3.186  0.00  0.00    -0.056 C 
ATOM     19  H   LIG d   1       2.001  -1.554  -3.626  0.00  0.00     0.024 H 
ATOM     20  H   LIG d   1       1.767  -0.591  -2.148  0.00  0.00     0.024 H 
ATOM     21  H   LIG d   1       1.483   0.144  -3.744  0.00  0.00     0.024 H 
ENDBRANCH   1  18
BRANCH   1  22
ATOM     22  C   LIG d   1       3.670   1.392  -3.030  0.00  0.00    -0.056 C 
ATOM     23  H   LIG d   1       4.645   1.630  -2.605  0.00  0.00     0.024 H 
ATOM     24  H   LIG d   1       3.556   1.903  -3.987  0.00  0.00     0.024 H 
ATOM     25  H   LIG d   1       2.886   1.721  -2.347  0.00  0.00     0.024 H 
ENDBRANCH   1  22
BRANCH   6  26
ATOM     26  C   LIG d   1       6.386  -1.724  -5.266  0.00  0.00     0.221 C 
ATOM     27  O   LIG d   1       6.312  -2.682  -6.006  0.00  0.00    -0.275 OA
ATOM     28  N   LIG d   1       7.408  -0.853  -5.391  0.00  0.00    -0.329 N 
ATOM     29  H   LIG d   1       7.466  -0.086  -4.800  0.00  0.00     0.145 HD
ATOM     30  H   LIG d   1       8.084  -0.994  -6.072  0.00  0.00     0.145 HD
ENDBRANCH   6  26
TORSDOF 3
ENDMDL
MODEL 7
REMARK VINA RESULT:      -5.1      2.438      3.144
REMARK  3 active torsions:
REMARK  status: ('A' for Active; 'I' for Inactive)
REMARK    1  A    between atoms: C_1  and  C_2 
REMARK    2  A    between atoms: C_2  and  C_14 
REMARK    3  A    between atoms: C_7  and  C_11 
REMARK       I    between atoms: C_11  and  N_13 
ROOT
ATOM      1  C   LIG d   1       4.383  -1.846  -3.453  0.00  0.00    -0.010 C 
ATOM      2  C   LIG d   1       3.455  -0.673  -3.891  0.00  0.00    -0.031 C 
ATOM      3  H   LIG d   1       2.505  -0.956  -4.346  0.00  0.00     0.031 H 
ATOM      4  C   LIG d   1       3.366   0.241  -2.630  0.00  0.00    -0.048 C 
ATOM      5  C   LIG d   1       4.773   0.869  -2.508  0.00  0.00    -0.035 C 
ATOM      6  C   LIG d   1       5.571   0.281  -3.712  0.00  0.00     0.068 C 
ATOM      7  C   LIG d   1       4.434   0.166  -4.787  0.00  0.00    -0.032 C 
ATOM      8  C   LIG d   1       5.779  -1.197  -3.352  0.00  0.00    -0.056 C 
ATOM      9  C   LIG d   1       6.902  -1.784  -3.022  0.00  0.00    -0.098 C 
ATOM     10  H   LIG d   1       2.614   1.017  -2.774  0.00  0.00     0.027 H 
ATOM     11  H   LIG d   1       3.134  -0.353  -1.746  0.00  0.00     0.027 H 
ATOM     12  H   LIG d   1       4.713   1.955  -2.585  0.00  0.00     0.028 H 
ATOM     13  H   LIG d   1       5.237   0.581  -1.565  0.00  0.00     0.028 H 
ATOM     14  H   LIG d   1       4.747  -0.381  -5.676  0.00  0.00     0.028 H 
ATOM     15  H   LIG d   1       4.024   1.145  -5.038  0.00  0.00     0.028 H 
ATOM     16  H   LIG d   1       7.818  -1.214  -2.982  0.00  0.00     0.053 H 
ATOM     17  H   LIG d   1       6.912  -2.839  -2.790  0.00  0.00     0.053 H 
ENDROOT
BRANCH   1  18
ATOM     18  C   LIG d   1       3.944  -2.392  -2.092  0.00  0.00    -0.056 C 
ATOM     19  H   LIG d   1       4.020  -3.479  -2.096  0.00  0.00     0.024 H 
ATOM     20  H   LIG d   1       4.588  -1.985  -1.313  0.00  0.00     0.024 H 
ATOM     21  H   LIG d   1       2.912  -2.101  -1.900  0.00  0.00     0.024 H 
ENDBRANCH   1  18
BRANCH   1  22
ATOM     22  C   LIG d   1       4.369  -2.957  -4.504  0.00  0.00    -0.056 C 
ATOM     23  H   LIG d   1       4.052  -3.891  -4.042  0.00  0.00     0.024 H 
ATOM     24  H   LIG d   1       3.675  -2.692  -5.302  0.00  0.00     0.024 H 
ATOM     25  H   LIG d   1       5.370  -3.078  -4.919  0.00  0.00     0.024 H 
ENDBRANCH   1  22
BRANCH   6  26
ATOM     26  C   LIG d   1       6.810   1.039  -4.112  0.00  0.00     0.221 C 
ATOM     27  O   LIG d   1       7.409   1.699  -3.290  0.00  0.00    -0.275 OA
ATOM     28  N   LIG d   1       7.254   0.983  -5.384  0.00  0.00    -0.329 N 
ATOM     29  H   LIG d   1       6.776   0.454  -6.042  0.00  0.00     0.145 HD
ATOM     30  H   LIG d   1       8.053   1.471  -5.641  0.00  0.00     0.145 HD
ENDBRANCH   6  26
TORSDOF 3
ENDMDL
MODEL 8
REMARK VINA RESULT:      -5.1      2.350      3.397
REMARK  3 active torsions:
REMARK  status: ('A' for Active; 'I' for Inactive)
REMARK    1  A    between atoms: C_1  and  C_2 
REMARK    2  A    between atoms: C_2  and  C_14 
REMARK    3  A    between atoms: C_7  and  C_11 
REMARK       I    between atoms: C_11  and  N_13 
ROOT
ATOM      1  C   LIG d   1       4.886   0.206  -3.144  0.00  0.00    -0.010 C 
ATOM      2  C   LIG d   1       5.503  -0.898  -2.233  0.00  0.00    -0.031 C 
ATOM      3  H   LIG d   1       6.145  -0.550  -1.424  0.00  0.00     0.031 H 
ATOM      4  C   LIG d   1       4.283  -1.775  -1.811  0.00  0.00    -0.048 C 
ATOM      5  C   LIG d   1       3.870  -2.510  -3.106  0.00  0.00    -0.035 C 
ATOM      6  C   LIG d   1       4.884  -2.013  -4.181  0.00  0.00     0.068 C 
ATOM      7  C   LIG d   1       6.172  -1.831  -3.303  0.00  0.00    -0.032 C 
ATOM      8  C   LIG d   1       4.495  -0.550  -4.431  0.00  0.00    -0.056 C 
ATOM      9  C   LIG d   1       3.942  -0.046  -5.506  0.00  0.00    -0.098 C 
ATOM     10  H   LIG d   1       4.577  -2.491  -1.044  0.00  0.00     0.027 H 
ATOM     11  H   LIG d   1       3.469  -1.146  -1.452  0.00  0.00     0.027 H 
ATOM     12  H   LIG d   1       3.953  -3.589  -2.974  0.00  0.00     0.028 H 
ATOM     13  H   LIG d   1       2.852  -2.241  -3.388  0.00  0.00     0.028 H 
ATOM     14  H   LIG d   1       6.980  -1.329  -3.837  0.00  0.00     0.028 H 
ATOM     15  H   LIG d   1       6.499  -2.779  -2.875  0.00  0.00     0.028 H 
ATOM     16  H   LIG d   1       3.710  -0.687  -6.344  0.00  0.00     0.053 H 
ATOM     17  H   LIG d   1       3.717   1.009  -5.555  0.00  0.00     0.053 H 
ENDROOT
BRANCH   1  18
ATOM     18  C   LIG d   1       3.648   0.814  -2.481  0.00  0.00    -0.056 C 
ATOM     19  H   LIG d   1       3.949   1.645  -1.843  0.00  0.00     0.024 H 
ATOM     20  H   LIG d   1       2.964   1.175  -3.249  0.00  0.00     0.024 H 
ATOM     21  H   LIG d   1       3.150   0.056  -1.877  0.00  0.00     0.024 H 
ENDBRANCH   1  18
BRANCH   1  22
ATOM     22  C   LIG d   1       5.922   1.293  -3.439  0.00  0.00    -0.056 C 
ATOM     23  H   LIG d   1       5.470   2.274  -3.298  0.00  0.00     0.024 H 
ATOM     24  H   LIG d   1       6.768   1.181  -2.760  0.00  0.00     0.024 H 
ATOM     25  H   LIG d   1       6.267   1.196  -4.469  0.00  0.00     0.024 H 
ENDBRANCH   1  22
BRANCH   6  26
ATOM     26  C   LIG d   1       5.016  -2.876  -5.410  0.00  0.00     0.221 C 
ATOM     27  O   LIG d   1       6.022  -2.820  -6.085  0.00  0.00    -0.275 OA
ATOM     28  N   LIG d   1       4.016  -3.710  -5.758  0.00  0.00    -0.329 N 
ATOM     29  H   LIG d   1       3.212  -3.756  -5.217  0.00  0.00     0.145 HD
ATOM     30  H   LIG d   1       4.101  -4.266  -6.549  0.00  0.00     0.145 HD
ENDBRANCH   6  26
TORSDOF 3
ENDMDL
MODEL 9
REMARK VINA RESULT:      -4.5      1.971      3.145
REMARK  3 active torsions:
REMARK  status: ('A' for Active; 'I' for Inactive)
REMARK    1  A    between atoms: C_1  and  C_2 
REMARK    2  A    between atoms: C_2  and  C_14 
REMARK    3  A    between atoms: C_7  and  C_11 
REMARK       I    between atoms: C_11  and  N_13 
ROOT
ATOM      1  C   LIG d   1       5.433  -2.189  -4.489  0.00  0.00    -0.010 C 
ATOM      2  C   LIG d   1       5.789  -0.913  -5.311  0.00  0.00    -0.031 C 
ATOM      3  H   LIG d   1       6.666  -0.986  -5.955  0.00  0.00     0.031 H 
ATOM      4  C   LIG d   1       4.452  -0.524  -6.015  0.00  0.00    -0.048 C 
ATOM      5  C   LIG d   1       3.546  -0.020  -4.868  0.00  0.00    -0.035 C 
ATOM      6  C   LIG d   1       4.426  -0.147  -3.587  0.00  0.00     0.068 C 
ATOM      7  C   LIG d   1       5.845   0.170  -4.177  0.00  0.00    -0.032 C 
ATOM      8  C   LIG d   1       4.542  -1.658  -3.348  0.00  0.00    -0.056 C 
ATOM      9  C   LIG d   1       3.997  -2.354  -2.382  0.00  0.00    -0.098 C 
ATOM     10  H   LIG d   1       4.622   0.270  -6.742  0.00  0.00     0.027 H 
ATOM     11  H   LIG d   1       4.009  -1.394  -6.499  0.00  0.00     0.027 H 
ATOM     12  H   LIG d   1       3.264   1.020  -5.035  0.00  0.00     0.028 H 
ATOM     13  H   LIG d   1       2.657  -0.645  -4.785  0.00  0.00     0.028 H 
ATOM     14  H   LIG d   1       6.649  -0.021  -3.466  0.00  0.00     0.028 H 
ATOM     15  H   LIG d   1       5.892   1.182  -4.577  0.00  0.00     0.028 H 
ATOM     16  H   LIG d   1       3.383  -1.862  -1.641  0.00  0.00     0.053 H 
ATOM     17  H   LIG d   1       4.158  -3.421  -2.326  0.00  0.00     0.053 H 
ENDROOT
BRANCH   1  18
ATOM     18  C   LIG d   1       4.660  -3.184  -5.357  0.00  0.00    -0.056 C 
ATOM     19  H   LIG d   1       3.703  -2.750  -5.643  0.00  0.00     0.024 H 
ATOM     20  H   LIG d   1       5.239  -3.411  -6.252  0.00  0.00     0.024 H 
ATOM     21  H   LIG d   1       4.489  -4.101  -4.793  0.00  0.00     0.024 H 
ENDBRANCH   1  18
BRANCH   1  22
ATOM     22  C   LIG d   1       6.705  -2.837  -3.937  0.00  0.00    -0.056 C 
ATOM     23  H   LIG d   1       6.572  -3.054  -2.878  0.00  0.00     0.024 H 
ATOM     24  H   LIG d   1       6.903  -3.764  -4.476  0.00  0.00     0.024 H 
ATOM     25  H   LIG d   1       7.546  -2.155  -4.066  0.00  0.00     0.024 H 
ENDBRANCH   1  22
BRANCH   6  26
ATOM     26  C   LIG d   1       3.984   0.673  -2.403  0.00  0.00     0.221 C 
ATOM     27  O   LIG d   1       2.857   1.121  -2.362  0.00  0.00    -0.275 OA
ATOM     28  N   LIG d   1       4.840   0.909  -1.388  0.00  0.00    -0.329 N 
ATOM     29  H   LIG d   1       5.740   0.550  -1.420  0.00  0.00     0.145 HD
ATOM     30  H   LIG d   1       4.554   1.436  -0.625  0.00  0.00     0.145 HD
ENDBRANCH   6  26
TORSDOF 3
ENDMDL
MODEL 10
REMARK VINA RESULT:      -4.4      3.740      5.849
REMARK  3 active torsions:
REMARK  status: ('A' for Active; 'I' for Inactive)
REMARK    1  A    between atoms: C_1  and  C_2 
REMARK    2  A    between atoms: C_2  and  C_14 
REMARK    3  A    between atoms: C_7  and  C_11 
REMARK       I    between atoms: C_11  and  N_13 
ROOT
ATOM      1  C   LIG d   1       3.937   1.442  -9.452  0.00  0.00    -0.010 C 
ATOM      2  C   LIG d   1       2.487   1.164  -8.950  0.00  0.00    -0.031 C 
ATOM      3  H   LIG d   1       1.737   1.910  -9.212  0.00  0.00     0.031 H 
ATOM      4  C   LIG d   1       2.193  -0.296  -9.412  0.00  0.00    -0.048 C 
ATOM      5  C   LIG d   1       3.100  -1.174  -8.520  0.00  0.00    -0.035 C 
ATOM      6  C   LIG d   1       3.847  -0.159  -7.600  0.00  0.00     0.068 C 
ATOM      7  C   LIG d   1       2.739   0.936  -7.417  0.00  0.00    -0.032 C 
ATOM      8  C   LIG d   1       4.820   0.567  -8.539  0.00  0.00    -0.056 C 
ATOM      9  C   LIG d   1       6.125   0.464  -8.565  0.00  0.00    -0.098 C 
ATOM     10  H   LIG d   1       1.144  -0.544  -9.248  0.00  0.00     0.027 H 
ATOM     11  H   LIG d   1       2.453  -0.423 -10.463  0.00  0.00     0.027 H 
ATOM     12  H   LIG d   1       2.498  -1.858  -7.921  0.00  0.00     0.028 H 
ATOM     13  H   LIG d   1       3.811  -1.730  -9.131  0.00  0.00     0.028 H 
ATOM     14  H   LIG d   1       3.111   1.835  -6.925  0.00  0.00     0.028 H 
ATOM     15  H   LIG d   1       1.861   0.533  -6.912  0.00  0.00     0.028 H 
ATOM     16  H   LIG d   1       6.629  -0.193  -7.872  0.00  0.00     0.053 H 
ATOM     17  H   LIG d   1       6.698   1.035  -9.281  0.00  0.00     0.053 H 
ENDROOT
BRANCH   1  18
ATOM     18  C   LIG d   1       4.085   1.015 -10.914  0.00  0.00    -0.056 C 
ATOM     19  H   LIG d   1       5.017   0.464 -11.038  0.00  0.00     0.024 H 
ATOM     20  H   LIG d   1       3.246   0.378 -11.193  0.00  0.00     0.024 H 
ATOM     21  H   LIG d   1       4.099   1.899 -11.551  0.00  0.00     0.024 H 
ENDBRANCH   1  18
BRANCH   1  22
ATOM     22  C   LIG d   1       4.280   2.925  -9.291  0.00  0.00    -0.056 C 
ATOM     23  H   LIG d   1       4.137   3.220  -8.253  0.00  0.00     0.024 H 
ATOM     24  H   LIG d   1       5.319   3.090  -9.577  0.00  0.00     0.024 H 
ATOM     25  H   LIG d   1       3.627   3.520  -9.932  0.00  0.00     0.024 H 
ENDBRANCH   1  22
BRANCH   6  26
ATOM     26  C   LIG d   1       4.451  -0.732  -6.344  0.00  0.00     0.221 C 
ATOM     27  O   LIG d   1       4.698  -0.005  -5.405  0.00  0.00    -0.275 OA
ATOM     28  N   LIG d   1       4.715  -2.051  -6.264  0.00  0.00    -0.329 N 
ATOM     29  H   LIG d   1       4.517  -2.632  -7.015  0.00  0.00     0.145 HD
ATOM     30  H   LIG d   1       5.104  -2.420  -5.455  0.00  0.00     0.145 HD
ENDBRANCH   6  26
TORSDOF 3
ENDMDL
