MODEL 1
REMARK VINA RESULT:      -6.5      0.000      0.000
REMARK  10 active torsions:
REMARK  status: ('A' for Active; 'I' for Inactive)
REMARK    1  A    between atoms: C_1  and  C_2 
REMARK    2  A    between atoms: C_2  and  N_3 
REMARK    3  A    between atoms: C_9  and  C_25 
REMARK    4  A    between atoms: C_21  and  C_24 
REMARK    5  A    between atoms: C_28  and  O_33 
REMARK    6  A    between atoms: C_29  and  O_31 
REMARK    7  A    between atoms: O_31  and  C_32 
REMARK    8  A    between atoms: O_33  and  C_34 
REMARK    9  A    between atoms: C_34  and  C_35 
REMARK   10  A    between atoms: C_34  and  C_36 
ROOT
ATOM      1  N   LIG d   1      10.862   1.706  -4.108  0.00  0.00    -0.291 N 
ATOM      2  C   LIG d   1      11.616   0.583  -4.641  0.00  0.00     0.091 C 
ATOM      3  C   LIG d   1      10.737  -0.410  -5.329  0.00  0.00     0.234 C 
ATOM      4  O   LIG d   1      11.255  -1.409  -5.783  0.00  0.00    -0.274 OA
ATOM      5  N   LIG d   1       9.417  -0.270  -5.476  0.00  0.00    -0.280 N 
ATOM      6  C   LIG d   1       8.627  -1.404  -5.996  0.00  0.00     0.027 C 
ATOM      7  C   LIG d   1       7.671  -1.882  -4.898  0.00  0.00     0.028 C 
ATOM      8  H   LIG d   1       8.231  -2.432  -4.141  0.00  0.00     0.041 H 
ATOM      9  C   LIG d   1       7.008  -0.687  -4.265  0.00  0.00    -0.008 A 
ATOM     10  C   LIG d   1       5.802  -0.646  -3.462  0.00  0.00     0.004 A 
ATOM     11  C   LIG d   1       4.915  -1.639  -3.035  0.00  0.00    -0.052 A 
ATOM     12  C   LIG d   1       3.852  -1.230  -2.268  0.00  0.00    -0.061 A 
ATOM     13  C   LIG d   1       3.656   0.098  -1.928  0.00  0.00    -0.060 A 
ATOM     14  C   LIG d   1       4.519   1.100  -2.336  0.00  0.00    -0.038 A 
ATOM     15  C   LIG d   1       5.609   0.715  -3.115  0.00  0.00     0.047 A 
ATOM     16  N   LIG d   1       6.633   1.427  -3.672  0.00  0.00    -0.356 N 
ATOM     17  H   LIG d   1       6.753   2.387  -3.593  0.00  0.00     0.166 HD
ATOM     18  C   LIG d   1       7.462   0.583  -4.358  0.00  0.00     0.054 A 
ATOM     19  C   LIG d   1       8.709   0.960  -5.124  0.00  0.00     0.151 C 
ATOM     20  C   LIG d   1       9.566   1.872  -4.311  0.00  0.00     0.245 C 
ATOM     21  O   LIG d   1       9.045   2.844  -3.804  0.00  0.00    -0.273 OA
ATOM     22  H   LIG d   1      12.138   0.087  -3.823  0.00  0.00     0.056 H 
ATOM     23  H   LIG d   1      12.351   0.958  -5.353  0.00  0.00     0.056 H 
ATOM     24  H   LIG d   1       9.296  -2.218  -6.279  0.00  0.00     0.047 H 
ATOM     25  H   LIG d   1       8.054  -1.080  -6.865  0.00  0.00     0.047 H 
ATOM     26  H   LIG d   1       5.060  -2.676  -3.295  0.00  0.00     0.062 H 
ATOM     27  H   LIG d   1       3.145  -1.969  -1.919  0.00  0.00     0.062 H 
ATOM     28  H   LIG d   1       2.800   0.362  -1.324  0.00  0.00     0.062 H 
ATOM     29  H   LIG d   1       4.356   2.133  -2.063  0.00  0.00     0.064 H 
ENDROOT
BRANCH   7  30
ATOM     30  C   LIG d   1       6.622  -2.781  -5.500  0.00  0.00    -0.035 A 
ATOM     31  C   LIG d   1       5.791  -2.302  -6.496  0.00  0.00    -0.013 A 
ATOM     32  C   LIG d   1       4.825  -3.127  -7.051  0.00  0.00     0.162 A 
ATOM     33  H   LIG d   1       5.893  -1.283  -6.841  0.00  0.00     0.066 H 
ATOM     34  C   LIG d   1       4.696  -4.438  -6.603  0.00  0.00     0.162 A 
ATOM     35  C   LIG d   1       5.528  -4.911  -5.601  0.00  0.00    -0.016 A 
ATOM     36  C   LIG d   1       6.492  -4.084  -5.056  0.00  0.00    -0.054 A 
ATOM     37  H   LIG d   1       5.425  -5.926  -5.248  0.00  0.00     0.066 H 
ATOM     38  H   LIG d   1       7.143  -4.455  -4.277  0.00  0.00     0.062 H 
BRANCH  32  39
ATOM     39  O   LIG d   1       4.007  -2.656  -8.029  0.00  0.00    -0.491 OA
BRANCH  39  40
ATOM     40  C   LIG d   1       3.726  -1.255  -8.021  0.00  0.00     0.079 C 
ATOM     41  H   LIG d   1       4.661  -0.697  -8.051  0.00  0.00     0.066 H 
ATOM     42  H   LIG d   1       3.123  -1.002  -8.893  0.00  0.00     0.066 H 
ATOM     43  H   LIG d   1       3.178  -0.999  -7.114  0.00  0.00     0.066 H 
ENDBRANCH  39  40
ENDBRANCH  32  39
BRANCH  34  44
ATOM     44  O   LIG d   1       3.750  -5.252  -7.143  0.00  0.00    -0.486 OA
BRANCH  44  45
ATOM     45  C   LIG d   1       4.147  -6.062  -8.251  0.00  0.00     0.095 C 
ATOM     46  H   LIG d   1       5.121  -5.731  -8.613  0.00  0.00     0.073 H 
BRANCH  45  47
ATOM     47  C   LIG d   1       4.239  -7.524  -7.807  0.00  0.00    -0.028 C 
ATOM     48  H   LIG d   1       3.615  -7.676  -6.926  0.00  0.00     0.026 H 
ATOM     49  H   LIG d   1       3.893  -8.171  -8.614  0.00  0.00     0.026 H 
ATOM     50  H   LIG d   1       5.274  -7.766  -7.565  0.00  0.00     0.026 H 
ENDBRANCH  45  47
BRANCH  45  51
ATOM     51  C   LIG d   1       3.115  -5.934  -9.374  0.00  0.00    -0.028 C 
ATOM     52  H   LIG d   1       3.629  -5.853 -10.332  0.00  0.00     0.026 H 
ATOM     53  H   LIG d   1       2.474  -6.815  -9.380  0.00  0.00     0.026 H 
ATOM     54  H   LIG d   1       2.510  -5.043  -9.209  0.00  0.00     0.026 H 
ENDBRANCH  45  51
ENDBRANCH  44  45
ENDBRANCH  34  44
ENDBRANCH   7  30
BRANCH  19  55
ATOM     55  C   LIG d   1       8.299   1.680  -6.410  0.00  0.00    -0.029 C 
ATOM     56  H   LIG d   1       8.422   1.007  -7.259  0.00  0.00     0.026 H 
ATOM     57  H   LIG d   1       7.256   1.987  -6.338  0.00  0.00     0.026 H 
ATOM     58  H   LIG d   1       8.927   2.559  -6.550  0.00  0.00     0.026 H 
ENDBRANCH  19  55
BRANCH   1  59
ATOM     59  C   LIG d   1      11.575   2.695  -3.297  0.00  0.00     0.012 C 
ATOM     60  H   LIG d   1      10.862   3.403  -2.878  0.00  0.00     0.046 H 
ATOM     61  H   LIG d   1      12.103   2.189  -2.489  0.00  0.00     0.046 H 
BRANCH  59  62
ATOM     62  C   LIG d   1      12.582   3.444  -4.174  0.00  0.00    -0.049 C 
ATOM     63  H   LIG d   1      13.558   2.966  -4.095  0.00  0.00     0.025 H 
ATOM     64  H   LIG d   1      12.248   3.419  -5.212  0.00  0.00     0.025 H 
ATOM     65  H   LIG d   1      12.655   4.479  -3.840  0.00  0.00     0.025 H 
ENDBRANCH  59  62
ENDBRANCH   1  59
TORSDOF 10
ENDMDL
MODEL 2
REMARK VINA RESULT:      -6.1      1.488      2.580
REMARK  10 active torsions:
REMARK  status: ('A' for Active; 'I' for Inactive)
REMARK    1  A    between atoms: C_1  and  C_2 
REMARK    2  A    between atoms: C_2  and  N_3 
REMARK    3  A    between atoms: C_9  and  C_25 
REMARK    4  A    between atoms: C_21  and  C_24 
REMARK    5  A    between atoms: C_28  and  O_33 
REMARK    6  A    between atoms: C_29  and  O_31 
REMARK    7  A    between atoms: O_31  and  C_32 
REMARK    8  A    between atoms: O_33  and  C_34 
REMARK    9  A    between atoms: C_34  and  C_35 
REMARK   10  A    between atoms: C_34  and  C_36 
ROOT
ATOM      1  N   LIG d   1      11.166   1.081  -4.563  0.00  0.00    -0.291 N 
ATOM      2  C   LIG d   1      11.579   0.196  -5.639  0.00  0.00     0.091 C 
ATOM      3  C   LIG d   1      10.440  -0.172  -6.534  0.00  0.00     0.234 C 
ATOM      4  O   LIG d   1      10.660  -0.936  -7.449  0.00  0.00    -0.274 OA
ATOM      5  N   LIG d   1       9.194   0.287  -6.391  0.00  0.00    -0.280 N 
ATOM      6  C   LIG d   1       8.114  -0.298  -7.210  0.00  0.00     0.027 C 
ATOM      7  C   LIG d   1       7.126  -1.015  -6.284  0.00  0.00     0.028 C 
ATOM      8  H   LIG d   1       7.566  -1.952  -5.937  0.00  0.00     0.041 H 
ATOM      9  C   LIG d   1       6.825  -0.132  -5.101  0.00  0.00    -0.008 A 
ATOM     10  C   LIG d   1       5.715  -0.215  -4.174  0.00  0.00     0.004 A 
ATOM     11  C   LIG d   1       4.627  -1.088  -4.076  0.00  0.00    -0.052 A 
ATOM     12  C   LIG d   1       3.746  -0.865  -3.047  0.00  0.00    -0.061 A 
ATOM     13  C   LIG d   1       3.914   0.171  -2.144  0.00  0.00    -0.060 A 
ATOM     14  C   LIG d   1       4.982   1.048  -2.217  0.00  0.00    -0.038 A 
ATOM     15  C   LIG d   1       5.895   0.846  -3.251  0.00  0.00     0.047 A 
ATOM     16  N   LIG d   1       7.036   1.507  -3.607  0.00  0.00    -0.356 N 
ATOM     17  H   LIG d   1       7.401   2.278  -3.146  0.00  0.00     0.166 HD
ATOM     18  C   LIG d   1       7.584   0.918  -4.714  0.00  0.00     0.054 A 
ATOM     19  C   LIG d   1       8.843   1.338  -5.436  0.00  0.00     0.151 C 
ATOM     20  C   LIG d   1       9.947   1.583  -4.461  0.00  0.00     0.245 C 
ATOM     21  O   LIG d   1       9.720   2.301  -3.510  0.00  0.00    -0.273 OA
ATOM     22  H   LIG d   1      11.999  -0.713  -5.209  0.00  0.00     0.056 H 
ATOM     23  H   LIG d   1      12.346   0.694  -6.231  0.00  0.00     0.056 H 
ATOM     24  H   LIG d   1       8.536  -1.011  -7.918  0.00  0.00     0.047 H 
ATOM     25  H   LIG d   1       7.597   0.496  -7.751  0.00  0.00     0.047 H 
ATOM     26  H   LIG d   1       4.487  -1.899  -4.774  0.00  0.00     0.062 H 
ATOM     27  H   LIG d   1       2.893  -1.520  -2.938  0.00  0.00     0.062 H 
ATOM     28  H   LIG d   1       3.188   0.300  -1.355  0.00  0.00     0.062 H 
ATOM     29  H   LIG d   1       5.104   1.852  -1.506  0.00  0.00     0.064 H 
ENDROOT
BRANCH   7  30
ATOM     30  C   LIG d   1       5.852  -1.306  -7.034  0.00  0.00    -0.035 A 
ATOM     31  C   LIG d   1       5.390  -2.605  -7.135  0.00  0.00    -0.013 A 
ATOM     32  C   LIG d   1       4.218  -2.874  -7.823  0.00  0.00     0.162 A 
ATOM     33  H   LIG d   1       5.944  -3.412  -6.677  0.00  0.00     0.066 H 
ATOM     34  C   LIG d   1       3.508  -1.832  -8.413  0.00  0.00     0.162 A 
ATOM     35  C   LIG d   1       3.978  -0.533  -8.313  0.00  0.00    -0.016 A 
ATOM     36  C   LIG d   1       5.145  -0.271  -7.619  0.00  0.00    -0.054 A 
ATOM     37  H   LIG d   1       3.431   0.276  -8.773  0.00  0.00     0.066 H 
ATOM     38  H   LIG d   1       5.509   0.743  -7.539  0.00  0.00     0.062 H 
BRANCH  32  39
ATOM     39  O   LIG d   1       3.765  -4.151  -7.925  0.00  0.00    -0.491 OA
BRANCH  39  40
ATOM     40  C   LIG d   1       3.860  -4.968  -6.756  0.00  0.00     0.079 C 
ATOM     41  H   LIG d   1       2.872  -5.347  -6.496  0.00  0.00     0.066 H 
ATOM     42  H   LIG d   1       4.530  -5.805  -6.952  0.00  0.00     0.066 H 
ATOM     43  H   LIG d   1       4.251  -4.376  -5.929  0.00  0.00     0.066 H 
ENDBRANCH  39  40
ENDBRANCH  32  39
BRANCH  34  44
ATOM     44  O   LIG d   1       2.358  -2.090  -9.090  0.00  0.00    -0.486 OA
BRANCH  44  45
ATOM     45  C   LIG d   1       2.382  -1.902 -10.506  0.00  0.00     0.095 C 
ATOM     46  H   LIG d   1       3.350  -1.496 -10.802  0.00  0.00     0.073 H 
BRANCH  45  47
ATOM     47  C   LIG d   1       2.159  -3.245 -11.204  0.00  0.00    -0.028 C 
ATOM     48  H   LIG d   1       2.899  -3.370 -11.996  0.00  0.00     0.026 H 
ATOM     49  H   LIG d   1       2.261  -4.052 -10.480  0.00  0.00     0.026 H 
ATOM     50  H   LIG d   1       1.158  -3.268 -11.636  0.00  0.00     0.026 H 
ENDBRANCH  45  47
BRANCH  45  51
ATOM     51  C   LIG d   1       1.275  -0.926 -10.912  0.00  0.00    -0.028 C 
ATOM     52  H   LIG d   1       0.307  -1.419 -10.824  0.00  0.00     0.026 H 
ATOM     53  H   LIG d   1       1.300  -0.056 -10.256  0.00  0.00     0.026 H 
ATOM     54  H   LIG d   1       1.430  -0.610 -11.943  0.00  0.00     0.026 H 
ENDBRANCH  45  51
ENDBRANCH  44  45
ENDBRANCH  34  44
ENDBRANCH   7  30
BRANCH  19  55
ATOM     55  C   LIG d   1       8.564   2.631  -6.204  0.00  0.00    -0.029 C 
ATOM     56  H   LIG d   1       9.455   2.924  -6.760  0.00  0.00     0.026 H 
ATOM     57  H   LIG d   1       7.739   2.470  -6.898  0.00  0.00     0.026 H 
ATOM     58  H   LIG d   1       8.299   3.420  -5.502  0.00  0.00     0.026 H 
ENDBRANCH  19  55
BRANCH   1  59
ATOM     59  C   LIG d   1      12.150   1.424  -3.533  0.00  0.00     0.012 C 
ATOM     60  H   LIG d   1      12.413   2.477  -3.618  0.00  0.00     0.046 H 
ATOM     61  H   LIG d   1      11.726   1.233  -2.548  0.00  0.00     0.046 H 
BRANCH  59  62
ATOM     62  C   LIG d   1      13.405   0.568  -3.723  0.00  0.00    -0.049 C 
ATOM     63  H   LIG d   1      13.938   0.898  -4.615  0.00  0.00     0.025 H 
ATOM     64  H   LIG d   1      14.053   0.675  -2.853  0.00  0.00     0.025 H 
ATOM     65  H   LIG d   1      13.118  -0.478  -3.836  0.00  0.00     0.025 H 
ENDBRANCH  59  62
ENDBRANCH   1  59
TORSDOF 10
ENDMDL
MODEL 3
REMARK VINA RESULT:      -6.0      3.388      6.064
REMARK  10 active torsions:
REMARK  status: ('A' for Active; 'I' for Inactive)
REMARK    1  A    between atoms: C_1  and  C_2 
REMARK    2  A    between atoms: C_2  and  N_3 
REMARK    3  A    between atoms: C_9  and  C_25 
REMARK    4  A    between atoms: C_21  and  C_24 
REMARK    5  A    between atoms: C_28  and  O_33 
REMARK    6  A    between atoms: C_29  and  O_31 
REMARK    7  A    between atoms: O_31  and  C_32 
REMARK    8  A    between atoms: O_33  and  C_34 
REMARK    9  A    between atoms: C_34  and  C_35 
REMARK   10  A    between atoms: C_34  and  C_36 
ROOT
ATOM      1  N   LIG d   1       4.091   0.490  -9.448  0.00  0.00    -0.291 N 
ATOM      2  C   LIG d   1       5.370   0.432 -10.137  0.00  0.00     0.091 C 
ATOM      3  C   LIG d   1       6.275  -0.605  -9.558  0.00  0.00     0.234 C 
ATOM      4  O   LIG d   1       7.385  -0.720 -10.033  0.00  0.00    -0.274 OA
ATOM      5  N   LIG d   1       5.942  -1.416  -8.550  0.00  0.00    -0.280 N 
ATOM      6  C   LIG d   1       6.982  -2.263  -7.933  0.00  0.00     0.027 C 
ATOM      7  C   LIG d   1       7.184  -1.816  -6.481  0.00  0.00     0.028 C 
ATOM      8  H   LIG d   1       7.735  -0.875  -6.463  0.00  0.00     0.041 H 
ATOM      9  C   LIG d   1       5.838  -1.625  -5.831  0.00  0.00    -0.008 A 
ATOM     10  C   LIG d   1       5.521  -1.563  -4.419  0.00  0.00     0.004 A 
ATOM     11  C   LIG d   1       6.309  -1.651  -3.267  0.00  0.00    -0.052 A 
ATOM     12  C   LIG d   1       5.657  -1.548  -2.063  0.00  0.00    -0.061 A 
ATOM     13  C   LIG d   1       4.287  -1.367  -1.979  0.00  0.00    -0.060 A 
ATOM     14  C   LIG d   1       3.485  -1.275  -3.103  0.00  0.00    -0.038 A 
ATOM     15  C   LIG d   1       4.118  -1.374  -4.340  0.00  0.00     0.047 A 
ATOM     16  N   LIG d   1       3.641  -1.325  -5.619  0.00  0.00    -0.356 N 
ATOM     17  H   LIG d   1       2.710  -1.201  -5.863  0.00  0.00     0.166 HD
ATOM     18  C   LIG d   1       4.674  -1.478  -6.503  0.00  0.00     0.054 A 
ATOM     19  C   LIG d   1       4.584  -1.489  -8.011  0.00  0.00     0.151 C 
ATOM     20  C   LIG d   1       3.741  -0.355  -8.493  0.00  0.00     0.245 C 
ATOM     21  O   LIG d   1       2.651  -0.198  -7.984  0.00  0.00    -0.273 OA
ATOM     22  H   LIG d   1       5.855   1.405 -10.065  0.00  0.00     0.056 H 
ATOM     23  H   LIG d   1       5.194   0.201 -11.188  0.00  0.00     0.056 H 
ATOM     24  H   LIG d   1       7.917  -2.153  -8.483  0.00  0.00     0.047 H 
ATOM     25  H   LIG d   1       6.662  -3.305  -7.954  0.00  0.00     0.047 H 
ATOM     26  H   LIG d   1       7.377  -1.792  -3.322  0.00  0.00     0.062 H 
ATOM     27  H   LIG d   1       6.233  -1.611  -1.150  0.00  0.00     0.062 H 
ATOM     28  H   LIG d   1       3.828  -1.295  -1.004  0.00  0.00     0.062 H 
ATOM     29  H   LIG d   1       2.416  -1.132  -3.025  0.00  0.00     0.064 H 
ENDROOT
BRANCH   7  30
ATOM     30  C   LIG d   1       7.960  -2.869  -5.733  0.00  0.00    -0.035 A 
ATOM     31  C   LIG d   1       9.166  -2.546  -5.139  0.00  0.00    -0.013 A 
ATOM     32  C   LIG d   1       9.881  -3.513  -4.451  0.00  0.00     0.162 A 
ATOM     33  H   LIG d   1       9.551  -1.539  -5.211  0.00  0.00     0.066 H 
ATOM     34  C   LIG d   1       9.382  -4.809  -4.360  0.00  0.00     0.162 A 
ATOM     35  C   LIG d   1       8.176  -5.128  -4.963  0.00  0.00    -0.016 A 
ATOM     36  C   LIG d   1       7.465  -4.157  -5.643  0.00  0.00    -0.054 A 
ATOM     37  H   LIG d   1       7.790  -6.134  -4.898  0.00  0.00     0.066 H 
ATOM     38  H   LIG d   1       6.523  -4.406  -6.109  0.00  0.00     0.062 H 
BRANCH  32  39
ATOM     39  O   LIG d   1      11.067  -3.196  -3.867  0.00  0.00    -0.491 OA
BRANCH  39  40
ATOM     40  C   LIG d   1      11.828  -2.148  -4.470  0.00  0.00     0.079 C 
ATOM     41  H   LIG d   1      11.153  -1.417  -4.914  0.00  0.00     0.066 H 
ATOM     42  H   LIG d   1      12.441  -1.663  -3.711  0.00  0.00     0.066 H 
ATOM     43  H   LIG d   1      12.472  -2.566  -5.245  0.00  0.00     0.066 H 
ENDBRANCH  39  40
ENDBRANCH  32  39
BRANCH  34  44
ATOM     44  O   LIG d   1      10.080  -5.762  -3.686  0.00  0.00    -0.486 OA
BRANCH  44  45
ATOM     45  C   LIG d   1       9.437  -6.364  -2.561  0.00  0.00     0.095 C 
ATOM     46  H   LIG d   1       8.378  -6.504  -2.780  0.00  0.00     0.073 H 
BRANCH  45  47
ATOM     47  C   LIG d   1      10.081  -7.722  -2.271  0.00  0.00    -0.028 C 
ATOM     48  H   LIG d   1      10.847  -7.927  -3.020  0.00  0.00     0.026 H 
ATOM     49  H   LIG d   1      10.535  -7.704  -1.281  0.00  0.00     0.026 H 
ATOM     50  H   LIG d   1       9.319  -8.500  -2.309  0.00  0.00     0.026 H 
ENDBRANCH  45  47
BRANCH  45  51
ATOM     51  C   LIG d   1       9.589  -5.456  -1.339  0.00  0.00    -0.028 C 
ATOM     52  H   LIG d   1      10.645  -5.351  -1.093  0.00  0.00     0.026 H 
ATOM     53  H   LIG d   1       9.169  -4.475  -1.561  0.00  0.00     0.026 H 
ATOM     54  H   LIG d   1       9.061  -5.896  -0.493  0.00  0.00     0.026 H 
ENDBRANCH  45  51
ENDBRANCH  44  45
ENDBRANCH  34  44
ENDBRANCH   7  30
BRANCH  19  55
ATOM     55  C   LIG d   1       3.945  -2.806  -8.457  0.00  0.00    -0.029 C 
ATOM     56  H   LIG d   1       4.365  -3.628  -7.878  0.00  0.00     0.026 H 
ATOM     57  H   LIG d   1       2.868  -2.760  -8.295  0.00  0.00     0.026 H 
ATOM     58  H   LIG d   1       4.146  -2.967  -9.515  0.00  0.00     0.026 H 
ENDBRANCH  19  55
BRANCH   1  59
ATOM     59  C   LIG d   1       3.150   1.548  -9.824  0.00  0.00     0.012 C 
ATOM     60  H   LIG d   1       2.999   1.533 -10.903  0.00  0.00     0.046 H 
ATOM     61  H   LIG d   1       2.198   1.381  -9.322  0.00  0.00     0.046 H 
BRANCH  59  62
ATOM     62  C   LIG d   1       3.717   2.907  -9.408  0.00  0.00    -0.049 C 
ATOM     63  H   LIG d   1       4.098   3.426 -10.286  0.00  0.00     0.025 H 
ATOM     64  H   LIG d   1       2.929   3.503  -8.947  0.00  0.00     0.025 H 
ATOM     65  H   LIG d   1       4.526   2.759  -8.692  0.00  0.00     0.025 H 
ENDBRANCH  59  62
ENDBRANCH   1  59
TORSDOF 10
ENDMDL
MODEL 4
REMARK VINA RESULT:      -5.9      3.283      5.780
REMARK  10 active torsions:
REMARK  status: ('A' for Active; 'I' for Inactive)
REMARK    1  A    between atoms: C_1  and  C_2 
REMARK    2  A    between atoms: C_2  and  N_3 
REMARK    3  A    between atoms: C_9  and  C_25 
REMARK    4  A    between atoms: C_21  and  C_24 
REMARK    5  A    between atoms: C_28  and  O_33 
REMARK    6  A    between atoms: C_29  and  O_31 
REMARK    7  A    between atoms: O_31  and  C_32 
REMARK    8  A    between atoms: O_33  and  C_34 
REMARK    9  A    between atoms: C_34  and  C_35 
REMARK   10  A    between atoms: C_34  and  C_36 
ROOT
ATOM      1  N   LIG d   1       5.260  -0.641  -3.360  0.00  0.00    -0.291 N 
ATOM      2  C   LIG d   1       4.774  -1.975  -3.049  0.00  0.00     0.091 C 
ATOM      3  C   LIG d   1       4.785  -2.872  -4.244  0.00  0.00     0.234 C 
ATOM      4  O   LIG d   1       4.367  -4.002  -4.110  0.00  0.00    -0.274 OA
ATOM      5  N   LIG d   1       5.227  -2.509  -5.451  0.00  0.00    -0.280 N 
ATOM      6  C   LIG d   1       5.006  -3.411  -6.598  0.00  0.00     0.027 C 
ATOM      7  C   LIG d   1       4.064  -2.723  -7.593  0.00  0.00     0.028 C 
ATOM      8  H   LIG d   1       3.046  -2.738  -7.200  0.00  0.00     0.041 H 
ATOM      9  C   LIG d   1       4.507  -1.297  -7.788  0.00  0.00    -0.008 A 
ATOM     10  C   LIG d   1       4.168  -0.387  -8.863  0.00  0.00     0.004 A 
ATOM     11  C   LIG d   1       3.365  -0.524 -10.001  0.00  0.00    -0.052 A 
ATOM     12  C   LIG d   1       3.267   0.571 -10.824  0.00  0.00    -0.061 A 
ATOM     13  C   LIG d   1       3.927   1.758 -10.552  0.00  0.00    -0.060 A 
ATOM     14  C   LIG d   1       4.725   1.920  -9.434  0.00  0.00    -0.038 A 
ATOM     15  C   LIG d   1       4.843   0.826  -8.579  0.00  0.00     0.047 A 
ATOM     16  N   LIG d   1       5.531   0.646  -7.412  0.00  0.00    -0.356 N 
ATOM     17  H   LIG d   1       6.081   1.317  -6.980  0.00  0.00     0.166 HD
ATOM     18  C   LIG d   1       5.327  -0.625  -6.948  0.00  0.00     0.054 A 
ATOM     19  C   LIG d   1       5.907  -1.237  -5.694  0.00  0.00     0.151 C 
ATOM     20  C   LIG d   1       5.754  -0.305  -4.539  0.00  0.00     0.245 C 
ATOM     21  O   LIG d   1       6.118   0.844  -4.681  0.00  0.00    -0.273 OA
ATOM     22  H   LIG d   1       3.754  -1.902  -2.671  0.00  0.00     0.056 H 
ATOM     23  H   LIG d   1       5.407  -2.410  -2.275  0.00  0.00     0.056 H 
ATOM     24  H   LIG d   1       4.556  -4.342  -6.252  0.00  0.00     0.047 H 
ATOM     25  H   LIG d   1       5.960  -3.622  -7.084  0.00  0.00     0.047 H 
ATOM     26  H   LIG d   1       2.847  -1.445 -10.220  0.00  0.00     0.062 H 
ATOM     27  H   LIG d   1       2.656   0.504 -11.712  0.00  0.00     0.062 H 
ATOM     28  H   LIG d   1       3.815   2.586 -11.237  0.00  0.00     0.062 H 
ATOM     29  H   LIG d   1       5.234   2.852  -9.233  0.00  0.00     0.064 H 
ENDROOT
BRANCH   7  30
ATOM     30  C   LIG d   1       4.106  -3.450  -8.912  0.00  0.00    -0.035 A 
ATOM     31  C   LIG d   1       2.936  -3.922  -9.478  0.00  0.00    -0.013 A 
ATOM     32  C   LIG d   1       2.973  -4.590 -10.691  0.00  0.00     0.162 A 
ATOM     33  H   LIG d   1       1.993  -3.771  -8.973  0.00  0.00     0.066 H 
ATOM     34  C   LIG d   1       4.190  -4.784 -11.338  0.00  0.00     0.162 A 
ATOM     35  C   LIG d   1       5.359  -4.313 -10.763  0.00  0.00    -0.016 A 
ATOM     36  C   LIG d   1       5.315  -3.642  -9.555  0.00  0.00    -0.054 A 
ATOM     37  H   LIG d   1       6.305  -4.466 -11.262  0.00  0.00     0.066 H 
ATOM     38  H   LIG d   1       6.227  -3.273  -9.110  0.00  0.00     0.062 H 
BRANCH  32  39
ATOM     39  O   LIG d   1       1.823  -5.056 -11.248  0.00  0.00    -0.491 OA
BRANCH  39  40
ATOM     40  C   LIG d   1       0.824  -5.551 -10.354  0.00  0.00     0.079 C 
ATOM     41  H   LIG d   1       1.190  -5.490  -9.329  0.00  0.00     0.066 H 
ATOM     42  H   LIG d   1      -0.081  -4.951 -10.454  0.00  0.00     0.066 H 
ATOM     43  H   LIG d   1       0.599  -6.589 -10.598  0.00  0.00     0.066 H 
ENDBRANCH  39  40
ENDBRANCH  32  39
BRANCH  34  44
ATOM     44  O   LIG d   1       4.231  -5.439 -12.529  0.00  0.00    -0.486 OA
BRANCH  44  45
ATOM     45  C   LIG d   1       4.783  -4.731 -13.641  0.00  0.00     0.095 C 
ATOM     46  H   LIG d   1       5.582  -4.075 -13.294  0.00  0.00     0.073 H 
BRANCH  45  47
ATOM     47  C   LIG d   1       5.347  -5.730 -14.653  0.00  0.00    -0.028 C 
ATOM     48  H   LIG d   1       5.988  -6.446 -14.138  0.00  0.00     0.026 H 
ATOM     49  H   LIG d   1       4.526  -6.258 -15.138  0.00  0.00     0.026 H 
ATOM     50  H   LIG d   1       5.930  -5.196 -15.404  0.00  0.00     0.026 H 
ENDBRANCH  45  47
BRANCH  45  51
ATOM     51  C   LIG d   1       3.689  -3.893 -14.306  0.00  0.00    -0.028 C 
ATOM     52  H   LIG d   1       3.249  -3.219 -13.571  0.00  0.00     0.026 H 
ATOM     53  H   LIG d   1       4.122  -3.310 -15.119  0.00  0.00     0.026 H 
ATOM     54  H   LIG d   1       2.917  -4.553 -14.702  0.00  0.00     0.026 H 
ENDBRANCH  45  51
ENDBRANCH  44  45
ENDBRANCH  34  44
ENDBRANCH   7  30
BRANCH  19  55
ATOM     55  C   LIG d   1       7.396  -1.508  -5.920  0.00  0.00    -0.029 C 
ATOM     56  H   LIG d   1       7.985  -0.853  -5.278  0.00  0.00     0.026 H 
ATOM     57  H   LIG d   1       7.616  -2.548  -5.679  0.00  0.00     0.026 H 
ATOM     58  H   LIG d   1       7.646  -1.316  -6.963  0.00  0.00     0.026 H 
ENDBRANCH  19  55
BRANCH   1  59
ATOM     59  C   LIG d   1       5.186   0.383  -2.315  0.00  0.00     0.012 C 
ATOM     60  H   LIG d   1       5.486  -0.049  -1.361  0.00  0.00     0.046 H 
ATOM     61  H   LIG d   1       5.854   1.206  -2.566  0.00  0.00     0.046 H 
BRANCH  59  62
ATOM     62  C   LIG d   1       3.751   0.902  -2.211  0.00  0.00    -0.049 C 
ATOM     63  H   LIG d   1       3.108   0.331  -2.880  0.00  0.00     0.025 H 
ATOM     64  H   LIG d   1       3.397   0.791  -1.186  0.00  0.00     0.025 H 
ATOM     65  H   LIG d   1       3.725   1.956  -2.492  0.00  0.00     0.025 H 
ENDBRANCH  59  62
ENDBRANCH   1  59
TORSDOF 10
ENDMDL
MODEL 5
REMARK VINA RESULT:      -5.6      2.691      7.700
REMARK  10 active torsions:
REMARK  status: ('A' for Active; 'I' for Inactive)
REMARK    1  A    between atoms: C_1  and  C_2 
REMARK    2  A    between atoms: C_2  and  N_3 
REMARK    3  A    between atoms: C_9  and  C_25 
REMARK    4  A    between atoms: C_21  and  C_24 
REMARK    5  A    between atoms: C_28  and  O_33 
REMARK    6  A    between atoms: C_29  and  O_31 
REMARK    7  A    between atoms: O_31  and  C_32 
REMARK    8  A    between atoms: O_33  and  C_34 
REMARK    9  A    between atoms: C_34  and  C_35 
REMARK   10  A    between atoms: C_34  and  C_36 
ROOT
ATOM      1  N   LIG d   1       3.362  -1.438  -9.920  0.00  0.00    -0.291 N 
ATOM      2  C   LIG d   1       4.033  -0.362 -10.631  0.00  0.00     0.091 C 
ATOM      3  C   LIG d   1       5.320   0.026  -9.980  0.00  0.00     0.234 C 
ATOM      4  O   LIG d   1       5.951   0.940 -10.469  0.00  0.00    -0.274 OA
ATOM      5  N   LIG d   1       5.823  -0.568  -8.895  0.00  0.00    -0.280 N 
ATOM      6  C   LIG d   1       6.997   0.027  -8.227  0.00  0.00     0.027 C 
ATOM      7  C   LIG d   1       6.584   0.495  -6.828  0.00  0.00     0.028 C 
ATOM      8  H   LIG d   1       5.988   1.406  -6.909  0.00  0.00     0.041 H 
ATOM      9  C   LIG d   1       5.767  -0.584  -6.166  0.00  0.00    -0.008 A 
ATOM     10  C   LIG d   1       5.468  -0.753  -4.759  0.00  0.00     0.004 A 
ATOM     11  C   LIG d   1       5.815  -0.015  -3.622  0.00  0.00    -0.052 A 
ATOM     12  C   LIG d   1       5.347  -0.477  -2.417  0.00  0.00    -0.061 A 
ATOM     13  C   LIG d   1       4.568  -1.619  -2.319  0.00  0.00    -0.060 A 
ATOM     14  C   LIG d   1       4.209  -2.366  -3.427  0.00  0.00    -0.038 A 
ATOM     15  C   LIG d   1       4.669  -1.920  -4.664  0.00  0.00     0.047 A 
ATOM     16  N   LIG d   1       4.505  -2.404  -5.931  0.00  0.00    -0.356 N 
ATOM     17  H   LIG d   1       3.997  -3.197  -6.163  0.00  0.00     0.166 HD
ATOM     18  C   LIG d   1       5.165  -1.602  -6.821  0.00  0.00     0.054 A 
ATOM     19  C   LIG d   1       5.244  -1.782  -8.319  0.00  0.00     0.151 C 
ATOM     20  C   LIG d   1       3.891  -2.065  -8.884  0.00  0.00     0.245 C 
ATOM     21  O   LIG d   1       3.228  -2.939  -8.366  0.00  0.00    -0.273 OA
ATOM     22  H   LIG d   1       3.375   0.507 -10.661  0.00  0.00     0.056 H 
ATOM     23  H   LIG d   1       4.236  -0.687 -11.652  0.00  0.00     0.056 H 
ATOM     24  H   LIG d   1       7.356   0.878  -8.807  0.00  0.00     0.047 H 
ATOM     25  H   LIG d   1       7.786  -0.721  -8.145  0.00  0.00     0.047 H 
ATOM     26  H   LIG d   1       6.421   0.876  -3.689  0.00  0.00     0.062 H 
ATOM     27  H   LIG d   1       5.593   0.067  -1.517  0.00  0.00     0.062 H 
ATOM     28  H   LIG d   1       4.229  -1.937  -1.344  0.00  0.00     0.062 H 
ATOM     29  H   LIG d   1       3.600  -3.254  -3.337  0.00  0.00     0.064 H 
ENDROOT
BRANCH   7  30
ATOM     30  C   LIG d   1       7.815   0.772  -6.004  0.00  0.00    -0.035 A 
ATOM     31  C   LIG d   1       7.969   1.997  -5.382  0.00  0.00    -0.013 A 
ATOM     32  C   LIG d   1       9.101   2.252  -4.624  0.00  0.00     0.162 A 
ATOM     33  H   LIG d   1       7.207   2.755  -5.486  0.00  0.00     0.066 H 
ATOM     34  C   LIG d   1      10.081   1.273  -4.492  0.00  0.00     0.162 A 
ATOM     35  C   LIG d   1       9.924   0.050  -5.123  0.00  0.00    -0.016 A 
ATOM     36  C   LIG d   1       8.790  -0.201  -5.873  0.00  0.00    -0.054 A 
ATOM     37  H   LIG d   1      10.686  -0.710  -5.026  0.00  0.00     0.066 H 
ATOM     38  H   LIG d   1       8.666  -1.156  -6.361  0.00  0.00     0.062 H 
BRANCH  32  39
ATOM     39  O   LIG d   1       9.254   3.457  -4.013  0.00  0.00    -0.491 OA
BRANCH  39  40
ATOM     40  C   LIG d   1       9.477   4.589  -4.856  0.00  0.00     0.079 C 
ATOM     41  H   LIG d   1       9.739   5.452  -4.244  0.00  0.00     0.066 H 
ATOM     42  H   LIG d   1      10.291   4.372  -5.547  0.00  0.00     0.066 H 
ATOM     43  H   LIG d   1       8.569   4.806  -5.420  0.00  0.00     0.066 H 
ENDBRANCH  39  40
ENDBRANCH  32  39
BRANCH  34  44
ATOM     44  O   LIG d   1      11.194   1.519  -3.751  0.00  0.00    -0.486 OA
BRANCH  44  45
ATOM     45  C   LIG d   1      12.448   1.500  -4.436  0.00  0.00     0.095 C 
ATOM     46  H   LIG d   1      12.315   1.063  -5.426  0.00  0.00     0.073 H 
BRANCH  45  47
ATOM     47  C   LIG d   1      12.975   2.930  -4.576  0.00  0.00    -0.028 C 
ATOM     48  H   LIG d   1      13.970   2.908  -5.021  0.00  0.00     0.026 H 
ATOM     49  H   LIG d   1      12.304   3.503  -5.215  0.00  0.00     0.026 H 
ATOM     50  H   LIG d   1      13.027   3.396  -3.592  0.00  0.00     0.026 H 
ENDBRANCH  45  47
BRANCH  45  51
ATOM     51  C   LIG d   1      13.452   0.663  -3.641  0.00  0.00    -0.028 C 
ATOM     52  H   LIG d   1      12.917   0.026  -2.936  0.00  0.00     0.026 H 
ATOM     53  H   LIG d   1      14.029   0.041  -4.325  0.00  0.00     0.026 H 
ATOM     54  H   LIG d   1      14.124   1.325  -3.095  0.00  0.00     0.026 H 
ENDBRANCH  45  51
ENDBRANCH  44  45
ENDBRANCH  34  44
ENDBRANCH   7  30
BRANCH  19  55
ATOM     55  C   LIG d   1       6.166  -2.963  -8.627  0.00  0.00    -0.029 C 
ATOM     56  H   LIG d   1       6.223  -3.616  -7.756  0.00  0.00     0.026 H 
ATOM     57  H   LIG d   1       5.770  -3.522  -9.474  0.00  0.00     0.026 H 
ATOM     58  H   LIG d   1       7.162  -2.594  -8.869  0.00  0.00     0.026 H 
ENDBRANCH  19  55
BRANCH   1  59
ATOM     59  C   LIG d   1       2.026  -1.836 -10.370  0.00  0.00     0.012 C 
ATOM     60  H   LIG d   1       2.015  -2.906 -10.574  0.00  0.00     0.046 H 
ATOM     61  H   LIG d   1       1.298  -1.607  -9.593  0.00  0.00     0.046 H 
BRANCH  59  62
ATOM     62  C   LIG d   1       1.668  -1.071 -11.646  0.00  0.00    -0.049 C 
ATOM     63  H   LIG d   1       2.531  -0.494 -11.977  0.00  0.00     0.025 H 
ATOM     64  H   LIG d   1       1.384  -1.778 -12.426  0.00  0.00     0.025 H 
ATOM     65  H   LIG d   1       0.835  -0.397 -11.444  0.00  0.00     0.025 H 
ENDBRANCH  59  62
ENDBRANCH   1  59
TORSDOF 10
ENDMDL
MODEL 6
REMARK VINA RESULT:      -5.5      4.059      6.900
REMARK  10 active torsions:
REMARK  status: ('A' for Active; 'I' for Inactive)
REMARK    1  A    between atoms: C_1  and  C_2 
REMARK    2  A    between atoms: C_2  and  N_3 
REMARK    3  A    between atoms: C_9  and  C_25 
REMARK    4  A    between atoms: C_21  and  C_24 
REMARK    5  A    between atoms: C_28  and  O_33 
REMARK    6  A    between atoms: C_29  and  O_31 
REMARK    7  A    between atoms: O_31  and  C_32 
REMARK    8  A    between atoms: O_33  and  C_34 
REMARK    9  A    between atoms: C_34  and  C_35 
REMARK   10  A    between atoms: C_34  and  C_36 
ROOT
ATOM      1  N   LIG d   1      12.379  -6.889  -4.033  0.00  0.00    -0.291 N 
ATOM      2  C   LIG d   1      13.068  -5.609  -4.035  0.00  0.00     0.091 C 
ATOM      3  C   LIG d   1      12.131  -4.466  -3.818  0.00  0.00     0.234 C 
ATOM      4  O   LIG d   1      12.591  -3.344  -3.835  0.00  0.00    -0.274 OA
ATOM      5  N   LIG d   1      10.819  -4.598  -3.606  0.00  0.00    -0.280 N 
ATOM      6  C   LIG d   1       9.966  -3.394  -3.603  0.00  0.00     0.027 C 
ATOM      7  C   LIG d   1       8.995  -3.474  -4.786  0.00  0.00     0.028 C 
ATOM      8  H   LIG d   1       9.532  -3.267  -5.713  0.00  0.00     0.041 H 
ATOM      9  C   LIG d   1       8.402  -4.858  -4.846  0.00  0.00    -0.008 A 
ATOM     10  C   LIG d   1       7.208  -5.297  -5.539  0.00  0.00     0.004 A 
ATOM     11  C   LIG d   1       6.273  -4.624  -6.333  0.00  0.00    -0.052 A 
ATOM     12  C   LIG d   1       5.240  -5.373  -6.840  0.00  0.00    -0.061 A 
ATOM     13  C   LIG d   1       5.117  -6.729  -6.585  0.00  0.00    -0.060 A 
ATOM     14  C   LIG d   1       6.029  -7.418  -5.805  0.00  0.00    -0.038 A 
ATOM     15  C   LIG d   1       7.090  -6.685  -5.277  0.00  0.00     0.047 A 
ATOM     16  N   LIG d   1       8.145  -7.041  -4.486  0.00  0.00    -0.356 N 
ATOM     17  H   LIG d   1       8.317  -7.936  -4.155  0.00  0.00     0.166 HD
ATOM     18  C   LIG d   1       8.922  -5.944  -4.232  0.00  0.00     0.054 A 
ATOM     19  C   LIG d   1      10.180  -5.897  -3.396  0.00  0.00     0.151 C 
ATOM     20  C   LIG d   1      11.092  -7.022  -3.761  0.00  0.00     0.245 C 
ATOM     21  O   LIG d   1      10.628  -8.142  -3.802  0.00  0.00    -0.273 OA
ATOM     22  H   LIG d   1      13.570  -5.479  -4.994  0.00  0.00     0.056 H 
ATOM     23  H   LIG d   1      13.815  -5.610  -3.242  0.00  0.00     0.056 H 
ATOM     24  H   LIG d   1      10.588  -2.504  -3.699  0.00  0.00     0.047 H 
ATOM     25  H   LIG d   1       9.403  -3.350  -2.670  0.00  0.00     0.047 H 
ATOM     26  H   LIG d   1       6.360  -3.568  -6.537  0.00  0.00     0.062 H 
ATOM     27  H   LIG d   1       4.498  -4.888  -7.459  0.00  0.00     0.062 H 
ATOM     28  H   LIG d   1       4.282  -7.266  -7.009  0.00  0.00     0.062 H 
ATOM     29  H   LIG d   1       5.923  -8.477  -5.614  0.00  0.00     0.064 H 
ENDROOT
BRANCH   7  30
ATOM     30  C   LIG d   1       7.894  -2.461  -4.604  0.00  0.00    -0.035 A 
ATOM     31  C   LIG d   1       7.648  -1.525  -5.592  0.00  0.00    -0.013 A 
ATOM     32  C   LIG d   1       6.636  -0.593  -5.427  0.00  0.00     0.162 A 
ATOM     33  H   LIG d   1       8.244  -1.520  -6.492  0.00  0.00     0.066 H 
ATOM     34  C   LIG d   1       5.869  -0.602  -4.265  0.00  0.00     0.162 A 
ATOM     35  C   LIG d   1       6.125  -1.539  -3.277  0.00  0.00    -0.016 A 
ATOM     36  C   LIG d   1       7.133  -2.470  -3.451  0.00  0.00    -0.054 A 
ATOM     37  H   LIG d   1       5.535  -1.544  -2.372  0.00  0.00     0.066 H 
ATOM     38  H   LIG d   1       7.329  -3.202  -2.681  0.00  0.00     0.062 H 
BRANCH  32  39
ATOM     39  O   LIG d   1       6.393   0.328  -6.396  0.00  0.00    -0.491 OA
BRANCH  39  40
ATOM     40  C   LIG d   1       7.529   0.889  -7.058  0.00  0.00     0.079 C 
ATOM     41  H   LIG d   1       7.256   1.168  -8.076  0.00  0.00     0.066 H 
ATOM     42  H   LIG d   1       7.864   1.773  -6.516  0.00  0.00     0.066 H 
ATOM     43  H   LIG d   1       8.333   0.153  -7.086  0.00  0.00     0.066 H 
ENDBRANCH  39  40
ENDBRANCH  32  39
BRANCH  34  44
ATOM     44  O   LIG d   1       4.875   0.310  -4.098  0.00  0.00    -0.486 OA
BRANCH  44  45
ATOM     45  C   LIG d   1       3.959   0.083  -3.025  0.00  0.00     0.095 C 
ATOM     46  H   LIG d   1       4.365  -0.675  -2.354  0.00  0.00     0.073 H 
BRANCH  45  47
ATOM     47  C   LIG d   1       3.745   1.386  -2.252  0.00  0.00    -0.028 C 
ATOM     48  H   LIG d   1       3.758   1.179  -1.181  0.00  0.00     0.026 H 
ATOM     49  H   LIG d   1       4.542   2.088  -2.495  0.00  0.00     0.026 H 
ATOM     50  H   LIG d   1       2.783   1.818  -2.526  0.00  0.00     0.026 H 
ENDBRANCH  45  47
BRANCH  45  51
ATOM     51  C   LIG d   1       2.621  -0.400  -3.590  0.00  0.00    -0.028 C 
ATOM     52  H   LIG d   1       1.827  -0.190  -2.873  0.00  0.00     0.026 H 
ATOM     53  H   LIG d   1       2.413   0.119  -4.525  0.00  0.00     0.026 H 
ATOM     54  H   LIG d   1       2.672  -1.473  -3.772  0.00  0.00     0.026 H 
ENDBRANCH  45  51
ENDBRANCH  44  45
ENDBRANCH  34  44
ENDBRANCH   7  30
BRANCH  19  55
ATOM     55  C   LIG d   1       9.798  -6.028  -1.921  0.00  0.00    -0.029 C 
ATOM     56  H   LIG d   1       9.481  -5.056  -1.540  0.00  0.00     0.026 H 
ATOM     57  H   LIG d   1       8.981  -6.742  -1.819  0.00  0.00     0.026 H 
ATOM     58  H   LIG d   1      10.658  -6.377  -1.352  0.00  0.00     0.026 H 
ENDBRANCH  19  55
BRANCH   1  59
ATOM     59  C   LIG d   1      13.151  -8.090  -4.361  0.00  0.00     0.012 C 
ATOM     60  H   LIG d   1      12.478  -8.942  -4.449  0.00  0.00     0.046 H 
ATOM     61  H   LIG d   1      13.672  -7.940  -5.306  0.00  0.00     0.046 H 
BRANCH  59  62
ATOM     62  C   LIG d   1      14.171  -8.359  -3.253  0.00  0.00    -0.049 C 
ATOM     63  H   LIG d   1      14.953  -9.017  -3.631  0.00  0.00     0.025 H 
ATOM     64  H   LIG d   1      14.614  -7.417  -2.931  0.00  0.00     0.025 H 
ATOM     65  H   LIG d   1      13.672  -8.834  -2.407  0.00  0.00     0.025 H 
ENDBRANCH  59  62
ENDBRANCH   1  59
TORSDOF 10
ENDMDL
MODEL 7
REMARK VINA RESULT:      -5.4      5.485     10.013
REMARK  10 active torsions:
REMARK  status: ('A' for Active; 'I' for Inactive)
REMARK    1  A    between atoms: C_1  and  C_2 
REMARK    2  A    between atoms: C_2  and  N_3 
REMARK    3  A    between atoms: C_9  and  C_25 
REMARK    4  A    between atoms: C_21  and  C_24 
REMARK    5  A    between atoms: C_28  and  O_33 
REMARK    6  A    between atoms: C_29  and  O_31 
REMARK    7  A    between atoms: O_31  and  C_32 
REMARK    8  A    between atoms: O_33  and  C_34 
REMARK    9  A    between atoms: C_34  and  C_35 
REMARK   10  A    between atoms: C_34  and  C_36 
ROOT
ATOM      1  N   LIG d   1      11.493  10.085   0.935  0.00  0.00    -0.291 N 
ATOM      2  C   LIG d   1      10.179  10.405   0.400  0.00  0.00     0.091 C 
ATOM      3  C   LIG d   1       9.592   9.266  -0.369  0.00  0.00     0.234 C 
ATOM      4  O   LIG d   1       8.510   9.432  -0.891  0.00  0.00    -0.274 OA
ATOM      5  N   LIG d   1      10.181   8.077  -0.519  0.00  0.00    -0.280 N 
ATOM      6  C   LIG d   1       9.601   7.101  -1.461  0.00  0.00     0.027 C 
ATOM      7  C   LIG d   1      10.595   6.867  -2.604  0.00  0.00     0.028 C 
ATOM      8  H   LIG d   1      10.591   7.731  -3.271  0.00  0.00     0.041 H 
ATOM      9  C   LIG d   1      11.975   6.681  -2.029  0.00  0.00    -0.008 A 
ATOM     10  C   LIG d   1      13.141   6.095  -2.658  0.00  0.00     0.004 A 
ATOM     11  C   LIG d   1      13.357   5.547  -3.927  0.00  0.00    -0.052 A 
ATOM     12  C   LIG d   1      14.618   5.071  -4.188  0.00  0.00    -0.061 A 
ATOM     13  C   LIG d   1      15.636   5.126  -3.250  0.00  0.00    -0.060 A 
ATOM     14  C   LIG d   1      15.449   5.664  -1.989  0.00  0.00    -0.038 A 
ATOM     15  C   LIG d   1      14.179   6.156  -1.694  0.00  0.00     0.047 A 
ATOM     16  N   LIG d   1      13.661   6.742  -0.574  0.00  0.00    -0.356 N 
ATOM     17  H   LIG d   1      14.152   6.913   0.244  0.00  0.00     0.166 HD
ATOM     18  C   LIG d   1      12.344   7.050  -0.782  0.00  0.00     0.054 A 
ATOM     19  C   LIG d   1      11.399   7.703   0.200  0.00  0.00     0.151 C 
ATOM     20  C   LIG d   1      12.045   8.888   0.838  0.00  0.00     0.245 C 
ATOM     21  O   LIG d   1      13.152   8.747   1.314  0.00  0.00    -0.273 OA
ATOM     22  H   LIG d   1      10.266  11.269  -0.258  0.00  0.00     0.056 H 
ATOM     23  H   LIG d   1       9.514  10.654   1.227  0.00  0.00     0.056 H 
ATOM     24  H   LIG d   1       8.665   7.490  -1.863  0.00  0.00     0.047 H 
ATOM     25  H   LIG d   1       9.415   6.160  -0.941  0.00  0.00     0.047 H 
ATOM     26  H   LIG d   1      12.571   5.500  -4.664  0.00  0.00     0.062 H 
ATOM     27  H   LIG d   1      14.824   4.641  -5.158  0.00  0.00     0.062 H 
ATOM     28  H   LIG d   1      16.608   4.735  -3.511  0.00  0.00     0.062 H 
ATOM     29  H   LIG d   1      16.251   5.702  -1.266  0.00  0.00     0.064 H 
ENDROOT
BRANCH   7  30
ATOM     30  C   LIG d   1      10.198   5.634  -3.373  0.00  0.00    -0.035 A 
ATOM     31  C   LIG d   1      10.052   5.695  -4.747  0.00  0.00    -0.013 A 
ATOM     32  C   LIG d   1       9.687   4.562  -5.456  0.00  0.00     0.162 A 
ATOM     33  H   LIG d   1      10.221   6.626  -5.268  0.00  0.00     0.066 H 
ATOM     34  C   LIG d   1       9.469   3.364  -4.782  0.00  0.00     0.162 A 
ATOM     35  C   LIG d   1       9.611   3.311  -3.405  0.00  0.00    -0.016 A 
ATOM     36  C   LIG d   1       9.981   4.444  -2.704  0.00  0.00    -0.054 A 
ATOM     37  H   LIG d   1       9.437   2.383  -2.879  0.00  0.00     0.066 H 
ATOM     38  H   LIG d   1      10.095   4.400  -1.631  0.00  0.00     0.062 H 
BRANCH  32  39
ATOM     39  O   LIG d   1       9.542   4.620  -6.807  0.00  0.00    -0.491 OA
BRANCH  39  40
ATOM     40  C   LIG d   1       9.887   5.852  -7.444  0.00  0.00     0.079 C 
ATOM     41  H   LIG d   1      10.271   5.649  -8.443  0.00  0.00     0.066 H 
ATOM     42  H   LIG d   1       9.002   6.483  -7.516  0.00  0.00     0.066 H 
ATOM     43  H   LIG d   1      10.652   6.362  -6.858  0.00  0.00     0.066 H 
ENDBRANCH  39  40
ENDBRANCH  32  39
BRANCH  34  44
ATOM     44  O   LIG d   1       9.110   2.249  -5.473  0.00  0.00    -0.486 OA
BRANCH  44  45
ATOM     45  C   LIG d   1       8.902   1.055  -4.716  0.00  0.00     0.095 C 
ATOM     46  H   LIG d   1       9.200   1.224  -3.681  0.00  0.00     0.073 H 
BRANCH  45  47
ATOM     47  C   LIG d   1       7.421   0.672  -4.763  0.00  0.00    -0.028 C 
ATOM     48  H   LIG d   1       7.321  -0.346  -5.142  0.00  0.00     0.026 H 
ATOM     49  H   LIG d   1       6.999   0.730  -3.760  0.00  0.00     0.026 H 
ATOM     50  H   LIG d   1       6.889   1.358  -5.422  0.00  0.00     0.026 H 
ENDBRANCH  45  47
BRANCH  45  51
ATOM     51  C   LIG d   1       9.741  -0.079  -5.310  0.00  0.00    -0.028 C 
ATOM     52  H   LIG d   1       9.315  -1.038  -5.016  0.00  0.00     0.026 H 
ATOM     53  H   LIG d   1       9.741   0.000  -6.396  0.00  0.00     0.026 H 
ATOM     54  H   LIG d   1      10.763  -0.006  -4.938  0.00  0.00     0.026 H 
ENDBRANCH  45  51
ENDBRANCH  44  45
ENDBRANCH  34  44
ENDBRANCH   7  30
BRANCH  19  55
ATOM     55  C   LIG d   1      11.040   6.688   1.288  0.00  0.00    -0.029 C 
ATOM     56  H   LIG d   1      10.356   7.148   2.002  0.00  0.00     0.026 H 
ATOM     57  H   LIG d   1      10.560   5.822   0.832  0.00  0.00     0.026 H 
ATOM     58  H   LIG d   1      11.945   6.373   1.803  0.00  0.00     0.026 H 
ENDBRANCH  19  55
BRANCH   1  59
ATOM     59  C   LIG d   1      12.245  11.149   1.603  0.00  0.00     0.012 C 
ATOM     60  H   LIG d   1      12.067  11.101   2.677  0.00  0.00     0.046 H 
ATOM     61  H   LIG d   1      13.309  11.022   1.405  0.00  0.00     0.046 H 
BRANCH  59  62
ATOM     62  C   LIG d   1      11.787  12.509   1.072  0.00  0.00    -0.049 C 
ATOM     63  H   LIG d   1      11.326  13.078   1.879  0.00  0.00     0.025 H 
ATOM     64  H   LIG d   1      12.647  13.057   0.686  0.00  0.00     0.025 H 
ATOM     65  H   LIG d   1      11.061  12.360   0.271  0.00  0.00     0.025 H 
ENDBRANCH  59  62
ENDBRANCH   1  59
TORSDOF 10
ENDMDL
MODEL 8
REMARK VINA RESULT:      -5.2      5.505      9.428
REMARK  10 active torsions:
REMARK  status: ('A' for Active; 'I' for Inactive)
REMARK    1  A    between atoms: C_1  and  C_2 
REMARK    2  A    between atoms: C_2  and  N_3 
REMARK    3  A    between atoms: C_9  and  C_25 
REMARK    4  A    between atoms: C_21  and  C_24 
REMARK    5  A    between atoms: C_28  and  O_33 
REMARK    6  A    between atoms: C_29  and  O_31 
REMARK    7  A    between atoms: O_31  and  C_32 
REMARK    8  A    between atoms: O_33  and  C_34 
REMARK    9  A    between atoms: C_34  and  C_35 
REMARK   10  A    between atoms: C_34  and  C_36 
ROOT
ATOM      1  N   LIG d   1       9.435  10.815  -2.795  0.00  0.00    -0.291 N 
ATOM      2  C   LIG d   1       8.993  10.162  -1.574  0.00  0.00     0.091 C 
ATOM      3  C   LIG d   1       9.453   8.743  -1.496  0.00  0.00     0.234 C 
ATOM      4  O   LIG d   1       9.112   8.087  -0.534  0.00  0.00    -0.274 OA
ATOM      5  N   LIG d   1      10.215   8.148  -2.417  0.00  0.00    -0.280 N 
ATOM      6  C   LIG d   1      10.440   6.692  -2.333  0.00  0.00     0.027 C 
ATOM      7  C   LIG d   1       9.799   6.022  -3.553  0.00  0.00     0.028 C 
ATOM      8  H   LIG d   1       8.715   6.007  -3.433  0.00  0.00     0.041 H 
ATOM      9  C   LIG d   1      10.157   6.803  -4.791  0.00  0.00    -0.008 A 
ATOM     10  C   LIG d   1      10.092   6.377  -6.175  0.00  0.00     0.004 A 
ATOM     11  C   LIG d   1       9.698   5.179  -6.779  0.00  0.00    -0.052 A 
ATOM     12  C   LIG d   1       9.767   5.125  -8.149  0.00  0.00    -0.061 A 
ATOM     13  C   LIG d   1      10.205   6.199  -8.908  0.00  0.00    -0.060 A 
ATOM     14  C   LIG d   1      10.599   7.395  -8.335  0.00  0.00    -0.038 A 
ATOM     15  C   LIG d   1      10.538   7.480  -6.945  0.00  0.00     0.047 A 
ATOM     16  N   LIG d   1      10.842   8.489  -6.076  0.00  0.00    -0.356 N 
ATOM     17  H   LIG d   1      11.171   9.365  -6.330  0.00  0.00     0.166 HD
ATOM     18  C   LIG d   1      10.614   8.075  -4.792  0.00  0.00     0.054 A 
ATOM     19  C   LIG d   1      10.825   8.877  -3.529  0.00  0.00     0.151 C 
ATOM     20  C   LIG d   1      10.241  10.244  -3.674  0.00  0.00     0.245 C 
ATOM     21  O   LIG d   1      10.530  10.886  -4.661  0.00  0.00    -0.273 OA
ATOM     22  H   LIG d   1       7.904  10.184  -1.535  0.00  0.00     0.056 H 
ATOM     23  H   LIG d   1       9.388  10.709  -0.718  0.00  0.00     0.056 H 
ATOM     24  H   LIG d   1       9.987   6.302  -1.421  0.00  0.00     0.047 H 
ATOM     25  H   LIG d   1      11.512   6.489  -2.326  0.00  0.00     0.047 H 
ATOM     26  H   LIG d   1       9.355   4.338  -6.197  0.00  0.00     0.062 H 
ATOM     27  H   LIG d   1       9.471   4.217  -8.652  0.00  0.00     0.062 H 
ATOM     28  H   LIG d   1      10.241   6.098  -9.982  0.00  0.00     0.062 H 
ATOM     29  H   LIG d   1      10.938   8.226  -8.938  0.00  0.00     0.064 H 
ENDROOT
BRANCH   7  30
ATOM     30  C   LIG d   1      10.312   4.611  -3.681  0.00  0.00    -0.035 A 
ATOM     31  C   LIG d   1       9.421   3.561  -3.811  0.00  0.00    -0.013 A 
ATOM     32  C   LIG d   1       9.890   2.263  -3.930  0.00  0.00     0.162 A 
ATOM     33  H   LIG d   1       8.358   3.754  -3.820  0.00  0.00     0.066 H 
ATOM     34  C   LIG d   1      11.260   2.019  -3.917  0.00  0.00     0.162 A 
ATOM     35  C   LIG d   1      12.148   3.074  -3.781  0.00  0.00    -0.016 A 
ATOM     36  C   LIG d   1      11.673   4.367  -3.669  0.00  0.00    -0.054 A 
ATOM     37  H   LIG d   1      13.211   2.886  -3.766  0.00  0.00     0.066 H 
ATOM     38  H   LIG d   1      12.366   5.189  -3.567  0.00  0.00     0.062 H 
BRANCH  32  39
ATOM     39  O   LIG d   1       9.015   1.231  -4.056  0.00  0.00    -0.491 OA
BRANCH  39  40
ATOM     40  C   LIG d   1       7.638   1.512  -3.797  0.00  0.00     0.079 C 
ATOM     41  H   LIG d   1       7.362   2.450  -4.277  0.00  0.00     0.066 H 
ATOM     42  H   LIG d   1       7.022   0.705  -4.195  0.00  0.00     0.066 H 
ATOM     43  H   LIG d   1       7.479   1.593  -2.721  0.00  0.00     0.066 H 
ENDBRANCH  39  40
ENDBRANCH  32  39
BRANCH  34  44
ATOM     44  O   LIG d   1      11.727   0.747  -4.032  0.00  0.00    -0.486 OA
BRANCH  44  45
ATOM     45  C   LIG d   1      12.469   0.432  -5.212  0.00  0.00     0.095 C 
ATOM     46  H   LIG d   1      12.831   1.353  -5.670  0.00  0.00     0.073 H 
BRANCH  45  47
ATOM     47  C   LIG d   1      13.660  -0.456  -4.843  0.00  0.00    -0.028 C 
ATOM     48  H   LIG d   1      14.170  -0.774  -5.753  0.00  0.00     0.026 H 
ATOM     49  H   LIG d   1      14.351   0.106  -4.216  0.00  0.00     0.026 H 
ATOM     50  H   LIG d   1      13.306  -1.332  -4.300  0.00  0.00     0.026 H 
ENDBRANCH  45  47
BRANCH  45  51
ATOM     51  C   LIG d   1      11.567  -0.310  -6.200  0.00  0.00    -0.028 C 
ATOM     52  H   LIG d   1      11.084  -1.146  -5.695  0.00  0.00     0.026 H 
ATOM     53  H   LIG d   1      10.807   0.372  -6.581  0.00  0.00     0.026 H 
ATOM     54  H   LIG d   1      12.168  -0.684  -7.029  0.00  0.00     0.026 H 
ENDBRANCH  45  51
ENDBRANCH  44  45
ENDBRANCH  34  44
ENDBRANCH   7  30
BRANCH  19  55
ATOM     55  C   LIG d   1      12.328   9.005  -3.271  0.00  0.00    -0.029 C 
ATOM     56  H   LIG d   1      12.873   8.801  -4.192  0.00  0.00     0.026 H 
ATOM     57  H   LIG d   1      12.553  10.016  -2.932  0.00  0.00     0.026 H 
ATOM     58  H   LIG d   1      12.627   8.291  -2.505  0.00  0.00     0.026 H 
ENDBRANCH  19  55
BRANCH   1  59
ATOM     59  C   LIG d   1       8.952  12.171  -3.068  0.00  0.00     0.012 C 
ATOM     60  H   LIG d   1       9.061  12.388  -4.130  0.00  0.00     0.046 H 
ATOM     61  H   LIG d   1       7.902  12.245  -2.788  0.00  0.00     0.046 H 
BRANCH  59  62
ATOM     62  C   LIG d   1       9.770  13.177  -2.255  0.00  0.00    -0.049 C 
ATOM     63  H   LIG d   1       9.112  13.708  -1.568  0.00  0.00     0.025 H 
ATOM     64  H   LIG d   1      10.537  12.648  -1.688  0.00  0.00     0.025 H 
ATOM     65  H   LIG d   1      10.244  13.889  -2.930  0.00  0.00     0.025 H 
ENDBRANCH  59  62
ENDBRANCH   1  59
TORSDOF 10
ENDMDL
MODEL 9
REMARK VINA RESULT:      -5.2      9.318     11.736
REMARK  10 active torsions:
REMARK  status: ('A' for Active; 'I' for Inactive)
REMARK    1  A    between atoms: C_1  and  C_2 
REMARK    2  A    between atoms: C_2  and  N_3 
REMARK    3  A    between atoms: C_9  and  C_25 
REMARK    4  A    between atoms: C_21  and  C_24 
REMARK    5  A    between atoms: C_28  and  O_33 
REMARK    6  A    between atoms: C_29  and  O_31 
REMARK    7  A    between atoms: O_31  and  C_32 
REMARK    8  A    between atoms: O_33  and  C_34 
REMARK    9  A    between atoms: C_34  and  C_35 
REMARK   10  A    between atoms: C_34  and  C_36 
ROOT
ATOM      1  N   LIG d   1      11.181   6.900  -0.204  0.00  0.00    -0.291 N 
ATOM      2  C   LIG d   1      10.675   5.685  -0.821  0.00  0.00     0.091 C 
ATOM      3  C   LIG d   1      10.731   5.746  -2.313  0.00  0.00     0.234 C 
ATOM      4  O   LIG d   1      10.302   4.798  -2.936  0.00  0.00    -0.274 OA
ATOM      5  N   LIG d   1      11.222   6.776  -3.005  0.00  0.00    -0.280 N 
ATOM      6  C   LIG d   1      11.044   6.810  -4.470  0.00  0.00     0.027 C 
ATOM      7  C   LIG d   1      10.147   7.998  -4.831  0.00  0.00     0.028 C 
ATOM      8  H   LIG d   1       9.114   7.769  -4.565  0.00  0.00     0.041 H 
ATOM      9  C   LIG d   1      10.605   9.214  -4.067  0.00  0.00    -0.008 A 
ATOM     10  C   LIG d   1      10.314  10.607  -4.333  0.00  0.00     0.004 A 
ATOM     11  C   LIG d   1       9.558  11.245  -5.322  0.00  0.00    -0.052 A 
ATOM     12  C   LIG d   1       9.499  12.615  -5.269  0.00  0.00    -0.061 A 
ATOM     13  C   LIG d   1      10.153  13.344  -4.290  0.00  0.00    -0.060 A 
ATOM     14  C   LIG d   1      10.906  12.739  -3.299  0.00  0.00    -0.038 A 
ATOM     15  C   LIG d   1      10.984  11.347  -3.326  0.00  0.00     0.047 A 
ATOM     16  N   LIG d   1      11.623  10.450  -2.518  0.00  0.00    -0.356 N 
ATOM     17  H   LIG d   1      12.159  10.680  -1.743  0.00  0.00     0.166 HD
ATOM     18  C   LIG d   1      11.393   9.179  -2.969  0.00  0.00     0.054 A 
ATOM     19  C   LIG d   1      11.918   7.895  -2.370  0.00  0.00     0.151 C 
ATOM     20  C   LIG d   1      11.724   7.891  -0.889  0.00  0.00     0.245 C 
ATOM     21  O   LIG d   1      12.099   8.860  -0.262  0.00  0.00    -0.273 OA
ATOM     22  H   LIG d   1       9.641   5.534  -0.511  0.00  0.00     0.056 H 
ATOM     23  H   LIG d   1      11.274   4.840  -0.479  0.00  0.00     0.056 H 
ATOM     24  H   LIG d   1      10.576   5.883  -4.803  0.00  0.00     0.047 H 
ATOM     25  H   LIG d   1      12.016   6.925  -4.952  0.00  0.00     0.047 H 
ATOM     26  H   LIG d   1       9.045  10.685  -6.089  0.00  0.00     0.062 H 
ATOM     27  H   LIG d   1       8.924  13.143  -6.016  0.00  0.00     0.062 H 
ATOM     28  H   LIG d   1      10.074  14.420  -4.299  0.00  0.00     0.062 H 
ATOM     29  H   LIG d   1      11.411  13.318  -2.539  0.00  0.00     0.064 H 
ENDROOT
BRANCH   7  30
ATOM     30  C   LIG d   1      10.239   8.269  -6.310  0.00  0.00    -0.035 A 
ATOM     31  C   LIG d   1      11.468   8.518  -6.892  0.00  0.00    -0.013 A 
ATOM     32  C   LIG d   1      11.554   8.767  -8.252  0.00  0.00     0.162 A 
ATOM     33  H   LIG d   1      12.362   8.520  -6.286  0.00  0.00     0.066 H 
ATOM     34  C   LIG d   1      10.400   8.764  -9.030  0.00  0.00     0.162 A 
ATOM     35  C   LIG d   1       9.171   8.519  -8.441  0.00  0.00    -0.016 A 
ATOM     36  C   LIG d   1       9.093   8.266  -7.084  0.00  0.00    -0.054 A 
ATOM     37  H   LIG d   1       8.274   8.521  -9.042  0.00  0.00     0.066 H 
ATOM     38  H   LIG d   1       8.134   8.071  -6.626  0.00  0.00     0.062 H 
BRANCH  32  39
ATOM     39  O   LIG d   1      12.762   9.014  -8.825  0.00  0.00    -0.491 OA
BRANCH  39  40
ATOM     40  C   LIG d   1      13.872   8.246  -8.356  0.00  0.00     0.079 C 
ATOM     41  H   LIG d   1      13.673   7.186  -8.514  0.00  0.00     0.066 H 
ATOM     42  H   LIG d   1      14.769   8.533  -8.904  0.00  0.00     0.066 H 
ATOM     43  H   LIG d   1      14.020   8.433  -7.292  0.00  0.00     0.066 H 
ENDBRANCH  39  40
ENDBRANCH  32  39
BRANCH  34  44
ATOM     44  O   LIG d   1      10.479   9.008 -10.366  0.00  0.00    -0.486 OA
BRANCH  44  45
ATOM     45  C   LIG d   1      10.067   7.958 -11.243  0.00  0.00     0.095 C 
ATOM     46  H   LIG d   1       9.140   7.517 -10.872  0.00  0.00     0.073 H 
BRANCH  45  47
ATOM     47  C   LIG d   1       9.835   8.525 -12.645  0.00  0.00    -0.028 C 
ATOM     48  H   LIG d   1      10.736   8.390 -13.245  0.00  0.00     0.026 H 
ATOM     49  H   LIG d   1       9.003   8.001 -13.116  0.00  0.00     0.026 H 
ATOM     50  H   LIG d   1       9.602   9.587 -12.573  0.00  0.00     0.026 H 
ENDBRANCH  45  47
BRANCH  45  51
ATOM     51  C   LIG d   1      11.155   6.883 -11.301  0.00  0.00    -0.028 C 
ATOM     52  H   LIG d   1      12.024   7.216 -10.734  0.00  0.00     0.026 H 
ATOM     53  H   LIG d   1      10.774   5.957 -10.871  0.00  0.00     0.026 H 
ATOM     54  H   LIG d   1      11.441   6.713 -12.338  0.00  0.00     0.026 H 
ENDBRANCH  45  51
ENDBRANCH  44  45
ENDBRANCH  34  44
ENDBRANCH   7  30
BRANCH  19  55
ATOM     55  C   LIG d   1      13.414   7.784  -2.673  0.00  0.00    -0.029 C 
ATOM     56  H   LIG d   1      13.583   7.955  -3.737  0.00  0.00     0.026 H 
ATOM     57  H   LIG d   1      13.958   8.530  -2.094  0.00  0.00     0.026 H 
ATOM     58  H   LIG d   1      13.766   6.789  -2.405  0.00  0.00     0.026 H 
ENDBRANCH  19  55
BRANCH   1  59
ATOM     59  C   LIG d   1      11.070   7.035   1.251  0.00  0.00     0.012 C 
ATOM     60  H   LIG d   1      11.961   7.526   1.639  0.00  0.00     0.046 H 
ATOM     61  H   LIG d   1      10.191   7.631   1.494  0.00  0.00     0.046 H 
BRANCH  59  62
ATOM     62  C   LIG d   1      10.935   5.647   1.882  0.00  0.00    -0.049 C 
ATOM     63  H   LIG d   1      11.233   4.889   1.159  0.00  0.00     0.025 H 
ATOM     64  H   LIG d   1      11.579   5.584   2.760  0.00  0.00     0.025 H 
ATOM     65  H   LIG d   1       9.899   5.482   2.179  0.00  0.00     0.025 H 
ENDBRANCH  59  62
ENDBRANCH   1  59
TORSDOF 10
ENDMDL
MODEL 10
REMARK VINA RESULT:      -5.2      3.492      9.400
REMARK  10 active torsions:
REMARK  status: ('A' for Active; 'I' for Inactive)
REMARK    1  A    between atoms: C_1  and  C_2 
REMARK    2  A    between atoms: C_2  and  N_3 
REMARK    3  A    between atoms: C_9  and  C_25 
REMARK    4  A    between atoms: C_21  and  C_24 
REMARK    5  A    between atoms: C_28  and  O_33 
REMARK    6  A    between atoms: C_29  and  O_31 
REMARK    7  A    between atoms: O_31  and  C_32 
REMARK    8  A    between atoms: O_33  and  C_34 
REMARK    9  A    between atoms: C_34  and  C_35 
REMARK   10  A    between atoms: C_34  and  C_36 
ROOT
ATOM      1  N   LIG d   1       8.208  -2.076  -4.514  0.00  0.00    -0.291 N 
ATOM      2  C   LIG d   1       7.129  -1.527  -3.708  0.00  0.00     0.091 C 
ATOM      3  C   LIG d   1       7.148  -0.033  -3.685  0.00  0.00     0.234 C 
ATOM      4  O   LIG d   1       6.313   0.535  -3.014  0.00  0.00    -0.274 OA
ATOM      5  N   LIG d   1       8.026   0.718  -4.355  0.00  0.00    -0.280 N 
ATOM      6  C   LIG d   1       8.071   2.171  -4.100  0.00  0.00     0.027 C 
ATOM      7  C   LIG d   1       9.427   2.520  -3.477  0.00  0.00     0.028 C 
ATOM      8  H   LIG d   1       9.446   2.190  -2.437  0.00  0.00     0.041 H 
ATOM      9  C   LIG d   1      10.519   1.822  -4.246  0.00  0.00    -0.008 A 
ATOM     10  C   LIG d   1      11.937   2.116  -4.264  0.00  0.00     0.004 A 
ATOM     11  C   LIG d   1      12.712   3.082  -3.614  0.00  0.00    -0.052 A 
ATOM     12  C   LIG d   1      14.061   3.070  -3.873  0.00  0.00    -0.061 A 
ATOM     13  C   LIG d   1      14.638   2.152  -4.734  0.00  0.00    -0.060 A 
ATOM     14  C   LIG d   1      13.895   1.185  -5.388  0.00  0.00    -0.038 A 
ATOM     15  C   LIG d   1      12.523   1.172  -5.145  0.00  0.00     0.047 A 
ATOM     16  N   LIG d   1      11.518   0.372  -5.611  0.00  0.00    -0.356 N 
ATOM     17  H   LIG d   1      11.633  -0.364  -6.231  0.00  0.00     0.166 HD
ATOM     18  C   LIG d   1      10.325   0.769  -5.071  0.00  0.00     0.054 A 
ATOM     19  C   LIG d   1       8.966   0.158  -5.325  0.00  0.00     0.151 C 
ATOM     20  C   LIG d   1       9.035  -1.330  -5.226  0.00  0.00     0.245 C 
ATOM     21  O   LIG d   1       9.904  -1.904  -5.849  0.00  0.00    -0.273 OA
ATOM     22  H   LIG d   1       7.225  -1.898  -2.688  0.00  0.00     0.056 H 
ATOM     23  H   LIG d   1       6.177  -1.862  -4.118  0.00  0.00     0.056 H 
ATOM     24  H   LIG d   1       7.271   2.448  -3.414  0.00  0.00     0.047 H 
ATOM     25  H   LIG d   1       7.952   2.709  -5.041  0.00  0.00     0.047 H 
ATOM     26  H   LIG d   1      12.272   3.801  -2.941  0.00  0.00     0.062 H 
ATOM     27  H   LIG d   1      14.692   3.801  -3.388  0.00  0.00     0.062 H 
ATOM     28  H   LIG d   1      15.704   2.192  -4.901  0.00  0.00     0.062 H 
ATOM     29  H   LIG d   1      14.357   0.474  -6.057  0.00  0.00     0.064 H 
ENDROOT
BRANCH   7  30
ATOM     30  C   LIG d   1       9.642   4.010  -3.537  0.00  0.00    -0.035 A 
ATOM     31  C   LIG d   1       9.456   4.687  -4.729  0.00  0.00    -0.013 A 
ATOM     32  C   LIG d   1       9.653   6.057  -4.786  0.00  0.00     0.162 A 
ATOM     33  H   LIG d   1       9.158   4.147  -5.616  0.00  0.00     0.066 H 
ATOM     34  C   LIG d   1      10.037   6.749  -3.641  0.00  0.00     0.162 A 
ATOM     35  C   LIG d   1      10.227   6.065  -2.452  0.00  0.00    -0.016 A 
ATOM     36  C   LIG d   1      10.023   4.698  -2.401  0.00  0.00    -0.054 A 
ATOM     37  H   LIG d   1      10.529   6.599  -1.564  0.00  0.00     0.066 H 
ATOM     38  H   LIG d   1      10.168   4.166  -1.472  0.00  0.00     0.062 H 
BRANCH  32  39
ATOM     39  O   LIG d   1       9.472   6.724  -5.957  0.00  0.00    -0.491 OA
BRANCH  39  40
ATOM     40  C   LIG d   1       9.932   6.080  -7.147  0.00  0.00     0.079 C 
ATOM     41  H   LIG d   1       9.124   5.486  -7.574  0.00  0.00     0.066 H 
ATOM     42  H   LIG d   1      10.248   6.834  -7.868  0.00  0.00     0.066 H 
ATOM     43  H   LIG d   1      10.773   5.430  -6.908  0.00  0.00     0.066 H 
ENDBRANCH  39  40
ENDBRANCH  32  39
BRANCH  34  44
ATOM     44  O   LIG d   1      10.231   8.094  -3.692  0.00  0.00    -0.486 OA
BRANCH  44  45
ATOM     45  C   LIG d   1      10.719   8.725  -2.506  0.00  0.00     0.095 C 
ATOM     46  H   LIG d   1      10.839   7.978  -1.720  0.00  0.00     0.073 H 
BRANCH  45  47
ATOM     47  C   LIG d   1      12.071   9.381  -2.795  0.00  0.00    -0.028 C 
ATOM     48  H   LIG d   1      12.679   9.374  -1.890  0.00  0.00     0.026 H 
ATOM     49  H   LIG d   1      12.583   8.826  -3.581  0.00  0.00     0.026 H 
ATOM     50  H   LIG d   1      11.913  10.409  -3.119  0.00  0.00     0.026 H 
ENDBRANCH  45  47
BRANCH  45  51
ATOM     51  C   LIG d   1       9.723   9.791  -2.047  0.00  0.00    -0.028 C 
ATOM     52  H   LIG d   1       9.676  10.588  -2.789  0.00  0.00     0.026 H 
ATOM     53  H   LIG d   1       8.736   9.342  -1.934  0.00  0.00     0.026 H 
ATOM     54  H   LIG d   1      10.047  10.203  -1.092  0.00  0.00     0.026 H 
ENDBRANCH  45  51
ENDBRANCH  44  45
ENDBRANCH  34  44
ENDBRANCH   7  30
BRANCH  19  55
ATOM     55  C   LIG d   1       8.510   0.540  -6.735  0.00  0.00    -0.029 C 
ATOM     56  H   LIG d   1       7.562   0.049  -6.955  0.00  0.00     0.026 H 
ATOM     57  H   LIG d   1       8.381   1.621  -6.794  0.00  0.00     0.026 H 
ATOM     58  H   LIG d   1       9.260   0.223  -7.458  0.00  0.00     0.026 H 
ENDBRANCH  19  55
BRANCH   1  59
ATOM     59  C   LIG d   1       8.392  -3.529  -4.525  0.00  0.00     0.012 C 
ATOM     60  H   LIG d   1       7.421  -4.017  -4.607  0.00  0.00     0.046 H 
ATOM     61  H   LIG d   1       9.012  -3.810  -5.376  0.00  0.00     0.046 H 
BRANCH  59  62
ATOM     62  C   LIG d   1       9.076  -3.967  -3.228  0.00  0.00    -0.049 C 
ATOM     63  H   LIG d   1      10.109  -3.621  -3.228  0.00  0.00     0.025 H 
ATOM     64  H   LIG d   1       8.549  -3.536  -2.377  0.00  0.00     0.025 H 
ATOM     65  H   LIG d   1       9.055  -5.055  -3.156  0.00  0.00     0.025 H 
ENDBRANCH  59  62
ENDBRANCH   1  59
TORSDOF 10
ENDMDL
