MODEL 1
REMARK VINA RESULT:      -3.9      0.000      0.000
REMARK  6 active torsions:
REMARK  status: ('A' for Active; 'I' for Inactive)
REMARK    1  A    between atoms: C_1  and  O_2 
REMARK    2  A    between atoms: O_2  and  C_3 
REMARK    3  A    between atoms: C_5  and  O_12 
REMARK    4  A    between atoms: C_6  and  O_10 
REMARK    5  A    between atoms: C_8  and  O_9 
REMARK    6  A    between atoms: O_10  and  C_11 
ROOT
ATOM      1  C   LIG d   1      10.135   7.406  -0.411  0.00  0.00     0.165 A 
ATOM      2  C   LIG d   1       9.129   8.149  -1.006  0.00  0.00     0.029 A 
ATOM      3  C   LIG d   1       9.065   9.519  -0.801  0.00  0.00     0.162 A 
ATOM      4  C   LIG d   1      10.011  10.146   0.003  0.00  0.00     0.165 A 
ATOM      5  C   LIG d   1      11.017   9.402   0.598  0.00  0.00     0.029 A 
ATOM      6  C   LIG d   1      11.082   8.033   0.391  0.00  0.00     0.162 A 
ATOM      7  H   LIG d   1       8.394   7.663  -1.629  0.00  0.00     0.069 H 
ATOM      8  H   LIG d   1      11.752   9.889   1.221  0.00  0.00     0.069 H 
ENDROOT
BRANCH   1   9
ATOM      9  O   LIG d   1      10.199   6.062  -0.614  0.00  0.00    -0.491 OA
BRANCH   9  10
ATOM     10  C   LIG d   1      10.258   5.613  -1.970  0.00  0.00     0.079 C 
ATOM     11  H   LIG d   1      10.978   4.798  -2.052  0.00  0.00     0.066 H 
ATOM     12  H   LIG d   1       9.274   5.261  -2.279  0.00  0.00     0.066 H 
ATOM     13  H   LIG d   1      10.567   6.437  -2.613  0.00  0.00     0.066 H 
ENDBRANCH   9  10
ENDBRANCH   1   9
BRANCH   6  14
ATOM     14  O   LIG d   1      12.071   7.303   0.975  0.00  0.00    -0.503 OA
ATOM     15  H   LIG d   1      12.879   7.243   0.448  0.00  0.00     0.292 HD
ENDBRANCH   6  14
BRANCH   3  16
ATOM     16  O   LIG d   1       8.073  10.248  -1.379  0.00  0.00    -0.503 OA
ATOM     17  H   LIG d   1       7.772   9.898  -2.229  0.00  0.00     0.292 HD
ENDBRANCH   3  16
BRANCH   4  18
ATOM     18  O   LIG d   1       9.948  11.490   0.205  0.00  0.00    -0.491 OA
BRANCH  18  19
ATOM     19  C   LIG d   1      10.849  12.303  -0.549  0.00  0.00     0.079 C 
ATOM     20  H   LIG d   1      11.744  11.728  -0.788  0.00  0.00     0.066 H 
ATOM     21  H   LIG d   1      10.366  12.622  -1.472  0.00  0.00     0.066 H 
ATOM     22  H   LIG d   1      11.126  13.179   0.037  0.00  0.00     0.066 H 
ENDBRANCH  18  19
ENDBRANCH   4  18
TORSDOF 6
ENDMDL
MODEL 2
REMARK VINA RESULT:      -3.9      0.426      4.697
REMARK  6 active torsions:
REMARK  status: ('A' for Active; 'I' for Inactive)
REMARK    1  A    between atoms: C_1  and  O_2 
REMARK    2  A    between atoms: O_2  and  C_3 
REMARK    3  A    between atoms: C_5  and  O_12 
REMARK    4  A    between atoms: C_6  and  O_10 
REMARK    5  A    between atoms: C_8  and  O_9 
REMARK    6  A    between atoms: O_10  and  C_11 
ROOT
ATOM      1  C   LIG d   1      10.030  10.082   0.035  0.00  0.00     0.165 A 
ATOM      2  C   LIG d   1      11.027   9.328   0.634  0.00  0.00     0.029 A 
ATOM      3  C   LIG d   1      11.087   7.961   0.416  0.00  0.00     0.162 A 
ATOM      4  C   LIG d   1      10.147   7.345  -0.404  0.00  0.00     0.165 A 
ATOM      5  C   LIG d   1       9.151   8.100  -1.003  0.00  0.00     0.029 A 
ATOM      6  C   LIG d   1       9.091   9.467  -0.785  0.00  0.00     0.162 A 
ATOM      7  H   LIG d   1      11.756   9.805   1.271  0.00  0.00     0.069 H 
ATOM      8  H   LIG d   1       8.421   7.622  -1.640  0.00  0.00     0.069 H 
ENDROOT
BRANCH   1   9
ATOM      9  O   LIG d   1       9.972  11.424   0.248  0.00  0.00    -0.491 OA
BRANCH   9  10
ATOM     10  C   LIG d   1      11.110  12.034   0.860  0.00  0.00     0.079 C 
ATOM     11  H   LIG d   1      10.789  12.626   1.717  0.00  0.00     0.066 H 
ATOM     12  H   LIG d   1      11.802  11.259   1.193  0.00  0.00     0.066 H 
ATOM     13  H   LIG d   1      11.610  12.680   0.139  0.00  0.00     0.066 H 
ENDBRANCH   9  10
ENDBRANCH   1   9
BRANCH   6  14
ATOM     14  O   LIG d   1       8.113  10.207  -1.374  0.00  0.00    -0.503 OA
ATOM     15  H   LIG d   1       8.053  11.114  -1.045  0.00  0.00     0.292 HD
ENDBRANCH   6  14
BRANCH   3  16
ATOM     16  O   LIG d   1      12.061   7.219   1.009  0.00  0.00    -0.503 OA
ATOM     17  H   LIG d   1      12.359   7.570   1.859  0.00  0.00     0.292 HD
ENDBRANCH   3  16
BRANCH   4  18
ATOM     18  O   LIG d   1      10.206   6.003  -0.618  0.00  0.00    -0.491 OA
BRANCH  18  19
ATOM     19  C   LIG d   1      10.266   5.565  -1.977  0.00  0.00     0.079 C 
ATOM     20  H   LIG d   1       9.338   5.055  -2.236  0.00  0.00     0.066 H 
ATOM     21  H   LIG d   1      10.402   6.425  -2.632  0.00  0.00     0.066 H 
ATOM     22  H   LIG d   1      11.104   4.879  -2.100  0.00  0.00     0.066 H 
ENDBRANCH  18  19
ENDBRANCH   4  18
TORSDOF 6
ENDMDL
MODEL 3
REMARK VINA RESULT:      -3.8      1.233      2.879
REMARK  6 active torsions:
REMARK  status: ('A' for Active; 'I' for Inactive)
REMARK    1  A    between atoms: C_1  and  O_2 
REMARK    2  A    between atoms: O_2  and  C_3 
REMARK    3  A    between atoms: C_5  and  O_12 
REMARK    4  A    between atoms: C_6  and  O_10 
REMARK    5  A    between atoms: C_8  and  O_9 
REMARK    6  A    between atoms: O_10  and  C_11 
ROOT
ATOM      1  C   LIG d   1       9.562   8.361  -0.631  0.00  0.00     0.165 A 
ATOM      2  C   LIG d   1      10.692   7.980   0.074  0.00  0.00     0.029 A 
ATOM      3  C   LIG d   1      11.417   8.924   0.784  0.00  0.00     0.162 A 
ATOM      4  C   LIG d   1      11.009  10.255   0.788  0.00  0.00     0.165 A 
ATOM      5  C   LIG d   1       9.880  10.635   0.082  0.00  0.00     0.029 A 
ATOM      6  C   LIG d   1       9.154   9.690  -0.627  0.00  0.00     0.162 A 
ATOM      7  H   LIG d   1      11.008   6.948   0.071  0.00  0.00     0.069 H 
ATOM      8  H   LIG d   1       9.563  11.668   0.085  0.00  0.00     0.069 H 
ENDROOT
BRANCH   1   9
ATOM      9  O   LIG d   1       8.849   7.434  -1.327  0.00  0.00    -0.491 OA
BRANCH   9  10
ATOM     10  C   LIG d   1       9.560   6.666  -2.300  0.00  0.00     0.079 C 
ATOM     11  H   LIG d   1      10.560   7.079  -2.431  0.00  0.00     0.066 H 
ATOM     12  H   LIG d   1       9.636   5.632  -1.961  0.00  0.00     0.066 H 
ATOM     13  H   LIG d   1       9.026   6.697  -3.249  0.00  0.00     0.066 H 
ENDBRANCH   9  10
ENDBRANCH   1   9
BRANCH   6  14
ATOM     14  O   LIG d   1       8.044  10.065  -1.319  0.00  0.00    -0.503 OA
ATOM     15  H   LIG d   1       7.428   9.341  -1.496  0.00  0.00     0.292 HD
ENDBRANCH   6  14
BRANCH   3  16
ATOM     16  O   LIG d   1      12.530   8.552   1.471  0.00  0.00    -0.503 OA
ATOM     17  H   LIG d   1      13.053   7.868   1.031  0.00  0.00     0.292 HD
ENDBRANCH   3  16
BRANCH   4  18
ATOM     18  O   LIG d   1      11.722  11.182   1.484  0.00  0.00    -0.491 OA
BRANCH  18  19
ATOM     19  C   LIG d   1      11.673  12.528   1.008  0.00  0.00     0.079 C 
ATOM     20  H   LIG d   1      10.910  13.081   1.555  0.00  0.00     0.066 H 
ATOM     21  H   LIG d   1      12.643  13.003   1.158  0.00  0.00     0.066 H 
ATOM     22  H   LIG d   1      11.430  12.529  -0.055  0.00  0.00     0.066 H 
ENDBRANCH  18  19
ENDBRANCH   4  18
TORSDOF 6
ENDMDL
MODEL 4
REMARK VINA RESULT:      -3.7      1.231      3.821
REMARK  6 active torsions:
REMARK  status: ('A' for Active; 'I' for Inactive)
REMARK    1  A    between atoms: C_1  and  O_2 
REMARK    2  A    between atoms: O_2  and  C_3 
REMARK    3  A    between atoms: C_5  and  O_12 
REMARK    4  A    between atoms: C_6  and  O_10 
REMARK    5  A    between atoms: C_8  and  O_9 
REMARK    6  A    between atoms: O_10  and  C_11 
ROOT
ATOM      1  C   LIG d   1      10.996  10.245   0.798  0.00  0.00     0.165 A 
ATOM      2  C   LIG d   1       9.867  10.627   0.091  0.00  0.00     0.029 A 
ATOM      3  C   LIG d   1       9.146   9.685  -0.625  0.00  0.00     0.162 A 
ATOM      4  C   LIG d   1       9.556   8.355  -0.633  0.00  0.00     0.165 A 
ATOM      5  C   LIG d   1      10.685   7.974   0.074  0.00  0.00     0.029 A 
ATOM      6  C   LIG d   1      11.405   8.917   0.791  0.00  0.00     0.162 A 
ATOM      7  H   LIG d   1       9.549  11.659   0.098  0.00  0.00     0.069 H 
ATOM      8  H   LIG d   1      11.003   6.942   0.068  0.00  0.00     0.069 H 
ENDROOT
BRANCH   1   9
ATOM      9  O   LIG d   1      11.703  11.170   1.502  0.00  0.00    -0.491 OA
BRANCH   9  10
ATOM     10  C   LIG d   1      11.745  12.497   0.971  0.00  0.00     0.079 C 
ATOM     11  H   LIG d   1      11.945  12.454  -0.099  0.00  0.00     0.066 H 
ATOM     12  H   LIG d   1      10.786  12.987   1.142  0.00  0.00     0.066 H 
ATOM     13  H   LIG d   1      12.534  13.062   1.466  0.00  0.00     0.066 H 
ENDBRANCH   9  10
ENDBRANCH   1   9
BRANCH   6  14
ATOM     14  O   LIG d   1      12.513   8.541   1.485  0.00  0.00    -0.503 OA
ATOM     15  H   LIG d   1      12.683   7.590   1.471  0.00  0.00     0.292 HD
ENDBRANCH   6  14
BRANCH   3  16
ATOM     16  O   LIG d   1       8.041  10.060  -1.324  0.00  0.00    -0.503 OA
ATOM     17  H   LIG d   1       7.704   9.379  -1.921  0.00  0.00     0.292 HD
ENDBRANCH   3  16
BRANCH   4  18
ATOM     18  O   LIG d   1       8.849   7.430  -1.336  0.00  0.00    -0.491 OA
BRANCH  18  19
ATOM     19  C   LIG d   1       9.567   6.663  -2.304  0.00  0.00     0.079 C 
ATOM     20  H   LIG d   1      10.335   7.284  -2.765  0.00  0.00     0.066 H 
ATOM     21  H   LIG d   1      10.037   5.809  -1.816  0.00  0.00     0.066 H 
ATOM     22  H   LIG d   1       8.878   6.308  -3.071  0.00  0.00     0.066 H 
ENDBRANCH  18  19
ENDBRANCH   4  18
TORSDOF 6
ENDMDL
MODEL 5
REMARK VINA RESULT:      -3.6      1.840      2.328
REMARK  6 active torsions:
REMARK  status: ('A' for Active; 'I' for Inactive)
REMARK    1  A    between atoms: C_1  and  O_2 
REMARK    2  A    between atoms: O_2  and  C_3 
REMARK    3  A    between atoms: C_5  and  O_12 
REMARK    4  A    between atoms: C_6  and  O_10 
REMARK    5  A    between atoms: C_8  and  O_9 
REMARK    6  A    between atoms: O_10  and  C_11 
ROOT
ATOM      1  C   LIG d   1      10.120   5.764  -1.666  0.00  0.00     0.165 A 
ATOM      2  C   LIG d   1       9.503   6.932  -2.086  0.00  0.00     0.029 A 
ATOM      3  C   LIG d   1       9.655   8.098  -1.353  0.00  0.00     0.162 A 
ATOM      4  C   LIG d   1      10.428   8.096  -0.196  0.00  0.00     0.165 A 
ATOM      5  C   LIG d   1      11.044   6.929   0.223  0.00  0.00     0.029 A 
ATOM      6  C   LIG d   1      10.892   5.762  -0.510  0.00  0.00     0.162 A 
ATOM      7  H   LIG d   1       8.904   6.933  -2.984  0.00  0.00     0.069 H 
ATOM      8  H   LIG d   1      11.644   6.927   1.122  0.00  0.00     0.069 H 
ENDROOT
BRANCH   1   9
ATOM      9  O   LIG d   1       9.972   4.619  -2.386  0.00  0.00    -0.491 OA
BRANCH   9  10
ATOM     10  C   LIG d   1       9.849   4.756  -3.804  0.00  0.00     0.079 C 
ATOM     11  H   LIG d   1       9.137   4.021  -4.180  0.00  0.00     0.066 H 
ATOM     12  H   LIG d   1       9.494   5.760  -4.042  0.00  0.00     0.066 H 
ATOM     13  H   LIG d   1      10.820   4.595  -4.271  0.00  0.00     0.066 H 
ENDBRANCH   9  10
ENDBRANCH   1   9
BRANCH   6  14
ATOM     14  O   LIG d   1      11.499   4.616  -0.098  0.00  0.00    -0.503 OA
ATOM     15  H   LIG d   1      12.323   4.759   0.385  0.00  0.00     0.292 HD
ENDBRANCH   6  14
BRANCH   3  16
ATOM     16  O   LIG d   1       9.045   9.243  -1.762  0.00  0.00    -0.503 OA
ATOM     17  H   LIG d   1       8.293   9.505  -1.212  0.00  0.00     0.292 HD
ENDBRANCH   3  16
BRANCH   4  18
ATOM     18  O   LIG d   1      10.576   9.241   0.524  0.00  0.00    -0.491 OA
BRANCH  18  19
ATOM     19  C   LIG d   1      11.786   9.385   1.271  0.00  0.00     0.079 C 
ATOM     20  H   LIG d   1      12.635   9.416   0.587  0.00  0.00     0.066 H 
ATOM     21  H   LIG d   1      11.751  10.309   1.847  0.00  0.00     0.066 H 
ATOM     22  H   LIG d   1      11.897   8.539   1.949  0.00  0.00     0.066 H 
ENDBRANCH  18  19
ENDBRANCH   4  18
TORSDOF 6
ENDMDL
MODEL 6
REMARK VINA RESULT:      -3.6      2.079      3.824
REMARK  6 active torsions:
REMARK  status: ('A' for Active; 'I' for Inactive)
REMARK    1  A    between atoms: C_1  and  O_2 
REMARK    2  A    between atoms: O_2  and  C_3 
REMARK    3  A    between atoms: C_5  and  O_12 
REMARK    4  A    between atoms: C_6  and  O_10 
REMARK    5  A    between atoms: C_8  and  O_9 
REMARK    6  A    between atoms: O_10  and  C_11 
ROOT
ATOM      1  C   LIG d   1       9.769   6.750  -2.314  0.00  0.00     0.165 A 
ATOM      2  C   LIG d   1      10.322   5.661  -1.661  0.00  0.00     0.029 A 
ATOM      3  C   LIG d   1      10.875   5.817  -0.399  0.00  0.00     0.162 A 
ATOM      4  C   LIG d   1      10.873   7.067   0.211  0.00  0.00     0.165 A 
ATOM      5  C   LIG d   1      10.320   8.156  -0.443  0.00  0.00     0.029 A 
ATOM      6  C   LIG d   1       9.767   8.000  -1.705  0.00  0.00     0.162 A 
ATOM      7  H   LIG d   1      10.324   4.691  -2.134  0.00  0.00     0.069 H 
ATOM      8  H   LIG d   1      10.318   9.127   0.030  0.00  0.00     0.069 H 
ENDROOT
BRANCH   1   9
ATOM      9  O   LIG d   1       9.225   6.597  -3.552  0.00  0.00    -0.491 OA
BRANCH   9  10
ATOM     10  C   LIG d   1      10.133   6.436  -4.644  0.00  0.00     0.079 C 
ATOM     11  H   LIG d   1      10.933   7.171  -4.564  0.00  0.00     0.066 H 
ATOM     12  H   LIG d   1      10.558   5.432  -4.617  0.00  0.00     0.066 H 
ATOM     13  H   LIG d   1       9.600   6.578  -5.584  0.00  0.00     0.066 H 
ENDBRANCH   9  10
ENDBRANCH   1   9
BRANCH   6  14
ATOM     14  O   LIG d   1       9.223   9.070  -2.346  0.00  0.00    -0.503 OA
ATOM     15  H   LIG d   1       8.585   9.564  -1.814  0.00  0.00     0.292 HD
ENDBRANCH   6  14
BRANCH   3  16
ATOM     16  O   LIG d   1      11.424   4.749   0.240  0.00  0.00    -0.503 OA
ATOM     17  H   LIG d   1      11.604   4.902   1.177  0.00  0.00     0.292 HD
ENDBRANCH   3  16
BRANCH   4  18
ATOM     18  O   LIG d   1      11.416   7.221   1.449  0.00  0.00    -0.491 OA
BRANCH  18  19
ATOM     19  C   LIG d   1      11.623   8.559   1.905  0.00  0.00     0.079 C 
ATOM     20  H   LIG d   1      11.949   9.182   1.072  0.00  0.00     0.066 H 
ATOM     21  H   LIG d   1      10.691   8.954   2.309  0.00  0.00     0.066 H 
ATOM     22  H   LIG d   1      12.387   8.563   2.683  0.00  0.00     0.066 H 
ENDBRANCH  18  19
ENDBRANCH   4  18
TORSDOF 6
ENDMDL
MODEL 7
REMARK VINA RESULT:      -3.5      2.235      4.341
REMARK  6 active torsions:
REMARK  status: ('A' for Active; 'I' for Inactive)
REMARK    1  A    between atoms: C_1  and  O_2 
REMARK    2  A    between atoms: O_2  and  C_3 
REMARK    3  A    between atoms: C_5  and  O_12 
REMARK    4  A    between atoms: C_6  and  O_10 
REMARK    5  A    between atoms: C_8  and  O_9 
REMARK    6  A    between atoms: O_10  and  C_11 
ROOT
ATOM      1  C   LIG d   1      11.824   7.607   0.250  0.00  0.00     0.165 A 
ATOM      2  C   LIG d   1      10.523   7.975  -0.053  0.00  0.00     0.029 A 
ATOM      3  C   LIG d   1       9.801   7.257  -0.994  0.00  0.00     0.162 A 
ATOM      4  C   LIG d   1      10.384   6.166  -1.632  0.00  0.00     0.165 A 
ATOM      5  C   LIG d   1      11.684   5.799  -1.328  0.00  0.00     0.029 A 
ATOM      6  C   LIG d   1      12.405   6.517  -0.387  0.00  0.00     0.162 A 
ATOM      7  H   LIG d   1      10.071   8.821   0.441  0.00  0.00     0.069 H 
ATOM      8  H   LIG d   1      12.136   4.952  -1.823  0.00  0.00     0.069 H 
ENDROOT
BRANCH   1   9
ATOM      9  O   LIG d   1      12.531   8.311   1.175  0.00  0.00    -0.491 OA
BRANCH   9  10
ATOM     10  C   LIG d   1      11.883   9.439   1.767  0.00  0.00     0.079 C 
ATOM     11  H   LIG d   1      12.586   9.966   2.413  0.00  0.00     0.066 H 
ATOM     12  H   LIG d   1      11.536  10.112   0.983  0.00  0.00     0.066 H 
ATOM     13  H   LIG d   1      11.031   9.100   2.358  0.00  0.00     0.066 H 
ENDBRANCH   9  10
ENDBRANCH   1   9
BRANCH   6  14
ATOM     14  O   LIG d   1      13.682   6.155  -0.088  0.00  0.00    -0.503 OA
ATOM     15  H   LIG d   1      13.747   5.422   0.539  0.00  0.00     0.292 HD
ENDBRANCH   6  14
BRANCH   3  16
ATOM     16  O   LIG d   1       8.527   7.622  -1.297  0.00  0.00    -0.503 OA
ATOM     17  H   LIG d   1       7.859   7.242  -0.711  0.00  0.00     0.292 HD
ENDBRANCH   3  16
BRANCH   4  18
ATOM     18  O   LIG d   1       9.676   5.462  -2.556  0.00  0.00    -0.491 OA
BRANCH  18  19
ATOM     19  C   LIG d   1      10.085   4.114  -2.796  0.00  0.00     0.079 C 
ATOM     20  H   LIG d   1      11.009   4.111  -3.375  0.00  0.00     0.066 H 
ATOM     21  H   LIG d   1      10.251   3.608  -1.845  0.00  0.00     0.066 H 
ATOM     22  H   LIG d   1       9.306   3.592  -3.353  0.00  0.00     0.066 H 
ENDBRANCH  18  19
ENDBRANCH   4  18
TORSDOF 6
ENDMDL
MODEL 8
REMARK VINA RESULT:      -3.5     21.549     23.352
REMARK  6 active torsions:
REMARK  status: ('A' for Active; 'I' for Inactive)
REMARK    1  A    between atoms: C_1  and  O_2 
REMARK    2  A    between atoms: O_2  and  C_3 
REMARK    3  A    between atoms: C_5  and  O_12 
REMARK    4  A    between atoms: C_6  and  O_10 
REMARK    5  A    between atoms: C_8  and  O_9 
REMARK    6  A    between atoms: O_10  and  C_11 
ROOT
ATOM      1  C   LIG d   1      -2.815  -8.676 -10.650  0.00  0.00     0.165 A 
ATOM      2  C   LIG d   1      -2.045  -8.110  -9.646  0.00  0.00     0.029 A 
ATOM      3  C   LIG d   1      -2.362  -6.852  -9.156  0.00  0.00     0.162 A 
ATOM      4  C   LIG d   1      -3.453  -6.160  -9.672  0.00  0.00     0.165 A 
ATOM      5  C   LIG d   1      -4.221  -6.727 -10.676  0.00  0.00     0.029 A 
ATOM      6  C   LIG d   1      -3.905  -7.984 -11.165  0.00  0.00     0.162 A 
ATOM      7  H   LIG d   1      -1.199  -8.647  -9.245  0.00  0.00     0.069 H 
ATOM      8  H   LIG d   1      -5.068  -6.189 -11.077  0.00  0.00     0.069 H 
ENDROOT
BRANCH   1   9
ATOM      9  O   LIG d   1      -2.504  -9.911 -11.129  0.00  0.00    -0.491 OA
BRANCH   9  10
ATOM     10  C   LIG d   1      -2.790 -11.026 -10.282  0.00  0.00     0.079 C 
ATOM     11  H   LIG d   1      -3.805 -11.377 -10.471  0.00  0.00     0.066 H 
ATOM     12  H   LIG d   1      -2.083 -11.831 -10.491  0.00  0.00     0.066 H 
ATOM     13  H   LIG d   1      -2.697 -10.724  -9.239  0.00  0.00     0.066 H 
ENDBRANCH   9  10
ENDBRANCH   1   9
BRANCH   6  14
ATOM     14  O   LIG d   1      -4.661  -8.541 -12.150  0.00  0.00    -0.503 OA
ATOM     15  H   LIG d   1      -4.145  -8.937 -12.865  0.00  0.00     0.292 HD
ENDBRANCH   6  14
BRANCH   3  16
ATOM     16  O   LIG d   1      -1.604  -6.293  -8.175  0.00  0.00    -0.503 OA
ATOM     17  H   LIG d   1      -0.676  -6.564  -8.194  0.00  0.00     0.292 HD
ENDBRANCH   3  16
BRANCH   4  18
ATOM     18  O   LIG d   1      -3.764  -4.925  -9.192  0.00  0.00    -0.491 OA
BRANCH  18  19
ATOM     19  C   LIG d   1      -4.673  -4.139  -9.965  0.00  0.00     0.079 C 
ATOM     20  H   LIG d   1      -4.520  -3.083  -9.743  0.00  0.00     0.066 H 
ATOM     21  H   LIG d   1      -4.497  -4.316 -11.025  0.00  0.00     0.066 H 
ATOM     22  H   LIG d   1      -5.697  -4.418  -9.715  0.00  0.00     0.066 H 
ENDBRANCH  18  19
ENDBRANCH   4  18
TORSDOF 6
ENDMDL
MODEL 9
REMARK VINA RESULT:      -3.4     19.292     21.215
REMARK  6 active torsions:
REMARK  status: ('A' for Active; 'I' for Inactive)
REMARK    1  A    between atoms: C_1  and  O_2 
REMARK    2  A    between atoms: O_2  and  C_3 
REMARK    3  A    between atoms: C_5  and  O_12 
REMARK    4  A    between atoms: C_6  and  O_10 
REMARK    5  A    between atoms: C_8  and  O_9 
REMARK    6  A    between atoms: O_10  and  C_11 
ROOT
ATOM      1  C   LIG d   1       3.625 -11.492  -4.593  0.00  0.00     0.165 A 
ATOM      2  C   LIG d   1       4.825 -11.984  -5.081  0.00  0.00     0.029 A 
ATOM      3  C   LIG d   1       6.018 -11.635  -4.468  0.00  0.00     0.162 A 
ATOM      4  C   LIG d   1       6.010 -10.790  -3.362  0.00  0.00     0.165 A 
ATOM      5  C   LIG d   1       4.810 -10.299  -2.875  0.00  0.00     0.029 A 
ATOM      6  C   LIG d   1       3.617 -10.649  -3.488  0.00  0.00     0.162 A 
ATOM      7  H   LIG d   1       4.832 -12.639  -5.939  0.00  0.00     0.069 H 
ATOM      8  H   LIG d   1       4.803  -9.643  -2.017  0.00  0.00     0.069 H 
ENDROOT
BRANCH   1   9
ATOM      9  O   LIG d   1       2.454 -11.836  -5.194  0.00  0.00    -0.491 OA
BRANCH   9  10
ATOM     10  C   LIG d   1       2.514 -12.854  -6.196  0.00  0.00     0.079 C 
ATOM     11  H   LIG d   1       3.113 -12.503  -7.036  0.00  0.00     0.066 H 
ATOM     12  H   LIG d   1       2.969 -13.751  -5.775  0.00  0.00     0.066 H 
ATOM     13  H   LIG d   1       1.506 -13.086  -6.540  0.00  0.00     0.066 H 
ENDBRANCH   9  10
ENDBRANCH   1   9
BRANCH   6  14
ATOM     14  O   LIG d   1       2.439 -10.166  -3.008  0.00  0.00    -0.503 OA
ATOM     15  H   LIG d   1       2.525  -9.344  -2.508  0.00  0.00     0.292 HD
ENDBRANCH   6  14
BRANCH   3  16
ATOM     16  O   LIG d   1       7.196 -12.112  -4.951  0.00  0.00    -0.503 OA
ATOM     17  H   LIG d   1       7.893 -12.185  -4.285  0.00  0.00     0.292 HD
ENDBRANCH   3  16
BRANCH   4  18
ATOM     18  O   LIG d   1       7.181 -10.447  -2.761  0.00  0.00    -0.491 OA
BRANCH  18  19
ATOM     19  C   LIG d   1       7.092  -9.807  -1.486  0.00  0.00     0.079 C 
ATOM     20  H   LIG d   1       7.598 -10.416  -0.737  0.00  0.00     0.066 H 
ATOM     21  H   LIG d   1       7.565  -8.827  -1.536  0.00  0.00     0.066 H 
ATOM     22  H   LIG d   1       6.043  -9.690  -1.211  0.00  0.00     0.066 H 
ENDBRANCH  18  19
ENDBRANCH   4  18
TORSDOF 6
ENDMDL
MODEL 10
REMARK VINA RESULT:      -3.4     21.533     23.527
REMARK  6 active torsions:
REMARK  status: ('A' for Active; 'I' for Inactive)
REMARK    1  A    between atoms: C_1  and  O_2 
REMARK    2  A    between atoms: O_2  and  C_3 
REMARK    3  A    between atoms: C_5  and  O_12 
REMARK    4  A    between atoms: C_6  and  O_10 
REMARK    5  A    between atoms: C_8  and  O_9 
REMARK    6  A    between atoms: O_10  and  C_11 
ROOT
ATOM      1  C   LIG d   1      -3.505  -5.915  -9.743  0.00  0.00     0.165 A 
ATOM      2  C   LIG d   1      -4.316  -6.398 -10.758  0.00  0.00     0.029 A 
ATOM      3  C   LIG d   1      -4.129  -7.683 -11.242  0.00  0.00     0.162 A 
ATOM      4  C   LIG d   1      -3.127  -8.488 -10.709  0.00  0.00     0.165 A 
ATOM      5  C   LIG d   1      -2.317  -8.004  -9.694  0.00  0.00     0.029 A 
ATOM      6  C   LIG d   1      -2.505  -6.719  -9.210  0.00  0.00     0.162 A 
ATOM      7  H   LIG d   1      -5.093  -5.774 -11.172  0.00  0.00     0.069 H 
ATOM      8  H   LIG d   1      -1.540  -8.629  -9.280  0.00  0.00     0.069 H 
ENDROOT
BRANCH   1   9
ATOM      9  O   LIG d   1      -3.690  -4.654  -9.267  0.00  0.00    -0.491 OA
BRANCH   9  10
ATOM     10  C   LIG d   1      -4.876  -3.972  -9.681  0.00  0.00     0.079 C 
ATOM     11  H   LIG d   1      -4.666  -2.907  -9.784  0.00  0.00     0.066 H 
ATOM     12  H   LIG d   1      -5.209  -4.371 -10.640  0.00  0.00     0.066 H 
ATOM     13  H   LIG d   1      -5.658  -4.117  -8.937  0.00  0.00     0.066 H 
ENDBRANCH   9  10
ENDBRANCH   1   9
BRANCH   6  14
ATOM     14  O   LIG d   1      -1.709  -6.246  -8.213  0.00  0.00    -0.503 OA
ATOM     15  H   LIG d   1      -1.842  -6.684  -7.362  0.00  0.00     0.292 HD
ENDBRANCH   6  14
BRANCH   3  16
ATOM     16  O   LIG d   1      -4.920  -8.155 -12.243  0.00  0.00    -0.503 OA
ATOM     17  H   LIG d   1      -5.863  -7.987 -12.111  0.00  0.00     0.292 HD
ENDBRANCH   3  16
BRANCH   4  18
ATOM     18  O   LIG d   1      -2.943  -9.749 -11.184  0.00  0.00    -0.491 OA
BRANCH  18  19
ATOM     19  C   LIG d   1      -2.884 -10.803 -10.221  0.00  0.00     0.079 C 
ATOM     20  H   LIG d   1      -3.784 -10.786  -9.607  0.00  0.00     0.066 H 
ATOM     21  H   LIG d   1      -2.813 -11.762 -10.734  0.00  0.00     0.066 H 
ATOM     22  H   LIG d   1      -2.009 -10.666  -9.586  0.00  0.00     0.066 H 
ENDBRANCH  18  19
ENDBRANCH   4  18
TORSDOF 6
ENDMDL
