MODEL 1
REMARK VINA RESULT:      -6.0      0.000      0.000
REMARK  13 active torsions:
REMARK  status: ('A' for Active; 'I' for Inactive)
REMARK    1  A    between atoms: C_1  and  C_2 
REMARK    2  A    between atoms: C_2  and  C_3 
REMARK    3  A    between atoms: C_3  and  C_4 
REMARK    4  A    between atoms: C_4  and  C_5 
REMARK    5  A    between atoms: C_5  and  N_6 
REMARK    6  A    between atoms: N_6  and  C_7 
REMARK       I    between atoms: N_6  and  C_12 
REMARK    7  A    between atoms: C_7  and  C_8 
REMARK    8  A    between atoms: C_8  and  C_9 
REMARK    9  A    between atoms: C_9  and  C_10 
REMARK   10  A    between atoms: C_10  and  C_11 
REMARK   11  A    between atoms: C_12  and  C_14 
REMARK   12  A    between atoms: C_14  and  C_15 
REMARK   13  A    between atoms: C_14  and  C_19 
ROOT
ATOM      1  N   LIG d   1       3.872  -0.310  -5.888  0.00  0.00    -0.301 N 
ATOM      2  C   LIG d   1       3.365  -0.084  -4.660  0.00  0.00     0.236 C 
ATOM      3  O   LIG d   1       2.203   0.238  -4.532  0.00  0.00    -0.275 OA
ENDROOT
BRANCH   1   4
ATOM      4  C   LIG d   1       3.052  -0.057  -7.076  0.00  0.00     0.015 C 
ATOM      5  H   LIG d   1       2.160   0.500  -6.789  0.00  0.00     0.046 H 
ATOM      6  H   LIG d   1       2.760  -1.007  -7.524  0.00  0.00     0.046 H 
BRANCH   4   7
ATOM      7  C   LIG d   1       3.859   0.758  -8.088  0.00  0.00    -0.037 C 
ATOM      8  H   LIG d   1       4.074   0.142  -8.962  0.00  0.00     0.028 H 
ATOM      9  H   LIG d   1       4.795   1.081  -7.632  0.00  0.00     0.028 H 
BRANCH   7  10
ATOM     10  C   LIG d   1       3.051   1.985  -8.515  0.00  0.00    -0.052 C 
ATOM     11  H   LIG d   1       3.154   2.768  -7.765  0.00  0.00     0.027 H 
ATOM     12  H   LIG d   1       2.000   1.711  -8.613  0.00  0.00     0.027 H 
BRANCH  10  13
ATOM     13  C   LIG d   1       3.572   2.495  -9.860  0.00  0.00    -0.056 C 
ATOM     14  H   LIG d   1       4.467   3.095  -9.699  0.00  0.00     0.026 H 
ATOM     15  H   LIG d   1       2.806   3.105 -10.339  0.00  0.00     0.026 H 
BRANCH  13  16
ATOM     16  C   LIG d   1       3.911   1.305 -10.760  0.00  0.00    -0.065 C 
ATOM     17  H   LIG d   1       3.998   1.642 -11.793  0.00  0.00     0.023 H 
ATOM     18  H   LIG d   1       4.857   0.867 -10.440  0.00  0.00     0.023 H 
ATOM     19  H   LIG d   1       3.121   0.557 -10.687  0.00  0.00     0.023 H 
ENDBRANCH  13  16
ENDBRANCH  10  13
ENDBRANCH   7  10
ENDBRANCH   4   7
ENDBRANCH   1   4
BRANCH   1  20
ATOM     20  C   LIG d   1       5.241  -0.808  -6.036  0.00  0.00     0.015 C 
ATOM     21  H   LIG d   1       5.744  -0.257  -6.830  0.00  0.00     0.046 H 
ATOM     22  H   LIG d   1       5.782  -0.672  -5.100  0.00  0.00     0.046 H 
BRANCH  20  23
ATOM     23  C   LIG d   1       5.207  -2.296  -6.393  0.00  0.00    -0.037 C 
ATOM     24  H   LIG d   1       4.259  -2.726  -6.068  0.00  0.00     0.028 H 
ATOM     25  H   LIG d   1       5.306  -2.413  -7.472  0.00  0.00     0.028 H 
BRANCH  23  26
ATOM     26  C   LIG d   1       6.361  -3.016  -5.692  0.00  0.00    -0.052 C 
ATOM     27  H   LIG d   1       5.961  -3.723  -4.967  0.00  0.00     0.027 H 
ATOM     28  H   LIG d   1       6.957  -3.551  -6.431  0.00  0.00     0.027 H 
BRANCH  26  29
ATOM     29  C   LIG d   1       7.240  -1.990  -4.973  0.00  0.00    -0.056 C 
ATOM     30  H   LIG d   1       8.218  -1.951  -5.453  0.00  0.00     0.026 H 
ATOM     31  H   LIG d   1       6.769  -1.009  -5.026  0.00  0.00     0.026 H 
BRANCH  29  32
ATOM     32  C   LIG d   1       7.405  -2.399  -3.508  0.00  0.00    -0.065 C 
ATOM     33  H   LIG d   1       6.882  -1.687  -2.871  0.00  0.00     0.023 H 
ATOM     34  H   LIG d   1       6.989  -3.396  -3.360  0.00  0.00     0.023 H 
ATOM     35  H   LIG d   1       8.465  -2.406  -3.251  0.00  0.00     0.023 H 
ENDBRANCH  29  32
ENDBRANCH  26  29
ENDBRANCH  23  26
ENDBRANCH  20  23
ENDBRANCH   1  20
BRANCH   2  36
ATOM     36  C   LIG d   1       4.244  -0.232  -3.444  0.00  0.00     0.224 C 
ATOM     37  H   LIG d   1       5.277  -0.379  -3.758  0.00  0.00     0.057 H 
BRANCH  36  38
ATOM     38  C   LIG d   1       4.147   1.034  -2.589  0.00  0.00     0.409 C 
ATOM     39  F   LIG d   1       2.917   1.054  -1.924  0.00  0.00    -0.170 F 
ATOM     40  F   LIG d   1       5.185   1.043  -1.650  0.00  0.00    -0.170 F 
ATOM     41  F   LIG d   1       4.252   2.161  -3.410  0.00  0.00    -0.170 F 
ENDBRANCH  36  38
BRANCH  36  42
ATOM     42  C   LIG d   1       3.782  -1.437  -2.624  0.00  0.00     0.409 C 
ATOM     43  F   LIG d   1       4.088  -2.616  -3.315  0.00  0.00    -0.170 F 
ATOM     44  F   LIG d   1       4.437  -1.439  -1.388  0.00  0.00    -0.170 F 
ATOM     45  F   LIG d   1       2.401  -1.362  -2.419  0.00  0.00    -0.170 F 
ENDBRANCH  36  42
ENDBRANCH   2  36
TORSDOF 13
ENDMDL
MODEL 2
REMARK VINA RESULT:      -5.7      1.274      2.258
REMARK  13 active torsions:
REMARK  status: ('A' for Active; 'I' for Inactive)
REMARK    1  A    between atoms: C_1  and  C_2 
REMARK    2  A    between atoms: C_2  and  C_3 
REMARK    3  A    between atoms: C_3  and  C_4 
REMARK    4  A    between atoms: C_4  and  C_5 
REMARK    5  A    between atoms: C_5  and  N_6 
REMARK    6  A    between atoms: N_6  and  C_7 
REMARK       I    between atoms: N_6  and  C_12 
REMARK    7  A    between atoms: C_7  and  C_8 
REMARK    8  A    between atoms: C_8  and  C_9 
REMARK    9  A    between atoms: C_9  and  C_10 
REMARK   10  A    between atoms: C_10  and  C_11 
REMARK   11  A    between atoms: C_12  and  C_14 
REMARK   12  A    between atoms: C_14  and  C_15 
REMARK   13  A    between atoms: C_14  and  C_19 
ROOT
ATOM      1  N   LIG d   1       3.767  -0.158  -6.015  0.00  0.00    -0.301 N 
ATOM      2  C   LIG d   1       3.290  -0.045  -4.760  0.00  0.00     0.236 C 
ATOM      3  O   LIG d   1       2.106   0.146  -4.576  0.00  0.00    -0.275 OA
ENDROOT
BRANCH   1   4
ATOM      4  C   LIG d   1       2.879   0.061  -7.159  0.00  0.00     0.015 C 
ATOM      5  H   LIG d   1       1.847  -0.119  -6.858  0.00  0.00     0.046 H 
ATOM      6  H   LIG d   1       3.146  -0.624  -7.964  0.00  0.00     0.046 H 
BRANCH   4   7
ATOM      7  C   LIG d   1       3.023   1.503  -7.648  0.00  0.00    -0.037 C 
ATOM      8  H   LIG d   1       4.065   1.812  -7.568  0.00  0.00     0.028 H 
ATOM      9  H   LIG d   1       2.403   2.159  -7.036  0.00  0.00     0.028 H 
BRANCH   7  10
ATOM     10  C   LIG d   1       2.574   1.595  -9.108  0.00  0.00    -0.052 C 
ATOM     11  H   LIG d   1       1.735   2.285  -9.188  0.00  0.00     0.027 H 
ATOM     12  H   LIG d   1       2.269   0.608  -9.456  0.00  0.00     0.027 H 
BRANCH  10  13
ATOM     13  C   LIG d   1       3.735   2.102  -9.967  0.00  0.00    -0.056 C 
ATOM     14  H   LIG d   1       4.594   2.310  -9.329  0.00  0.00     0.026 H 
ATOM     15  H   LIG d   1       3.434   3.014 -10.481  0.00  0.00     0.026 H 
BRANCH  13  16
ATOM     16  C   LIG d   1       4.111   1.035 -10.997  0.00  0.00    -0.065 C 
ATOM     17  H   LIG d   1       3.961   0.045 -10.566  0.00  0.00     0.023 H 
ATOM     18  H   LIG d   1       3.482   1.146 -11.880  0.00  0.00     0.023 H 
ATOM     19  H   LIG d   1       5.157   1.154 -11.278  0.00  0.00     0.023 H 
ENDBRANCH  13  16
ENDBRANCH  10  13
ENDBRANCH   7  10
ENDBRANCH   4   7
ENDBRANCH   1   4
BRANCH   1  20
ATOM     20  C   LIG d   1       5.174  -0.502  -6.236  0.00  0.00     0.015 C 
ATOM     21  H   LIG d   1       5.774   0.409  -6.240  0.00  0.00     0.046 H 
ATOM     22  H   LIG d   1       5.518  -1.160  -5.439  0.00  0.00     0.046 H 
BRANCH  20  23
ATOM     23  C   LIG d   1       5.320  -1.212  -7.584  0.00  0.00    -0.037 C 
ATOM     24  H   LIG d   1       5.567  -2.261  -7.416  0.00  0.00     0.028 H 
ATOM     25  H   LIG d   1       4.382  -1.144  -8.134  0.00  0.00     0.028 H 
BRANCH  23  26
ATOM     26  C   LIG d   1       6.436  -0.548  -8.392  0.00  0.00    -0.052 C 
ATOM     27  H   LIG d   1       7.352  -1.128  -8.291  0.00  0.00     0.027 H 
ATOM     28  H   LIG d   1       6.147  -0.504  -9.443  0.00  0.00     0.027 H 
BRANCH  26  29
ATOM     29  C   LIG d   1       6.671   0.870  -7.868  0.00  0.00    -0.056 C 
ATOM     30  H   LIG d   1       5.718   1.311  -7.574  0.00  0.00     0.026 H 
ATOM     31  H   LIG d   1       7.336   0.833  -7.005  0.00  0.00     0.026 H 
BRANCH  29  32
ATOM     32  C   LIG d   1       7.308   1.722  -8.968  0.00  0.00    -0.065 C 
ATOM     33  H   LIG d   1       8.102   1.153  -9.453  0.00  0.00     0.023 H 
ATOM     34  H   LIG d   1       6.551   1.990  -9.705  0.00  0.00     0.023 H 
ATOM     35  H   LIG d   1       7.727   2.628  -8.530  0.00  0.00     0.023 H 
ENDBRANCH  29  32
ENDBRANCH  26  29
ENDBRANCH  23  26
ENDBRANCH  20  23
ENDBRANCH   1  20
BRANCH   2  36
ATOM     36  C   LIG d   1       4.227  -0.155  -3.585  0.00  0.00     0.224 C 
ATOM     37  H   LIG d   1       5.255  -0.208  -3.944  0.00  0.00     0.057 H 
BRANCH  36  38
ATOM     38  C   LIG d   1       4.063   1.073  -2.686  0.00  0.00     0.409 C 
ATOM     39  F   LIG d   1       3.902   2.213  -3.480  0.00  0.00    -0.170 F 
ATOM     40  F   LIG d   1       2.937   0.909  -1.873  0.00  0.00    -0.170 F 
ATOM     41  F   LIG d   1       5.200   1.219  -1.884  0.00  0.00    -0.170 F 
ENDBRANCH  36  38
BRANCH  36  42
ATOM     42  C   LIG d   1       3.899  -1.418  -2.787  0.00  0.00     0.409 C 
ATOM     43  F   LIG d   1       2.521  -1.473  -2.547  0.00  0.00    -0.170 F 
ATOM     44  F   LIG d   1       4.289  -2.545  -3.518  0.00  0.00    -0.170 F 
ATOM     45  F   LIG d   1       4.584  -1.392  -1.569  0.00  0.00    -0.170 F 
ENDBRANCH  36  42
ENDBRANCH   2  36
TORSDOF 13
ENDMDL
MODEL 3
REMARK VINA RESULT:      -5.6      2.011      2.836
REMARK  13 active torsions:
REMARK  status: ('A' for Active; 'I' for Inactive)
REMARK    1  A    between atoms: C_1  and  C_2 
REMARK    2  A    between atoms: C_2  and  C_3 
REMARK    3  A    between atoms: C_3  and  C_4 
REMARK    4  A    between atoms: C_4  and  C_5 
REMARK    5  A    between atoms: C_5  and  N_6 
REMARK    6  A    between atoms: N_6  and  C_7 
REMARK       I    between atoms: N_6  and  C_12 
REMARK    7  A    between atoms: C_7  and  C_8 
REMARK    8  A    between atoms: C_8  and  C_9 
REMARK    9  A    between atoms: C_9  and  C_10 
REMARK   10  A    between atoms: C_10  and  C_11 
REMARK   11  A    between atoms: C_12  and  C_14 
REMARK   12  A    between atoms: C_14  and  C_15 
REMARK   13  A    between atoms: C_14  and  C_19 
ROOT
ATOM      1  N   LIG d   1       5.234  -0.455  -5.492  0.00  0.00    -0.301 N 
ATOM      2  C   LIG d   1       4.298  -0.337  -4.531  0.00  0.00     0.236 C 
ATOM      3  O   LIG d   1       3.137  -0.158  -4.832  0.00  0.00    -0.275 OA
ENDROOT
BRANCH   1   4
ATOM      4  C   LIG d   1       4.870  -0.253  -6.897  0.00  0.00     0.015 C 
ATOM      5  H   LIG d   1       5.576   0.436  -7.360  0.00  0.00     0.046 H 
ATOM      6  H   LIG d   1       3.864   0.163  -6.956  0.00  0.00     0.046 H 
BRANCH   4   7
ATOM      7  C   LIG d   1       4.910  -1.594  -7.632  0.00  0.00    -0.037 C 
ATOM      8  H   LIG d   1       5.060  -2.399  -6.913  0.00  0.00     0.028 H 
ATOM      9  H   LIG d   1       5.732  -1.592  -8.349  0.00  0.00     0.028 H 
BRANCH   7  10
ATOM     10  C   LIG d   1       3.589  -1.811  -8.372  0.00  0.00    -0.052 C 
ATOM     11  H   LIG d   1       3.026  -2.607  -7.885  0.00  0.00     0.027 H 
ATOM     12  H   LIG d   1       3.793  -2.089  -9.406  0.00  0.00     0.027 H 
BRANCH  10  13
ATOM     13  C   LIG d   1       2.771  -0.518  -8.344  0.00  0.00    -0.056 C 
ATOM     14  H   LIG d   1       3.441   0.337  -8.438  0.00  0.00     0.026 H 
ATOM     15  H   LIG d   1       2.227  -0.452  -7.403  0.00  0.00     0.026 H 
BRANCH  13  16
ATOM     16  C   LIG d   1       1.778  -0.518  -9.508  0.00  0.00    -0.065 C 
ATOM     17  H   LIG d   1       1.570  -1.545  -9.809  0.00  0.00     0.023 H 
ATOM     18  H   LIG d   1       0.852  -0.036  -9.195  0.00  0.00     0.023 H 
ATOM     19  H   LIG d   1       2.206   0.027 -10.350  0.00  0.00     0.023 H 
ENDBRANCH  13  16
ENDBRANCH  10  13
ENDBRANCH   7  10
ENDBRANCH   4   7
ENDBRANCH   1   4
BRANCH   1  20
ATOM     20  C   LIG d   1       6.616  -0.785  -5.135  0.00  0.00     0.015 C 
ATOM     21  H   LIG d   1       6.655  -1.106  -4.094  0.00  0.00     0.046 H 
ATOM     22  H   LIG d   1       6.977  -1.589  -5.776  0.00  0.00     0.046 H 
BRANCH  20  23
ATOM     23  C   LIG d   1       7.500   0.450  -5.319  0.00  0.00    -0.037 C 
ATOM     24  H   LIG d   1       8.434   0.160  -5.801  0.00  0.00     0.028 H 
ATOM     25  H   LIG d   1       6.981   1.178  -5.942  0.00  0.00     0.028 H 
BRANCH  23  26
ATOM     26  C   LIG d   1       7.802   1.070  -3.953  0.00  0.00    -0.052 C 
ATOM     27  H   LIG d   1       6.878   1.165  -3.385  0.00  0.00     0.027 H 
ATOM     28  H   LIG d   1       8.499   0.431  -3.410  0.00  0.00     0.027 H 
BRANCH  26  29
ATOM     29  C   LIG d   1       8.425   2.454  -4.148  0.00  0.00    -0.056 C 
ATOM     30  H   LIG d   1       7.686   3.221  -3.916  0.00  0.00     0.026 H 
ATOM     31  H   LIG d   1       9.283   2.563  -3.486  0.00  0.00     0.026 H 
BRANCH  29  32
ATOM     32  C   LIG d   1       8.879   2.608  -5.601  0.00  0.00    -0.065 C 
ATOM     33  H   LIG d   1       9.850   3.103  -5.628  0.00  0.00     0.023 H 
ATOM     34  H   LIG d   1       8.960   1.623  -6.063  0.00  0.00     0.023 H 
ATOM     35  H   LIG d   1       8.151   3.207  -6.148  0.00  0.00     0.023 H 
ENDBRANCH  29  32
ENDBRANCH  26  29
ENDBRANCH  23  26
ENDBRANCH  20  23
ENDBRANCH   1  20
BRANCH   2  36
ATOM     36  C   LIG d   1       4.694  -0.428  -3.079  0.00  0.00     0.224 C 
ATOM     37  H   LIG d   1       5.777  -0.529  -3.004  0.00  0.00     0.057 H 
BRANCH  36  38
ATOM     38  C   LIG d   1       4.248   0.840  -2.348  0.00  0.00     0.409 C 
ATOM     39  F   LIG d   1       4.687   1.964  -3.055  0.00  0.00    -0.170 F 
ATOM     40  F   LIG d   1       2.852   0.861  -2.260  0.00  0.00    -0.170 F 
ATOM     41  F   LIG d   1       4.796   0.855  -1.061  0.00  0.00    -0.170 F 
ENDBRANCH  36  38
BRANCH  36  42
ATOM     42  C   LIG d   1       4.022  -1.646  -2.443  0.00  0.00     0.409 C 
ATOM     43  F   LIG d   1       2.634  -1.474  -2.459  0.00  0.00    -0.170 F 
ATOM     44  F   LIG d   1       4.357  -2.795  -3.168  0.00  0.00    -0.170 F 
ATOM     45  F   LIG d   1       4.460  -1.785  -1.122  0.00  0.00    -0.170 F 
ENDBRANCH  36  42
ENDBRANCH   2  36
TORSDOF 13
ENDMDL
MODEL 4
REMARK VINA RESULT:      -5.6      1.362      2.419
REMARK  13 active torsions:
REMARK  status: ('A' for Active; 'I' for Inactive)
REMARK    1  A    between atoms: C_1  and  C_2 
REMARK    2  A    between atoms: C_2  and  C_3 
REMARK    3  A    between atoms: C_3  and  C_4 
REMARK    4  A    between atoms: C_4  and  C_5 
REMARK    5  A    between atoms: C_5  and  N_6 
REMARK    6  A    between atoms: N_6  and  C_7 
REMARK       I    between atoms: N_6  and  C_12 
REMARK    7  A    between atoms: C_7  and  C_8 
REMARK    8  A    between atoms: C_8  and  C_9 
REMARK    9  A    between atoms: C_9  and  C_10 
REMARK   10  A    between atoms: C_10  and  C_11 
REMARK   11  A    between atoms: C_12  and  C_14 
REMARK   12  A    between atoms: C_14  and  C_15 
REMARK   13  A    between atoms: C_14  and  C_19 
ROOT
ATOM      1  N   LIG d   1       3.685  -0.198  -6.001  0.00  0.00    -0.301 N 
ATOM      2  C   LIG d   1       3.235  -0.037  -4.741  0.00  0.00     0.236 C 
ATOM      3  O   LIG d   1       2.064   0.210  -4.542  0.00  0.00    -0.275 OA
ENDROOT
BRANCH   1   4
ATOM      4  C   LIG d   1       2.787   0.036  -7.135  0.00  0.00     0.015 C 
ATOM      5  H   LIG d   1       1.875   0.518  -6.782  0.00  0.00     0.046 H 
ATOM      6  H   LIG d   1       2.536  -0.916  -7.603  0.00  0.00     0.046 H 
BRANCH   4   7
ATOM      7  C   LIG d   1       3.480   0.940  -8.156  0.00  0.00    -0.037 C 
ATOM      8  H   LIG d   1       4.553   0.746  -8.144  0.00  0.00     0.028 H 
ATOM      9  H   LIG d   1       3.297   1.984  -7.901  0.00  0.00     0.028 H 
BRANCH   7  10
ATOM     10  C   LIG d   1       2.925   0.652  -9.552  0.00  0.00    -0.052 C 
ATOM     11  H   LIG d   1       3.722   0.266 -10.187  0.00  0.00     0.027 H 
ATOM     12  H   LIG d   1       2.531   1.572  -9.983  0.00  0.00     0.027 H 
BRANCH  10  13
ATOM     13  C   LIG d   1       1.805  -0.386  -9.452  0.00  0.00    -0.056 C 
ATOM     14  H   LIG d   1       0.924   0.074  -9.003  0.00  0.00     0.026 H 
ATOM     15  H   LIG d   1       2.136  -1.219  -8.834  0.00  0.00     0.026 H 
BRANCH  13  16
ATOM     16  C   LIG d   1       1.456  -0.895 -10.852  0.00  0.00    -0.065 C 
ATOM     17  H   LIG d   1       0.452  -0.565 -11.119  0.00  0.00     0.023 H 
ATOM     18  H   LIG d   1       2.172  -0.499 -11.572  0.00  0.00     0.023 H 
ATOM     19  H   LIG d   1       1.494  -1.985 -10.862  0.00  0.00     0.023 H 
ENDBRANCH  13  16
ENDBRANCH  10  13
ENDBRANCH   7  10
ENDBRANCH   4   7
ENDBRANCH   1   4
BRANCH   1  20
ATOM     20  C   LIG d   1       5.071  -0.609  -6.238  0.00  0.00     0.015 C 
ATOM     21  H   LIG d   1       5.511   0.025  -7.008  0.00  0.00     0.046 H 
ATOM     22  H   LIG d   1       5.643  -0.509  -5.315  0.00  0.00     0.046 H 
BRANCH  20  23
ATOM     23  C   LIG d   1       5.099  -2.067  -6.701  0.00  0.00    -0.037 C 
ATOM     24  H   LIG d   1       5.646  -2.668  -5.974  0.00  0.00     0.028 H 
ATOM     25  H   LIG d   1       4.080  -2.441  -6.787  0.00  0.00     0.028 H 
BRANCH  23  26
ATOM     26  C   LIG d   1       5.793  -2.156  -8.062  0.00  0.00    -0.052 C 
ATOM     27  H   LIG d   1       6.191  -1.179  -8.332  0.00  0.00     0.027 H 
ATOM     28  H   LIG d   1       6.607  -2.879  -8.009  0.00  0.00     0.027 H 
BRANCH  26  29
ATOM     29  C   LIG d   1       4.782  -2.604  -9.120  0.00  0.00    -0.056 C 
ATOM     30  H   LIG d   1       4.350  -1.728  -9.604  0.00  0.00     0.026 H 
ATOM     31  H   LIG d   1       5.285  -3.220  -9.866  0.00  0.00     0.026 H 
BRANCH  29  32
ATOM     32  C   LIG d   1       3.671  -3.418  -8.452  0.00  0.00    -0.065 C 
ATOM     33  H   LIG d   1       3.416  -4.269  -9.081  0.00  0.00     0.023 H 
ATOM     34  H   LIG d   1       4.016  -3.773  -7.480  0.00  0.00     0.023 H 
ATOM     35  H   LIG d   1       2.791  -2.789  -8.317  0.00  0.00     0.023 H 
ENDBRANCH  29  32
ENDBRANCH  26  29
ENDBRANCH  23  26
ENDBRANCH  20  23
ENDBRANCH   1  20
BRANCH   2  36
ATOM     36  C   LIG d   1       4.187  -0.163  -3.579  0.00  0.00     0.224 C 
ATOM     37  H   LIG d   1       5.207  -0.247  -3.953  0.00  0.00     0.057 H 
BRANCH  36  38
ATOM     38  C   LIG d   1       4.071   1.076  -2.688  0.00  0.00     0.409 C 
ATOM     39  F   LIG d   1       5.228   1.203  -1.914  0.00  0.00    -0.170 F 
ATOM     40  F   LIG d   1       3.918   2.213  -3.489  0.00  0.00    -0.170 F 
ATOM     41  F   LIG d   1       2.959   0.944  -1.849  0.00  0.00    -0.170 F 
ENDBRANCH  36  38
BRANCH  36  42
ATOM     42  C   LIG d   1       3.836  -1.411  -2.767  0.00  0.00     0.409 C 
ATOM     43  F   LIG d   1       2.459  -1.433  -2.517  0.00  0.00    -0.170 F 
ATOM     44  F   LIG d   1       4.197  -2.553  -3.488  0.00  0.00    -0.170 F 
ATOM     45  F   LIG d   1       4.530  -1.388  -1.553  0.00  0.00    -0.170 F 
ENDBRANCH  36  42
ENDBRANCH   2  36
TORSDOF 13
ENDMDL
MODEL 5
REMARK VINA RESULT:      -5.5      1.892      4.877
REMARK  13 active torsions:
REMARK  status: ('A' for Active; 'I' for Inactive)
REMARK    1  A    between atoms: C_1  and  C_2 
REMARK    2  A    between atoms: C_2  and  C_3 
REMARK    3  A    between atoms: C_3  and  C_4 
REMARK    4  A    between atoms: C_4  and  C_5 
REMARK    5  A    between atoms: C_5  and  N_6 
REMARK    6  A    between atoms: N_6  and  C_7 
REMARK       I    between atoms: N_6  and  C_12 
REMARK    7  A    between atoms: C_7  and  C_8 
REMARK    8  A    between atoms: C_8  and  C_9 
REMARK    9  A    between atoms: C_9  and  C_10 
REMARK   10  A    between atoms: C_10  and  C_11 
REMARK   11  A    between atoms: C_12  and  C_14 
REMARK   12  A    between atoms: C_14  and  C_15 
REMARK   13  A    between atoms: C_14  and  C_19 
ROOT
ATOM      1  N   LIG d   1       4.588  -1.923  -5.694  0.00  0.00    -0.301 N 
ATOM      2  C   LIG d   1       4.326  -1.815  -4.377  0.00  0.00     0.236 C 
ATOM      3  O   LIG d   1       4.105  -2.809  -3.718  0.00  0.00    -0.275 OA
ENDROOT
BRANCH   1   4
ATOM      4  C   LIG d   1       4.493  -3.228  -6.354  0.00  0.00     0.015 C 
ATOM      5  H   LIG d   1       4.012  -3.110  -7.325  0.00  0.00     0.046 H 
ATOM      6  H   LIG d   1       3.904  -3.906  -5.737  0.00  0.00     0.046 H 
BRANCH   4   7
ATOM      7  C   LIG d   1       5.897  -3.805  -6.548  0.00  0.00    -0.037 C 
ATOM      8  H   LIG d   1       6.639  -3.050  -6.288  0.00  0.00     0.028 H 
ATOM      9  H   LIG d   1       6.029  -4.099  -7.589  0.00  0.00     0.028 H 
BRANCH   7  10
ATOM     10  C   LIG d   1       6.075  -5.028  -5.646  0.00  0.00    -0.052 C 
ATOM     11  H   LIG d   1       6.389  -4.705  -4.654  0.00  0.00     0.027 H 
ATOM     12  H   LIG d   1       6.834  -5.684  -6.072  0.00  0.00     0.027 H 
BRANCH  10  13
ATOM     13  C   LIG d   1       4.748  -5.782  -5.542  0.00  0.00    -0.056 C 
ATOM     14  H   LIG d   1       4.122  -5.536  -6.399  0.00  0.00     0.026 H 
ATOM     15  H   LIG d   1       4.238  -5.495  -4.624  0.00  0.00     0.026 H 
BRANCH  13  16
ATOM     16  C   LIG d   1       5.019  -7.288  -5.525  0.00  0.00    -0.065 C 
ATOM     17  H   LIG d   1       5.274  -7.601  -4.512  0.00  0.00     0.023 H 
ATOM     18  H   LIG d   1       4.127  -7.821  -5.855  0.00  0.00     0.023 H 
ATOM     19  H   LIG d   1       5.848  -7.516  -6.195  0.00  0.00     0.023 H 
ENDBRANCH  13  16
ENDBRANCH  10  13
ENDBRANCH   7  10
ENDBRANCH   4   7
ENDBRANCH   1   4
BRANCH   1  20
ATOM     20  C   LIG d   1       4.966  -0.738  -6.466  0.00  0.00     0.015 C 
ATOM     21  H   LIG d   1       4.858   0.151  -5.844  0.00  0.00     0.046 H 
ATOM     22  H   LIG d   1       6.002  -0.830  -6.791  0.00  0.00     0.046 H 
BRANCH  20  23
ATOM     23  C   LIG d   1       4.057  -0.615  -7.691  0.00  0.00    -0.037 C 
ATOM     24  H   LIG d   1       4.662  -0.396  -8.572  0.00  0.00     0.028 H 
ATOM     25  H   LIG d   1       3.523  -1.553  -7.842  0.00  0.00     0.028 H 
BRANCH  23  26
ATOM     26  C   LIG d   1       3.051   0.516  -7.468  0.00  0.00    -0.052 C 
ATOM     27  H   LIG d   1       2.141   0.111  -7.028  0.00  0.00     0.027 H 
ATOM     28  H   LIG d   1       3.482   1.258  -6.796  0.00  0.00     0.027 H 
BRANCH  26  29
ATOM     29  C   LIG d   1       2.719   1.173  -8.810  0.00  0.00    -0.056 C 
ATOM     30  H   LIG d   1       2.865   0.452  -9.614  0.00  0.00     0.026 H 
ATOM     31  H   LIG d   1       1.681   1.506  -8.804  0.00  0.00     0.026 H 
BRANCH  29  32
ATOM     32  C   LIG d   1       3.639   2.376  -9.029  0.00  0.00    -0.065 C 
ATOM     33  H   LIG d   1       3.320   2.920  -9.918  0.00  0.00     0.023 H 
ATOM     34  H   LIG d   1       3.590   3.035  -8.162  0.00  0.00     0.023 H 
ATOM     35  H   LIG d   1       4.664   2.029  -9.164  0.00  0.00     0.023 H 
ENDBRANCH  29  32
ENDBRANCH  26  29
ENDBRANCH  23  26
ENDBRANCH  20  23
ENDBRANCH   1  20
BRANCH   2  36
ATOM     36  C   LIG d   1       4.308  -0.458  -3.721  0.00  0.00     0.224 C 
ATOM     37  H   LIG d   1       4.640   0.295  -4.436  0.00  0.00     0.057 H 
BRANCH  36  38
ATOM     38  C   LIG d   1       2.885  -0.133  -3.260  0.00  0.00     0.409 C 
ATOM     39  F   LIG d   1       2.339  -1.247  -2.616  0.00  0.00    -0.170 F 
ATOM     40  F   LIG d   1       2.918   0.949  -2.374  0.00  0.00    -0.170 F 
ATOM     41  F   LIG d   1       2.100   0.197  -4.370  0.00  0.00    -0.170 F 
ENDBRANCH  36  38
BRANCH  36  42
ATOM     42  C   LIG d   1       5.247  -0.463  -2.513  0.00  0.00     0.409 C 
ATOM     43  F   LIG d   1       5.609   0.852  -2.199  0.00  0.00    -0.170 F 
ATOM     44  F   LIG d   1       4.595  -1.040  -1.419  0.00  0.00    -0.170 F 
ATOM     45  F   LIG d   1       6.394  -1.203  -2.816  0.00  0.00    -0.170 F 
ENDBRANCH  36  42
ENDBRANCH   2  36
TORSDOF 13
ENDMDL
MODEL 6
REMARK VINA RESULT:      -5.5      2.050      4.495
REMARK  13 active torsions:
REMARK  status: ('A' for Active; 'I' for Inactive)
REMARK    1  A    between atoms: C_1  and  C_2 
REMARK    2  A    between atoms: C_2  and  C_3 
REMARK    3  A    between atoms: C_3  and  C_4 
REMARK    4  A    between atoms: C_4  and  C_5 
REMARK    5  A    between atoms: C_5  and  N_6 
REMARK    6  A    between atoms: N_6  and  C_7 
REMARK       I    between atoms: N_6  and  C_12 
REMARK    7  A    between atoms: C_7  and  C_8 
REMARK    8  A    between atoms: C_8  and  C_9 
REMARK    9  A    between atoms: C_9  and  C_10 
REMARK   10  A    between atoms: C_10  and  C_11 
REMARK   11  A    between atoms: C_12  and  C_14 
REMARK   12  A    between atoms: C_14  and  C_15 
REMARK   13  A    between atoms: C_14  and  C_19 
ROOT
ATOM      1  N   LIG d   1       5.425  -0.497  -5.559  0.00  0.00    -0.301 N 
ATOM      2  C   LIG d   1       5.003  -0.173  -4.321  0.00  0.00     0.236 C 
ATOM      3  O   LIG d   1       5.503   0.764  -3.735  0.00  0.00    -0.275 OA
ENDROOT
BRANCH   1   4
ATOM      4  C   LIG d   1       6.563   0.209  -6.153  0.00  0.00     0.015 C 
ATOM      5  H   LIG d   1       6.563   1.246  -5.817  0.00  0.00     0.046 H 
ATOM      6  H   LIG d   1       6.483   0.179  -7.240  0.00  0.00     0.046 H 
BRANCH   4   7
ATOM      7  C   LIG d   1       7.865  -0.468  -5.720  0.00  0.00    -0.037 C 
ATOM      8  H   LIG d   1       8.120  -1.254  -6.431  0.00  0.00     0.028 H 
ATOM      9  H   LIG d   1       7.737  -0.903  -4.729  0.00  0.00     0.028 H 
BRANCH   7  10
ATOM     10  C   LIG d   1       8.990   0.569  -5.679  0.00  0.00    -0.052 C 
ATOM     11  H   LIG d   1       9.435   0.661  -6.670  0.00  0.00     0.027 H 
ATOM     12  H   LIG d   1       9.751   0.249  -4.967  0.00  0.00     0.027 H 
BRANCH  10  13
ATOM     13  C   LIG d   1       8.422   1.922  -5.246  0.00  0.00    -0.056 C 
ATOM     14  H   LIG d   1       7.340   1.919  -5.378  0.00  0.00     0.026 H 
ATOM     15  H   LIG d   1       8.861   2.711  -5.854  0.00  0.00     0.026 H 
BRANCH  13  16
ATOM     16  C   LIG d   1       8.756   2.167  -3.774  0.00  0.00    -0.065 C 
ATOM     17  H   LIG d   1       8.391   3.150  -3.476  0.00  0.00     0.023 H 
ATOM     18  H   LIG d   1       8.277   1.402  -3.161  0.00  0.00     0.023 H 
ATOM     19  H   LIG d   1       9.836   2.122  -3.634  0.00  0.00     0.023 H 
ENDBRANCH  13  16
ENDBRANCH  10  13
ENDBRANCH   7  10
ENDBRANCH   4   7
ENDBRANCH   1   4
BRANCH   1  20
ATOM     20  C   LIG d   1       4.745  -1.554  -6.312  0.00  0.00     0.015 C 
ATOM     21  H   LIG d   1       5.435  -2.382  -6.479  0.00  0.00     0.046 H 
ATOM     22  H   LIG d   1       3.883  -1.907  -5.747  0.00  0.00     0.046 H 
BRANCH  20  23
ATOM     23  C   LIG d   1       4.280  -1.001  -7.661  0.00  0.00    -0.037 C 
ATOM     24  H   LIG d   1       5.052  -0.349  -8.073  0.00  0.00     0.028 H 
ATOM     25  H   LIG d   1       4.098  -1.826  -8.349  0.00  0.00     0.028 H 
BRANCH  23  26
ATOM     26  C   LIG d   1       2.989  -0.203  -7.468  0.00  0.00    -0.052 C 
ATOM     27  H   LIG d   1       2.171  -0.885  -7.239  0.00  0.00     0.027 H 
ATOM     28  H   LIG d   1       3.116   0.501  -6.645  0.00  0.00     0.027 H 
BRANCH  26  29
ATOM     29  C   LIG d   1       2.668   0.565  -8.752  0.00  0.00    -0.056 C 
ATOM     30  H   LIG d   1       3.308   0.208  -9.558  0.00  0.00     0.026 H 
ATOM     31  H   LIG d   1       1.623   0.406  -9.019  0.00  0.00     0.026 H 
BRANCH  29  32
ATOM     32  C   LIG d   1       2.915   2.058  -8.527  0.00  0.00    -0.065 C 
ATOM     33  H   LIG d   1       3.876   2.337  -8.959  0.00  0.00     0.023 H 
ATOM     34  H   LIG d   1       2.121   2.635  -9.003  0.00  0.00     0.023 H 
ATOM     35  H   LIG d   1       2.924   2.268  -7.457  0.00  0.00     0.023 H 
ENDBRANCH  29  32
ENDBRANCH  26  29
ENDBRANCH  23  26
ENDBRANCH  20  23
ENDBRANCH   1  20
BRANCH   2  36
ATOM     36  C   LIG d   1       3.909  -0.975  -3.664  0.00  0.00     0.224 C 
ATOM     37  H   LIG d   1       3.546  -1.732  -4.360  0.00  0.00     0.057 H 
BRANCH  36  38
ATOM     38  C   LIG d   1       4.460  -1.658  -2.410  0.00  0.00     0.409 C 
ATOM     39  F   LIG d   1       5.783  -2.050  -2.637  0.00  0.00    -0.170 F 
ATOM     40  F   LIG d   1       4.418  -0.763  -1.335  0.00  0.00    -0.170 F 
ATOM     41  F   LIG d   1       3.684  -2.782  -2.111  0.00  0.00    -0.170 F 
ENDBRANCH  36  38
BRANCH  36  42
ATOM     42  C   LIG d   1       2.758  -0.045  -3.275  0.00  0.00     0.409 C 
ATOM     43  F   LIG d   1       3.201   0.865  -2.309  0.00  0.00    -0.170 F 
ATOM     44  F   LIG d   1       2.320   0.652  -4.405  0.00  0.00    -0.170 F 
ATOM     45  F   LIG d   1       1.703  -0.801  -2.755  0.00  0.00    -0.170 F 
ENDBRANCH  36  42
ENDBRANCH   2  36
TORSDOF 13
ENDMDL
MODEL 7
REMARK VINA RESULT:      -5.4      1.851      3.806
REMARK  13 active torsions:
REMARK  status: ('A' for Active; 'I' for Inactive)
REMARK    1  A    between atoms: C_1  and  C_2 
REMARK    2  A    between atoms: C_2  and  C_3 
REMARK    3  A    between atoms: C_3  and  C_4 
REMARK    4  A    between atoms: C_4  and  C_5 
REMARK    5  A    between atoms: C_5  and  N_6 
REMARK    6  A    between atoms: N_6  and  C_7 
REMARK       I    between atoms: N_6  and  C_12 
REMARK    7  A    between atoms: C_7  and  C_8 
REMARK    8  A    between atoms: C_8  and  C_9 
REMARK    9  A    between atoms: C_9  and  C_10 
REMARK   10  A    between atoms: C_10  and  C_11 
REMARK   11  A    between atoms: C_12  and  C_14 
REMARK   12  A    between atoms: C_14  and  C_15 
REMARK   13  A    between atoms: C_14  and  C_19 
ROOT
ATOM      1  N   LIG d   1       5.302  -0.482  -5.766  0.00  0.00    -0.301 N 
ATOM      2  C   LIG d   1       5.061  -0.228  -4.465  0.00  0.00     0.236 C 
ATOM      3  O   LIG d   1       5.733   0.588  -3.871  0.00  0.00    -0.275 OA
ENDROOT
BRANCH   1   4
ATOM      4  C   LIG d   1       6.448   0.142  -6.433  0.00  0.00     0.015 C 
ATOM      5  H   LIG d   1       7.292   0.182  -5.744  0.00  0.00     0.046 H 
ATOM      6  H   LIG d   1       6.182   1.153  -6.742  0.00  0.00     0.046 H 
BRANCH   4   7
ATOM      7  C   LIG d   1       6.832  -0.682  -7.664  0.00  0.00    -0.037 C 
ATOM      8  H   LIG d   1       6.184  -1.556  -7.733  0.00  0.00     0.028 H 
ATOM      9  H   LIG d   1       7.869  -1.007  -7.575  0.00  0.00     0.028 H 
BRANCH   7  10
ATOM     10  C   LIG d   1       6.672   0.174  -8.922  0.00  0.00    -0.052 C 
ATOM     11  H   LIG d   1       5.842  -0.207  -9.517  0.00  0.00     0.027 H 
ATOM     12  H   LIG d   1       7.590   0.131  -9.508  0.00  0.00     0.027 H 
BRANCH  10  13
ATOM     13  C   LIG d   1       6.390   1.623  -8.520  0.00  0.00    -0.056 C 
ATOM     14  H   LIG d   1       7.237   2.248  -8.799  0.00  0.00     0.026 H 
ATOM     15  H   LIG d   1       6.236   1.678  -7.443  0.00  0.00     0.026 H 
BRANCH  13  16
ATOM     16  C   LIG d   1       5.133   2.115  -9.240  0.00  0.00    -0.065 C 
ATOM     17  H   LIG d   1       4.317   2.213  -8.523  0.00  0.00     0.023 H 
ATOM     18  H   LIG d   1       5.333   3.085  -9.696  0.00  0.00     0.023 H 
ATOM     19  H   LIG d   1       4.853   1.400 -10.014  0.00  0.00     0.023 H 
ENDBRANCH  13  16
ENDBRANCH  10  13
ENDBRANCH   7  10
ENDBRANCH   4   7
ENDBRANCH   1   4
BRANCH   1  20
ATOM     20  C   LIG d   1       4.420  -1.381  -6.514  0.00  0.00     0.015 C 
ATOM     21  H   LIG d   1       5.009  -1.957  -7.227  0.00  0.00     0.046 H 
ATOM     22  H   LIG d   1       3.921  -2.060  -5.823  0.00  0.00     0.046 H 
BRANCH  20  23
ATOM     23  C   LIG d   1       3.372  -0.558  -7.266  0.00  0.00    -0.037 C 
ATOM     24  H   LIG d   1       2.450  -0.523  -6.684  0.00  0.00     0.028 H 
ATOM     25  H   LIG d   1       3.744   0.455  -7.416  0.00  0.00     0.028 H 
BRANCH  23  26
ATOM     26  C   LIG d   1       3.093  -1.206  -8.624  0.00  0.00    -0.052 C 
ATOM     27  H   LIG d   1       4.036  -1.404  -9.132  0.00  0.00     0.027 H 
ATOM     28  H   LIG d   1       2.555  -2.142  -8.477  0.00  0.00     0.027 H 
BRANCH  26  29
ATOM     29  C   LIG d   1       2.245  -0.258  -9.476  0.00  0.00    -0.056 C 
ATOM     30  H   LIG d   1       1.205  -0.586  -9.456  0.00  0.00     0.026 H 
ATOM     31  H   LIG d   1       2.315   0.752  -9.074  0.00  0.00     0.026 H 
BRANCH  29  32
ATOM     32  C   LIG d   1       2.757  -0.272 -10.917  0.00  0.00    -0.065 C 
ATOM     33  H   LIG d   1       3.818  -0.025 -10.928  0.00  0.00     0.023 H 
ATOM     34  H   LIG d   1       2.610  -1.264 -11.346  0.00  0.00     0.023 H 
ATOM     35  H   LIG d   1       2.207   0.463 -11.506  0.00  0.00     0.023 H 
ENDBRANCH  29  32
ENDBRANCH  26  29
ENDBRANCH  23  26
ENDBRANCH  20  23
ENDBRANCH   1  20
BRANCH   2  36
ATOM     36  C   LIG d   1       3.954  -0.958  -3.748  0.00  0.00     0.224 C 
ATOM     37  H   LIG d   1       3.519  -1.703  -4.414  0.00  0.00     0.057 H 
BRANCH  36  38
ATOM     38  C   LIG d   1       4.522  -1.653  -2.508  0.00  0.00     0.409 C 
ATOM     39  F   LIG d   1       5.829  -2.075  -2.768  0.00  0.00    -0.170 F 
ATOM     40  F   LIG d   1       4.526  -0.757  -1.433  0.00  0.00    -0.170 F 
ATOM     41  F   LIG d   1       3.728  -2.760  -2.189  0.00  0.00    -0.170 F 
ENDBRANCH  36  38
BRANCH  36  42
ATOM     42  C   LIG d   1       2.875   0.040  -3.324  0.00  0.00     0.409 C 
ATOM     43  F   LIG d   1       1.817  -0.647  -2.717  0.00  0.00    -0.170 F 
ATOM     44  F   LIG d   1       3.418   0.956  -2.417  0.00  0.00    -0.170 F 
ATOM     45  F   LIG d   1       2.403   0.723  -4.449  0.00  0.00    -0.170 F 
ENDBRANCH  36  42
ENDBRANCH   2  36
TORSDOF 13
ENDMDL
MODEL 8
REMARK VINA RESULT:      -5.4      1.513      4.587
REMARK  13 active torsions:
REMARK  status: ('A' for Active; 'I' for Inactive)
REMARK    1  A    between atoms: C_1  and  C_2 
REMARK    2  A    between atoms: C_2  and  C_3 
REMARK    3  A    between atoms: C_3  and  C_4 
REMARK    4  A    between atoms: C_4  and  C_5 
REMARK    5  A    between atoms: C_5  and  N_6 
REMARK    6  A    between atoms: N_6  and  C_7 
REMARK       I    between atoms: N_6  and  C_12 
REMARK    7  A    between atoms: C_7  and  C_8 
REMARK    8  A    between atoms: C_8  and  C_9 
REMARK    9  A    between atoms: C_9  and  C_10 
REMARK   10  A    between atoms: C_10  and  C_11 
REMARK   11  A    between atoms: C_12  and  C_14 
REMARK   12  A    between atoms: C_14  and  C_15 
REMARK   13  A    between atoms: C_14  and  C_19 
ROOT
ATOM      1  N   LIG d   1       5.420  -0.725  -5.572  0.00  0.00    -0.301 N 
ATOM      2  C   LIG d   1       5.039  -0.308  -4.350  0.00  0.00     0.236 C 
ATOM      3  O   LIG d   1       5.604   0.627  -3.823  0.00  0.00    -0.275 OA
ENDROOT
BRANCH   1   4
ATOM      4  C   LIG d   1       6.591  -0.125  -6.218  0.00  0.00     0.015 C 
ATOM      5  H   LIG d   1       6.976   0.682  -5.595  0.00  0.00     0.046 H 
ATOM      6  H   LIG d   1       6.305   0.272  -7.192  0.00  0.00     0.046 H 
BRANCH   4   7
ATOM      7  C   LIG d   1       7.675  -1.189  -6.400  0.00  0.00    -0.037 C 
ATOM      8  H   LIG d   1       8.281  -0.945  -7.273  0.00  0.00     0.028 H 
ATOM      9  H   LIG d   1       7.208  -2.164  -6.544  0.00  0.00     0.028 H 
BRANCH   7  10
ATOM     10  C   LIG d   1       8.565  -1.230  -5.156  0.00  0.00    -0.052 C 
ATOM     11  H   LIG d   1       8.344  -0.371  -4.523  0.00  0.00     0.027 H 
ATOM     12  H   LIG d   1       9.611  -1.198  -5.459  0.00  0.00     0.027 H 
BRANCH  10  13
ATOM     13  C   LIG d   1       8.296  -2.520  -4.379  0.00  0.00    -0.056 C 
ATOM     14  H   LIG d   1       7.544  -2.332  -3.613  0.00  0.00     0.026 H 
ATOM     15  H   LIG d   1       9.218  -2.859  -3.908  0.00  0.00     0.026 H 
BRANCH  13  16
ATOM     16  C   LIG d   1       7.789  -3.597  -5.340  0.00  0.00    -0.065 C 
ATOM     17  H   LIG d   1       6.755  -3.384  -5.612  0.00  0.00     0.023 H 
ATOM     18  H   LIG d   1       8.407  -3.603  -6.238  0.00  0.00     0.023 H 
ATOM     19  H   LIG d   1       7.842  -4.572  -4.854  0.00  0.00     0.023 H 
ENDBRANCH  13  16
ENDBRANCH  10  13
ENDBRANCH   7  10
ENDBRANCH   4   7
ENDBRANCH   1   4
BRANCH   1  20
ATOM     20  C   LIG d   1       4.666  -1.778  -6.257  0.00  0.00     0.015 C 
ATOM     21  H   LIG d   1       5.279  -2.676  -6.327  0.00  0.00     0.046 H 
ATOM     22  H   LIG d   1       3.759  -1.999  -5.696  0.00  0.00     0.046 H 
BRANCH  20  23
ATOM     23  C   LIG d   1       4.293  -1.305  -7.664  0.00  0.00    -0.037 C 
ATOM     24  H   LIG d   1       5.182  -0.924  -8.167  0.00  0.00     0.028 H 
ATOM     25  H   LIG d   1       3.886  -2.142  -8.232  0.00  0.00     0.028 H 
BRANCH  23  26
ATOM     26  C   LIG d   1       3.244  -0.195  -7.568  0.00  0.00    -0.052 C 
ATOM     27  H   LIG d   1       2.250  -0.624  -7.680  0.00  0.00     0.027 H 
ATOM     28  H   LIG d   1       3.322   0.296  -6.598  0.00  0.00     0.027 H 
BRANCH  26  29
ATOM     29  C   LIG d   1       3.486   0.830  -8.679  0.00  0.00    -0.056 C 
ATOM     30  H   LIG d   1       4.555   1.014  -8.777  0.00  0.00     0.026 H 
ATOM     31  H   LIG d   1       3.095   0.445  -9.620  0.00  0.00     0.026 H 
BRANCH  29  32
ATOM     32  C   LIG d   1       2.774   2.138  -8.327  0.00  0.00    -0.065 C 
ATOM     33  H   LIG d   1       3.514   2.917  -8.145  0.00  0.00     0.023 H 
ATOM     34  H   LIG d   1       2.129   2.435  -9.156  0.00  0.00     0.023 H 
ATOM     35  H   LIG d   1       2.170   1.994  -7.431  0.00  0.00     0.023 H 
ENDBRANCH  29  32
ENDBRANCH  26  29
ENDBRANCH  23  26
ENDBRANCH  20  23
ENDBRANCH   1  20
BRANCH   2  36
ATOM     36  C   LIG d   1       3.908  -1.003  -3.635  0.00  0.00     0.224 C 
ATOM     37  H   LIG d   1       3.499  -1.784  -4.277  0.00  0.00     0.057 H 
BRANCH  36  38
ATOM     38  C   LIG d   1       4.431  -1.629  -2.340  0.00  0.00     0.409 C 
ATOM     39  F   LIG d   1       5.740  -2.080  -2.537  0.00  0.00    -0.170 F 
ATOM     40  F   LIG d   1       4.416  -0.672  -1.320  0.00  0.00    -0.170 F 
ATOM     41  F   LIG d   1       3.615  -2.707  -1.980  0.00  0.00    -0.170 F 
ENDBRANCH  36  38
BRANCH  36  42
ATOM     42  C   LIG d   1       2.813   0.012  -3.305  0.00  0.00     0.409 C 
ATOM     43  F   LIG d   1       1.700  -0.656  -2.780  0.00  0.00    -0.170 F 
ATOM     44  F   LIG d   1       3.294   0.927  -2.362  0.00  0.00    -0.170 F 
ATOM     45  F   LIG d   1       2.441   0.694  -4.467  0.00  0.00    -0.170 F 
ENDBRANCH  36  42
ENDBRANCH   2  36
TORSDOF 13
ENDMDL
MODEL 9
REMARK VINA RESULT:      -5.1      1.837      3.971
REMARK  13 active torsions:
REMARK  status: ('A' for Active; 'I' for Inactive)
REMARK    1  A    between atoms: C_1  and  C_2 
REMARK    2  A    between atoms: C_2  and  C_3 
REMARK    3  A    between atoms: C_3  and  C_4 
REMARK    4  A    between atoms: C_4  and  C_5 
REMARK    5  A    between atoms: C_5  and  N_6 
REMARK    6  A    between atoms: N_6  and  C_7 
REMARK       I    between atoms: N_6  and  C_12 
REMARK    7  A    between atoms: C_7  and  C_8 
REMARK    8  A    between atoms: C_8  and  C_9 
REMARK    9  A    between atoms: C_9  and  C_10 
REMARK   10  A    between atoms: C_10  and  C_11 
REMARK   11  A    between atoms: C_12  and  C_14 
REMARK   12  A    between atoms: C_14  and  C_15 
REMARK   13  A    between atoms: C_14  and  C_19 
ROOT
ATOM      1  N   LIG d   1       4.591  -1.683  -5.889  0.00  0.00    -0.301 N 
ATOM      2  C   LIG d   1       4.362  -1.730  -4.562  0.00  0.00     0.236 C 
ATOM      3  O   LIG d   1       4.205  -2.798  -4.010  0.00  0.00    -0.275 OA
ENDROOT
BRANCH   1   4
ATOM      4  C   LIG d   1       4.537  -2.913  -6.684  0.00  0.00     0.015 C 
ATOM      5  H   LIG d   1       3.920  -2.747  -7.568  0.00  0.00     0.046 H 
ATOM      6  H   LIG d   1       4.105  -3.715  -6.085  0.00  0.00     0.046 H 
BRANCH   4   7
ATOM      7  C   LIG d   1       5.951  -3.304  -7.116  0.00  0.00    -0.037 C 
ATOM      8  H   LIG d   1       6.256  -4.208  -6.588  0.00  0.00     0.028 H 
ATOM      9  H   LIG d   1       6.642  -2.495  -6.877  0.00  0.00     0.028 H 
BRANCH   7  10
ATOM     10  C   LIG d   1       5.971  -3.562  -8.624  0.00  0.00    -0.052 C 
ATOM     11  H   LIG d   1       4.958  -3.756  -8.973  0.00  0.00     0.027 H 
ATOM     12  H   LIG d   1       6.600  -4.427  -8.835  0.00  0.00     0.027 H 
BRANCH  10  13
ATOM     13  C   LIG d   1       6.534  -2.335  -9.344  0.00  0.00    -0.056 C 
ATOM     14  H   LIG d   1       7.510  -2.577  -9.765  0.00  0.00     0.026 H 
ATOM     15  H   LIG d   1       6.636  -1.514  -8.637  0.00  0.00     0.026 H 
BRANCH  13  16
ATOM     16  C   LIG d   1       5.581  -1.923 -10.469  0.00  0.00    -0.065 C 
ATOM     17  H   LIG d   1       6.035  -1.124 -11.056  0.00  0.00     0.023 H 
ATOM     18  H   LIG d   1       5.388  -2.782 -11.113  0.00  0.00     0.023 H 
ATOM     19  H   LIG d   1       4.643  -1.571 -10.040  0.00  0.00     0.023 H 
ENDBRANCH  13  16
ENDBRANCH  10  13
ENDBRANCH   7  10
ENDBRANCH   4   7
ENDBRANCH   1   4
BRANCH   1  20
ATOM     20  C   LIG d   1       4.894  -0.405  -6.536  0.00  0.00     0.015 C 
ATOM     21  H   LIG d   1       4.781   0.404  -5.815  0.00  0.00     0.046 H 
ATOM     22  H   LIG d   1       5.918  -0.419  -6.909  0.00  0.00     0.046 H 
BRANCH  20  23
ATOM     23  C   LIG d   1       3.929  -0.183  -7.704  0.00  0.00    -0.037 C 
ATOM     24  H   LIG d   1       4.497   0.061  -8.602  0.00  0.00     0.028 H 
ATOM     25  H   LIG d   1       3.352  -1.091  -7.875  0.00  0.00     0.028 H 
BRANCH  23  26
ATOM     26  C   LIG d   1       2.981   0.970  -7.370  0.00  0.00    -0.052 C 
ATOM     27  H   LIG d   1       1.997   0.572  -7.126  0.00  0.00     0.027 H 
ATOM     28  H   LIG d   1       3.370   1.525  -6.516  0.00  0.00     0.027 H 
BRANCH  26  29
ATOM     29  C   LIG d   1       2.869   1.903  -8.578  0.00  0.00    -0.056 C 
ATOM     30  H   LIG d   1       2.237   1.441  -9.336  0.00  0.00     0.026 H 
ATOM     31  H   LIG d   1       2.428   2.850  -8.266  0.00  0.00     0.026 H 
BRANCH  29  32
ATOM     32  C   LIG d   1       4.262   2.154  -9.158  0.00  0.00    -0.065 C 
ATOM     33  H   LIG d   1       4.175   2.758 -10.062  0.00  0.00     0.023 H 
ATOM     34  H   LIG d   1       4.872   2.682  -8.425  0.00  0.00     0.023 H 
ATOM     35  H   LIG d   1       4.731   1.201  -9.402  0.00  0.00     0.023 H 
ENDBRANCH  29  32
ENDBRANCH  26  29
ENDBRANCH  23  26
ENDBRANCH  20  23
ENDBRANCH   1  20
BRANCH   2  36
ATOM     36  C   LIG d   1       4.302  -0.453  -3.763  0.00  0.00     0.224 C 
ATOM     37  H   LIG d   1       4.593   0.385  -4.395  0.00  0.00     0.057 H 
BRANCH  36  38
ATOM     38  C   LIG d   1       2.875  -0.237  -3.254  0.00  0.00     0.409 C 
ATOM     39  F   LIG d   1       2.857   0.837  -2.359  0.00  0.00    -0.170 F 
ATOM     40  F   LIG d   1       2.032   0.042  -4.335  0.00  0.00    -0.170 F 
ATOM     41  F   LIG d   1       2.431  -1.394  -2.604  0.00  0.00    -0.170 F 
ENDBRANCH  36  38
BRANCH  36  42
ATOM     42  C   LIG d   1       5.258  -0.551  -2.573  0.00  0.00     0.409 C 
ATOM     43  F   LIG d   1       6.411  -1.246  -2.956  0.00  0.00    -0.170 F 
ATOM     44  F   LIG d   1       5.610   0.736  -2.151  0.00  0.00    -0.170 F 
ATOM     45  F   LIG d   1       4.631  -1.230  -1.524  0.00  0.00    -0.170 F 
ENDBRANCH  36  42
ENDBRANCH   2  36
TORSDOF 13
ENDMDL
