MODEL 1
REMARK VINA RESULT:      -7.6      0.000      0.000
REMARK  10 active torsions:
REMARK  status: ('A' for Active; 'I' for Inactive)
REMARK    1  A    between atoms: C_1  and  C_2 
REMARK    2  A    between atoms: C_11  and  O_13 
REMARK    3  A    between atoms: O_13  and  C_14 
REMARK    4  A    between atoms: C_14  and  C_16 
REMARK    5  A    between atoms: C_16  and  C_18 
REMARK    6  A    between atoms: C_16  and  N_29 
REMARK    7  A    between atoms: C_18  and  C_19 
REMARK       I    between atoms: N_29  and  C_30 
REMARK    8  A    between atoms: C_30  and  O_32 
REMARK    9  A    between atoms: O_32  and  C_33 
REMARK   10  A    between atoms: C_33  and  C_34 
ROOT
ATOM      1  C   LIG d   1       4.412   0.554  -9.118  0.00  0.00     0.128 C 
ATOM      2  H   LIG d   1       4.214  -0.512  -9.006  0.00  0.00     0.062 H 
ENDROOT
BRANCH   1   3
ATOM      3  C   LIG d   1       5.883   0.769  -9.363  0.00  0.00     0.333 C 
ATOM      4  O   LIG d   1       6.322   1.891  -9.461  0.00  0.00    -0.248 OA
BRANCH   3   5
ATOM      5  O   LIG d   1       6.707  -0.286  -9.474  0.00  0.00    -0.423 OA
BRANCH   5   6
ATOM      6  C   LIG d   1       6.157  -1.527  -9.481  0.00  0.00     0.153 A 
ATOM      7  C   LIG d   1       6.200  -2.296 -10.642  0.00  0.00     0.084 A 
ATOM      8  C   LIG d   1       5.651  -3.546 -10.665  0.00  0.00    -0.029 A 
ATOM      9 CL   LIG d   1       6.958  -1.661 -12.070  0.00  0.00    -0.080 Cl
ATOM     10  C   LIG d   1       5.041  -4.059  -9.515  0.00  0.00     0.022 A 
ATOM     11  H   LIG d   1       5.688  -4.139 -11.568  0.00  0.00     0.064 H 
ATOM     12  C   LIG d   1       4.443  -5.395  -9.510  0.00  0.00    -0.033 A 
ATOM     13  C   LIG d   1       4.988  -3.284  -8.341  0.00  0.00     0.143 A 
ATOM     14  C   LIG d   1       3.869  -5.838  -8.361  0.00  0.00     0.026 A 
ATOM     15  C   LIG d   1       3.858  -5.010  -7.219  0.00  0.00     0.338 A 
ATOM     16  H   LIG d   1       3.423  -6.820  -8.322  0.00  0.00     0.069 H 
ATOM     17  O   LIG d   1       3.341  -5.419  -6.195  0.00  0.00    -0.245 OA
ATOM     18  O   LIG d   1       4.403  -3.783  -7.231  0.00  0.00    -0.422 OA
ATOM     19  C   LIG d   1       5.545  -2.014  -8.337  0.00  0.00     0.025 A 
ATOM     20  H   LIG d   1       5.516  -1.412  -7.442  0.00  0.00     0.069 H 
BRANCH  12  21
ATOM     21  C   LIG d   1       4.468  -6.260 -10.744  0.00  0.00    -0.039 C 
ATOM     22  H   LIG d   1       3.698  -5.924 -11.439  0.00  0.00     0.028 H 
ATOM     23  H   LIG d   1       5.445  -6.186 -11.220  0.00  0.00     0.028 H 
ATOM     24  H   LIG d   1       4.278  -7.296 -10.464  0.00  0.00     0.028 H 
ENDBRANCH  12  21
ENDBRANCH   5   6
ENDBRANCH   3   5
ENDBRANCH   1   3
BRANCH   1  25
ATOM     25  C   LIG d   1       3.613   1.099 -10.303  0.00  0.00     0.003 C 
ATOM     26  H   LIG d   1       2.629   1.419  -9.961  0.00  0.00     0.034 H 
ATOM     27  H   LIG d   1       4.141   1.948 -10.738  0.00  0.00     0.034 H 
BRANCH  25  28
ATOM     28  C   LIG d   1       3.456   0.019 -11.342  0.00  0.00    -0.020 A 
ATOM     29  C   LIG d   1       2.745  -1.251 -11.179  0.00  0.00     0.003 A 
ATOM     30  C   LIG d   1       2.864  -1.925 -12.408  0.00  0.00     0.047 A 
ATOM     31  C   LIG d   1       2.042  -1.841 -10.127  0.00  0.00    -0.052 A 
ATOM     32  N   LIG d   1       3.604  -1.117 -13.243  0.00  0.00    -0.360 N 
ATOM     33  C   LIG d   1       2.276  -3.176 -12.560  0.00  0.00    -0.038 A 
ATOM     34  C   LIG d   1       3.947   0.036 -12.592  0.00  0.00     0.006 A 
ATOM     35  H   LIG d   1       3.844  -1.334 -14.158  0.00  0.00     0.165 HD
ATOM     36  H   LIG d   1       4.527   0.840 -13.020  0.00  0.00     0.081 H 
ATOM     37  C   LIG d   1       1.596  -3.744 -11.505  0.00  0.00    -0.060 A 
ATOM     38  H   LIG d   1       2.363  -3.706 -13.497  0.00  0.00     0.064 H 
ATOM     39  C   LIG d   1       1.477  -3.075 -10.296  0.00  0.00    -0.061 A 
ATOM     40  H   LIG d   1       1.143  -4.718 -11.622  0.00  0.00     0.062 H 
ATOM     41  H   LIG d   1       0.933  -3.530  -9.481  0.00  0.00     0.062 H 
ATOM     42  H   LIG d   1       1.948  -1.326  -9.182  0.00  0.00     0.062 H 
ENDBRANCH  25  28
ENDBRANCH   1  25
BRANCH   1  43
ATOM     43  N   LIG d   1       4.013   1.255  -7.895  0.00  0.00    -0.268 N 
ATOM     44  C   LIG d   1       3.221   0.642  -6.994  0.00  0.00     0.401 C 
ATOM     45  O   LIG d   1       2.837  -0.494  -7.195  0.00  0.00    -0.227 OA
ATOM     46  H   LIG d   1       4.319   2.162  -7.734  0.00  0.00     0.153 HD
BRANCH  44  47
ATOM     47  O   LIG d   1       2.854   1.286  -5.870  0.00  0.00    -0.446 OA
BRANCH  47  48
ATOM     48  C   LIG d   1       2.089   0.545  -4.918  0.00  0.00     0.119 C 
ATOM     49  H   LIG d   1       1.247   1.149  -4.580  0.00  0.00     0.075 H 
ATOM     50  H   LIG d   1       1.718  -0.369  -5.383  0.00  0.00     0.075 H 
BRANCH  48  51
ATOM     51  C   LIG d   1       2.959   0.191  -3.740  0.00  0.00    -0.010 A 
ATOM     52  C   LIG d   1       3.585   1.191  -3.018  0.00  0.00    -0.055 A 
ATOM     53  C   LIG d   1       4.379   0.867  -1.934  0.00  0.00    -0.061 A 
ATOM     54  H   LIG d   1       3.449   2.225  -3.299  0.00  0.00     0.062 H 
ATOM     55  C   LIG d   1       4.557  -0.457  -1.578  0.00  0.00    -0.062 A 
ATOM     56  H   LIG d   1       4.864   1.648  -1.367  0.00  0.00     0.062 H 
ATOM     57  C   LIG d   1       3.936  -1.457  -2.303  0.00  0.00    -0.061 A 
ATOM     58  H   LIG d   1       5.180  -0.710  -0.733  0.00  0.00     0.062 H 
ATOM     59  C   LIG d   1       3.138  -1.133  -3.384  0.00  0.00    -0.055 A 
ATOM     60  H   LIG d   1       4.074  -2.491  -2.025  0.00  0.00     0.062 H 
ATOM     61  H   LIG d   1       2.652  -1.914  -3.950  0.00  0.00     0.062 H 
ENDBRANCH  48  51
ENDBRANCH  47  48
ENDBRANCH  44  47
ENDBRANCH   1  43
TORSDOF 10
ENDMDL
MODEL 2
REMARK VINA RESULT:      -7.5      3.784      7.560
REMARK  10 active torsions:
REMARK  status: ('A' for Active; 'I' for Inactive)
REMARK    1  A    between atoms: C_1  and  C_2 
REMARK    2  A    between atoms: C_11  and  O_13 
REMARK    3  A    between atoms: O_13  and  C_14 
REMARK    4  A    between atoms: C_14  and  C_16 
REMARK    5  A    between atoms: C_16  and  C_18 
REMARK    6  A    between atoms: C_16  and  N_29 
REMARK    7  A    between atoms: C_18  and  C_19 
REMARK       I    between atoms: N_29  and  C_30 
REMARK    8  A    between atoms: C_30  and  O_32 
REMARK    9  A    between atoms: O_32  and  C_33 
REMARK   10  A    between atoms: C_33  and  C_34 
ROOT
ATOM      1  C   LIG d   1       4.990  -3.532  -6.137  0.00  0.00     0.128 C 
ATOM      2  H   LIG d   1       5.963  -3.209  -6.507  0.00  0.00     0.062 H 
ENDROOT
BRANCH   1   3
ATOM      3  C   LIG d   1       4.623  -4.849  -6.772  0.00  0.00     0.333 C 
ATOM      4  O   LIG d   1       3.468  -5.096  -7.027  0.00  0.00    -0.248 OA
BRANCH   3   5
ATOM      5  O   LIG d   1       5.579  -5.749  -7.053  0.00  0.00    -0.423 OA
BRANCH   5   6
ATOM      6  C   LIG d   1       5.786  -6.757  -6.167  0.00  0.00     0.153 A 
ATOM      7  C   LIG d   1       7.049  -6.939  -5.608  0.00  0.00     0.084 A 
ATOM      8  C   LIG d   1       7.272  -7.949  -4.716  0.00  0.00    -0.029 A 
ATOM      9 CL   LIG d   1       8.348  -5.874  -6.047  0.00  0.00    -0.080 Cl
ATOM     10  C   LIG d   1       6.226  -8.807  -4.362  0.00  0.00     0.022 A 
ATOM     11  H   LIG d   1       8.254  -8.085  -4.285  0.00  0.00     0.064 H 
ATOM     12  C   LIG d   1       6.436  -9.900  -3.409  0.00  0.00    -0.033 A 
ATOM     13  C   LIG d   1       4.950  -8.633  -4.928  0.00  0.00     0.143 A 
ATOM     14  C   LIG d   1       5.378 -10.696  -3.103  0.00  0.00     0.026 A 
ATOM     15  C   LIG d   1       4.125 -10.459  -3.703  0.00  0.00     0.338 A 
ATOM     16  H   LIG d   1       5.498 -11.507  -2.400  0.00  0.00     0.069 H 
ATOM     17  O   LIG d   1       3.185 -11.180  -3.419  0.00  0.00    -0.245 OA
ATOM     18  O   LIG d   1       3.940  -9.460  -4.581  0.00  0.00    -0.422 OA
ATOM     19  C   LIG d   1       4.741  -7.606  -5.837  0.00  0.00     0.025 A 
ATOM     20  H   LIG d   1       3.766  -7.458  -6.275  0.00  0.00     0.069 H 
BRANCH  12  21
ATOM     21  C   LIG d   1       7.785 -10.131  -2.781  0.00  0.00    -0.039 C 
ATOM     22  H   LIG d   1       8.472 -10.526  -3.530  0.00  0.00     0.028 H 
ATOM     23  H   LIG d   1       8.173  -9.189  -2.393  0.00  0.00     0.028 H 
ATOM     24  H   LIG d   1       7.687 -10.847  -1.965  0.00  0.00     0.028 H 
ENDBRANCH  12  21
ENDBRANCH   5   6
ENDBRANCH   3   5
ENDBRANCH   1   3
BRANCH   1  25
ATOM     25  C   LIG d   1       5.050  -3.697  -4.617  0.00  0.00     0.003 C 
ATOM     26  H   LIG d   1       4.047  -3.881  -4.232  0.00  0.00     0.034 H 
ATOM     27  H   LIG d   1       5.696  -4.539  -4.369  0.00  0.00     0.034 H 
BRANCH  25  28
ATOM     28  C   LIG d   1       5.603  -2.440  -3.998  0.00  0.00    -0.020 A 
ATOM     29  C   LIG d   1       4.829  -1.347  -3.404  0.00  0.00     0.003 A 
ATOM     30  C   LIG d   1       5.770  -0.402  -2.957  0.00  0.00     0.047 A 
ATOM     31  C   LIG d   1       3.466  -1.111  -3.224  0.00  0.00    -0.052 A 
ATOM     32  N   LIG d   1       7.018  -0.892  -3.270  0.00  0.00    -0.360 N 
ATOM     33  C   LIG d   1       5.327   0.761  -2.336  0.00  0.00    -0.038 A 
ATOM     34  C   LIG d   1       6.899  -2.106  -3.890  0.00  0.00     0.006 A 
ATOM     35  H   LIG d   1       7.857  -0.444  -3.080  0.00  0.00     0.165 HD
ATOM     36  H   LIG d   1       7.726  -2.708  -4.239  0.00  0.00     0.081 H 
ATOM     37  C   LIG d   1       3.975   0.978  -2.177  0.00  0.00    -0.060 A 
ATOM     38  H   LIG d   1       6.038   1.497  -1.991  0.00  0.00     0.064 H 
ATOM     39  C   LIG d   1       3.051   0.041  -2.616  0.00  0.00    -0.061 A 
ATOM     40  H   LIG d   1       3.631   1.883  -1.698  0.00  0.00     0.062 H 
ATOM     41  H   LIG d   1       1.995   0.223  -2.476  0.00  0.00     0.062 H 
ATOM     42  H   LIG d   1       2.740  -1.835  -3.565  0.00  0.00     0.062 H 
ENDBRANCH  25  28
ENDBRANCH   1  25
BRANCH   1  43
ATOM     43  N   LIG d   1       3.980  -2.527  -6.480  0.00  0.00    -0.268 N 
ATOM     44  C   LIG d   1       4.350  -1.375  -7.074  0.00  0.00     0.401 C 
ATOM     45  O   LIG d   1       5.522  -1.170  -7.325  0.00  0.00    -0.227 OA
ATOM     46  H   LIG d   1       3.045  -2.691  -6.280  0.00  0.00     0.153 HD
BRANCH  44  47
ATOM     47  O   LIG d   1       3.423  -0.452  -7.389  0.00  0.00    -0.446 OA
BRANCH  47  48
ATOM     48  C   LIG d   1       3.718   0.415  -8.486  0.00  0.00     0.119 C 
ATOM     49  H   LIG d   1       3.315   1.408  -8.283  0.00  0.00     0.075 H 
ATOM     50  H   LIG d   1       4.798   0.481  -8.617  0.00  0.00     0.075 H 
BRANCH  48  51
ATOM     51  C   LIG d   1       3.092  -0.133  -9.742  0.00  0.00    -0.010 A 
ATOM     52  C   LIG d   1       3.840  -0.235 -10.901  0.00  0.00    -0.055 A 
ATOM     53  C   LIG d   1       3.267  -0.742 -12.051  0.00  0.00    -0.061 A 
ATOM     54  H   LIG d   1       4.873   0.079 -10.905  0.00  0.00     0.062 H 
ATOM     55  C   LIG d   1       1.942  -1.138 -12.047  0.00  0.00    -0.062 A 
ATOM     56  H   LIG d   1       3.852  -0.826 -12.955  0.00  0.00     0.062 H 
ATOM     57  C   LIG d   1       1.192  -1.032 -10.891  0.00  0.00    -0.061 A 
ATOM     58  H   LIG d   1       1.493  -1.532 -12.947  0.00  0.00     0.062 H 
ATOM     59  C   LIG d   1       1.767  -0.529  -9.739  0.00  0.00    -0.055 A 
ATOM     60  H   LIG d   1       0.158  -1.341 -10.887  0.00  0.00     0.062 H 
ATOM     61  H   LIG d   1       1.181  -0.446  -8.835  0.00  0.00     0.062 H 
ENDBRANCH  48  51
ENDBRANCH  47  48
ENDBRANCH  44  47
ENDBRANCH   1  43
TORSDOF 10
ENDMDL
MODEL 3
REMARK VINA RESULT:      -7.3      3.921      7.368
REMARK  10 active torsions:
REMARK  status: ('A' for Active; 'I' for Inactive)
REMARK    1  A    between atoms: C_1  and  C_2 
REMARK    2  A    between atoms: C_11  and  O_13 
REMARK    3  A    between atoms: O_13  and  C_14 
REMARK    4  A    between atoms: C_14  and  C_16 
REMARK    5  A    between atoms: C_16  and  C_18 
REMARK    6  A    between atoms: C_16  and  N_29 
REMARK    7  A    between atoms: C_18  and  C_19 
REMARK       I    between atoms: N_29  and  C_30 
REMARK    8  A    between atoms: C_30  and  O_32 
REMARK    9  A    between atoms: O_32  and  C_33 
REMARK   10  A    between atoms: C_33  and  C_34 
ROOT
ATOM      1  C   LIG d   1       6.367  -3.574  -6.005  0.00  0.00     0.128 C 
ATOM      2  H   LIG d   1       7.066  -2.742  -6.091  0.00  0.00     0.062 H 
ENDROOT
BRANCH   1   3
ATOM      3  C   LIG d   1       7.125  -4.875  -6.073  0.00  0.00     0.333 C 
ATOM      4  O   LIG d   1       8.108  -5.038  -5.389  0.00  0.00    -0.248 OA
BRANCH   3   5
ATOM      5  O   LIG d   1       6.709  -5.853  -6.894  0.00  0.00    -0.423 OA
BRANCH   5   6
ATOM      6  C   LIG d   1       6.467  -7.076  -6.357  0.00  0.00     0.153 A 
ATOM      7  C   LIG d   1       7.368  -8.117  -6.574  0.00  0.00     0.084 A 
ATOM      8  C   LIG d   1       7.139  -9.353  -6.041  0.00  0.00    -0.029 A 
ATOM      9 CL   LIG d   1       8.791  -7.841  -7.530  0.00  0.00    -0.080 Cl
ATOM     10  C   LIG d   1       5.993  -9.576  -5.270  0.00  0.00     0.022 A 
ATOM     11  H   LIG d   1       7.841 -10.157  -6.212  0.00  0.00     0.064 H 
ATOM     12  C   LIG d   1       5.720 -10.891  -4.686  0.00  0.00    -0.033 A 
ATOM     13  C   LIG d   1       5.076  -8.531  -5.052  0.00  0.00     0.143 A 
ATOM     14  C   LIG d   1       4.592 -11.043  -3.944  0.00  0.00     0.026 A 
ATOM     15  C   LIG d   1       3.721  -9.950  -3.761  0.00  0.00     0.338 A 
ATOM     16  H   LIG d   1       4.364 -11.998  -3.496  0.00  0.00     0.069 H 
ATOM     17  O   LIG d   1       2.714 -10.099  -3.093  0.00  0.00    -0.245 OA
ATOM     18  O   LIG d   1       3.973  -8.748  -4.304  0.00  0.00    -0.422 OA
ATOM     19  C   LIG d   1       5.321  -7.283  -5.607  0.00  0.00     0.025 A 
ATOM     20  H   LIG d   1       4.628  -6.471  -5.442  0.00  0.00     0.069 H 
BRANCH  12  21
ATOM     21  C   LIG d   1       6.667 -12.044  -4.897  0.00  0.00    -0.039 C 
ATOM     22  H   LIG d   1       7.603 -11.845  -4.373  0.00  0.00     0.028 H 
ATOM     23  H   LIG d   1       6.220 -12.958  -4.508  0.00  0.00     0.028 H 
ATOM     24  H   LIG d   1       6.866 -12.160  -5.963  0.00  0.00     0.028 H 
ENDBRANCH  12  21
ENDBRANCH   5   6
ENDBRANCH   3   5
ENDBRANCH   1   3
BRANCH   1  25
ATOM     25  C   LIG d   1       5.628  -3.484  -4.669  0.00  0.00     0.003 C 
ATOM     26  H   LIG d   1       4.554  -3.540  -4.843  0.00  0.00     0.034 H 
ATOM     27  H   LIG d   1       5.936  -4.309  -4.027  0.00  0.00     0.034 H 
BRANCH  25  28
ATOM     28  C   LIG d   1       5.960  -2.176  -3.999  0.00  0.00    -0.020 A 
ATOM     29  C   LIG d   1       5.007  -1.220  -3.430  0.00  0.00     0.003 A 
ATOM     30  C   LIG d   1       5.776  -0.160  -2.917  0.00  0.00     0.047 A 
ATOM     31  C   LIG d   1       3.615  -1.187  -3.320  0.00  0.00    -0.052 A 
ATOM     32  N   LIG d   1       7.097  -0.458  -3.171  0.00  0.00    -0.360 N 
ATOM     33  C   LIG d   1       5.137   0.911  -2.302  0.00  0.00    -0.038 A 
ATOM     34  C   LIG d   1       7.187  -1.661  -3.815  0.00  0.00     0.006 A 
ATOM     35  H   LIG d   1       7.851   0.102  -2.927  0.00  0.00     0.165 HD
ATOM     36  H   LIG d   1       8.109  -2.129  -4.129  0.00  0.00     0.081 H 
ATOM     37  C   LIG d   1       3.762   0.927  -2.213  0.00  0.00    -0.060 A 
ATOM     38  H   LIG d   1       5.715   1.733  -1.907  0.00  0.00     0.064 H 
ATOM     39  C   LIG d   1       3.007  -0.122  -2.717  0.00  0.00    -0.061 A 
ATOM     40  H   LIG d   1       3.266   1.761  -1.739  0.00  0.00     0.062 H 
ATOM     41  H   LIG d   1       1.931  -0.098  -2.632  0.00  0.00     0.062 H 
ATOM     42  H   LIG d   1       3.022  -2.000  -3.712  0.00  0.00     0.062 H 
ENDBRANCH  25  28
ENDBRANCH   1  25
BRANCH   1  43
ATOM     43  N   LIG d   1       5.400  -3.515  -7.104  0.00  0.00    -0.268 N 
ATOM     44  C   LIG d   1       5.380  -2.448  -7.927  0.00  0.00     0.401 C 
ATOM     45  O   LIG d   1       6.165  -1.535  -7.759  0.00  0.00    -0.227 OA
ATOM     46  H   LIG d   1       4.773  -4.243  -7.238  0.00  0.00     0.153 HD
BRANCH  44  47
ATOM     47  O   LIG d   1       4.492  -2.393  -8.937  0.00  0.00    -0.446 OA
BRANCH  47  48
ATOM     48  C   LIG d   1       3.247  -1.745  -8.671  0.00  0.00     0.119 C 
ATOM     49  H   LIG d   1       2.453  -2.237  -9.234  0.00  0.00     0.075 H 
ATOM     50  H   LIG d   1       3.027  -1.804  -7.605  0.00  0.00     0.075 H 
BRANCH  48  51
ATOM     51  C   LIG d   1       3.334  -0.299  -9.087  0.00  0.00    -0.010 A 
ATOM     52  C   LIG d   1       3.851   0.035 -10.324  0.00  0.00    -0.055 A 
ATOM     53  C   LIG d   1       3.927   1.361 -10.707  0.00  0.00    -0.061 A 
ATOM     54  H   LIG d   1       4.193  -0.741 -10.993  0.00  0.00     0.062 H 
ATOM     55  C   LIG d   1       3.494   2.354  -9.848  0.00  0.00    -0.062 A 
ATOM     56  H   LIG d   1       4.328   1.622 -11.676  0.00  0.00     0.062 H 
ATOM     57  C   LIG d   1       2.981   2.021  -8.608  0.00  0.00    -0.061 A 
ATOM     58  H   LIG d   1       3.556   3.391 -10.146  0.00  0.00     0.062 H 
ATOM     59  C   LIG d   1       2.902   0.695  -8.228  0.00  0.00    -0.055 A 
ATOM     60  H   LIG d   1       2.643   2.797  -7.937  0.00  0.00     0.062 H 
ATOM     61  H   LIG d   1       2.500   0.434  -7.259  0.00  0.00     0.062 H 
ENDBRANCH  48  51
ENDBRANCH  47  48
ENDBRANCH  44  47
ENDBRANCH   1  43
TORSDOF 10
ENDMDL
MODEL 4
REMARK VINA RESULT:      -7.2      2.365      4.610
REMARK  10 active torsions:
REMARK  status: ('A' for Active; 'I' for Inactive)
REMARK    1  A    between atoms: C_1  and  C_2 
REMARK    2  A    between atoms: C_11  and  O_13 
REMARK    3  A    between atoms: O_13  and  C_14 
REMARK    4  A    between atoms: C_14  and  C_16 
REMARK    5  A    between atoms: C_16  and  C_18 
REMARK    6  A    between atoms: C_16  and  N_29 
REMARK    7  A    between atoms: C_18  and  C_19 
REMARK       I    between atoms: N_29  and  C_30 
REMARK    8  A    between atoms: C_30  and  O_32 
REMARK    9  A    between atoms: O_32  and  C_33 
REMARK   10  A    between atoms: C_33  and  C_34 
ROOT
ATOM      1  C   LIG d   1       4.265  -0.781  -8.830  0.00  0.00     0.128 C 
ATOM      2  H   LIG d   1       4.311   0.265  -9.133  0.00  0.00     0.062 H 
ENDROOT
BRANCH   1   3
ATOM      3  C   LIG d   1       3.600  -1.590  -9.915  0.00  0.00     0.333 C 
ATOM      4  O   LIG d   1       4.010  -1.529 -11.051  0.00  0.00    -0.248 OA
BRANCH   3   5
ATOM      5  O   LIG d   1       2.553  -2.376  -9.620  0.00  0.00    -0.423 OA
BRANCH   5   6
ATOM      6  C   LIG d   1       2.760  -3.716  -9.554  0.00  0.00     0.153 A 
ATOM      7  C   LIG d   1       2.304  -4.538 -10.583  0.00  0.00     0.084 A 
ATOM      8  C   LIG d   1       2.506  -5.888 -10.531  0.00  0.00    -0.029 A 
ATOM      9 CL   LIG d   1       1.475  -3.842 -11.940  0.00  0.00    -0.080 Cl
ATOM     10  C   LIG d   1       3.175  -6.449  -9.438  0.00  0.00     0.022 A 
ATOM     11  H   LIG d   1       2.150  -6.521 -11.331  0.00  0.00     0.064 H 
ATOM     12  C   LIG d   1       3.403  -7.894  -9.354  0.00  0.00    -0.033 A 
ATOM     13  C   LIG d   1       3.632  -5.625  -8.393  0.00  0.00     0.143 A 
ATOM     14  C   LIG d   1       4.063  -8.377  -8.269  0.00  0.00     0.026 A 
ATOM     15  C   LIG d   1       4.500  -7.492  -7.262  0.00  0.00     0.338 A 
ATOM     16  H   LIG d   1       4.253  -9.436  -8.179  0.00  0.00     0.069 H 
ATOM     17  O   LIG d   1       5.090  -7.938  -6.295  0.00  0.00    -0.245 OA
ATOM     18  O   LIG d   1       4.281  -6.169  -7.341  0.00  0.00    -0.422 OA
ATOM     19  C   LIG d   1       3.413  -4.257  -8.458  0.00  0.00     0.025 A 
ATOM     20  H   LIG d   1       3.764  -3.614  -7.666  0.00  0.00     0.069 H 
BRANCH  12  21
ATOM     21  C   LIG d   1       2.927  -8.818 -10.444  0.00  0.00    -0.039 C 
ATOM     22  H   LIG d   1       2.651  -9.779 -10.010  0.00  0.00     0.028 H 
ATOM     23  H   LIG d   1       2.062  -8.380 -10.940  0.00  0.00     0.028 H 
ATOM     24  H   LIG d   1       3.727  -8.964 -11.170  0.00  0.00     0.028 H 
ENDBRANCH  12  21
ENDBRANCH   5   6
ENDBRANCH   3   5
ENDBRANCH   1   3
BRANCH   1  25
ATOM     25  C   LIG d   1       5.684  -1.308  -8.600  0.00  0.00     0.003 C 
ATOM     26  H   LIG d   1       5.651  -2.387  -8.456  0.00  0.00     0.034 H 
ATOM     27  H   LIG d   1       6.303  -1.074  -9.465  0.00  0.00     0.034 H 
BRANCH  25  28
ATOM     28  C   LIG d   1       6.267  -0.655  -7.373  0.00  0.00    -0.020 A 
ATOM     29  C   LIG d   1       6.493  -1.289  -6.072  0.00  0.00     0.003 A 
ATOM     30  C   LIG d   1       7.054  -0.297  -5.248  0.00  0.00     0.047 A 
ATOM     31  C   LIG d   1       6.273  -2.572  -5.567  0.00  0.00    -0.052 A 
ATOM     32  N   LIG d   1       7.148   0.852  -6.002  0.00  0.00    -0.360 N 
ATOM     33  C   LIG d   1       7.385  -0.609  -3.934  0.00  0.00    -0.038 A 
ATOM     34  C   LIG d   1       6.674   0.620  -7.264  0.00  0.00     0.006 A 
ATOM     35  H   LIG d   1       7.497   1.699  -5.685  0.00  0.00     0.165 HD
ATOM     36  H   LIG d   1       6.635   1.353  -8.056  0.00  0.00     0.081 H 
ATOM     37  C   LIG d   1       7.150  -1.879  -3.453  0.00  0.00    -0.060 A 
ATOM     38  H   LIG d   1       7.813   0.144  -3.289  0.00  0.00     0.064 H 
ATOM     39  C   LIG d   1       6.601  -2.856  -4.270  0.00  0.00    -0.061 A 
ATOM     40  H   LIG d   1       7.404  -2.120  -2.431  0.00  0.00     0.062 H 
ATOM     41  H   LIG d   1       6.430  -3.849  -3.880  0.00  0.00     0.062 H 
ATOM     42  H   LIG d   1       5.844  -3.336  -6.198  0.00  0.00     0.062 H 
ENDBRANCH  25  28
ENDBRANCH   1  25
BRANCH   1  43
ATOM     43  N   LIG d   1       3.493  -0.898  -7.591  0.00  0.00    -0.268 N 
ATOM     44  C   LIG d   1       2.950   0.200  -7.029  0.00  0.00     0.401 C 
ATOM     45  O   LIG d   1       3.101   1.288  -7.551  0.00  0.00    -0.227 OA
ATOM     46  H   LIG d   1       3.372  -1.766  -7.175  0.00  0.00     0.153 HD
BRANCH  44  47
ATOM     47  O   LIG d   1       2.240   0.093  -5.891  0.00  0.00    -0.446 OA
BRANCH  47  48
ATOM     48  C   LIG d   1       2.525   1.038  -4.857  0.00  0.00     0.119 C 
ATOM     49  H   LIG d   1       3.186   1.814  -5.246  0.00  0.00     0.075 H 
ATOM     50  H   LIG d   1       1.596   1.491  -4.513  0.00  0.00     0.075 H 
BRANCH  48  51
ATOM     51  C   LIG d   1       3.199   0.335  -3.706  0.00  0.00    -0.010 A 
ATOM     52  C   LIG d   1       3.042  -1.028  -3.541  0.00  0.00    -0.055 A 
ATOM     53  C   LIG d   1       3.663  -1.673  -2.489  0.00  0.00    -0.061 A 
ATOM     54  H   LIG d   1       2.438  -1.590  -4.238  0.00  0.00     0.062 H 
ATOM     55  C   LIG d   1       4.433  -0.952  -1.594  0.00  0.00    -0.062 A 
ATOM     56  H   LIG d   1       3.545  -2.739  -2.362  0.00  0.00     0.062 H 
ATOM     57  C   LIG d   1       4.585   0.412  -1.755  0.00  0.00    -0.061 A 
ATOM     58  H   LIG d   1       4.916  -1.456  -0.769  0.00  0.00     0.062 H 
ATOM     59  C   LIG d   1       3.968   1.056  -2.811  0.00  0.00    -0.055 A 
ATOM     60  H   LIG d   1       5.187   0.975  -1.057  0.00  0.00     0.062 H 
ATOM     61  H   LIG d   1       4.087   2.122  -2.938  0.00  0.00     0.062 H 
ENDBRANCH  48  51
ENDBRANCH  47  48
ENDBRANCH  44  47
ENDBRANCH   1  43
TORSDOF 10
ENDMDL
MODEL 5
REMARK VINA RESULT:      -7.2      8.510     12.344
REMARK  10 active torsions:
REMARK  status: ('A' for Active; 'I' for Inactive)
REMARK    1  A    between atoms: C_1  and  C_2 
REMARK    2  A    between atoms: C_11  and  O_13 
REMARK    3  A    between atoms: O_13  and  C_14 
REMARK    4  A    between atoms: C_14  and  C_16 
REMARK    5  A    between atoms: C_16  and  C_18 
REMARK    6  A    between atoms: C_16  and  N_29 
REMARK    7  A    between atoms: C_18  and  C_19 
REMARK       I    between atoms: N_29  and  C_30 
REMARK    8  A    between atoms: C_30  and  O_32 
REMARK    9  A    between atoms: O_32  and  C_33 
REMARK   10  A    between atoms: C_33  and  C_34 
ROOT
ATOM      1  C   LIG d   1      10.108   4.156  -4.893  0.00  0.00     0.128 C 
ATOM      2  H   LIG d   1      10.235   4.139  -3.811  0.00  0.00     0.062 H 
ENDROOT
BRANCH   1   3
ATOM      3  C   LIG d   1       9.720   5.546  -5.331  0.00  0.00     0.333 C 
ATOM      4  O   LIG d   1      10.080   5.962  -6.407  0.00  0.00    -0.248 OA
BRANCH   3   5
ATOM      5  O   LIG d   1       8.975   6.320  -4.526  0.00  0.00    -0.423 OA
BRANCH   5   6
ATOM      6  C   LIG d   1       9.574   6.874  -3.441  0.00  0.00     0.153 A 
ATOM      7  C   LIG d   1      10.066   8.176  -3.511  0.00  0.00     0.084 A 
ATOM      8  C   LIG d   1      10.671   8.746  -2.428  0.00  0.00    -0.029 A 
ATOM      9 CL   LIG d   1       9.910   9.078  -4.986  0.00  0.00    -0.080 Cl
ATOM     10  C   LIG d   1      10.797   8.019  -1.239  0.00  0.00     0.022 A 
ATOM     11  H   LIG d   1      11.050   9.756  -2.488  0.00  0.00     0.064 H 
ATOM     12  C   LIG d   1      11.442   8.604  -0.062  0.00  0.00    -0.033 A 
ATOM     13  C   LIG d   1      10.307   6.702  -1.164  0.00  0.00     0.143 A 
ATOM     14  C   LIG d   1      11.529   7.849   1.064  0.00  0.00     0.026 A 
ATOM     15  C   LIG d   1      11.011   6.538   1.071  0.00  0.00     0.338 A 
ATOM     16  H   LIG d   1      11.994   8.252   1.952  0.00  0.00     0.069 H 
ATOM     17  O   LIG d   1      11.095   5.872   2.087  0.00  0.00    -0.245 OA
ATOM     18  O   LIG d   1      10.426   6.004  -0.014  0.00  0.00    -0.422 OA
ATOM     19  C   LIG d   1       9.702   6.135  -2.275  0.00  0.00     0.025 A 
ATOM     20  H   LIG d   1       9.317   5.128  -2.229  0.00  0.00     0.069 H 
BRANCH  12  21
ATOM     21  C   LIG d   1      11.988  10.008  -0.095  0.00  0.00    -0.039 C 
ATOM     22  H   LIG d   1      11.699  10.488  -1.030  0.00  0.00     0.028 H 
ATOM     23  H   LIG d   1      11.585  10.575   0.744  0.00  0.00     0.028 H 
ATOM     24  H   LIG d   1      13.075   9.976  -0.024  0.00  0.00     0.028 H 
ENDBRANCH  12  21
ENDBRANCH   5   6
ENDBRANCH   3   5
ENDBRANCH   1   3
BRANCH   1  25
ATOM     25  C   LIG d   1      11.422   3.758  -5.568  0.00  0.00     0.003 C 
ATOM     26  H   LIG d   1      11.289   2.812  -6.091  0.00  0.00     0.034 H 
ATOM     27  H   LIG d   1      11.714   4.530  -6.279  0.00  0.00     0.034 H 
BRANCH  25  28
ATOM     28  C   LIG d   1      12.497   3.606  -4.522  0.00  0.00    -0.020 A 
ATOM     29  C   LIG d   1      13.178   4.689  -3.809  0.00  0.00     0.003 A 
ATOM     30  C   LIG d   1      14.090   4.068  -2.937  0.00  0.00     0.047 A 
ATOM     31  C   LIG d   1      13.085   6.081  -3.841  0.00  0.00    -0.052 A 
ATOM     32  N   LIG d   1      13.968   2.708  -3.124  0.00  0.00    -0.360 N 
ATOM     33  C   LIG d   1      14.890   4.852  -2.113  0.00  0.00    -0.038 A 
ATOM     34  C   LIG d   1      13.015   2.453  -4.071  0.00  0.00     0.006 A 
ATOM     35  H   LIG d   1      14.481   2.033  -2.653  0.00  0.00     0.165 HD
ATOM     36  H   LIG d   1      12.722   1.468  -4.406  0.00  0.00     0.081 H 
ATOM     37  C   LIG d   1      14.788   6.226  -2.169  0.00  0.00    -0.060 A 
ATOM     38  H   LIG d   1      15.597   4.388  -1.442  0.00  0.00     0.064 H 
ATOM     39  C   LIG d   1      13.884   6.835  -3.027  0.00  0.00    -0.061 A 
ATOM     40  H   LIG d   1      15.412   6.834  -1.531  0.00  0.00     0.062 H 
ATOM     41  H   LIG d   1      13.811   7.912  -3.053  0.00  0.00     0.062 H 
ATOM     42  H   LIG d   1      12.385   6.562  -4.509  0.00  0.00     0.062 H 
ENDBRANCH  25  28
ENDBRANCH   1  25
BRANCH   1  43
ATOM     43  N   LIG d   1       9.055   3.212  -5.276  0.00  0.00    -0.268 N 
ATOM     44  C   LIG d   1       8.437   2.473  -4.334  0.00  0.00     0.401 C 
ATOM     45  O   LIG d   1       8.752   2.591  -3.165  0.00  0.00    -0.227 OA
ATOM     46  H   LIG d   1       8.804   3.118  -6.208  0.00  0.00     0.153 HD
BRANCH  44  47
ATOM     47  O   LIG d   1       7.470   1.605  -4.685  0.00  0.00    -0.446 OA
BRANCH  47  48
ATOM     48  C   LIG d   1       7.572   0.277  -4.169  0.00  0.00     0.119 C 
ATOM     49  H   LIG d   1       7.659  -0.429  -4.996  0.00  0.00     0.075 H 
ATOM     50  H   LIG d   1       8.453   0.201  -3.532  0.00  0.00     0.075 H 
BRANCH  48  51
ATOM     51  C   LIG d   1       6.340  -0.044  -3.363  0.00  0.00    -0.010 A 
ATOM     52  C   LIG d   1       5.626   0.972  -2.755  0.00  0.00    -0.055 A 
ATOM     53  C   LIG d   1       4.494   0.677  -2.019  0.00  0.00    -0.061 A 
ATOM     54  H   LIG d   1       5.952   1.996  -2.858  0.00  0.00     0.062 H 
ATOM     55  C   LIG d   1       4.081  -0.635  -1.882  0.00  0.00    -0.062 A 
ATOM     56  H   LIG d   1       3.934   1.472  -1.548  0.00  0.00     0.062 H 
ATOM     57  C   LIG d   1       4.797  -1.652  -2.485  0.00  0.00    -0.061 A 
ATOM     58  H   LIG d   1       3.197  -0.865  -1.305  0.00  0.00     0.062 H 
ATOM     59  C   LIG d   1       5.926  -1.357  -3.225  0.00  0.00    -0.055 A 
ATOM     60  H   LIG d   1       4.474  -2.677  -2.379  0.00  0.00     0.062 H 
ATOM     61  H   LIG d   1       6.485  -2.151  -3.697  0.00  0.00     0.062 H 
ENDBRANCH  48  51
ENDBRANCH  47  48
ENDBRANCH  44  47
ENDBRANCH   1  43
TORSDOF 10
ENDMDL
MODEL 6
REMARK VINA RESULT:      -7.2      7.618     11.767
REMARK  10 active torsions:
REMARK  status: ('A' for Active; 'I' for Inactive)
REMARK    1  A    between atoms: C_1  and  C_2 
REMARK    2  A    between atoms: C_11  and  O_13 
REMARK    3  A    between atoms: O_13  and  C_14 
REMARK    4  A    between atoms: C_14  and  C_16 
REMARK    5  A    between atoms: C_16  and  C_18 
REMARK    6  A    between atoms: C_16  and  N_29 
REMARK    7  A    between atoms: C_18  and  C_19 
REMARK       I    between atoms: N_29  and  C_30 
REMARK    8  A    between atoms: C_30  and  O_32 
REMARK    9  A    between atoms: O_32  and  C_33 
REMARK   10  A    between atoms: C_33  and  C_34 
ROOT
ATOM      1  C   LIG d   1      10.834   4.199  -2.928  0.00  0.00     0.128 C 
ATOM      2  H   LIG d   1      10.220   4.864  -3.536  0.00  0.00     0.062 H 
ENDROOT
BRANCH   1   3
ATOM      3  C   LIG d   1      12.161   3.979  -3.608  0.00  0.00     0.333 C 
ATOM      4  O   LIG d   1      12.762   2.944  -3.438  0.00  0.00    -0.248 OA
BRANCH   3   5
ATOM      5  O   LIG d   1      12.675   4.931  -4.402  0.00  0.00    -0.423 OA
BRANCH   5   6
ATOM      6  C   LIG d   1      11.869   5.477  -5.348  0.00  0.00     0.153 A 
ATOM      7  C   LIG d   1      11.578   6.839  -5.307  0.00  0.00     0.084 A 
ATOM      8  C   LIG d   1      10.769   7.403  -6.252  0.00  0.00    -0.029 A 
ATOM      9 CL   LIG d   1      12.249   7.827  -4.046  0.00  0.00    -0.080 Cl
ATOM     10  C   LIG d   1      10.228   6.607  -7.268  0.00  0.00     0.022 A 
ATOM     11  H   LIG d   1      10.547   8.460  -6.216  0.00  0.00     0.064 H 
ATOM     12  C   LIG d   1       9.356   7.184  -8.294  0.00  0.00    -0.033 A 
ATOM     13  C   LIG d   1      10.513   5.230  -7.311  0.00  0.00     0.143 A 
ATOM     14  C   LIG d   1       8.866   6.360  -9.256  0.00  0.00     0.026 A 
ATOM     15  C   LIG d   1       9.198   4.989  -9.243  0.00  0.00     0.338 A 
ATOM     16  H   LIG d   1       8.224   6.753 -10.030  0.00  0.00     0.069 H 
ATOM     17  O   LIG d   1       8.753   4.262 -10.111  0.00  0.00    -0.245 OA
ATOM     18  O   LIG d   1       9.993   4.465  -8.295  0.00  0.00    -0.422 OA
ATOM     19  C   LIG d   1      11.332   4.672  -6.340  0.00  0.00     0.025 A 
ATOM     20  H   LIG d   1      11.562   3.618  -6.365  0.00  0.00     0.069 H 
BRANCH  12  21
ATOM     21  C   LIG d   1       9.017   8.651  -8.287  0.00  0.00    -0.039 C 
ATOM     22  H   LIG d   1       9.762   9.200  -8.863  0.00  0.00     0.028 H 
ATOM     23  H   LIG d   1       8.033   8.800  -8.731  0.00  0.00     0.028 H 
ATOM     24  H   LIG d   1       9.011   9.017  -7.259  0.00  0.00     0.028 H 
ENDBRANCH  12  21
ENDBRANCH   5   6
ENDBRANCH   3   5
ENDBRANCH   1   3
BRANCH   1  25
ATOM     25  C   LIG d   1      11.064   4.832  -1.554  0.00  0.00     0.003 C 
ATOM     26  H   LIG d   1      10.635   4.192  -0.783  0.00  0.00     0.034 H 
ATOM     27  H   LIG d   1      12.134   4.943  -1.380  0.00  0.00     0.034 H 
BRANCH  25  28
ATOM     28  C   LIG d   1      10.404   6.186  -1.508  0.00  0.00    -0.020 A 
ATOM     29  C   LIG d   1      10.746   7.293  -0.612  0.00  0.00     0.003 A 
ATOM     30  C   LIG d   1       9.869   8.343  -0.938  0.00  0.00     0.047 A 
ATOM     31  C   LIG d   1      11.693   7.466   0.398  0.00  0.00    -0.052 A 
ATOM     32  N   LIG d   1       9.053   7.891  -1.952  0.00  0.00    -0.360 N 
ATOM     33  C   LIG d   1       9.959   9.546  -0.247  0.00  0.00    -0.038 A 
ATOM     34  C   LIG d   1       9.387   6.604  -2.278  0.00  0.00     0.006 A 
ATOM     35  H   LIG d   1       8.348   8.407  -2.372  0.00  0.00     0.165 HD
ATOM     36  H   LIG d   1       8.904   6.014  -3.042  0.00  0.00     0.081 H 
ATOM     37  C   LIG d   1      10.895   9.692   0.754  0.00  0.00    -0.060 A 
ATOM     38  H   LIG d   1       9.289  10.359  -0.484  0.00  0.00     0.064 H 
ATOM     39  C   LIG d   1      11.761   8.655   1.070  0.00  0.00    -0.061 A 
ATOM     40  H   LIG d   1      10.961  10.625   1.293  0.00  0.00     0.062 H 
ATOM     41  H   LIG d   1      12.495   8.788   1.851  0.00  0.00     0.062 H 
ATOM     42  H   LIG d   1      12.370   6.662   0.650  0.00  0.00     0.062 H 
ENDBRANCH  25  28
ENDBRANCH   1  25
BRANCH   1  43
ATOM     43  N   LIG d   1      10.149   2.914  -2.766  0.00  0.00    -0.268 N 
ATOM     44  C   LIG d   1       9.118   2.594  -3.573  0.00  0.00     0.401 C 
ATOM     45  O   LIG d   1       8.758   3.370  -4.436  0.00  0.00    -0.227 OA
ATOM     46  H   LIG d   1      10.437   2.295  -2.077  0.00  0.00     0.153 HD
BRANCH  44  47
ATOM     47  O   LIG d   1       8.489   1.413  -3.425  0.00  0.00    -0.446 OA
BRANCH  47  48
ATOM     48  C   LIG d   1       7.316   1.200  -4.213  0.00  0.00     0.119 C 
ATOM     49  H   LIG d   1       6.931   2.160  -4.559  0.00  0.00     0.075 H 
ATOM     50  H   LIG d   1       7.564   0.577  -5.073  0.00  0.00     0.075 H 
BRANCH  48  51
ATOM     51  C   LIG d   1       6.268   0.511  -3.378  0.00  0.00    -0.010 A 
ATOM     52  C   LIG d   1       6.170  -0.868  -3.391  0.00  0.00    -0.055 A 
ATOM     53  C   LIG d   1       5.212  -1.500  -2.622  0.00  0.00    -0.061 A 
ATOM     54  H   LIG d   1       6.845  -1.451  -4.001  0.00  0.00     0.062 H 
ATOM     55  C   LIG d   1       4.345  -0.754  -1.846  0.00  0.00    -0.062 A 
ATOM     56  H   LIG d   1       5.138  -2.579  -2.629  0.00  0.00     0.062 H 
ATOM     57  C   LIG d   1       4.439   0.626  -1.836  0.00  0.00    -0.061 A 
ATOM     58  H   LIG d   1       3.594  -1.248  -1.247  0.00  0.00     0.062 H 
ATOM     59  C   LIG d   1       5.400   1.257  -2.603  0.00  0.00    -0.055 A 
ATOM     60  H   LIG d   1       3.762   1.209  -1.231  0.00  0.00     0.062 H 
ATOM     61  H   LIG d   1       5.475   2.335  -2.595  0.00  0.00     0.062 H 
ENDBRANCH  48  51
ENDBRANCH  47  48
ENDBRANCH  44  47
ENDBRANCH   1  43
TORSDOF 10
ENDMDL
MODEL 7
REMARK VINA RESULT:      -7.2      4.171      5.927
REMARK  10 active torsions:
REMARK  status: ('A' for Active; 'I' for Inactive)
REMARK    1  A    between atoms: C_1  and  C_2 
REMARK    2  A    between atoms: C_11  and  O_13 
REMARK    3  A    between atoms: O_13  and  C_14 
REMARK    4  A    between atoms: C_14  and  C_16 
REMARK    5  A    between atoms: C_16  and  C_18 
REMARK    6  A    between atoms: C_16  and  N_29 
REMARK    7  A    between atoms: C_18  and  C_19 
REMARK       I    between atoms: N_29  and  C_30 
REMARK    8  A    between atoms: C_30  and  O_32 
REMARK    9  A    between atoms: O_32  and  C_33 
REMARK   10  A    between atoms: C_33  and  C_34 
ROOT
ATOM      1  C   LIG d   1       5.992  -4.753  -7.011  0.00  0.00     0.128 C 
ATOM      2  H   LIG d   1       5.224  -5.518  -7.120  0.00  0.00     0.062 H 
ENDROOT
BRANCH   1   3
ATOM      3  C   LIG d   1       7.322  -5.410  -6.743  0.00  0.00     0.333 C 
ATOM      4  O   LIG d   1       8.253  -4.750  -6.345  0.00  0.00    -0.248 OA
BRANCH   3   5
ATOM      5  O   LIG d   1       7.473  -6.728  -6.947  0.00  0.00    -0.423 OA
BRANCH   5   6
ATOM      6  C   LIG d   1       7.122  -7.573  -5.943  0.00  0.00     0.153 A 
ATOM      7  C   LIG d   1       8.104  -8.098  -5.106  0.00  0.00     0.084 A 
ATOM      8  C   LIG d   1       7.766  -8.949  -4.092  0.00  0.00    -0.029 A 
ATOM      9 CL   LIG d   1       9.768  -7.668  -5.352  0.00  0.00    -0.080 Cl
ATOM     10  C   LIG d   1       6.425  -9.295  -3.893  0.00  0.00     0.022 A 
ATOM     11  H   LIG d   1       8.532  -9.353  -3.445  0.00  0.00     0.064 H 
ATOM     12  C   LIG d   1       6.034 -10.206  -2.815  0.00  0.00    -0.033 A 
ATOM     13  C   LIG d   1       5.430  -8.773  -4.739  0.00  0.00     0.143 A 
ATOM     14  C   LIG d   1       4.715 -10.500  -2.671  0.00  0.00     0.026 A 
ATOM     15  C   LIG d   1       3.770  -9.936  -3.552  0.00  0.00     0.338 A 
ATOM     16  H   LIG d   1       4.392 -11.165  -1.883  0.00  0.00     0.069 H 
ATOM     17  O   LIG d   1       2.591 -10.207  -3.411  0.00  0.00    -0.245 OA
ATOM     18  O   LIG d   1       4.136  -9.106  -4.542  0.00  0.00    -0.422 OA
ATOM     19  C   LIG d   1       5.791  -7.916  -5.768  0.00  0.00     0.025 A 
ATOM     20  H   LIG d   1       5.036  -7.504  -6.421  0.00  0.00     0.069 H 
BRANCH  12  21
ATOM     21  C   LIG d   1       7.063 -10.796  -1.887  0.00  0.00    -0.039 C 
ATOM     22  H   LIG d   1       7.770 -11.396  -2.462  0.00  0.00     0.028 H 
ATOM     23  H   LIG d   1       7.597  -9.994  -1.378  0.00  0.00     0.028 H 
ATOM     24  H   LIG d   1       6.567 -11.427  -1.149  0.00  0.00     0.028 H 
ENDBRANCH  12  21
ENDBRANCH   5   6
ENDBRANCH   3   5
ENDBRANCH   1   3
BRANCH   1  25
ATOM     25  C   LIG d   1       6.081  -3.932  -8.300  0.00  0.00     0.003 C 
ATOM     26  H   LIG d   1       6.787  -3.114  -8.161  0.00  0.00     0.034 H 
ATOM     27  H   LIG d   1       6.418  -4.571  -9.115  0.00  0.00     0.034 H 
BRANCH  25  28
ATOM     28  C   LIG d   1       4.722  -3.371  -8.631  0.00  0.00    -0.020 A 
ATOM     29  C   LIG d   1       4.273  -1.992  -8.420  0.00  0.00     0.003 A 
ATOM     30  C   LIG d   1       2.945  -1.940  -8.880  0.00  0.00     0.047 A 
ATOM     31  C   LIG d   1       4.874  -0.845  -7.899  0.00  0.00    -0.052 A 
ATOM     32  N   LIG d   1       2.621  -3.203  -9.326  0.00  0.00    -0.360 N 
ATOM     33  C   LIG d   1       2.246  -0.740  -8.812  0.00  0.00    -0.038 A 
ATOM     34  C   LIG d   1       3.691  -4.041  -9.170  0.00  0.00     0.006 A 
ATOM     35  H   LIG d   1       1.761  -3.459  -9.697  0.00  0.00     0.165 HD
ATOM     36  H   LIG d   1       3.704  -5.086  -9.441  0.00  0.00     0.081 H 
ATOM     37  C   LIG d   1       2.856   0.378  -8.285  0.00  0.00    -0.060 A 
ATOM     38  H   LIG d   1       1.224  -0.687  -9.159  0.00  0.00     0.064 H 
ATOM     39  C   LIG d   1       4.167   0.323  -7.835  0.00  0.00    -0.061 A 
ATOM     40  H   LIG d   1       2.310   1.308  -8.229  0.00  0.00     0.062 H 
ATOM     41  H   LIG d   1       4.633   1.210  -7.432  0.00  0.00     0.062 H 
ATOM     42  H   LIG d   1       5.894  -0.881  -7.545  0.00  0.00     0.062 H 
ENDBRANCH  25  28
ENDBRANCH   1  25
BRANCH   1  43
ATOM     43  N   LIG d   1       5.649  -3.871  -5.893  0.00  0.00    -0.268 N 
ATOM     44  C   LIG d   1       4.594  -4.161  -5.106  0.00  0.00     0.401 C 
ATOM     45  O   LIG d   1       3.928  -5.154  -5.323  0.00  0.00    -0.227 OA
ATOM     46  H   LIG d   1       6.181  -3.079  -5.719  0.00  0.00     0.153 HD
BRANCH  44  47
ATOM     47  O   LIG d   1       4.278  -3.352  -4.078  0.00  0.00    -0.446 OA
BRANCH  47  48
ATOM     48  C   LIG d   1       5.281  -2.431  -3.645  0.00  0.00     0.119 C 
ATOM     49  H   LIG d   1       5.782  -2.827  -2.761  0.00  0.00     0.075 H 
ATOM     50  H   LIG d   1       6.011  -2.287  -4.442  0.00  0.00     0.075 H 
BRANCH  48  51
ATOM     51  C   LIG d   1       4.638  -1.110  -3.307  0.00  0.00    -0.010 A 
ATOM     52  C   LIG d   1       3.736  -0.536  -4.183  0.00  0.00    -0.055 A 
ATOM     53  C   LIG d   1       3.143   0.673  -3.871  0.00  0.00    -0.061 A 
ATOM     54  H   LIG d   1       3.491  -1.035  -5.109  0.00  0.00     0.062 H 
ATOM     55  C   LIG d   1       3.460   1.313  -2.687  0.00  0.00    -0.062 A 
ATOM     56  H   LIG d   1       2.434   1.119  -4.553  0.00  0.00     0.062 H 
ATOM     57  C   LIG d   1       4.367   0.742  -1.813  0.00  0.00    -0.061 A 
ATOM     58  H   LIG d   1       2.999   2.259  -2.445  0.00  0.00     0.062 H 
ATOM     59  C   LIG d   1       4.956  -0.469  -2.124  0.00  0.00    -0.055 A 
ATOM     60  H   LIG d   1       4.615   1.242  -0.889  0.00  0.00     0.062 H 
ATOM     61  H   LIG d   1       5.664  -0.916  -1.441  0.00  0.00     0.062 H 
ENDBRANCH  48  51
ENDBRANCH  47  48
ENDBRANCH  44  47
ENDBRANCH   1  43
TORSDOF 10
ENDMDL
MODEL 8
REMARK VINA RESULT:      -7.2      4.188      5.991
REMARK  10 active torsions:
REMARK  status: ('A' for Active; 'I' for Inactive)
REMARK    1  A    between atoms: C_1  and  C_2 
REMARK    2  A    between atoms: C_11  and  O_13 
REMARK    3  A    between atoms: O_13  and  C_14 
REMARK    4  A    between atoms: C_14  and  C_16 
REMARK    5  A    between atoms: C_16  and  C_18 
REMARK    6  A    between atoms: C_16  and  N_29 
REMARK    7  A    between atoms: C_18  and  C_19 
REMARK       I    between atoms: N_29  and  C_30 
REMARK    8  A    between atoms: C_30  and  O_32 
REMARK    9  A    between atoms: O_32  and  C_33 
REMARK   10  A    between atoms: C_33  and  C_34 
ROOT
ATOM      1  C   LIG d   1       5.765  -5.010  -7.253  0.00  0.00     0.128 C 
ATOM      2  H   LIG d   1       4.911  -5.679  -7.351  0.00  0.00     0.062 H 
ENDROOT
BRANCH   1   3
ATOM      3  C   LIG d   1       7.023  -5.823  -7.083  0.00  0.00     0.333 C 
ATOM      4  O   LIG d   1       8.060  -5.277  -6.785  0.00  0.00    -0.248 OA
BRANCH   3   5
ATOM      5  O   LIG d   1       6.993  -7.153  -7.262  0.00  0.00    -0.423 OA
BRANCH   5   6
ATOM      6  C   LIG d   1       6.452  -7.917  -6.279  0.00  0.00     0.153 A 
ATOM      7  C   LIG d   1       5.193  -8.488  -6.459  0.00  0.00     0.084 A 
ATOM      8  C   LIG d   1       4.636  -9.259  -5.479  0.00  0.00    -0.029 A 
ATOM      9 CL   LIG d   1       4.327  -8.216  -7.939  0.00  0.00    -0.080 Cl
ATOM     10  C   LIG d   1       5.334  -9.478  -4.286  0.00  0.00     0.022 A 
ATOM     11  H   LIG d   1       3.661  -9.699  -5.624  0.00  0.00     0.064 H 
ATOM     12  C   LIG d   1       4.762 -10.300  -3.218  0.00  0.00    -0.033 A 
ATOM     13  C   LIG d   1       6.603  -8.900  -4.096  0.00  0.00     0.143 A 
ATOM     14  C   LIG d   1       5.491 -10.478  -2.085  0.00  0.00     0.026 A 
ATOM     15  C   LIG d   1       6.759  -9.874  -1.964  0.00  0.00     0.338 A 
ATOM     16  H   LIG d   1       5.100 -11.082  -1.280  0.00  0.00     0.069 H 
ATOM     17  O   LIG d   1       7.402 -10.043  -0.945  0.00  0.00    -0.245 OA
ATOM     18  O   LIG d   1       7.276  -9.117  -2.946  0.00  0.00    -0.422 OA
ATOM     19  C   LIG d   1       7.151  -8.114  -5.099  0.00  0.00     0.025 A 
ATOM     20  H   LIG d   1       8.126  -7.669  -4.967  0.00  0.00     0.069 H 
BRANCH  12  21
ATOM     21  C   LIG d   1       3.404 -10.935  -3.371  0.00  0.00    -0.039 C 
ATOM     22  H   LIG d   1       2.921 -11.001  -2.396  0.00  0.00     0.028 H 
ATOM     23  H   LIG d   1       2.793 -10.330  -4.039  0.00  0.00     0.028 H 
ATOM     24  H   LIG d   1       3.518 -11.936  -3.789  0.00  0.00     0.028 H 
ENDBRANCH  12  21
ENDBRANCH   5   6
ENDBRANCH   3   5
ENDBRANCH   1   3
BRANCH   1  25
ATOM     25  C   LIG d   1       5.884  -4.145  -8.510  0.00  0.00     0.003 C 
ATOM     26  H   LIG d   1       6.651  -3.387  -8.357  0.00  0.00     0.034 H 
ATOM     27  H   LIG d   1       6.155  -4.773  -9.358  0.00  0.00     0.034 H 
BRANCH  25  28
ATOM     28  C   LIG d   1       4.562  -3.475  -8.783  0.00  0.00    -0.020 A 
ATOM     29  C   LIG d   1       4.215  -2.081  -8.494  0.00  0.00     0.003 A 
ATOM     30  C   LIG d   1       2.886  -1.913  -8.923  0.00  0.00     0.047 A 
ATOM     31  C   LIG d   1       4.904  -1.007  -7.928  0.00  0.00    -0.052 A 
ATOM     32  N   LIG d   1       2.466  -3.125  -9.425  0.00  0.00    -0.360 N 
ATOM     33  C   LIG d   1       2.275  -0.673  -8.780  0.00  0.00    -0.038 A 
ATOM     34  C   LIG d   1       3.477  -4.043  -9.333  0.00  0.00     0.006 A 
ATOM     35  H   LIG d   1       1.585  -3.302  -9.790  0.00  0.00     0.165 HD
ATOM     36  H   LIG d   1       3.412  -5.071  -9.657  0.00  0.00     0.081 H 
ATOM     37  C   LIG d   1       2.971   0.371  -8.210  0.00  0.00    -0.060 A 
ATOM     38  H   LIG d   1       1.253  -0.531  -9.102  0.00  0.00     0.064 H 
ATOM     39  C   LIG d   1       4.282   0.202  -7.791  0.00  0.00    -0.061 A 
ATOM     40  H   LIG d   1       2.493   1.333  -8.095  0.00  0.00     0.062 H 
ATOM     41  H   LIG d   1       4.817   1.033  -7.354  0.00  0.00     0.062 H 
ATOM     42  H   LIG d   1       5.926  -1.132  -7.598  0.00  0.00     0.062 H 
ENDBRANCH  25  28
ENDBRANCH   1  25
BRANCH   1  43
ATOM     43  N   LIG d   1       5.579  -4.149  -6.082  0.00  0.00    -0.268 N 
ATOM     44  C   LIG d   1       4.602  -4.420  -5.194  0.00  0.00     0.401 C 
ATOM     45  O   LIG d   1       3.876  -5.381  -5.364  0.00  0.00    -0.227 OA
ATOM     46  H   LIG d   1       6.158  -3.382  -5.947  0.00  0.00     0.153 HD
BRANCH  44  47
ATOM     47  O   LIG d   1       4.430  -3.630  -4.119  0.00  0.00    -0.446 OA
BRANCH  47  48
ATOM     48  C   LIG d   1       5.395  -2.597  -3.912  0.00  0.00     0.119 C 
ATOM     49  H   LIG d   1       6.117  -2.918  -3.160  0.00  0.00     0.075 H 
ATOM     50  H   LIG d   1       5.913  -2.391  -4.849  0.00  0.00     0.075 H 
BRANCH  48  51
ATOM     51  C   LIG d   1       4.699  -1.347  -3.438  0.00  0.00    -0.010 A 
ATOM     52  C   LIG d   1       5.013  -0.806  -2.205  0.00  0.00    -0.055 A 
ATOM     53  C   LIG d   1       4.378   0.342  -1.772  0.00  0.00    -0.061 A 
ATOM     54  H   LIG d   1       5.757  -1.279  -1.582  0.00  0.00     0.062 H 
ATOM     55  C   LIG d   1       3.421   0.945  -2.567  0.00  0.00    -0.062 A 
ATOM     56  H   LIG d   1       4.626   0.768  -0.810  0.00  0.00     0.062 H 
ATOM     57  C   LIG d   1       3.103   0.401  -3.798  0.00  0.00    -0.061 A 
ATOM     58  H   LIG d   1       2.922   1.841  -2.228  0.00  0.00     0.062 H 
ATOM     59  C   LIG d   1       3.741  -0.745  -4.233  0.00  0.00    -0.055 A 
ATOM     60  H   LIG d   1       2.356   0.872  -4.419  0.00  0.00     0.062 H 
ATOM     61  H   LIG d   1       3.493  -1.169  -5.194  0.00  0.00     0.062 H 
ENDBRANCH  48  51
ENDBRANCH  47  48
ENDBRANCH  44  47
ENDBRANCH   1  43
TORSDOF 10
ENDMDL
MODEL 9
REMARK VINA RESULT:      -7.1      5.192      9.047
REMARK  10 active torsions:
REMARK  status: ('A' for Active; 'I' for Inactive)
REMARK    1  A    between atoms: C_1  and  C_2 
REMARK    2  A    between atoms: C_11  and  O_13 
REMARK    3  A    between atoms: O_13  and  C_14 
REMARK    4  A    between atoms: C_14  and  C_16 
REMARK    5  A    between atoms: C_16  and  C_18 
REMARK    6  A    between atoms: C_16  and  N_29 
REMARK    7  A    between atoms: C_18  and  C_19 
REMARK       I    between atoms: N_29  and  C_30 
REMARK    8  A    between atoms: C_30  and  O_32 
REMARK    9  A    between atoms: O_32  and  C_33 
REMARK   10  A    between atoms: C_33  and  C_34 
ROOT
ATOM      1  C   LIG d   1       8.949   0.273  -5.551  0.00  0.00     0.128 C 
ATOM      2  H   LIG d   1       8.613   1.277  -5.293  0.00  0.00     0.062 H 
ENDROOT
BRANCH   1   3
ATOM      3  C   LIG d   1      10.447   0.192  -5.407  0.00  0.00     0.333 C 
ATOM      4  O   LIG d   1      10.957  -0.805  -4.951  0.00  0.00    -0.248 OA
BRANCH   3   5
ATOM      5  O   LIG d   1      11.215   1.226  -5.785  0.00  0.00    -0.423 OA
BRANCH   5   6
ATOM      6  C   LIG d   1      10.824   2.476  -5.424  0.00  0.00     0.153 A 
ATOM      7  C   LIG d   1      10.457   3.396  -6.405  0.00  0.00     0.084 A 
ATOM      8  C   LIG d   1      10.062   4.656  -6.058  0.00  0.00    -0.029 A 
ATOM      9 CL   LIG d   1      10.503   2.936  -8.079  0.00  0.00    -0.080 Cl
ATOM     10  C   LIG d   1      10.024   5.026  -4.709  0.00  0.00     0.022 A 
ATOM     11  H   LIG d   1       9.778   5.365  -6.822  0.00  0.00     0.064 H 
ATOM     12  C   LIG d   1       9.606   6.371  -4.308  0.00  0.00    -0.033 A 
ATOM     13  C   LIG d   1      10.399   4.104  -3.715  0.00  0.00     0.143 A 
ATOM     14  C   LIG d   1       9.586   6.668  -2.982  0.00  0.00     0.026 A 
ATOM     15  C   LIG d   1       9.969   5.692  -2.039  0.00  0.00     0.338 A 
ATOM     16  H   LIG d   1       9.278   7.649  -2.652  0.00  0.00     0.069 H 
ATOM     17  O   LIG d   1       9.947   5.971  -0.854  0.00  0.00    -0.245 OA
ATOM     18  O   LIG d   1      10.358   4.463  -2.414  0.00  0.00    -0.422 OA
ATOM     19  C   LIG d   1      10.805   2.830  -4.085  0.00  0.00     0.025 A 
ATOM     20  H   LIG d   1      11.090   2.112  -3.332  0.00  0.00     0.069 H 
BRANCH  12  21
ATOM     21  C   LIG d   1       9.201   7.396  -5.336  0.00  0.00    -0.039 C 
ATOM     22  H   LIG d   1       8.197   7.758  -5.111  0.00  0.00     0.028 H 
ATOM     23  H   LIG d   1       9.902   8.229  -5.314  0.00  0.00     0.028 H 
ATOM     24  H   LIG d   1       9.208   6.939  -6.326  0.00  0.00     0.028 H 
ENDBRANCH  12  21
ENDBRANCH   5   6
ENDBRANCH   3   5
ENDBRANCH   1   3
BRANCH   1  25
ATOM     25  C   LIG d   1       8.292  -0.741  -4.612  0.00  0.00     0.003 C 
ATOM     26  H   LIG d   1       7.966  -1.609  -5.186  0.00  0.00     0.034 H 
ATOM     27  H   LIG d   1       9.010  -1.054  -3.855  0.00  0.00     0.034 H 
BRANCH  25  28
ATOM     28  C   LIG d   1       7.100  -0.107  -3.944  0.00  0.00    -0.020 A 
ATOM     29  C   LIG d   1       5.881  -0.789  -3.502  0.00  0.00     0.003 A 
ATOM     30  C   LIG d   1       5.061   0.204  -2.936  0.00  0.00     0.047 A 
ATOM     31  C   LIG d   1       5.444  -2.114  -3.540  0.00  0.00    -0.052 A 
ATOM     32  N   LIG d   1       5.739   1.398  -3.042  0.00  0.00    -0.360 N 
ATOM     33  C   LIG d   1       3.820  -0.150  -2.418  0.00  0.00    -0.038 A 
ATOM     34  C   LIG d   1       6.951   1.194  -3.644  0.00  0.00     0.006 A 
ATOM     35  H   LIG d   1       5.408   2.256  -2.734  0.00  0.00     0.165 HD
ATOM     36  H   LIG d   1       7.680   1.964  -3.847  0.00  0.00     0.081 H 
ATOM     37  C   LIG d   1       3.404  -1.463  -2.475  0.00  0.00    -0.060 A 
ATOM     38  H   LIG d   1       3.179   0.603  -1.984  0.00  0.00     0.064 H 
ATOM     39  C   LIG d   1       4.218  -2.440  -3.030  0.00  0.00    -0.061 A 
ATOM     40  H   LIG d   1       2.439  -1.735  -2.076  0.00  0.00     0.062 H 
ATOM     41  H   LIG d   1       3.881  -3.465  -3.059  0.00  0.00     0.062 H 
ATOM     42  H   LIG d   1       6.072  -2.880  -3.972  0.00  0.00     0.062 H 
ENDBRANCH  25  28
ENDBRANCH   1  25
BRANCH   1  43
ATOM     43  N   LIG d   1       8.574  -0.027  -6.935  0.00  0.00    -0.268 N 
ATOM     44  C   LIG d   1       7.769   0.814  -7.613  0.00  0.00     0.401 C 
ATOM     45  O   LIG d   1       7.355   1.823  -7.077  0.00  0.00    -0.227 OA
ATOM     46  H   LIG d   1       8.905  -0.832  -7.363  0.00  0.00     0.153 HD
BRANCH  44  47
ATOM     47  O   LIG d   1       7.425   0.539  -8.885  0.00  0.00    -0.446 OA
BRANCH  47  48
ATOM     48  C   LIG d   1       6.262  -0.266  -9.082  0.00  0.00     0.119 C 
ATOM     49  H   LIG d   1       6.278  -0.687 -10.088  0.00  0.00     0.075 H 
ATOM     50  H   LIG d   1       6.251  -1.074  -8.350  0.00  0.00     0.075 H 
BRANCH  48  51
ATOM     51  C   LIG d   1       5.028   0.582  -8.913  0.00  0.00    -0.010 A 
ATOM     52  C   LIG d   1       4.907   1.773  -9.605  0.00  0.00    -0.055 A 
ATOM     53  C   LIG d   1       3.774   2.549  -9.452  0.00  0.00    -0.061 A 
ATOM     54  H   LIG d   1       5.698   2.095 -10.267  0.00  0.00     0.062 H 
ATOM     55  C   LIG d   1       2.765   2.139  -8.601  0.00  0.00    -0.062 A 
ATOM     56  H   LIG d   1       3.678   3.478  -9.996  0.00  0.00     0.062 H 
ATOM     57  C   LIG d   1       2.888   0.951  -7.905  0.00  0.00    -0.061 A 
ATOM     58  H   LIG d   1       1.880   2.747  -8.480  0.00  0.00     0.062 H 
ATOM     59  C   LIG d   1       4.019   0.173  -8.060  0.00  0.00    -0.055 A 
ATOM     60  H   LIG d   1       2.100   0.631  -7.240  0.00  0.00     0.062 H 
ATOM     61  H   LIG d   1       4.115  -0.755  -7.517  0.00  0.00     0.062 H 
ENDBRANCH  48  51
ENDBRANCH  47  48
ENDBRANCH  44  47
ENDBRANCH   1  43
TORSDOF 10
ENDMDL
