MODEL 1
REMARK VINA RESULT:      -7.0      0.000      0.000
REMARK  8 active torsions:
REMARK  status: ('A' for Active; 'I' for Inactive)
REMARK    1  A    between atoms: C_4  and  C_7 
REMARK    2  A    between atoms: C_7  and  O_9 
REMARK    3  A    between atoms: O_9  and  C_10 
REMARK    4  A    between atoms: C_10  and  C_11 
REMARK    5  A    between atoms: C_17  and  O_22 
REMARK    6  A    between atoms: C_19  and  O_21 
REMARK    7  A    between atoms: O_22  and  C_23 
REMARK    8  A    between atoms: C_23  and  C_25 
ROOT
ATOM      1  C   LIG d   1       4.032  -0.820  -8.796  0.00  0.00     0.163 A 
ATOM      2  C   LIG d   1       3.535   0.154  -9.876  0.00  0.00     0.113 A 
ATOM      3  H   LIG d   1       3.950   0.067 -10.881  0.00  0.00     0.067 H 
ATOM      4  O   LIG d   1       2.733  -0.920  -9.383  0.00  0.00    -0.354 OA
ATOM      5  C   LIG d   1       3.188   1.548  -9.412  0.00  0.00    -0.053 C 
ATOM      6  C   LIG d   1       2.884   1.770  -8.157  0.00  0.00    -0.043 C 
ATOM      7  C   LIG d   1       2.862   0.635  -7.164  0.00  0.00     0.150 C 
ATOM      8  H   LIG d   1       1.966   0.033  -7.317  0.00  0.00     0.081 H 
ATOM      9  C   LIG d   1       4.110  -0.233  -7.376  0.00  0.00     0.131 C 
ATOM     10  H   LIG d   1       4.131  -1.039  -6.642  0.00  0.00     0.067 H 
ATOM     11  H   LIG d   1       3.195   2.366 -10.116  0.00  0.00     0.060 H 
ATOM     12  H   LIG d   1       2.643   2.771  -7.832  0.00  0.00     0.061 H 
ENDROOT
BRANCH   1  13
ATOM     13  C   LIG d   1       5.084  -1.871  -9.156  0.00  0.00     0.127 C 
ATOM     14  H   LIG d   1       4.609  -2.849  -9.233  0.00  0.00     0.073 H 
ATOM     15  H   LIG d   1       5.543  -1.614 -10.110  0.00  0.00     0.073 H 
BRANCH  13  16
ATOM     16  O   LIG d   1       6.103  -1.909  -8.123  0.00  0.00    -0.458 OA
BRANCH  16  17
ATOM     17  C   LIG d   1       6.227  -3.058  -7.428  0.00  0.00     0.339 C 
ATOM     18  O   LIG d   1       5.843  -4.103  -7.910  0.00  0.00    -0.245 OA
BRANCH  17  19
ATOM     19  C   LIG d   1       6.831  -3.043  -6.079  0.00  0.00     0.059 A 
ATOM     20  C   LIG d   1       6.632  -1.950  -5.234  0.00  0.00    -0.048 A 
ATOM     21  C   LIG d   1       7.199  -1.943  -3.976  0.00  0.00    -0.061 A 
ATOM     22  H   LIG d   1       6.035  -1.113  -5.564  0.00  0.00     0.063 H 
ATOM     23  C   LIG d   1       7.961  -3.016  -3.551  0.00  0.00    -0.062 A 
ATOM     24  H   LIG d   1       7.045  -1.098  -3.321  0.00  0.00     0.062 H 
ATOM     25  C   LIG d   1       8.163  -4.102  -4.385  0.00  0.00    -0.061 A 
ATOM     26  H   LIG d   1       8.402  -3.006  -2.566  0.00  0.00     0.062 H 
ATOM     27  C   LIG d   1       7.598  -4.125  -5.643  0.00  0.00    -0.048 A 
ATOM     28  H   LIG d   1       8.761  -4.936  -4.048  0.00  0.00     0.062 H 
ATOM     29  H   LIG d   1       7.754  -4.975  -6.290  0.00  0.00     0.063 H 
ENDBRANCH  17  19
ENDBRANCH  16  17
ENDBRANCH  13  16
ENDBRANCH   1  13
BRANCH   9  30
ATOM     30  O   LIG d   1       5.286   0.569  -7.247  0.00  0.00    -0.385 OA
ATOM     31  H   LIG d   1       5.580   0.973  -8.074  0.00  0.00     0.210 HD
ENDBRANCH   9  30
BRANCH   7  32
ATOM     32  O   LIG d   1       2.863   1.169  -5.814  0.00  0.00    -0.451 OA
BRANCH  32  33
ATOM     33  C   LIG d   1       2.316   0.402  -4.851  0.00  0.00     0.340 C 
ATOM     34  O   LIG d   1       1.157   0.049  -4.941  0.00  0.00    -0.245 OA
BRANCH  33  35
ATOM     35  C   LIG d   1       3.125  -0.009  -3.685  0.00  0.00     0.059 A 
ATOM     36  C   LIG d   1       3.254  -1.361  -3.363  0.00  0.00    -0.048 A 
ATOM     37  C   LIG d   1       4.011  -1.739  -2.273  0.00  0.00    -0.061 A 
ATOM     38  H   LIG d   1       2.762  -2.111  -3.965  0.00  0.00     0.063 H 
ATOM     39  C   LIG d   1       4.642  -0.780  -1.500  0.00  0.00    -0.062 A 
ATOM     40  H   LIG d   1       4.111  -2.784  -2.022  0.00  0.00     0.062 H 
ATOM     41  C   LIG d   1       4.518   0.562  -1.814  0.00  0.00    -0.061 A 
ATOM     42  H   LIG d   1       5.233  -1.080  -0.647  0.00  0.00     0.062 H 
ATOM     43  C   LIG d   1       3.769   0.953  -2.904  0.00  0.00    -0.048 A 
ATOM     44  H   LIG d   1       5.013   1.305  -1.206  0.00  0.00     0.062 H 
ATOM     45  H   LIG d   1       3.677   2.000  -3.151  0.00  0.00     0.063 H 
ENDBRANCH  33  35
ENDBRANCH  32  33
ENDBRANCH   7  32
TORSDOF 8
ENDMDL
MODEL 2
REMARK VINA RESULT:      -6.9      2.215      5.802
REMARK  8 active torsions:
REMARK  status: ('A' for Active; 'I' for Inactive)
REMARK    1  A    between atoms: C_4  and  C_7 
REMARK    2  A    between atoms: C_7  and  O_9 
REMARK    3  A    between atoms: O_9  and  C_10 
REMARK    4  A    between atoms: C_10  and  C_11 
REMARK    5  A    between atoms: C_17  and  O_22 
REMARK    6  A    between atoms: C_19  and  O_21 
REMARK    7  A    between atoms: O_22  and  C_23 
REMARK    8  A    between atoms: C_23  and  C_25 
ROOT
ATOM      1  C   LIG d   1       4.383  -4.574  -6.424  0.00  0.00     0.163 A 
ATOM      2  C   LIG d   1       4.322  -5.989  -7.022  0.00  0.00     0.113 A 
ATOM      3  H   LIG d   1       4.755  -6.810  -6.451  0.00  0.00     0.067 H 
ATOM      4  O   LIG d   1       3.172  -5.329  -6.490  0.00  0.00    -0.354 OA
ATOM      5  C   LIG d   1       4.432  -6.085  -8.525  0.00  0.00    -0.053 C 
ATOM      6  C   LIG d   1       4.130  -5.055  -9.277  0.00  0.00    -0.043 C 
ATOM      7  C   LIG d   1       3.656  -3.766  -8.653  0.00  0.00     0.150 C 
ATOM      8  H   LIG d   1       2.623  -3.879  -8.323  0.00  0.00     0.081 H 
ATOM      9  C   LIG d   1       4.552  -3.439  -7.450  0.00  0.00     0.131 C 
ATOM     10  H   LIG d   1       4.247  -2.491  -7.008  0.00  0.00     0.067 H 
ATOM     11  H   LIG d   1       4.764  -7.005  -8.981  0.00  0.00     0.060 H 
ATOM     12  H   LIG d   1       4.218  -5.131 -10.351  0.00  0.00     0.061 H 
ENDROOT
BRANCH   1  13
ATOM     13  C   LIG d   1       5.044  -4.360  -5.060  0.00  0.00     0.127 C 
ATOM     14  H   LIG d   1       4.924  -5.258  -4.455  0.00  0.00     0.073 H 
ATOM     15  H   LIG d   1       6.105  -4.154  -5.199  0.00  0.00     0.073 H 
BRANCH  13  16
ATOM     16  O   LIG d   1       4.417  -3.236  -4.389  0.00  0.00    -0.458 OA
BRANCH  16  17
ATOM     17  C   LIG d   1       5.219  -2.218  -4.020  0.00  0.00     0.339 C 
ATOM     18  O   LIG d   1       6.423  -2.325  -4.127  0.00  0.00    -0.245 OA
BRANCH  17  19
ATOM     19  C   LIG d   1       4.632  -0.971  -3.486  0.00  0.00     0.059 A 
ATOM     20  C   LIG d   1       4.989  -0.518  -2.215  0.00  0.00    -0.048 A 
ATOM     21  C   LIG d   1       4.438   0.647  -1.723  0.00  0.00    -0.061 A 
ATOM     22  H   LIG d   1       5.696  -1.077  -1.620  0.00  0.00     0.063 H 
ATOM     23  C   LIG d   1       3.534   1.365  -2.485  0.00  0.00    -0.062 A 
ATOM     24  H   LIG d   1       4.714   0.999  -0.739  0.00  0.00     0.062 H 
ATOM     25  C   LIG d   1       3.175   0.920  -3.745  0.00  0.00    -0.061 A 
ATOM     26  H   LIG d   1       3.106   2.276  -2.095  0.00  0.00     0.062 H 
ATOM     27  C   LIG d   1       3.723  -0.240  -4.252  0.00  0.00    -0.048 A 
ATOM     28  H   LIG d   1       2.468   1.484  -4.335  0.00  0.00     0.062 H 
ATOM     29  H   LIG d   1       3.445  -0.584  -5.238  0.00  0.00     0.063 H 
ENDBRANCH  17  19
ENDBRANCH  16  17
ENDBRANCH  13  16
ENDBRANCH   1  13
BRANCH   9  30
ATOM     30  O   LIG d   1       5.916  -3.362  -7.868  0.00  0.00    -0.385 OA
ATOM     31  H   LIG d   1       6.031  -3.080  -8.786  0.00  0.00     0.210 HD
ENDBRANCH   9  30
BRANCH   7  32
ATOM     32  O   LIG d   1       3.740  -2.694  -9.628  0.00  0.00    -0.451 OA
BRANCH  32  33
ATOM     33  C   LIG d   1       2.716  -1.820  -9.667  0.00  0.00     0.340 C 
ATOM     34  O   LIG d   1       1.576  -2.225  -9.786  0.00  0.00    -0.245 OA
BRANCH  33  35
ATOM     35  C   LIG d   1       2.977  -0.370  -9.567  0.00  0.00     0.059 A 
ATOM     36  C   LIG d   1       2.658   0.322  -8.397  0.00  0.00    -0.048 A 
ATOM     37  C   LIG d   1       2.905   1.676  -8.309  0.00  0.00    -0.061 A 
ATOM     38  H   LIG d   1       2.216  -0.203  -7.562  0.00  0.00     0.063 H 
ATOM     39  C   LIG d   1       3.469   2.349  -9.378  0.00  0.00    -0.062 A 
ATOM     40  H   LIG d   1       2.657   2.212  -7.405  0.00  0.00     0.062 H 
ATOM     41  C   LIG d   1       3.789   1.670 -10.541  0.00  0.00    -0.061 A 
ATOM     42  H   LIG d   1       3.661   3.410  -9.305  0.00  0.00     0.062 H 
ATOM     43  C   LIG d   1       3.551   0.315 -10.640  0.00  0.00    -0.048 A 
ATOM     44  H   LIG d   1       4.228   2.202 -11.372  0.00  0.00     0.062 H 
ATOM     45  H   LIG d   1       3.806  -0.215 -11.546  0.00  0.00     0.063 H 
ENDBRANCH  33  35
ENDBRANCH  32  33
ENDBRANCH   7  32
TORSDOF 8
ENDMDL
MODEL 3
REMARK VINA RESULT:      -6.9      1.106      4.954
REMARK  8 active torsions:
REMARK  status: ('A' for Active; 'I' for Inactive)
REMARK    1  A    between atoms: C_4  and  C_7 
REMARK    2  A    between atoms: C_7  and  O_9 
REMARK    3  A    between atoms: O_9  and  C_10 
REMARK    4  A    between atoms: C_10  and  C_11 
REMARK    5  A    between atoms: C_17  and  O_22 
REMARK    6  A    between atoms: C_19  and  O_21 
REMARK    7  A    between atoms: O_22  and  C_23 
REMARK    8  A    between atoms: C_23  and  C_25 
ROOT
ATOM      1  C   LIG d   1       4.174  -0.125  -7.632  0.00  0.00     0.163 A 
ATOM      2  C   LIG d   1       5.055   0.274  -8.828  0.00  0.00     0.113 A 
ATOM      3  H   LIG d   1       4.774   1.155  -9.404  0.00  0.00     0.067 H 
ATOM      4  O   LIG d   1       5.469   0.457  -7.473  0.00  0.00    -0.354 OA
ATOM      5  C   LIG d   1       5.689  -0.859  -9.599  0.00  0.00    -0.053 C 
ATOM      6  C   LIG d   1       5.864  -2.027  -9.032  0.00  0.00    -0.043 C 
ATOM      7  C   LIG d   1       5.449  -2.252  -7.599  0.00  0.00     0.150 C 
ATOM      8  H   LIG d   1       6.167  -1.775  -6.932  0.00  0.00     0.081 H 
ATOM      9  C   LIG d   1       4.057  -1.639  -7.386  0.00  0.00     0.131 C 
ATOM     10  H   LIG d   1       3.724  -1.824  -6.364  0.00  0.00     0.067 H 
ATOM     11  H   LIG d   1       5.996  -0.706 -10.622  0.00  0.00     0.060 H 
ATOM     12  H   LIG d   1       6.313  -2.833  -9.593  0.00  0.00     0.061 H 
ENDROOT
BRANCH   1  13
ATOM     13  C   LIG d   1       2.942   0.716  -7.291  0.00  0.00     0.127 C 
ATOM     14  H   LIG d   1       3.236   1.759  -7.175  0.00  0.00     0.073 H 
ATOM     15  H   LIG d   1       2.210   0.631  -8.094  0.00  0.00     0.073 H 
BRANCH  13  16
ATOM     16  O   LIG d   1       2.358   0.237  -6.051  0.00  0.00    -0.458 OA
BRANCH  16  17
ATOM     17  C   LIG d   1       2.662   0.918  -4.929  0.00  0.00     0.339 C 
ATOM     18  O   LIG d   1       2.434   2.108  -4.861  0.00  0.00    -0.245 OA
BRANCH  17  19
ATOM     19  C   LIG d   1       3.273   0.215  -3.781  0.00  0.00     0.059 A 
ATOM     20  C   LIG d   1       3.114  -1.165  -3.640  0.00  0.00    -0.048 A 
ATOM     21  C   LIG d   1       3.688  -1.814  -2.566  0.00  0.00    -0.061 A 
ATOM     22  H   LIG d   1       2.544  -1.721  -4.369  0.00  0.00     0.063 H 
ATOM     23  C   LIG d   1       4.419  -1.103  -1.632  0.00  0.00    -0.062 A 
ATOM     24  H   LIG d   1       3.566  -2.882  -2.456  0.00  0.00     0.062 H 
ATOM     25  C   LIG d   1       4.579   0.265  -1.766  0.00  0.00    -0.061 A 
ATOM     26  H   LIG d   1       4.866  -1.616  -0.794  0.00  0.00     0.062 H 
ATOM     27  C   LIG d   1       4.016   0.927  -2.838  0.00  0.00    -0.048 A 
ATOM     28  H   LIG d   1       5.150   0.815  -1.033  0.00  0.00     0.062 H 
ATOM     29  H   LIG d   1       4.145   1.994  -2.943  0.00  0.00     0.063 H 
ENDBRANCH  17  19
ENDBRANCH  16  17
ENDBRANCH  13  16
ENDBRANCH   1  13
BRANCH   9  30
ATOM     30  O   LIG d   1       3.129  -2.211  -8.309  0.00  0.00    -0.385 OA
ATOM     31  H   LIG d   1       3.017  -3.167  -8.214  0.00  0.00     0.210 HD
ENDBRANCH   9  30
BRANCH   7  32
ATOM     32  O   LIG d   1       5.401  -3.677  -7.324  0.00  0.00    -0.451 OA
BRANCH  32  33
ATOM     33  C   LIG d   1       5.334  -4.049  -6.032  0.00  0.00     0.340 C 
ATOM     34  O   LIG d   1       4.311  -4.536  -5.593  0.00  0.00    -0.245 OA
BRANCH  33  35
ATOM     35  C   LIG d   1       6.502  -3.865  -5.148  0.00  0.00     0.059 A 
ATOM     36  C   LIG d   1       6.592  -2.738  -4.329  0.00  0.00    -0.048 A 
ATOM     37  C   LIG d   1       7.686  -2.571  -3.505  0.00  0.00    -0.061 A 
ATOM     38  H   LIG d   1       5.807  -1.996  -4.341  0.00  0.00     0.063 H 
ATOM     39  C   LIG d   1       8.692  -3.520  -3.488  0.00  0.00    -0.062 A 
ATOM     40  H   LIG d   1       7.756  -1.699  -2.872  0.00  0.00     0.062 H 
ATOM     41  C   LIG d   1       8.610  -4.640  -4.297  0.00  0.00    -0.061 A 
ATOM     42  H   LIG d   1       9.548  -3.386  -2.841  0.00  0.00     0.062 H 
ATOM     43  C   LIG d   1       7.520  -4.821  -5.122  0.00  0.00    -0.048 A 
ATOM     44  H   LIG d   1       9.401  -5.376  -4.280  0.00  0.00     0.062 H 
ATOM     45  H   LIG d   1       7.454  -5.698  -5.749  0.00  0.00     0.063 H 
ENDBRANCH  33  35
ENDBRANCH  32  33
ENDBRANCH   7  32
TORSDOF 8
ENDMDL
MODEL 4
REMARK VINA RESULT:      -6.9      2.081      5.526
REMARK  8 active torsions:
REMARK  status: ('A' for Active; 'I' for Inactive)
REMARK    1  A    between atoms: C_4  and  C_7 
REMARK    2  A    between atoms: C_7  and  O_9 
REMARK    3  A    between atoms: O_9  and  C_10 
REMARK    4  A    between atoms: C_10  and  C_11 
REMARK    5  A    between atoms: C_17  and  O_22 
REMARK    6  A    between atoms: C_19  and  O_21 
REMARK    7  A    between atoms: O_22  and  C_23 
REMARK    8  A    between atoms: C_23  and  C_25 
ROOT
ATOM      1  C   LIG d   1       5.193  -3.600  -8.014  0.00  0.00     0.163 A 
ATOM      2  C   LIG d   1       6.091  -4.841  -8.148  0.00  0.00     0.113 A 
ATOM      3  H   LIG d   1       6.048  -5.411  -9.077  0.00  0.00     0.067 H 
ATOM      4  O   LIG d   1       6.607  -3.510  -8.198  0.00  0.00    -0.354 OA
ATOM      5  C   LIG d   1       6.334  -5.631  -6.885  0.00  0.00    -0.053 C 
ATOM      6  C   LIG d   1       6.193  -5.063  -5.713  0.00  0.00    -0.043 C 
ATOM      7  C   LIG d   1       5.802  -3.609  -5.610  0.00  0.00     0.150 C 
ATOM      8  H   LIG d   1       6.659  -2.983  -5.857  0.00  0.00     0.081 H 
ATOM      9  C   LIG d   1       4.658  -3.334  -6.596  0.00  0.00     0.131 C 
ATOM     10  H   LIG d   1       4.337  -2.296  -6.510  0.00  0.00     0.067 H 
ATOM     11  H   LIG d   1       6.620  -6.670  -6.948  0.00  0.00     0.060 H 
ATOM     12  H   LIG d   1       6.363  -5.637  -4.815  0.00  0.00     0.061 H 
ENDROOT
BRANCH   1  13
ATOM     13  C   LIG d   1       4.273  -3.207  -9.172  0.00  0.00     0.127 C 
ATOM     14  H   LIG d   1       4.793  -2.506  -9.826  0.00  0.00     0.073 H 
ATOM     15  H   LIG d   1       4.000  -4.096  -9.738  0.00  0.00     0.073 H 
BRANCH  13  16
ATOM     16  O   LIG d   1       3.075  -2.580  -8.647  0.00  0.00    -0.458 OA
BRANCH  16  17
ATOM     17  C   LIG d   1       2.420  -1.730  -9.463  0.00  0.00     0.339 C 
ATOM     18  O   LIG d   1       1.486  -2.126 -10.128  0.00  0.00    -0.245 OA
BRANCH  17  19
ATOM     19  C   LIG d   1       2.842  -0.316  -9.549  0.00  0.00     0.059 A 
ATOM     20  C   LIG d   1       3.468   0.160 -10.702  0.00  0.00    -0.048 A 
ATOM     21  C   LIG d   1       3.858   1.482 -10.774  0.00  0.00    -0.061 A 
ATOM     22  H   LIG d   1       3.645  -0.504 -11.534  0.00  0.00     0.063 H 
ATOM     23  C   LIG d   1       3.629   2.334  -9.709  0.00  0.00    -0.062 A 
ATOM     24  H   LIG d   1       4.342   1.851 -11.667  0.00  0.00     0.062 H 
ATOM     25  C   LIG d   1       3.010   1.868  -8.563  0.00  0.00    -0.061 A 
ATOM     26  H   LIG d   1       3.937   3.367  -9.772  0.00  0.00     0.062 H 
ATOM     27  C   LIG d   1       2.610   0.550  -8.478  0.00  0.00    -0.048 A 
ATOM     28  H   LIG d   1       2.836   2.538  -7.734  0.00  0.00     0.062 H 
ATOM     29  H   LIG d   1       2.123   0.189  -7.585  0.00  0.00     0.063 H 
ENDBRANCH  17  19
ENDBRANCH  16  17
ENDBRANCH  13  16
ENDBRANCH   1  13
BRANCH   9  30
ATOM     30  O   LIG d   1       3.560  -4.205  -6.320  0.00  0.00    -0.385 OA
ATOM     31  H   LIG d   1       2.973  -3.889  -5.620  0.00  0.00     0.210 HD
ENDBRANCH   9  30
BRANCH   7  32
ATOM     32  O   LIG d   1       5.361  -3.319  -4.258  0.00  0.00    -0.451 OA
BRANCH  32  33
ATOM     33  C   LIG d   1       5.936  -2.271  -3.638  0.00  0.00     0.340 C 
ATOM     34  O   LIG d   1       7.136  -2.262  -3.447  0.00  0.00    -0.245 OA
BRANCH  33  35
ATOM     35  C   LIG d   1       5.108  -1.132  -3.189  0.00  0.00     0.059 A 
ATOM     36  C   LIG d   1       5.714   0.056  -2.778  0.00  0.00    -0.048 A 
ATOM     37  C   LIG d   1       4.936   1.116  -2.360  0.00  0.00    -0.061 A 
ATOM     38  H   LIG d   1       6.791   0.146  -2.785  0.00  0.00     0.063 H 
ATOM     39  C   LIG d   1       3.557   1.003  -2.350  0.00  0.00    -0.062 A 
ATOM     40  H   LIG d   1       5.404   2.036  -2.041  0.00  0.00     0.062 H 
ATOM     41  C   LIG d   1       2.949  -0.172  -2.757  0.00  0.00    -0.061 A 
ATOM     42  H   LIG d   1       2.952   1.836  -2.022  0.00  0.00     0.062 H 
ATOM     43  C   LIG d   1       3.716  -1.238  -3.181  0.00  0.00    -0.048 A 
ATOM     44  H   LIG d   1       1.873  -0.253  -2.745  0.00  0.00     0.062 H 
ATOM     45  H   LIG d   1       3.240  -2.152  -3.503  0.00  0.00     0.063 H 
ENDBRANCH  33  35
ENDBRANCH  32  33
ENDBRANCH   7  32
TORSDOF 8
ENDMDL
MODEL 5
REMARK VINA RESULT:      -6.7      2.194      2.758
REMARK  8 active torsions:
REMARK  status: ('A' for Active; 'I' for Inactive)
REMARK    1  A    between atoms: C_4  and  C_7 
REMARK    2  A    between atoms: C_7  and  O_9 
REMARK    3  A    between atoms: O_9  and  C_10 
REMARK    4  A    between atoms: C_10  and  C_11 
REMARK    5  A    between atoms: C_17  and  O_22 
REMARK    6  A    between atoms: C_19  and  O_21 
REMARK    7  A    between atoms: O_22  and  C_23 
REMARK    8  A    between atoms: C_23  and  C_25 
ROOT
ATOM      1  C   LIG d   1       2.578  -1.229  -9.326  0.00  0.00     0.163 A 
ATOM      2  C   LIG d   1       2.549  -0.005 -10.255  0.00  0.00     0.113 A 
ATOM      3  H   LIG d   1       2.619  -0.171 -11.331  0.00  0.00     0.067 H 
ATOM      4  O   LIG d   1       1.387  -0.479  -9.574  0.00  0.00    -0.354 OA
ATOM      5  C   LIG d   1       3.198   1.252  -9.727  0.00  0.00    -0.053 C 
ATOM      6  C   LIG d   1       3.345   1.427  -8.437  0.00  0.00    -0.043 C 
ATOM      7  C   LIG d   1       2.856   0.383  -7.463  0.00  0.00     0.150 C 
ATOM      8  H   LIG d   1       1.770   0.436  -7.387  0.00  0.00     0.081 H 
ATOM      9  C   LIG d   1       3.273  -1.003  -7.973  0.00  0.00     0.131 C 
ATOM     10  H   LIG d   1       2.961  -1.769  -7.262  0.00  0.00     0.067 H 
ATOM     11  H   LIG d   1       3.545   2.007 -10.415  0.00  0.00     0.060 H 
ATOM     12  H   LIG d   1       3.816   2.326  -8.068  0.00  0.00     0.061 H 
ENDROOT
BRANCH   1  13
ATOM     13  C   LIG d   1       2.704  -2.630  -9.929  0.00  0.00     0.127 C 
ATOM     14  H   LIG d   1       1.733  -3.123  -9.907  0.00  0.00     0.073 H 
ATOM     15  H   LIG d   1       3.048  -2.552 -10.960  0.00  0.00     0.073 H 
BRANCH  13  16
ATOM     16  O   LIG d   1       3.658  -3.405  -9.158  0.00  0.00    -0.458 OA
BRANCH  16  17
ATOM     17  C   LIG d   1       3.334  -4.686  -8.893  0.00  0.00     0.339 C 
ATOM     18  O   LIG d   1       2.571  -5.283  -9.625  0.00  0.00    -0.245 OA
BRANCH  17  19
ATOM     19  C   LIG d   1       3.906  -5.364  -7.711  0.00  0.00     0.059 A 
ATOM     20  C   LIG d   1       4.232  -6.720  -7.771  0.00  0.00    -0.048 A 
ATOM     21  C   LIG d   1       4.767  -7.346  -6.663  0.00  0.00    -0.061 A 
ATOM     22  H   LIG d   1       4.067  -7.276  -8.681  0.00  0.00     0.063 H 
ATOM     23  C   LIG d   1       4.981  -6.633  -5.497  0.00  0.00    -0.062 A 
ATOM     24  H   LIG d   1       5.020  -8.395  -6.708  0.00  0.00     0.062 H 
ATOM     25  C   LIG d   1       4.659  -5.290  -5.431  0.00  0.00    -0.061 A 
ATOM     26  H   LIG d   1       5.399  -7.129  -4.634  0.00  0.00     0.062 H 
ATOM     27  C   LIG d   1       4.129  -4.649  -6.532  0.00  0.00    -0.048 A 
ATOM     28  H   LIG d   1       4.827  -4.739  -4.518  0.00  0.00     0.062 H 
ATOM     29  H   LIG d   1       3.882  -3.599  -6.480  0.00  0.00     0.063 H 
ENDBRANCH  17  19
ENDBRANCH  16  17
ENDBRANCH  13  16
ENDBRANCH   1  13
BRANCH   9  30
ATOM     30  O   LIG d   1       4.692  -1.051  -8.142  0.00  0.00    -0.385 OA
ATOM     31  H   LIG d   1       5.016  -1.880  -8.521  0.00  0.00     0.210 HD
ENDBRANCH   9  30
BRANCH   7  32
ATOM     32  O   LIG d   1       3.446   0.621  -6.158  0.00  0.00    -0.451 OA
BRANCH  32  33
ATOM     33  C   LIG d   1       2.706   0.292  -5.082  0.00  0.00     0.340 C 
ATOM     34  O   LIG d   1       1.494   0.354  -5.137  0.00  0.00    -0.245 OA
BRANCH  33  35
ATOM     35  C   LIG d   1       3.368  -0.143  -3.835  0.00  0.00     0.059 A 
ATOM     36  C   LIG d   1       3.474  -1.502  -3.534  0.00  0.00    -0.048 A 
ATOM     37  C   LIG d   1       4.093  -1.902  -2.368  0.00  0.00    -0.061 A 
ATOM     38  H   LIG d   1       3.071  -2.240  -4.213  0.00  0.00     0.063 H 
ATOM     39  C   LIG d   1       4.609  -0.959  -1.498  0.00  0.00    -0.062 A 
ATOM     40  H   LIG d   1       4.175  -2.953  -2.135  0.00  0.00     0.062 H 
ATOM     41  C   LIG d   1       4.508   0.390  -1.789  0.00  0.00    -0.061 A 
ATOM     42  H   LIG d   1       5.093  -1.277  -0.585  0.00  0.00     0.062 H 
ATOM     43  C   LIG d   1       3.896   0.803  -2.954  0.00  0.00    -0.048 A 
ATOM     44  H   LIG d   1       4.912   1.121  -1.104  0.00  0.00     0.062 H 
ATOM     45  H   LIG d   1       3.822   1.856  -3.183  0.00  0.00     0.063 H 
ENDBRANCH  33  35
ENDBRANCH  32  33
ENDBRANCH   7  32
TORSDOF 8
ENDMDL
MODEL 6
REMARK VINA RESULT:      -6.6      7.722      9.476
REMARK  8 active torsions:
REMARK  status: ('A' for Active; 'I' for Inactive)
REMARK    1  A    between atoms: C_4  and  C_7 
REMARK    2  A    between atoms: C_7  and  O_9 
REMARK    3  A    between atoms: O_9  and  C_10 
REMARK    4  A    between atoms: C_10  and  C_11 
REMARK    5  A    between atoms: C_17  and  O_22 
REMARK    6  A    between atoms: C_19  and  O_21 
REMARK    7  A    between atoms: O_22  and  C_23 
REMARK    8  A    between atoms: C_23  and  C_25 
ROOT
ATOM      1  C   LIG d   1       9.890   3.798  -3.842  0.00  0.00     0.163 A 
ATOM      2  C   LIG d   1      10.825   4.467  -4.863  0.00  0.00     0.113 A 
ATOM      3  H   LIG d   1      11.179   3.874  -5.706  0.00  0.00     0.067 H 
ATOM      4  O   LIG d   1       9.431   4.767  -4.786  0.00  0.00    -0.354 OA
ATOM      5  C   LIG d   1      11.786   5.495  -4.316  0.00  0.00    -0.053 C 
ATOM      6  C   LIG d   1      11.530   6.103  -3.184  0.00  0.00    -0.043 C 
ATOM      7  C   LIG d   1      10.267   5.793  -2.419  0.00  0.00     0.150 C 
ATOM      8  H   LIG d   1       9.418   6.267  -2.911  0.00  0.00     0.081 H 
ATOM      9  C   LIG d   1      10.067   4.272  -2.389  0.00  0.00     0.131 C 
ATOM     10  H   LIG d   1       9.177   4.026  -1.808  0.00  0.00     0.067 H 
ATOM     11  H   LIG d   1      12.689   5.728  -4.860  0.00  0.00     0.060 H 
ATOM     12  H   LIG d   1      12.226   6.832  -2.797  0.00  0.00     0.061 H 
ENDROOT
BRANCH   1  13
ATOM     13  C   LIG d   1       9.489   2.334  -4.035  0.00  0.00     0.127 C 
ATOM     14  H   LIG d   1       9.369   2.128  -5.099  0.00  0.00     0.073 H 
ATOM     15  H   LIG d   1      10.264   1.687  -3.625  0.00  0.00     0.073 H 
BRANCH  13  16
ATOM     16  O   LIG d   1       8.235   2.082  -3.349  0.00  0.00    -0.458 OA
BRANCH  16  17
ATOM     17  C   LIG d   1       7.295   1.392  -4.026  0.00  0.00     0.339 C 
ATOM     18  O   LIG d   1       7.291   1.403  -5.240  0.00  0.00    -0.245 OA
BRANCH  17  19
ATOM     19  C   LIG d   1       6.270   0.623  -3.291  0.00  0.00     0.059 A 
ATOM     20  C   LIG d   1       6.258  -0.771  -3.357  0.00  0.00    -0.048 A 
ATOM     21  C   LIG d   1       5.298  -1.482  -2.667  0.00  0.00    -0.061 A 
ATOM     22  H   LIG d   1       6.999  -1.291  -3.946  0.00  0.00     0.063 H 
ATOM     23  C   LIG d   1       4.350  -0.818  -1.911  0.00  0.00    -0.062 A 
ATOM     24  H   LIG d   1       5.289  -2.562  -2.717  0.00  0.00     0.062 H 
ATOM     25  C   LIG d   1       4.355   0.564  -1.842  0.00  0.00    -0.061 A 
ATOM     26  H   LIG d   1       3.601  -1.380  -1.373  0.00  0.00     0.062 H 
ATOM     27  C   LIG d   1       5.312   1.288  -2.522  0.00  0.00    -0.048 A 
ATOM     28  H   LIG d   1       3.610   1.077  -1.252  0.00  0.00     0.062 H 
ATOM     29  H   LIG d   1       5.317   2.366  -2.464  0.00  0.00     0.063 H 
ENDBRANCH  17  19
ENDBRANCH  16  17
ENDBRANCH  13  16
ENDBRANCH   1  13
BRANCH   9  30
ATOM     30  O   LIG d   1      11.212   3.643  -1.809  0.00  0.00    -0.385 OA
ATOM     31  H   LIG d   1      11.177   2.677  -1.817  0.00  0.00     0.210 HD
ENDBRANCH   9  30
BRANCH   7  32
ATOM     32  O   LIG d   1      10.384   6.296  -1.062  0.00  0.00    -0.451 OA
BRANCH  32  33
ATOM     33  C   LIG d   1       9.741   7.445  -0.777  0.00  0.00     0.340 C 
ATOM     34  O   LIG d   1       8.601   7.613  -1.160  0.00  0.00    -0.245 OA
BRANCH  33  35
ATOM     35  C   LIG d   1      10.421   8.499   0.002  0.00  0.00     0.059 A 
ATOM     36  C   LIG d   1      10.082   9.840  -0.187  0.00  0.00    -0.048 A 
ATOM     37  C   LIG d   1      10.721  10.821   0.544  0.00  0.00    -0.061 A 
ATOM     38  H   LIG d   1       9.322  10.110  -0.905  0.00  0.00     0.063 H 
ATOM     39  C   LIG d   1      11.696  10.477   1.463  0.00  0.00    -0.062 A 
ATOM     40  H   LIG d   1      10.460  11.858   0.397  0.00  0.00     0.062 H 
ATOM     41  C   LIG d   1      12.037   9.149   1.657  0.00  0.00    -0.061 A 
ATOM     42  H   LIG d   1      12.193  11.248   2.033  0.00  0.00     0.062 H 
ATOM     43  C   LIG d   1      11.402   8.159   0.936  0.00  0.00    -0.048 A 
ATOM     44  H   LIG d   1      12.799   8.888   2.376  0.00  0.00     0.062 H 
ATOM     45  H   LIG d   1      11.666   7.123   1.091  0.00  0.00     0.063 H 
ENDBRANCH  33  35
ENDBRANCH  32  33
ENDBRANCH   7  32
TORSDOF 8
ENDMDL
MODEL 7
REMARK VINA RESULT:      -6.6      1.440      4.770
REMARK  8 active torsions:
REMARK  status: ('A' for Active; 'I' for Inactive)
REMARK    1  A    between atoms: C_4  and  C_7 
REMARK    2  A    between atoms: C_7  and  O_9 
REMARK    3  A    between atoms: O_9  and  C_10 
REMARK    4  A    between atoms: C_10  and  C_11 
REMARK    5  A    between atoms: C_17  and  O_22 
REMARK    6  A    between atoms: C_19  and  O_21 
REMARK    7  A    between atoms: O_22  and  C_23 
REMARK    8  A    between atoms: C_23  and  C_25 
ROOT
ATOM      1  C   LIG d   1       3.900   0.909  -8.324  0.00  0.00     0.163 A 
ATOM      2  C   LIG d   1       3.853   1.416  -9.774  0.00  0.00     0.113 A 
ATOM      3  H   LIG d   1       2.912   1.817 -10.151  0.00  0.00     0.067 H 
ATOM      4  O   LIG d   1       4.521   2.129  -8.732  0.00  0.00    -0.354 OA
ATOM      5  C   LIG d   1       4.714   0.677 -10.770  0.00  0.00    -0.053 C 
ATOM      6  C   LIG d   1       5.751  -0.012 -10.363  0.00  0.00    -0.043 C 
ATOM      7  C   LIG d   1       6.107  -0.065  -8.898  0.00  0.00     0.150 C 
ATOM      8  H   LIG d   1       6.566   0.878  -8.600  0.00  0.00     0.081 H 
ATOM      9  C   LIG d   1       4.826  -0.297  -8.085  0.00  0.00     0.131 C 
ATOM     10  H   LIG d   1       5.068  -0.375  -7.025  0.00  0.00     0.067 H 
ATOM     11  H   LIG d   1       4.472   0.714 -11.821  0.00  0.00     0.060 H 
ATOM     12  H   LIG d   1       6.358  -0.543 -11.082  0.00  0.00     0.061 H 
ENDROOT
BRANCH   1  13
ATOM     13  C   LIG d   1       2.638   0.977  -7.460  0.00  0.00     0.127 C 
ATOM     14  H   LIG d   1       2.451   2.012  -7.175  0.00  0.00     0.073 H 
ATOM     15  H   LIG d   1       1.789   0.597  -8.027  0.00  0.00     0.073 H 
BRANCH  13  16
ATOM     16  O   LIG d   1       2.824   0.172  -6.267  0.00  0.00    -0.458 OA
BRANCH  16  17
ATOM     17  C   LIG d   1       2.824   0.821  -5.085  0.00  0.00     0.339 C 
ATOM     18  O   LIG d   1       2.375   1.946  -5.011  0.00  0.00    -0.245 OA
BRANCH  17  19
ATOM     19  C   LIG d   1       3.372   0.163  -3.881  0.00  0.00     0.059 A 
ATOM     20  C   LIG d   1       3.213  -1.213  -3.701  0.00  0.00    -0.048 A 
ATOM     21  C   LIG d   1       3.727  -1.821  -2.575  0.00  0.00    -0.061 A 
ATOM     22  H   LIG d   1       2.689  -1.798  -4.442  0.00  0.00     0.063 H 
ATOM     23  C   LIG d   1       4.401  -1.072  -1.626  0.00  0.00    -0.062 A 
ATOM     24  H   LIG d   1       3.605  -2.885  -2.434  0.00  0.00     0.062 H 
ATOM     25  C   LIG d   1       4.561   0.291  -1.799  0.00  0.00    -0.061 A 
ATOM     26  H   LIG d   1       4.801  -1.553  -0.747  0.00  0.00     0.062 H 
ATOM     27  C   LIG d   1       4.057   0.912  -2.923  0.00  0.00    -0.048 A 
ATOM     28  H   LIG d   1       5.086   0.871  -1.054  0.00  0.00     0.062 H 
ATOM     29  H   LIG d   1       4.187   1.976  -3.057  0.00  0.00     0.063 H 
ENDBRANCH  17  19
ENDBRANCH  16  17
ENDBRANCH  13  16
ENDBRANCH   1  13
BRANCH   9  30
ATOM     30  O   LIG d   1       4.184  -1.496  -8.524  0.00  0.00    -0.385 OA
ATOM     31  H   LIG d   1       3.431  -1.347  -9.113  0.00  0.00     0.210 HD
ENDBRANCH   9  30
BRANCH   7  32
ATOM     32  O   LIG d   1       7.038  -1.154  -8.662  0.00  0.00    -0.451 OA
BRANCH  32  33
ATOM     33  C   LIG d   1       7.938  -0.987  -7.674  0.00  0.00     0.340 C 
ATOM     34  O   LIG d   1       8.998  -0.441  -7.903  0.00  0.00    -0.245 OA
BRANCH  33  35
ATOM     35  C   LIG d   1       7.636  -1.469  -6.311  0.00  0.00     0.059 A 
ATOM     36  C   LIG d   1       7.379  -2.823  -6.086  0.00  0.00    -0.048 A 
ATOM     37  C   LIG d   1       7.098  -3.268  -4.811  0.00  0.00    -0.061 A 
ATOM     38  H   LIG d   1       7.399  -3.522  -6.910  0.00  0.00     0.063 H 
ATOM     39  C   LIG d   1       7.071  -2.374  -3.755  0.00  0.00    -0.062 A 
ATOM     40  H   LIG d   1       6.898  -4.315  -4.636  0.00  0.00     0.062 H 
ATOM     41  C   LIG d   1       7.325  -1.031  -3.970  0.00  0.00    -0.061 A 
ATOM     42  H   LIG d   1       6.850  -2.727  -2.758  0.00  0.00     0.062 H 
ATOM     43  C   LIG d   1       7.612  -0.574  -5.239  0.00  0.00    -0.048 A 
ATOM     44  H   LIG d   1       7.301  -0.339  -3.141  0.00  0.00     0.062 H 
ATOM     45  H   LIG d   1       7.815   0.473  -5.405  0.00  0.00     0.063 H 
ENDBRANCH  33  35
ENDBRANCH  32  33
ENDBRANCH   7  32
TORSDOF 8
ENDMDL
MODEL 8
REMARK VINA RESULT:      -6.6      1.901      4.863
REMARK  8 active torsions:
REMARK  status: ('A' for Active; 'I' for Inactive)
REMARK    1  A    between atoms: C_4  and  C_7 
REMARK    2  A    between atoms: C_7  and  O_9 
REMARK    3  A    between atoms: O_9  and  C_10 
REMARK    4  A    between atoms: C_10  and  C_11 
REMARK    5  A    between atoms: C_17  and  O_22 
REMARK    6  A    between atoms: C_19  and  O_21 
REMARK    7  A    between atoms: O_22  and  C_23 
REMARK    8  A    between atoms: C_23  and  C_25 
ROOT
ATOM      1  C   LIG d   1       4.198   0.101  -7.897  0.00  0.00     0.163 A 
ATOM      2  C   LIG d   1       4.396  -0.156  -9.399  0.00  0.00     0.113 A 
ATOM      3  H   LIG d   1       3.575   0.081 -10.076  0.00  0.00     0.067 H 
ATOM      4  O   LIG d   1       5.037   0.920  -8.713  0.00  0.00    -0.354 OA
ATOM      5  C   LIG d   1       5.247  -1.348  -9.768  0.00  0.00    -0.053 C 
ATOM      6  C   LIG d   1       6.115  -1.829  -8.913  0.00  0.00    -0.043 C 
ATOM      7  C   LIG d   1       6.287  -1.191  -7.556  0.00  0.00     0.150 C 
ATOM      8  H   LIG d   1       6.843  -0.259  -7.659  0.00  0.00     0.081 H 
ATOM      9  C   LIG d   1       4.900  -0.903  -6.966  0.00  0.00     0.131 C 
ATOM     10  H   LIG d   1       5.003  -0.475  -5.969  0.00  0.00     0.067 H 
ATOM     11  H   LIG d   1       5.136  -1.807 -10.738  0.00  0.00     0.060 H 
ATOM     12  H   LIG d   1       6.716  -2.685  -9.182  0.00  0.00     0.061 H 
ENDROOT
BRANCH   1  13
ATOM     13  C   LIG d   1       2.869   0.674  -7.399  0.00  0.00     0.127 C 
ATOM     14  H   LIG d   1       2.955   1.756  -7.302  0.00  0.00     0.073 H 
ATOM     15  H   LIG d   1       2.080   0.434  -8.111  0.00  0.00     0.073 H 
BRANCH  13  16
ATOM     16  O   LIG d   1       2.547   0.097  -6.107  0.00  0.00    -0.458 OA
BRANCH  16  17
ATOM     17  C   LIG d   1       2.682   0.896  -5.029  0.00  0.00     0.339 C 
ATOM     18  O   LIG d   1       2.282   2.041  -5.069  0.00  0.00    -0.245 OA
BRANCH  17  19
ATOM     19  C   LIG d   1       3.316   0.376  -3.800  0.00  0.00     0.059 A 
ATOM     20  C   LIG d   1       3.363  -0.999  -3.563  0.00  0.00    -0.048 A 
ATOM     21  C   LIG d   1       3.957  -1.477  -2.413  0.00  0.00    -0.061 A 
ATOM     22  H   LIG d   1       2.935  -1.685  -4.278  0.00  0.00     0.063 H 
ATOM     23  C   LIG d   1       4.507  -0.598  -1.497  0.00  0.00    -0.062 A 
ATOM     24  H   LIG d   1       3.994  -2.541  -2.229  0.00  0.00     0.062 H 
ATOM     25  C   LIG d   1       4.463   0.766  -1.726  0.00  0.00    -0.061 A 
ATOM     26  H   LIG d   1       4.971  -0.978  -0.600  0.00  0.00     0.062 H 
ATOM     27  C   LIG d   1       3.877   1.258  -2.874  0.00  0.00    -0.048 A 
ATOM     28  H   LIG d   1       4.893   1.447  -1.007  0.00  0.00     0.062 H 
ATOM     29  H   LIG d   1       3.847   2.322  -3.053  0.00  0.00     0.063 H 
ENDBRANCH  17  19
ENDBRANCH  16  17
ENDBRANCH  13  16
ENDBRANCH   1  13
BRANCH   9  30
ATOM     30  O   LIG d   1       4.142  -2.113  -6.897  0.00  0.00    -0.385 OA
ATOM     31  H   LIG d   1       4.632  -2.865  -6.538  0.00  0.00     0.210 HD
ENDBRANCH   9  30
BRANCH   7  32
ATOM     32  O   LIG d   1       7.011  -2.095  -6.681  0.00  0.00    -0.451 OA
BRANCH  32  33
ATOM     33  C   LIG d   1       7.065  -1.771  -5.375  0.00  0.00     0.340 C 
ATOM     34  O   LIG d   1       6.516  -2.476  -4.552  0.00  0.00    -0.245 OA
BRANCH  33  35
ATOM     35  C   LIG d   1       7.792  -0.560  -4.944  0.00  0.00     0.059 A 
ATOM     36  C   LIG d   1       9.125  -0.372  -5.313  0.00  0.00    -0.048 A 
ATOM     37  C   LIG d   1       9.798   0.762  -4.907  0.00  0.00    -0.061 A 
ATOM     38  H   LIG d   1       9.629  -1.114  -5.916  0.00  0.00     0.063 H 
ATOM     39  C   LIG d   1       9.154   1.712  -4.135  0.00  0.00    -0.062 A 
ATOM     40  H   LIG d   1      10.829   0.907  -5.192  0.00  0.00     0.062 H 
ATOM     41  C   LIG d   1       7.832   1.533  -3.765  0.00  0.00    -0.061 A 
ATOM     42  H   LIG d   1       9.685   2.598  -3.820  0.00  0.00     0.062 H 
ATOM     43  C   LIG d   1       7.146   0.406  -4.169  0.00  0.00    -0.048 A 
ATOM     44  H   LIG d   1       7.336   2.278  -3.162  0.00  0.00     0.062 H 
ATOM     45  H   LIG d   1       6.114   0.270  -3.884  0.00  0.00     0.063 H 
ENDBRANCH  33  35
ENDBRANCH  32  33
ENDBRANCH   7  32
TORSDOF 8
ENDMDL
MODEL 9
REMARK VINA RESULT:      -6.5      2.134      5.600
REMARK  8 active torsions:
REMARK  status: ('A' for Active; 'I' for Inactive)
REMARK    1  A    between atoms: C_4  and  C_7 
REMARK    2  A    between atoms: C_7  and  O_9 
REMARK    3  A    between atoms: O_9  and  C_10 
REMARK    4  A    between atoms: C_10  and  C_11 
REMARK    5  A    between atoms: C_17  and  O_22 
REMARK    6  A    between atoms: C_19  and  O_21 
REMARK    7  A    between atoms: O_22  and  C_23 
REMARK    8  A    between atoms: C_23  and  C_25 
ROOT
ATOM      1  C   LIG d   1       6.966   0.297  -6.825  0.00  0.00     0.163 A 
ATOM      2  C   LIG d   1       8.444   0.516  -6.462  0.00  0.00     0.113 A 
ATOM      3  H   LIG d   1       9.083   1.026  -7.184  0.00  0.00     0.067 H 
ATOM      4  O   LIG d   1       7.386   1.259  -5.856  0.00  0.00    -0.354 OA
ATOM      5  C   LIG d   1       9.097  -0.563  -5.633  0.00  0.00    -0.053 C 
ATOM      6  C   LIG d   1       8.366  -1.363  -4.897  0.00  0.00    -0.043 C 
ATOM      7  C   LIG d   1       6.866  -1.208  -4.857  0.00  0.00     0.150 C 
ATOM      8  H   LIG d   1       6.604  -0.343  -4.248  0.00  0.00     0.081 H 
ATOM      9  C   LIG d   1       6.351  -1.007  -6.289  0.00  0.00     0.131 C 
ATOM     10  H   LIG d   1       5.263  -0.930  -6.285  0.00  0.00     0.067 H 
ATOM     11  H   LIG d   1      10.170  -0.678  -5.649  0.00  0.00     0.060 H 
ATOM     12  H   LIG d   1       8.840  -2.137  -4.311  0.00  0.00     0.061 H 
ENDROOT
BRANCH   1  13
ATOM     13  C   LIG d   1       6.440   0.792  -8.175  0.00  0.00     0.127 C 
ATOM     14  H   LIG d   1       7.008   1.669  -8.485  0.00  0.00     0.073 H 
ATOM     15  H   LIG d   1       6.553   0.005  -8.919  0.00  0.00     0.073 H 
BRANCH  13  16
ATOM     16  O   LIG d   1       5.038   1.143  -8.048  0.00  0.00    -0.458 OA
BRANCH  16  17
ATOM     17  C   LIG d   1       4.413   1.577  -9.161  0.00  0.00     0.339 C 
ATOM     18  O   LIG d   1       4.613   2.703  -9.568  0.00  0.00    -0.245 OA
BRANCH  17  19
ATOM     19  C   LIG d   1       3.486   0.682  -9.884  0.00  0.00     0.059 A 
ATOM     20  C   LIG d   1       3.757   0.309 -11.202  0.00  0.00    -0.048 A 
ATOM     21  C   LIG d   1       2.886  -0.526 -11.871  0.00  0.00    -0.061 A 
ATOM     22  H   LIG d   1       4.645   0.674 -11.695  0.00  0.00     0.063 H 
ATOM     23  C   LIG d   1       1.749  -0.996 -11.239  0.00  0.00    -0.062 A 
ATOM     24  H   LIG d   1       3.095  -0.816 -12.891  0.00  0.00     0.062 H 
ATOM     25  C   LIG d   1       1.474  -0.629  -9.934  0.00  0.00    -0.061 A 
ATOM     26  H   LIG d   1       1.072  -1.650 -11.767  0.00  0.00     0.062 H 
ATOM     27  C   LIG d   1       2.338   0.202  -9.250  0.00  0.00    -0.048 A 
ATOM     28  H   LIG d   1       0.584  -0.998  -9.446  0.00  0.00     0.062 H 
ATOM     29  H   LIG d   1       2.125   0.483  -8.230  0.00  0.00     0.063 H 
ENDBRANCH  17  19
ENDBRANCH  16  17
ENDBRANCH  13  16
ENDBRANCH   1  13
BRANCH   9  30
ATOM     30  O   LIG d   1       6.754  -2.107  -7.108  0.00  0.00    -0.385 OA
ATOM     31  H   LIG d   1       7.426  -2.674  -6.704  0.00  0.00     0.210 HD
ENDBRANCH   9  30
BRANCH   7  32
ATOM     32  O   LIG d   1       6.268  -2.402  -4.287  0.00  0.00    -0.451 OA
BRANCH  32  33
ATOM     33  C   LIG d   1       4.999  -2.302  -3.847  0.00  0.00     0.340 C 
ATOM     34  O   LIG d   1       4.273  -3.276  -3.858  0.00  0.00    -0.245 OA
BRANCH  33  35
ATOM     35  C   LIG d   1       4.488  -1.007  -3.353  0.00  0.00     0.059 A 
ATOM     36  C   LIG d   1       4.942  -0.493  -2.136  0.00  0.00    -0.048 A 
ATOM     37  C   LIG d   1       4.462   0.718  -1.679  0.00  0.00    -0.061 A 
ATOM     38  H   LIG d   1       5.667  -1.042  -1.553  0.00  0.00     0.063 H 
ATOM     39  C   LIG d   1       3.533   1.421  -2.425  0.00  0.00    -0.062 A 
ATOM     40  H   LIG d   1       4.812   1.116  -0.739  0.00  0.00     0.062 H 
ATOM     41  C   LIG d   1       3.079   0.918  -3.632  0.00  0.00    -0.061 A 
ATOM     42  H   LIG d   1       3.160   2.369  -2.063  0.00  0.00     0.062 H 
ATOM     43  C   LIG d   1       3.555  -0.288  -4.102  0.00  0.00    -0.048 A 
ATOM     44  H   LIG d   1       2.353   1.473  -4.207  0.00  0.00     0.062 H 
ATOM     45  H   LIG d   1       3.203  -0.678  -5.046  0.00  0.00     0.063 H 
ENDBRANCH  33  35
ENDBRANCH  32  33
ENDBRANCH   7  32
TORSDOF 8
ENDMDL
