MODEL 1
REMARK VINA RESULT:      -6.9      0.000      0.000
REMARK  5 active torsions:
REMARK  status: ('A' for Active; 'I' for Inactive)
REMARK    1  A    between atoms: C_1  and  O_2 
REMARK    2  A    between atoms: O_2  and  C_3 
REMARK    3  A    between atoms: C_6  and  C_9 
REMARK    4  A    between atoms: C_10  and  C_20 
REMARK    5  A    between atoms: N_12  and  C_14 
ROOT
ATOM      1  C   LIG d   1       4.551  -3.580  -7.281  0.00  0.00     0.105 A 
ATOM      2  C   LIG d   1       4.665  -3.609  -5.821  0.00  0.00     0.083 A 
ATOM      3  C   LIG d   1       4.713  -4.927  -5.459  0.00  0.00     0.044 A 
ATOM      4  N   LIG d   1       4.637  -5.671  -6.579  0.00  0.00    -0.238 N 
ATOM      5  N   LIG d   1       4.533  -4.829  -7.691  0.00  0.00    -0.166 NA
ATOM      6  H   LIG d   1       4.797  -5.305  -4.450  0.00  0.00     0.084 H 
ENDROOT
BRANCH   1   7
ATOM      7  C   LIG d   1       4.465  -2.371  -8.135  0.00  0.00     0.003 A 
ATOM      8  C   LIG d   1       5.617  -1.649  -8.444  0.00  0.00    -0.049 A 
ATOM      9  C   LIG d   1       5.534  -0.526  -9.238  0.00  0.00    -0.019 A 
ATOM     10  H   LIG d   1       6.574  -1.971  -8.061  0.00  0.00     0.062 H 
ATOM     11  C   LIG d   1       4.304  -0.113  -9.731  0.00  0.00     0.120 A 
ATOM     12  H   LIG d   1       6.427   0.034  -9.477  0.00  0.00     0.065 H 
ATOM     13  C   LIG d   1       3.153  -0.825  -9.422  0.00  0.00    -0.019 A 
ATOM     14  C   LIG d   1       3.230  -1.953  -8.632  0.00  0.00    -0.049 A 
ATOM     15  H   LIG d   1       2.198  -0.499  -9.804  0.00  0.00     0.065 H 
ATOM     16  H   LIG d   1       2.335  -2.509  -8.396  0.00  0.00     0.062 H 
BRANCH  11  17
ATOM     17  O   LIG d   1       4.225   0.995 -10.514  0.00  0.00    -0.495 OA
BRANCH  17  18
ATOM     18  C   LIG d   1       3.760   2.196  -9.895  0.00  0.00     0.079 C 
ATOM     19  H   LIG d   1       3.925   3.039 -10.565  0.00  0.00     0.066 H 
ATOM     20  H   LIG d   1       2.695   2.106  -9.680  0.00  0.00     0.066 H 
ATOM     21  H   LIG d   1       4.306   2.359  -8.965  0.00  0.00     0.066 H 
ENDBRANCH  17  18
ENDBRANCH  11  17
ENDBRANCH   1   7
BRANCH   2  22
ATOM     22  C   LIG d   1       4.718  -2.444  -4.917  0.00  0.00     0.232 A 
ATOM     23  O   LIG d   1       5.693  -1.515  -4.910  0.00  0.00    -0.435 OA
ATOM     24  C   LIG d   1       5.401  -0.605  -3.954  0.00  0.00     0.156 A 
ATOM     25  C   LIG d   1       4.199  -1.024  -3.361  0.00  0.00     0.110 A 
ATOM     26  C   LIG d   1       6.025   0.548  -3.505  0.00  0.00    -0.017 A 
ATOM     27  N   LIG d   1       3.826  -2.165  -3.998  0.00  0.00    -0.209 NA
ATOM     28  C   LIG d   1       3.643  -0.275  -2.322  0.00  0.00    -0.033 A 
ATOM     29  C   LIG d   1       4.278   0.868  -1.888  0.00  0.00    -0.059 A 
ATOM     30  H   LIG d   1       2.718  -0.590  -1.860  0.00  0.00     0.064 H 
ATOM     31  C   LIG d   1       5.464   1.278  -2.478  0.00  0.00    -0.058 A 
ATOM     32  H   LIG d   1       3.848   1.449  -1.085  0.00  0.00     0.062 H 
ATOM     33  H   LIG d   1       5.953   2.176  -2.129  0.00  0.00     0.062 H 
ATOM     34  H   LIG d   1       6.950   0.874  -3.958  0.00  0.00     0.066 H 
ENDBRANCH   2  22
BRANCH   4  35
ATOM     35  C   LIG d   1       4.655  -7.070  -6.624  0.00  0.00     0.065 A 
ATOM     36  C   LIG d   1       4.979  -7.798  -5.487  0.00  0.00    -0.036 A 
ATOM     37  C   LIG d   1       4.990  -9.178  -5.532  0.00  0.00    -0.060 A 
ATOM     38  H   LIG d   1       5.217  -7.286  -4.566  0.00  0.00     0.064 H 
ATOM     39  C   LIG d   1       4.692  -9.836  -6.711  0.00  0.00    -0.062 A 
ATOM     40  H   LIG d   1       5.236  -9.745  -4.646  0.00  0.00     0.062 H 
ATOM     41  C   LIG d   1       4.375  -9.113  -7.848  0.00  0.00    -0.060 A 
ATOM     42  H   LIG d   1       4.706 -10.915  -6.746  0.00  0.00     0.062 H 
ATOM     43  C   LIG d   1       4.356  -7.733  -7.807  0.00  0.00    -0.036 A 
ATOM     44  H   LIG d   1       4.142  -9.629  -8.768  0.00  0.00     0.062 H 
ATOM     45  H   LIG d   1       4.108  -7.169  -8.694  0.00  0.00     0.064 H 
ENDBRANCH   4  35
TORSDOF 5
ENDMDL
MODEL 2
REMARK VINA RESULT:      -6.7      4.137      5.707
REMARK  5 active torsions:
REMARK  status: ('A' for Active; 'I' for Inactive)
REMARK    1  A    between atoms: C_1  and  O_2 
REMARK    2  A    between atoms: O_2  and  C_3 
REMARK    3  A    between atoms: C_6  and  C_9 
REMARK    4  A    between atoms: C_10  and  C_20 
REMARK    5  A    between atoms: N_12  and  C_14 
ROOT
ATOM      1  C   LIG d   1       5.045   0.067  -8.733  0.00  0.00     0.105 A 
ATOM      2  C   LIG d   1       4.058  -0.569  -7.857  0.00  0.00     0.083 A 
ATOM      3  C   LIG d   1       3.094  -1.098  -8.672  0.00  0.00     0.044 A 
ATOM      4  N   LIG d   1       3.432  -0.826  -9.948  0.00  0.00    -0.238 N 
ATOM      5  N   LIG d   1       4.631  -0.106  -9.969  0.00  0.00    -0.166 NA
ATOM      6  H   LIG d   1       2.216  -1.637  -8.349  0.00  0.00     0.084 H 
ENDROOT
BRANCH   1   7
ATOM      7  C   LIG d   1       6.275   0.776  -8.307  0.00  0.00     0.003 A 
ATOM      8  C   LIG d   1       7.041   0.277  -7.254  0.00  0.00    -0.049 A 
ATOM      9  C   LIG d   1       8.184   0.938  -6.860  0.00  0.00    -0.019 A 
ATOM     10  H   LIG d   1       6.738  -0.628  -6.748  0.00  0.00     0.062 H 
ATOM     11  C   LIG d   1       8.574   2.101  -7.511  0.00  0.00     0.120 A 
ATOM     12  H   LIG d   1       8.778   0.553  -6.044  0.00  0.00     0.065 H 
ATOM     13  C   LIG d   1       7.811   2.604  -8.557  0.00  0.00    -0.019 A 
ATOM     14  C   LIG d   1       6.669   1.944  -8.959  0.00  0.00    -0.049 A 
ATOM     15  H   LIG d   1       8.115   3.511  -9.058  0.00  0.00     0.065 H 
ATOM     16  H   LIG d   1       6.079   2.334  -9.775  0.00  0.00     0.062 H 
BRANCH  11  17
ATOM     17  O   LIG d   1       9.702   2.751  -7.121  0.00  0.00    -0.495 OA
BRANCH  17  18
ATOM     18  C   LIG d   1       9.650   3.449  -5.875  0.00  0.00     0.079 C 
ATOM     19  H   LIG d   1       9.758   2.739  -5.056  0.00  0.00     0.066 H 
ATOM     20  H   LIG d   1      10.460   4.178  -5.832  0.00  0.00     0.066 H 
ATOM     21  H   LIG d   1       8.693   3.963  -5.786  0.00  0.00     0.066 H 
ENDBRANCH  17  18
ENDBRANCH  11  17
ENDBRANCH   1   7
BRANCH   2  22
ATOM     22  C   LIG d   1       4.095  -0.629  -6.383  0.00  0.00     0.232 A 
ATOM     23  O   LIG d   1       4.378  -1.729  -5.661  0.00  0.00    -0.435 OA
ATOM     24  C   LIG d   1       4.320  -1.400  -4.352  0.00  0.00     0.156 A 
ATOM     25  C   LIG d   1       3.977  -0.040  -4.299  0.00  0.00     0.110 A 
ATOM     26  C   LIG d   1       4.518  -2.107  -3.176  0.00  0.00    -0.017 A 
ATOM     27  N   LIG d   1       3.852   0.381  -5.584  0.00  0.00    -0.209 NA
ATOM     28  C   LIG d   1       3.836   0.589  -3.060  0.00  0.00    -0.033 A 
ATOM     29  C   LIG d   1       4.036  -0.129  -1.902  0.00  0.00    -0.059 A 
ATOM     30  H   LIG d   1       3.573   1.636  -3.010  0.00  0.00     0.064 H 
ATOM     31  C   LIG d   1       4.376  -1.472  -1.959  0.00  0.00    -0.058 A 
ATOM     32  H   LIG d   1       3.928   0.358  -0.943  0.00  0.00     0.062 H 
ATOM     33  H   LIG d   1       4.530  -2.025  -1.044  0.00  0.00     0.062 H 
ATOM     34  H   LIG d   1       4.783  -3.154  -3.211  0.00  0.00     0.066 H 
ENDBRANCH   2  22
BRANCH   4  35
ATOM     35  C   LIG d   1       2.695  -1.203 -11.077  0.00  0.00     0.065 A 
ATOM     36  C   LIG d   1       1.308  -1.240 -11.022  0.00  0.00    -0.036 A 
ATOM     37  C   LIG d   1       0.584  -1.606 -12.139  0.00  0.00    -0.060 A 
ATOM     38  H   LIG d   1       0.796  -0.979 -10.108  0.00  0.00     0.064 H 
ATOM     39  C   LIG d   1       1.238  -1.948 -13.308  0.00  0.00    -0.062 A 
ATOM     40  H   LIG d   1      -0.495  -1.630 -12.099  0.00  0.00     0.062 H 
ATOM     41  C   LIG d   1       2.621  -1.917 -13.365  0.00  0.00    -0.060 A 
ATOM     42  H   LIG d   1       0.670  -2.239 -14.180  0.00  0.00     0.062 H 
ATOM     43  C   LIG d   1       3.350  -1.546 -12.253  0.00  0.00    -0.036 A 
ATOM     44  H   LIG d   1       3.129  -2.184 -14.280  0.00  0.00     0.062 H 
ATOM     45  H   LIG d   1       4.429  -1.522 -12.297  0.00  0.00     0.064 H 
ENDBRANCH   4  35
TORSDOF 5
ENDMDL
MODEL 3
REMARK VINA RESULT:      -6.5      1.406      4.897
REMARK  5 active torsions:
REMARK  status: ('A' for Active; 'I' for Inactive)
REMARK    1  A    between atoms: C_1  and  O_2 
REMARK    2  A    between atoms: O_2  and  C_3 
REMARK    3  A    between atoms: C_6  and  C_9 
REMARK    4  A    between atoms: C_10  and  C_20 
REMARK    5  A    between atoms: N_12  and  C_14 
ROOT
ATOM      1  C   LIG d   1       4.814  -3.540  -5.772  0.00  0.00     0.105 A 
ATOM      2  C   LIG d   1       4.449  -3.428  -7.186  0.00  0.00     0.083 A 
ATOM      3  C   LIG d   1       4.347  -4.706  -7.666  0.00  0.00     0.044 A 
ATOM      4  N   LIG d   1       4.621  -5.553  -6.655  0.00  0.00    -0.238 N 
ATOM      5  N   LIG d   1       4.911  -4.822  -5.499  0.00  0.00    -0.166 NA
ATOM      6  H   LIG d   1       4.093  -4.984  -8.677  0.00  0.00     0.084 H 
ENDROOT
BRANCH   1   7
ATOM      7  C   LIG d   1       5.039  -2.419  -4.828  0.00  0.00     0.003 A 
ATOM      8  C   LIG d   1       4.124  -2.172  -3.805  0.00  0.00    -0.049 A 
ATOM      9  C   LIG d   1       4.336  -1.130  -2.928  0.00  0.00    -0.019 A 
ATOM     10  H   LIG d   1       3.251  -2.799  -3.699  0.00  0.00     0.062 H 
ATOM     11  C   LIG d   1       5.459  -0.325  -3.064  0.00  0.00     0.120 A 
ATOM     12  H   LIG d   1       3.627  -0.938  -2.136  0.00  0.00     0.065 H 
ATOM     13  C   LIG d   1       6.370  -0.564  -4.084  0.00  0.00    -0.019 A 
ATOM     14  C   LIG d   1       6.166  -1.609  -4.961  0.00  0.00    -0.049 A 
ATOM     15  H   LIG d   1       7.240   0.066  -4.189  0.00  0.00     0.065 H 
ATOM     16  H   LIG d   1       6.877  -1.797  -5.752  0.00  0.00     0.062 H 
BRANCH  11  17
ATOM     17  O   LIG d   1       5.665   0.702  -2.198  0.00  0.00    -0.495 OA
BRANCH  17  18
ATOM     18  C   LIG d   1       4.509   1.279  -1.588  0.00  0.00     0.079 C 
ATOM     19  H   LIG d   1       4.527   1.081  -0.517  0.00  0.00     0.066 H 
ATOM     20  H   LIG d   1       4.506   2.355  -1.758  0.00  0.00     0.066 H 
ATOM     21  H   LIG d   1       3.612   0.839  -2.024  0.00  0.00     0.066 H 
ENDBRANCH  17  18
ENDBRANCH  11  17
ENDBRANCH   1   7
BRANCH   2  22
ATOM     22  C   LIG d   1       4.232  -2.181  -7.945  0.00  0.00     0.232 A 
ATOM     23  O   LIG d   1       4.729  -1.927  -9.170  0.00  0.00    -0.435 OA
ATOM     24  C   LIG d   1       4.319  -0.694  -9.543  0.00  0.00     0.156 A 
ATOM     25  C   LIG d   1       3.550  -0.193  -8.480  0.00  0.00     0.110 A 
ATOM     26  C   LIG d   1       4.513   0.079 -10.676  0.00  0.00    -0.017 A 
ATOM     27  N   LIG d   1       3.532  -1.157  -7.523  0.00  0.00    -0.209 NA
ATOM     28  C   LIG d   1       2.989   1.082  -8.574  0.00  0.00    -0.033 A 
ATOM     29  C   LIG d   1       3.193   1.836  -9.708  0.00  0.00    -0.059 A 
ATOM     30  H   LIG d   1       2.395   1.475  -7.761  0.00  0.00     0.064 H 
ATOM     31  C   LIG d   1       3.952   1.337 -10.756  0.00  0.00    -0.058 A 
ATOM     32  H   LIG d   1       2.758   2.823  -9.782  0.00  0.00     0.062 H 
ATOM     33  H   LIG d   1       4.106   1.938 -11.640  0.00  0.00     0.062 H 
ATOM     34  H   LIG d   1       5.104  -0.302 -11.497  0.00  0.00     0.066 H 
ENDBRANCH   2  22
BRANCH   4  35
ATOM     35  C   LIG d   1       4.620  -6.950  -6.750  0.00  0.00     0.065 A 
ATOM     36  C   LIG d   1       4.922  -7.724  -5.637  0.00  0.00    -0.036 A 
ATOM     37  C   LIG d   1       4.914  -9.101  -5.732  0.00  0.00    -0.060 A 
ATOM     38  H   LIG d   1       5.159  -7.249  -4.697  0.00  0.00     0.064 H 
ATOM     39  C   LIG d   1       4.618  -9.711  -6.937  0.00  0.00    -0.062 A 
ATOM     40  H   LIG d   1       5.144  -9.703  -4.866  0.00  0.00     0.062 H 
ATOM     41  C   LIG d   1       4.322  -8.944  -8.050  0.00  0.00    -0.060 A 
ATOM     42  H   LIG d   1       4.617 -10.789  -7.011  0.00  0.00     0.062 H 
ATOM     43  C   LIG d   1       4.323  -7.566  -7.960  0.00  0.00    -0.036 A 
ATOM     44  H   LIG d   1       4.090  -9.423  -8.990  0.00  0.00     0.062 H 
ATOM     45  H   LIG d   1       4.092  -6.967  -8.828  0.00  0.00     0.064 H 
ENDBRANCH   4  35
TORSDOF 5
ENDMDL
MODEL 4
REMARK VINA RESULT:      -6.5      4.916      8.513
REMARK  5 active torsions:
REMARK  status: ('A' for Active; 'I' for Inactive)
REMARK    1  A    between atoms: C_1  and  O_2 
REMARK    2  A    between atoms: O_2  and  C_3 
REMARK    3  A    between atoms: C_6  and  C_9 
REMARK    4  A    between atoms: C_10  and  C_20 
REMARK    5  A    between atoms: N_12  and  C_14 
ROOT
ATOM      1  C   LIG d   1       9.084   2.076  -5.555  0.00  0.00     0.105 A 
ATOM      2  C   LIG d   1       8.730   1.772  -4.167  0.00  0.00     0.083 A 
ATOM      3  C   LIG d   1       9.780   2.190  -3.395  0.00  0.00     0.044 A 
ATOM      4  N   LIG d   1      10.716   2.711  -4.211  0.00  0.00    -0.238 N 
ATOM      5  N   LIG d   1      10.276   2.629  -5.537  0.00  0.00    -0.166 NA
ATOM      6  H   LIG d   1       9.846   2.115  -2.320  0.00  0.00     0.084 H 
ENDROOT
BRANCH   1   7
ATOM      7  C   LIG d   1       8.258   1.804  -6.756  0.00  0.00     0.003 A 
ATOM      8  C   LIG d   1       7.389   0.714  -6.774  0.00  0.00    -0.049 A 
ATOM      9  C   LIG d   1       6.621   0.464  -7.892  0.00  0.00    -0.019 A 
ATOM     10  H   LIG d   1       7.317   0.066  -5.913  0.00  0.00     0.062 H 
ATOM     11  C   LIG d   1       6.713   1.297  -8.999  0.00  0.00     0.120 A 
ATOM     12  H   LIG d   1       5.948  -0.381  -7.907  0.00  0.00     0.065 H 
ATOM     13  C   LIG d   1       7.581   2.381  -8.986  0.00  0.00    -0.019 A 
ATOM     14  C   LIG d   1       8.348   2.639  -7.869  0.00  0.00    -0.049 A 
ATOM     15  H   LIG d   1       7.653   3.024  -9.850  0.00  0.00     0.065 H 
ATOM     16  H   LIG d   1       9.019   3.485  -7.859  0.00  0.00     0.062 H 
BRANCH  11  17
ATOM     17  O   LIG d   1       5.955   1.048 -10.099  0.00  0.00    -0.495 OA
BRANCH  17  18
ATOM     18  C   LIG d   1       4.593   1.479 -10.059  0.00  0.00     0.079 C 
ATOM     19  H   LIG d   1       4.390   1.953  -9.100  0.00  0.00     0.066 H 
ATOM     20  H   LIG d   1       4.415   2.194 -10.862  0.00  0.00     0.066 H 
ATOM     21  H   LIG d   1       3.937   0.618 -10.186  0.00  0.00     0.066 H 
ENDBRANCH  17  18
ENDBRANCH  11  17
ENDBRANCH   1   7
BRANCH   2  22
ATOM     22  C   LIG d   1       7.484   1.139  -3.692  0.00  0.00     0.232 A 
ATOM     23  O   LIG d   1       7.302  -0.185  -3.533  0.00  0.00    -0.435 OA
ATOM     24  C   LIG d   1       6.044  -0.385  -3.082  0.00  0.00     0.156 A 
ATOM     25  C   LIG d   1       5.452   0.883  -2.978  0.00  0.00     0.110 A 
ATOM     26  C   LIG d   1       5.315  -1.515  -2.745  0.00  0.00    -0.017 A 
ATOM     27  N   LIG d   1       6.390   1.785  -3.368  0.00  0.00    -0.209 NA
ATOM     28  C   LIG d   1       4.132   0.996  -2.536  0.00  0.00    -0.033 A 
ATOM     29  C   LIG d   1       3.423  -0.137  -2.206  0.00  0.00    -0.059 A 
ATOM     30  H   LIG d   1       3.669   1.969  -2.453  0.00  0.00     0.064 H 
ATOM     31  C   LIG d   1       4.012  -1.389  -2.309  0.00  0.00    -0.058 A 
ATOM     32  H   LIG d   1       2.402  -0.051  -1.863  0.00  0.00     0.062 H 
ATOM     33  H   LIG d   1       3.446  -2.271  -2.047  0.00  0.00     0.062 H 
ATOM     34  H   LIG d   1       5.766  -2.493  -2.823  0.00  0.00     0.066 H 
ENDBRANCH   2  22
BRANCH   4  35
ATOM     35  C   LIG d   1      11.941   3.248  -3.798  0.00  0.00     0.065 A 
ATOM     36  C   LIG d   1      13.114   2.528  -3.982  0.00  0.00    -0.036 A 
ATOM     37  C   LIG d   1      14.322   3.062  -3.578  0.00  0.00    -0.060 A 
ATOM     38  H   LIG d   1      13.083   1.553  -4.445  0.00  0.00     0.064 H 
ATOM     39  C   LIG d   1      14.363   4.307  -2.979  0.00  0.00    -0.062 A 
ATOM     40  H   LIG d   1      15.235   2.505  -3.726  0.00  0.00     0.062 H 
ATOM     41  C   LIG d   1      13.195   5.025  -2.788  0.00  0.00    -0.060 A 
ATOM     42  H   LIG d   1      15.308   4.722  -2.659  0.00  0.00     0.062 H 
ATOM     43  C   LIG d   1      11.985   4.499  -3.195  0.00  0.00    -0.036 A 
ATOM     44  H   LIG d   1      13.230   5.999  -2.321  0.00  0.00     0.062 H 
ATOM     45  H   LIG d   1      11.074   5.059  -3.047  0.00  0.00     0.064 H 
ENDBRANCH   4  35
TORSDOF 5
ENDMDL
MODEL 5
REMARK VINA RESULT:      -6.4      3.805      6.893
REMARK  5 active torsions:
REMARK  status: ('A' for Active; 'I' for Inactive)
REMARK    1  A    between atoms: C_1  and  O_2 
REMARK    2  A    between atoms: O_2  and  C_3 
REMARK    3  A    between atoms: C_6  and  C_9 
REMARK    4  A    between atoms: C_10  and  C_20 
REMARK    5  A    between atoms: N_12  and  C_14 
ROOT
ATOM      1  C   LIG d   1       5.435  -0.015  -8.955  0.00  0.00     0.105 A 
ATOM      2  C   LIG d   1       5.929   0.222  -7.596  0.00  0.00     0.083 A 
ATOM      3  C   LIG d   1       7.084   0.945  -7.720  0.00  0.00     0.044 A 
ATOM      4  N   LIG d   1       7.308   1.151  -9.032  0.00  0.00    -0.238 N 
ATOM      5  N   LIG d   1       6.289   0.552  -9.779  0.00  0.00    -0.166 NA
ATOM      6  H   LIG d   1       7.707   1.289  -6.908  0.00  0.00     0.084 H 
ENDROOT
BRANCH   1   7
ATOM      7  C   LIG d   1       4.208  -0.758  -9.331  0.00  0.00     0.003 A 
ATOM      8  C   LIG d   1       3.004  -0.077  -9.504  0.00  0.00    -0.049 A 
ATOM      9  C   LIG d   1       1.865  -0.770  -9.854  0.00  0.00    -0.019 A 
ATOM     10  H   LIG d   1       2.964   0.994  -9.366  0.00  0.00     0.062 H 
ATOM     11  C   LIG d   1       1.917  -2.146 -10.033  0.00  0.00     0.120 A 
ATOM     12  H   LIG d   1       0.932  -0.243  -9.988  0.00  0.00     0.065 H 
ATOM     13  C   LIG d   1       3.113  -2.829  -9.856  0.00  0.00    -0.019 A 
ATOM     14  C   LIG d   1       4.257  -2.140  -9.511  0.00  0.00    -0.049 A 
ATOM     15  H   LIG d   1       3.148  -3.899  -9.992  0.00  0.00     0.065 H 
ATOM     16  H   LIG d   1       5.188  -2.671  -9.378  0.00  0.00     0.062 H 
BRANCH  11  17
ATOM     17  O   LIG d   1       0.792  -2.827 -10.378  0.00  0.00    -0.495 OA
BRANCH  17  18
ATOM     18  C   LIG d   1       0.948  -4.208 -10.714  0.00  0.00     0.079 C 
ATOM     19  H   LIG d   1       1.814  -4.328 -11.364  0.00  0.00     0.066 H 
ATOM     20  H   LIG d   1       1.093  -4.789  -9.804  0.00  0.00     0.066 H 
ATOM     21  H   LIG d   1       0.054  -4.558 -11.231  0.00  0.00     0.066 H 
ENDBRANCH  17  18
ENDBRANCH  11  17
ENDBRANCH   1   7
BRANCH   2  22
ATOM     22  C   LIG d   1       5.303  -0.231  -6.339  0.00  0.00     0.232 A 
ATOM     23  O   LIG d   1       4.143   0.236  -5.841  0.00  0.00    -0.435 OA
ATOM     24  C   LIG d   1       3.889  -0.414  -4.684  0.00  0.00     0.156 A 
ATOM     25  C   LIG d   1       4.958  -1.302  -4.485  0.00  0.00     0.110 A 
ATOM     26  C   LIG d   1       2.861  -0.354  -3.756  0.00  0.00    -0.017 A 
ATOM     27  N   LIG d   1       5.799  -1.144  -5.539  0.00  0.00    -0.209 NA
ATOM     28  C   LIG d   1       4.976  -2.118  -3.351  0.00  0.00    -0.033 A 
ATOM     29  C   LIG d   1       3.947  -2.044  -2.440  0.00  0.00    -0.059 A 
ATOM     30  H   LIG d   1       5.795  -2.805  -3.190  0.00  0.00     0.064 H 
ATOM     31  C   LIG d   1       2.892  -1.166  -2.641  0.00  0.00    -0.058 A 
ATOM     32  H   LIG d   1       3.960  -2.675  -1.563  0.00  0.00     0.062 H 
ATOM     33  H   LIG d   1       2.090  -1.117  -1.919  0.00  0.00     0.062 H 
ATOM     34  H   LIG d   1       2.037   0.328  -3.905  0.00  0.00     0.066 H 
ENDBRANCH   2  22
BRANCH   4  35
ATOM     35  C   LIG d   1       8.395   1.854  -9.566  0.00  0.00     0.065 A 
ATOM     36  C   LIG d   1       9.218   1.252 -10.508  0.00  0.00    -0.036 A 
ATOM     37  C   LIG d   1      10.286   1.950 -11.037  0.00  0.00    -0.060 A 
ATOM     38  H   LIG d   1       9.022   0.240 -10.830  0.00  0.00     0.064 H 
ATOM     39  C   LIG d   1      10.544   3.243 -10.620  0.00  0.00    -0.062 A 
ATOM     40  H   LIG d   1      10.924   1.484 -11.773  0.00  0.00     0.062 H 
ATOM     41  C   LIG d   1       9.729   3.844  -9.677  0.00  0.00    -0.060 A 
ATOM     42  H   LIG d   1      11.382   3.786 -11.031  0.00  0.00     0.062 H 
ATOM     43  C   LIG d   1       8.656   3.154  -9.149  0.00  0.00    -0.036 A 
ATOM     44  H   LIG d   1       9.932   4.855  -9.354  0.00  0.00     0.062 H 
ATOM     45  H   LIG d   1       8.020   3.623  -8.414  0.00  0.00     0.064 H 
ENDBRANCH   4  35
TORSDOF 5
ENDMDL
MODEL 6
REMARK VINA RESULT:      -6.3      5.280      8.763
REMARK  5 active torsions:
REMARK  status: ('A' for Active; 'I' for Inactive)
REMARK    1  A    between atoms: C_1  and  O_2 
REMARK    2  A    between atoms: O_2  and  C_3 
REMARK    3  A    between atoms: C_6  and  C_9 
REMARK    4  A    between atoms: C_10  and  C_20 
REMARK    5  A    between atoms: N_12  and  C_14 
ROOT
ATOM      1  C   LIG d   1       8.359   2.120  -4.221  0.00  0.00     0.105 A 
ATOM      2  C   LIG d   1       8.249   1.414  -5.500  0.00  0.00     0.083 A 
ATOM      3  C   LIG d   1       7.309   0.435  -5.327  0.00  0.00     0.044 A 
ATOM      4  N   LIG d   1       6.860   0.507  -4.059  0.00  0.00    -0.238 N 
ATOM      5  N   LIG d   1       7.518   1.544  -3.390  0.00  0.00    -0.166 NA
ATOM      6  H   LIG d   1       6.984  -0.272  -6.076  0.00  0.00     0.084 H 
ENDROOT
BRANCH   1   7
ATOM      7  C   LIG d   1       9.254   3.262  -3.918  0.00  0.00     0.003 A 
ATOM      8  C   LIG d   1      10.223   3.147  -2.922  0.00  0.00    -0.049 A 
ATOM      9  C   LIG d   1      11.054   4.211  -2.644  0.00  0.00    -0.019 A 
ATOM     10  H   LIG d   1      10.322   2.224  -2.370  0.00  0.00     0.062 H 
ATOM     11  C   LIG d   1      10.926   5.397  -3.353  0.00  0.00     0.120 A 
ATOM     12  H   LIG d   1      11.804   4.123  -1.871  0.00  0.00     0.065 H 
ATOM     13  C   LIG d   1       9.959   5.518  -4.343  0.00  0.00    -0.019 A 
ATOM     14  C   LIG d   1       9.129   4.455  -4.630  0.00  0.00    -0.049 A 
ATOM     15  H   LIG d   1       9.861   6.443  -4.890  0.00  0.00     0.065 H 
ATOM     16  H   LIG d   1       8.380   4.548  -5.403  0.00  0.00     0.062 H 
BRANCH  11  17
ATOM     17  O   LIG d   1      11.747   6.445  -3.077  0.00  0.00    -0.495 OA
BRANCH  17  18
ATOM     18  C   LIG d   1      11.194   7.755  -3.214  0.00  0.00     0.079 C 
ATOM     19  H   LIG d   1      11.977   8.450  -3.515  0.00  0.00     0.066 H 
ATOM     20  H   LIG d   1      10.410   7.741  -3.970  0.00  0.00     0.066 H 
ATOM     21  H   LIG d   1      10.774   8.073  -2.260  0.00  0.00     0.066 H 
ENDBRANCH  17  18
ENDBRANCH  11  17
ENDBRANCH   1   7
BRANCH   2  22
ATOM     22  C   LIG d   1       9.004   1.702  -6.735  0.00  0.00     0.232 A 
ATOM     23  O   LIG d   1       8.520   2.369  -7.799  0.00  0.00    -0.435 OA
ATOM     24  C   LIG d   1       9.496   2.442  -8.730  0.00  0.00     0.156 A 
ATOM     25  C   LIG d   1      10.609   1.775  -8.192  0.00  0.00     0.110 A 
ATOM     26  C   LIG d   1       9.574   3.000  -9.996  0.00  0.00    -0.017 A 
ATOM     27  N   LIG d   1      10.245   1.341  -6.958  0.00  0.00    -0.209 NA
ATOM     28  C   LIG d   1      11.785   1.680  -8.939  0.00  0.00    -0.033 A 
ATOM     29  C   LIG d   1      11.844   2.241 -10.196  0.00  0.00    -0.059 A 
ATOM     30  H   LIG d   1      12.646   1.170  -8.532  0.00  0.00     0.064 H 
ATOM     31  C   LIG d   1      10.743   2.899 -10.723  0.00  0.00    -0.058 A 
ATOM     32  H   LIG d   1      12.754   2.168 -10.774  0.00  0.00     0.062 H 
ATOM     33  H   LIG d   1      10.800   3.334 -11.710  0.00  0.00     0.062 H 
ATOM     34  H   LIG d   1       8.721   3.514 -10.415  0.00  0.00     0.066 H 
ENDBRANCH   2  22
BRANCH   4  35
ATOM     35  C   LIG d   1       5.888  -0.329  -3.497  0.00  0.00     0.065 A 
ATOM     36  C   LIG d   1       5.167   0.090  -2.387  0.00  0.00    -0.036 A 
ATOM     37  C   LIG d   1       4.204  -0.735  -1.838  0.00  0.00    -0.060 A 
ATOM     38  H   LIG d   1       5.354   1.062  -1.955  0.00  0.00     0.064 H 
ATOM     39  C   LIG d   1       3.968  -1.982  -2.385  0.00  0.00    -0.062 A 
ATOM     40  H   LIG d   1       3.640  -0.407  -0.978  0.00  0.00     0.062 H 
ATOM     41  C   LIG d   1       4.689  -2.406  -3.488  0.00  0.00    -0.060 A 
ATOM     42  H   LIG d   1       3.218  -2.628  -1.952  0.00  0.00     0.062 H 
ATOM     43  C   LIG d   1       5.648  -1.583  -4.044  0.00  0.00    -0.036 A 
ATOM     44  H   LIG d   1       4.501  -3.381  -3.913  0.00  0.00     0.062 H 
ATOM     45  H   LIG d   1       6.210  -1.914  -4.905  0.00  0.00     0.064 H 
ENDBRANCH   4  35
TORSDOF 5
ENDMDL
MODEL 7
REMARK VINA RESULT:      -6.3      5.619      8.770
REMARK  5 active torsions:
REMARK  status: ('A' for Active; 'I' for Inactive)
REMARK    1  A    between atoms: C_1  and  O_2 
REMARK    2  A    between atoms: O_2  and  C_3 
REMARK    3  A    between atoms: C_6  and  C_9 
REMARK    4  A    between atoms: C_10  and  C_20 
REMARK    5  A    between atoms: N_12  and  C_14 
ROOT
ATOM      1  C   LIG d   1       8.383   2.040  -4.012  0.00  0.00     0.105 A 
ATOM      2  C   LIG d   1       8.799   0.785  -4.643  0.00  0.00     0.083 A 
ATOM      3  C   LIG d   1       7.785  -0.111  -4.441  0.00  0.00     0.044 A 
ATOM      4  N   LIG d   1       6.812   0.511  -3.746  0.00  0.00    -0.238 N 
ATOM      5  N   LIG d   1       7.196   1.831  -3.486  0.00  0.00    -0.166 NA
ATOM      6  H   LIG d   1       7.768  -1.136  -4.778  0.00  0.00     0.084 H 
ENDROOT
BRANCH   1   7
ATOM      7  C   LIG d   1       9.156   3.304  -3.968  0.00  0.00     0.003 A 
ATOM      8  C   LIG d   1       9.952   3.599  -2.863  0.00  0.00    -0.049 A 
ATOM      9  C   LIG d   1      10.670   4.775  -2.826  0.00  0.00    -0.019 A 
ATOM     10  H   LIG d   1      10.007   2.905  -2.037  0.00  0.00     0.062 H 
ATOM     11  C   LIG d   1      10.600   5.666  -3.887  0.00  0.00     0.120 A 
ATOM     12  H   LIG d   1      11.287   5.004  -1.969  0.00  0.00     0.065 H 
ATOM     13  C   LIG d   1       9.803   5.379  -4.988  0.00  0.00    -0.019 A 
ATOM     14  C   LIG d   1       9.087   4.201  -5.034  0.00  0.00    -0.049 A 
ATOM     15  H   LIG d   1       9.748   6.076  -5.810  0.00  0.00     0.065 H 
ATOM     16  H   LIG d   1       8.472   3.976  -5.892  0.00  0.00     0.062 H 
BRANCH  11  17
ATOM     17  O   LIG d   1      11.309   6.825  -3.848  0.00  0.00    -0.495 OA
BRANCH  17  18
ATOM     18  C   LIG d   1      10.879   7.817  -2.913  0.00  0.00     0.079 C 
ATOM     19  H   LIG d   1      10.006   7.452  -2.372  0.00  0.00     0.066 H 
ATOM     20  H   LIG d   1      11.683   8.023  -2.207  0.00  0.00     0.066 H 
ATOM     21  H   LIG d   1      10.620   8.731  -3.447  0.00  0.00     0.066 H 
ENDBRANCH  17  18
ENDBRANCH  11  17
ENDBRANCH   1   7
BRANCH   2  22
ATOM     22  C   LIG d   1      10.066   0.535  -5.358  0.00  0.00     0.232 A 
ATOM     23  O   LIG d   1      11.241   0.245  -4.770  0.00  0.00    -0.435 OA
ATOM     24  C   LIG d   1      12.168   0.080  -5.740  0.00  0.00     0.156 A 
ATOM     25  C   LIG d   1      11.508   0.292  -6.960  0.00  0.00     0.110 A 
ATOM     26  C   LIG d   1      13.520  -0.227  -5.732  0.00  0.00    -0.017 A 
ATOM     27  N   LIG d   1      10.212   0.568  -6.661  0.00  0.00    -0.209 NA
ATOM     28  C   LIG d   1      12.220   0.192  -8.157  0.00  0.00    -0.033 A 
ATOM     29  C   LIG d   1      13.562  -0.114  -8.130  0.00  0.00    -0.059 A 
ATOM     30  H   LIG d   1      11.719   0.352  -9.102  0.00  0.00     0.064 H 
ATOM     31  C   LIG d   1      14.210  -0.323  -6.922  0.00  0.00    -0.058 A 
ATOM     32  H   LIG d   1      14.114  -0.192  -9.056  0.00  0.00     0.062 H 
ATOM     33  H   LIG d   1      15.264  -0.562  -6.914  0.00  0.00     0.062 H 
ATOM     34  H   LIG d   1      14.032  -0.391  -4.795  0.00  0.00     0.066 H 
ENDBRANCH   2  22
BRANCH   4  35
ATOM     35  C   LIG d   1       5.606  -0.074  -3.344  0.00  0.00     0.065 A 
ATOM     36  C   LIG d   1       4.522   0.725  -3.008  0.00  0.00    -0.036 A 
ATOM     37  C   LIG d   1       3.331   0.145  -2.618  0.00  0.00    -0.060 A 
ATOM     38  H   LIG d   1       4.608   1.801  -3.055  0.00  0.00     0.064 H 
ATOM     39  C   LIG d   1       3.221  -1.231  -2.549  0.00  0.00    -0.062 A 
ATOM     40  H   LIG d   1       2.487   0.766  -2.360  0.00  0.00     0.062 H 
ATOM     41  C   LIG d   1       4.301  -2.032  -2.878  0.00  0.00    -0.060 A 
ATOM     42  H   LIG d   1       2.290  -1.684  -2.239  0.00  0.00     0.062 H 
ATOM     43  C   LIG d   1       5.492  -1.458  -3.275  0.00  0.00    -0.036 A 
ATOM     44  H   LIG d   1       4.212  -3.107  -2.825  0.00  0.00     0.062 H 
ATOM     45  H   LIG d   1       6.335  -2.082  -3.532  0.00  0.00     0.064 H 
ENDBRANCH   4  35
TORSDOF 5
ENDMDL
MODEL 8
REMARK VINA RESULT:      -6.3      5.131      7.380
REMARK  5 active torsions:
REMARK  status: ('A' for Active; 'I' for Inactive)
REMARK    1  A    between atoms: C_1  and  O_2 
REMARK    2  A    between atoms: O_2  and  C_3 
REMARK    3  A    between atoms: C_6  and  C_9 
REMARK    4  A    between atoms: C_10  and  C_20 
REMARK    5  A    between atoms: N_12  and  C_14 
ROOT
ATOM      1  C   LIG d   1       8.080   1.322  -5.628  0.00  0.00     0.105 A 
ATOM      2  C   LIG d   1       8.092   2.073  -4.370  0.00  0.00     0.083 A 
ATOM      3  C   LIG d   1       7.228   1.433  -3.524  0.00  0.00     0.044 A 
ATOM      4  N   LIG d   1       6.712   0.374  -4.178  0.00  0.00    -0.238 N 
ATOM      5  N   LIG d   1       7.242   0.322  -5.472  0.00  0.00    -0.166 NA
ATOM      6  H   LIG d   1       6.999   1.726  -2.511  0.00  0.00     0.084 H 
ENDROOT
BRANCH   1   7
ATOM      7  C   LIG d   1       8.861   1.635  -6.849  0.00  0.00     0.003 A 
ATOM      8  C   LIG d   1      10.236   1.406  -6.877  0.00  0.00    -0.049 A 
ATOM      9  C   LIG d   1      10.959   1.697  -8.014  0.00  0.00    -0.019 A 
ATOM     10  H   LIG d   1      10.734   1.000  -6.009  0.00  0.00     0.062 H 
ATOM     11  C   LIG d   1      10.319   2.218  -9.130  0.00  0.00     0.120 A 
ATOM     12  H   LIG d   1      12.025   1.522  -8.037  0.00  0.00     0.065 H 
ATOM     13  C   LIG d   1       8.950   2.453  -9.105  0.00  0.00    -0.019 A 
ATOM     14  C   LIG d   1       8.221   2.158  -7.972  0.00  0.00    -0.049 A 
ATOM     15  H   LIG d   1       8.457   2.861  -9.973  0.00  0.00     0.065 H 
ATOM     16  H   LIG d   1       7.156   2.336  -7.955  0.00  0.00     0.062 H 
BRANCH  11  17
ATOM     17  O   LIG d   1      11.034   2.505 -10.250  0.00  0.00    -0.495 OA
BRANCH  17  18
ATOM     18  C   LIG d   1      10.293   2.835 -11.427  0.00  0.00     0.079 C 
ATOM     19  H   LIG d   1      10.972   2.905 -12.276  0.00  0.00     0.066 H 
ATOM     20  H   LIG d   1       9.552   2.059 -11.618  0.00  0.00     0.066 H 
ATOM     21  H   LIG d   1       9.791   3.791 -11.283  0.00  0.00     0.066 H 
ENDBRANCH  17  18
ENDBRANCH  11  17
ENDBRANCH   1   7
BRANCH   2  22
ATOM     22  C   LIG d   1       8.882   3.283  -4.072  0.00  0.00     0.232 A 
ATOM     23  O   LIG d   1       9.006   4.345  -4.890  0.00  0.00    -0.435 OA
ATOM     24  C   LIG d   1       9.799   5.255  -4.281  0.00  0.00     0.156 A 
ATOM     25  C   LIG d   1      10.168   4.697  -3.047  0.00  0.00     0.110 A 
ATOM     26  C   LIG d   1      10.263   6.512  -4.636  0.00  0.00    -0.017 A 
ATOM     27  N   LIG d   1       9.571   3.479  -2.974  0.00  0.00    -0.209 NA
ATOM     28  C   LIG d   1      11.001   5.415  -2.186  0.00  0.00    -0.033 A 
ATOM     29  C   LIG d   1      11.454   6.662  -2.555  0.00  0.00    -0.059 A 
ATOM     30  H   LIG d   1      11.289   4.993  -1.234  0.00  0.00     0.064 H 
ATOM     31  C   LIG d   1      11.086   7.209  -3.775  0.00  0.00    -0.058 A 
ATOM     32  H   LIG d   1      12.098   7.218  -1.890  0.00  0.00     0.062 H 
ATOM     33  H   LIG d   1      11.447   8.188  -4.054  0.00  0.00     0.062 H 
ATOM     34  H   LIG d   1       9.982   6.945  -5.585  0.00  0.00     0.066 H 
ENDBRANCH   2  22
BRANCH   4  35
ATOM     35  C   LIG d   1       5.786  -0.532  -3.647  0.00  0.00     0.065 A 
ATOM     36  C   LIG d   1       5.556  -1.745  -4.281  0.00  0.00    -0.036 A 
ATOM     37  C   LIG d   1       4.647  -2.639  -3.750  0.00  0.00    -0.060 A 
ATOM     38  H   LIG d   1       6.092  -1.993  -5.185  0.00  0.00     0.064 H 
ATOM     39  C   LIG d   1       3.956  -2.321  -2.596  0.00  0.00    -0.062 A 
ATOM     40  H   LIG d   1       4.472  -3.585  -4.240  0.00  0.00     0.062 H 
ATOM     41  C   LIG d   1       4.177  -1.110  -1.965  0.00  0.00    -0.060 A 
ATOM     42  H   LIG d   1       3.241  -3.020  -2.185  0.00  0.00     0.062 H 
ATOM     43  C   LIG d   1       5.090  -0.215  -2.486  0.00  0.00    -0.036 A 
ATOM     44  H   LIG d   1       3.637  -0.865  -1.062  0.00  0.00     0.062 H 
ATOM     45  H   LIG d   1       5.263   0.730  -1.993  0.00  0.00     0.064 H 
ENDBRANCH   4  35
TORSDOF 5
ENDMDL
MODEL 9
REMARK VINA RESULT:      -6.2      4.230      6.849
REMARK  5 active torsions:
REMARK  status: ('A' for Active; 'I' for Inactive)
REMARK    1  A    between atoms: C_1  and  O_2 
REMARK    2  A    between atoms: O_2  and  C_3 
REMARK    3  A    between atoms: C_6  and  C_9 
REMARK    4  A    between atoms: C_10  and  C_20 
REMARK    5  A    between atoms: N_12  and  C_14 
ROOT
ATOM      1  C   LIG d   1       3.581  -0.377  -8.177  0.00  0.00     0.105 A 
ATOM      2  C   LIG d   1       4.617   0.190  -9.045  0.00  0.00     0.083 A 
ATOM      3  C   LIG d   1       4.251  -0.098 -10.331  0.00  0.00     0.044 A 
ATOM      4  N   LIG d   1       3.092  -0.783 -10.291  0.00  0.00    -0.238 N 
ATOM      5  N   LIG d   1       2.695  -0.951  -8.960  0.00  0.00    -0.166 NA
ATOM      6  H   LIG d   1       4.796   0.176 -11.222  0.00  0.00     0.084 H 
ENDROOT
BRANCH   1   7
ATOM      7  C   LIG d   1       3.542  -0.319  -6.696  0.00  0.00     0.003 A 
ATOM      8  C   LIG d   1       2.726   0.610  -6.054  0.00  0.00    -0.049 A 
ATOM      9  C   LIG d   1       2.691   0.661  -4.677  0.00  0.00    -0.019 A 
ATOM     10  H   LIG d   1       2.120   1.289  -6.635  0.00  0.00     0.062 H 
ATOM     11  C   LIG d   1       3.470  -0.213  -3.930  0.00  0.00     0.120 A 
ATOM     12  H   LIG d   1       2.059   1.381  -4.178  0.00  0.00     0.065 H 
ATOM     13  C   LIG d   1       4.289  -1.136  -4.566  0.00  0.00    -0.019 A 
ATOM     14  C   LIG d   1       4.323  -1.196  -5.943  0.00  0.00    -0.049 A 
ATOM     15  H   LIG d   1       4.896  -1.811  -3.981  0.00  0.00     0.065 H 
ATOM     16  H   LIG d   1       4.957  -1.917  -6.437  0.00  0.00     0.062 H 
BRANCH  11  17
ATOM     17  O   LIG d   1       3.434  -0.161  -2.572  0.00  0.00    -0.495 OA
BRANCH  17  18
ATOM     18  C   LIG d   1       4.307   0.775  -1.935  0.00  0.00     0.079 C 
ATOM     19  H   LIG d   1       5.339   0.447  -2.051  0.00  0.00     0.066 H 
ATOM     20  H   LIG d   1       4.184   1.756  -2.394  0.00  0.00     0.066 H 
ATOM     21  H   LIG d   1       4.062   0.836  -0.875  0.00  0.00     0.066 H 
ENDBRANCH  17  18
ENDBRANCH  11  17
ENDBRANCH   1   7
BRANCH   2  22
ATOM     22  C   LIG d   1       5.821   0.928  -8.615  0.00  0.00     0.232 A 
ATOM     23  O   LIG d   1       6.419   0.799  -7.416  0.00  0.00    -0.435 OA
ATOM     24  C   LIG d   1       7.487   1.626  -7.388  0.00  0.00     0.156 A 
ATOM     25  C   LIG d   1       7.514   2.284  -8.628  0.00  0.00     0.110 A 
ATOM     26  C   LIG d   1       8.456   1.909  -6.438  0.00  0.00    -0.017 A 
ATOM     27  N   LIG d   1       6.460   1.811  -9.343  0.00  0.00    -0.209 NA
ATOM     28  C   LIG d   1       8.517   3.218  -8.894  0.00  0.00    -0.033 A 
ATOM     29  C   LIG d   1       9.471   3.487  -7.938  0.00  0.00    -0.059 A 
ATOM     30  H   LIG d   1       8.545   3.728  -9.846  0.00  0.00     0.064 H 
ATOM     31  C   LIG d   1       9.442   2.835  -6.714  0.00  0.00    -0.058 A 
ATOM     32  H   LIG d   1      10.248   4.209  -8.142  0.00  0.00     0.062 H 
ATOM     33  H   LIG d   1      10.195   3.054  -5.972  0.00  0.00     0.062 H 
ATOM     34  H   LIG d   1       8.440   1.406  -5.482  0.00  0.00     0.066 H 
ENDBRANCH   2  22
BRANCH   4  35
ATOM     35  C   LIG d   1       2.395  -1.258 -11.409  0.00  0.00     0.065 A 
ATOM     36  C   LIG d   1       3.089  -1.711 -12.522  0.00  0.00    -0.036 A 
ATOM     37  C   LIG d   1       2.399  -2.184 -13.620  0.00  0.00    -0.060 A 
ATOM     38  H   LIG d   1       4.169  -1.698 -12.527  0.00  0.00     0.064 H 
ATOM     39  C   LIG d   1       1.017  -2.195 -13.618  0.00  0.00    -0.062 A 
ATOM     40  H   LIG d   1       2.939  -2.541 -14.484  0.00  0.00     0.062 H 
ATOM     41  C   LIG d   1       0.320  -1.738 -12.512  0.00  0.00    -0.060 A 
ATOM     42  H   LIG d   1       0.478  -2.561 -14.480  0.00  0.00     0.062 H 
ATOM     43  C   LIG d   1       1.005  -1.270 -11.409  0.00  0.00    -0.036 A 
ATOM     44  H   LIG d   1      -0.760  -1.749 -12.513  0.00  0.00     0.062 H 
ATOM     45  H   LIG d   1       0.462  -0.914 -10.546  0.00  0.00     0.064 H 
ENDBRANCH   4  35
TORSDOF 5
ENDMDL
