MODEL 1
REMARK VINA RESULT:      -6.3      0.000      0.000
REMARK  8 active torsions:
REMARK  status: ('A' for Active; 'I' for Inactive)
REMARK    1  A    between atoms: C_1  and  C_2 
REMARK       I    between atoms: C_2  and  N_4 
REMARK    2  A    between atoms: N_4  and  C_5 
REMARK    3  A    between atoms: C_15  and  N_17 
REMARK    4  A    between atoms: C_18  and  O_22 
REMARK    5  A    between atoms: O_22  and  C_23 
REMARK    6  A    between atoms: C_27  and  N_29 
REMARK    7  A    between atoms: N_29  and  C_30 
REMARK    8  A    between atoms: N_29  and  C_31 
ROOT
ATOM      1  N   LIG d   1       4.023  -0.303  -5.540  0.00  0.00    -0.187 N 
ATOM      2  C   LIG d   1       2.913   0.298  -6.020  0.00  0.00     0.342 A 
ATOM      3  N   LIG d   1       2.563   1.218  -5.150  0.00  0.00    -0.070 NA
ATOM      4  N   LIG d   1       3.383   1.239  -4.162  0.00  0.00    -0.020 NA
ATOM      5  N   LIG d   1       4.299   0.346  -4.323  0.00  0.00    -0.041 NA
ENDROOT
BRANCH   1   6
ATOM      6  C   LIG d   1       4.783  -1.393  -6.158  0.00  0.00     0.111 C 
ATOM      7  C   LIG d   1       5.497  -2.236  -5.075  0.00  0.00     0.111 C 
ATOM      8  O   LIG d   1       5.189  -3.615  -5.292  0.00  0.00    -0.370 OA
ATOM      9  H   LIG d   1       5.255  -1.913  -4.063  0.00  0.00     0.065 H 
ATOM     10  C   LIG d   1       7.003  -2.057  -5.409  0.00  0.00     0.107 C 
ATOM     11  C   LIG d   1       6.378  -4.402  -5.367  0.00  0.00     0.069 C 
ATOM     12  C   LIG d   1       7.584  -3.467  -5.184  0.00  0.00     0.075 C 
ATOM     13  H   LIG d   1       6.435  -4.891  -6.339  0.00  0.00     0.058 H 
ATOM     14  H   LIG d   1       6.371  -5.153  -4.577  0.00  0.00     0.058 H 
ATOM     15  H   LIG d   1       8.354  -3.687  -5.924  0.00  0.00     0.055 H 
ATOM     16  H   LIG d   1       7.487  -1.300  -4.791  0.00  0.00     0.064 H 
ATOM     17  O   LIG d   1       7.031  -1.745  -6.816  0.00  0.00    -0.370 OA
ATOM     18  C   LIG d   1       5.932  -0.830  -7.021  0.00  0.00     0.073 C 
ATOM     19  H   LIG d   1       6.204   0.171  -6.685  0.00  0.00     0.058 H 
ATOM     20  H   LIG d   1       5.645  -0.813  -8.072  0.00  0.00     0.058 H 
ATOM     21  H   LIG d   1       4.127  -2.023  -6.759  0.00  0.00     0.060 H 
BRANCH  12  22
ATOM     22  N   LIG d   1       8.127  -3.589  -3.828  0.00  0.00    -0.308 N 
ATOM     23  C   LIG d   1       9.242  -4.315  -3.611  0.00  0.00     0.210 C 
ATOM     24  O   LIG d   1       9.795  -4.867  -4.539  0.00  0.00    -0.276 OA
ATOM     25  H   LIG d   1       7.683  -3.146  -3.087  0.00  0.00     0.149 HD
BRANCH  23  26
ATOM     26  C   LIG d   1       9.796  -4.444  -2.217  0.00  0.00     0.012 C 
ATOM     27  H   LIG d   1      10.778  -3.974  -2.171  0.00  0.00     0.032 H 
ATOM     28  H   LIG d   1       9.125  -3.954  -1.511  0.00  0.00     0.032 H 
ATOM     29  H   LIG d   1       9.886  -5.499  -1.958  0.00  0.00     0.032 H 
ENDBRANCH  23  26
ENDBRANCH  12  22
ENDBRANCH   1   6
BRANCH   2  30
ATOM     30  O   LIG d   1       2.277   0.005  -7.180  0.00  0.00    -0.423 OA
BRANCH  30  31
ATOM     31  C   LIG d   1       2.767   0.542  -8.328  0.00  0.00     0.134 A 
ATOM     32  C   LIG d   1       2.878  -0.240  -9.467  0.00  0.00     0.002 A 
ATOM     33  C   LIG d   1       3.379   0.311 -10.639  0.00  0.00     0.033 A 
ATOM     34  H   LIG d   1       2.576  -1.277  -9.443  0.00  0.00     0.067 H 
ATOM     35  C   LIG d   1       3.767   1.644 -10.667  0.00  0.00    -0.040 A 
ATOM     36  C   LIG d   1       3.655   2.421  -9.529  0.00  0.00    -0.057 A 
ATOM     37  H   LIG d   1       4.157   2.074 -11.577  0.00  0.00     0.064 H 
ATOM     38  C   LIG d   1       3.152   1.876  -8.363  0.00  0.00    -0.019 A 
ATOM     39  H   LIG d   1       3.958   3.458  -9.552  0.00  0.00     0.062 H 
ATOM     40  H   LIG d   1       3.062   2.486  -7.477  0.00  0.00     0.065 H 
BRANCH  33  41
ATOM     41  N   LIG d   1       3.492  -0.474 -11.788  0.00  0.00    -0.336 N 
BRANCH  41  42
ATOM     42  C   LIG d   1       4.755  -0.508 -12.532  0.00  0.00     0.000 C 
ATOM     43  H   LIG d   1       5.118   0.510 -12.676  0.00  0.00     0.043 H 
ATOM     44  H   LIG d   1       5.492  -1.081 -11.969  0.00  0.00     0.043 H 
ATOM     45  H   LIG d   1       4.593  -0.976 -13.503  0.00  0.00     0.043 H 
ENDBRANCH  41  42
BRANCH  41  46
ATOM     46  C   LIG d   1       2.349  -1.265 -12.251  0.00  0.00     0.000 C 
ATOM     47  H   LIG d   1       1.922  -1.813 -11.411  0.00  0.00     0.043 H 
ATOM     48  H   LIG d   1       1.595  -0.601 -12.673  0.00  0.00     0.043 H 
ATOM     49  H   LIG d   1       2.680  -1.970 -13.013  0.00  0.00     0.043 H 
ENDBRANCH  41  46
ENDBRANCH  33  41
ENDBRANCH  30  31
ENDBRANCH   2  30
TORSDOF 8
ENDMDL
MODEL 2
REMARK VINA RESULT:      -5.9      1.864      2.243
REMARK  8 active torsions:
REMARK  status: ('A' for Active; 'I' for Inactive)
REMARK    1  A    between atoms: C_1  and  C_2 
REMARK       I    between atoms: C_2  and  N_4 
REMARK    2  A    between atoms: N_4  and  C_5 
REMARK    3  A    between atoms: C_15  and  N_17 
REMARK    4  A    between atoms: C_18  and  O_22 
REMARK    5  A    between atoms: O_22  and  C_23 
REMARK    6  A    between atoms: C_27  and  N_29 
REMARK    7  A    between atoms: N_29  and  C_30 
REMARK    8  A    between atoms: N_29  and  C_31 
ROOT
ATOM      1  N   LIG d   1       4.321  -0.286  -5.701  0.00  0.00    -0.187 N 
ATOM      2  C   LIG d   1       3.083   0.151  -6.021  0.00  0.00     0.342 A 
ATOM      3  N   LIG d   1       2.663   0.893  -5.022  0.00  0.00    -0.070 NA
ATOM      4  N   LIG d   1       3.557   0.956  -4.101  0.00  0.00    -0.020 NA
ATOM      5  N   LIG d   1       4.594   0.267  -4.438  0.00  0.00    -0.041 NA
ENDROOT
BRANCH   1   6
ATOM      6  C   LIG d   1       5.196  -1.147  -6.501  0.00  0.00     0.111 C 
ATOM      7  C   LIG d   1       4.720  -2.618  -6.429  0.00  0.00     0.111 C 
ATOM      8  O   LIG d   1       4.605  -3.126  -7.761  0.00  0.00    -0.370 OA
ATOM      9  H   LIG d   1       3.796  -2.734  -5.862  0.00  0.00     0.065 H 
ATOM     10  C   LIG d   1       5.916  -3.356  -5.771  0.00  0.00     0.107 C 
ATOM     11  C   LIG d   1       5.335  -4.344  -7.911  0.00  0.00     0.069 C 
ATOM     12  C   LIG d   1       5.994  -4.677  -6.563  0.00  0.00     0.075 C 
ATOM     13  H   LIG d   1       6.102  -4.222  -8.675  0.00  0.00     0.058 H 
ATOM     14  H   LIG d   1       4.656  -5.146  -8.197  0.00  0.00     0.058 H 
ATOM     15  H   LIG d   1       7.033  -4.975  -6.708  0.00  0.00     0.055 H 
ATOM     16  H   LIG d   1       5.779  -3.515  -4.701  0.00  0.00     0.064 H 
ATOM     17  O   LIG d   1       7.064  -2.542  -6.081  0.00  0.00    -0.370 OA
ATOM     18  C   LIG d   1       6.618  -1.179  -5.903  0.00  0.00     0.073 C 
ATOM     19  H   LIG d   1       6.590  -0.924  -4.843  0.00  0.00     0.058 H 
ATOM     20  H   LIG d   1       7.272  -0.493  -6.442  0.00  0.00     0.058 H 
ATOM     21  H   LIG d   1       5.224  -0.806  -7.536  0.00  0.00     0.060 H 
BRANCH  12  22
ATOM     22  N   LIG d   1       5.249  -5.733  -5.874  0.00  0.00    -0.308 N 
ATOM     23  C   LIG d   1       5.713  -6.999  -5.881  0.00  0.00     0.210 C 
ATOM     24  O   LIG d   1       6.748  -7.262  -6.457  0.00  0.00    -0.276 OA
ATOM     25  H   LIG d   1       4.422  -5.522  -5.413  0.00  0.00     0.149 HD
BRANCH  23  26
ATOM     26  C   LIG d   1       4.945  -8.087  -5.177  0.00  0.00     0.012 C 
ATOM     27  H   LIG d   1       4.852  -7.842  -4.119  0.00  0.00     0.032 H 
ATOM     28  H   LIG d   1       3.951  -8.173  -5.618  0.00  0.00     0.032 H 
ATOM     29  H   LIG d   1       5.473  -9.034  -5.286  0.00  0.00     0.032 H 
ENDBRANCH  23  26
ENDBRANCH  12  22
ENDBRANCH   1   6
BRANCH   2  30
ATOM     30  O   LIG d   1       2.402  -0.127  -7.159  0.00  0.00    -0.423 OA
BRANCH  30  31
ATOM     31  C   LIG d   1       2.829   0.447  -8.314  0.00  0.00     0.134 A 
ATOM     32  C   LIG d   1       2.932  -0.313  -9.469  0.00  0.00     0.002 A 
ATOM     33  C   LIG d   1       3.369   0.276 -10.648  0.00  0.00     0.033 A 
ATOM     34  H   LIG d   1       2.672  -1.361  -9.452  0.00  0.00     0.067 H 
ATOM     35  C   LIG d   1       3.703   1.624 -10.667  0.00  0.00    -0.040 A 
ATOM     36  C   LIG d   1       3.600   2.378  -9.513  0.00  0.00    -0.057 A 
ATOM     37  H   LIG d   1       4.043   2.083 -11.583  0.00  0.00     0.064 H 
ATOM     38  C   LIG d   1       3.160   1.795  -8.340  0.00  0.00    -0.019 A 
ATOM     39  H   LIG d   1       3.860   3.426  -9.529  0.00  0.00     0.062 H 
ATOM     40  H   LIG d   1       3.077   2.388  -7.441  0.00  0.00     0.065 H 
BRANCH  33  41
ATOM     41  N   LIG d   1       3.473  -0.487 -11.814  0.00  0.00    -0.336 N 
BRANCH  41  42
ATOM     42  C   LIG d   1       4.698  -0.435 -12.616  0.00  0.00     0.000 C 
ATOM     43  H   LIG d   1       4.585  -1.073 -13.492  0.00  0.00     0.043 H 
ATOM     44  H   LIG d   1       4.879   0.592 -12.935  0.00  0.00     0.043 H 
ATOM     45  H   LIG d   1       5.539  -0.785 -12.018  0.00  0.00     0.043 H 
ENDBRANCH  41  42
BRANCH  41  46
ATOM     46  C   LIG d   1       2.358  -1.338 -12.233  0.00  0.00     0.000 C 
ATOM     47  H   LIG d   1       1.664  -1.465 -11.402  0.00  0.00     0.043 H 
ATOM     48  H   LIG d   1       1.840  -0.872 -13.072  0.00  0.00     0.043 H 
ATOM     49  H   LIG d   1       2.739  -2.312 -12.538  0.00  0.00     0.043 H 
ENDBRANCH  41  46
ENDBRANCH  33  41
ENDBRANCH  30  31
ENDBRANCH   2  30
TORSDOF 8
ENDMDL
MODEL 3
REMARK VINA RESULT:      -5.9      3.218      7.154
REMARK  8 active torsions:
REMARK  status: ('A' for Active; 'I' for Inactive)
REMARK    1  A    between atoms: C_1  and  C_2 
REMARK       I    between atoms: C_2  and  N_4 
REMARK    2  A    between atoms: N_4  and  C_5 
REMARK    3  A    between atoms: C_15  and  N_17 
REMARK    4  A    between atoms: C_18  and  O_22 
REMARK    5  A    between atoms: O_22  and  C_23 
REMARK    6  A    between atoms: C_27  and  N_29 
REMARK    7  A    between atoms: N_29  and  C_30 
REMARK    8  A    between atoms: N_29  and  C_31 
ROOT
ATOM      1  N   LIG d   1       3.522   0.600  -9.704  0.00  0.00    -0.187 N 
ATOM      2  C   LIG d   1       3.093   0.833  -8.444  0.00  0.00     0.342 A 
ATOM      3  N   LIG d   1       3.160   2.130  -8.246  0.00  0.00    -0.070 NA
ATOM      4  N   LIG d   1       3.594   2.724  -9.298  0.00  0.00    -0.020 NA
ATOM      5  N   LIG d   1       3.837   1.865 -10.229  0.00  0.00    -0.041 NA
ENDROOT
BRANCH   1   6
ATOM      6  C   LIG d   1       3.630  -0.695 -10.382  0.00  0.00     0.111 C 
ATOM      7  C   LIG d   1       2.228  -1.319 -10.583  0.00  0.00     0.111 C 
ATOM      8  O   LIG d   1       2.088  -1.696 -11.955  0.00  0.00    -0.370 OA
ATOM      9  H   LIG d   1       1.424  -0.662 -10.252  0.00  0.00     0.065 H 
ATOM     10  C   LIG d   1       2.293  -2.635  -9.762  0.00  0.00     0.107 C 
ATOM     11  C   LIG d   1       1.691  -3.062 -12.074  0.00  0.00     0.069 C 
ATOM     12  C   LIG d   1       1.554  -3.647 -10.660  0.00  0.00     0.075 C 
ATOM     13  H   LIG d   1       2.445  -3.617 -12.631  0.00  0.00     0.058 H 
ATOM     14  H   LIG d   1       0.734  -3.122 -12.592  0.00  0.00     0.058 H 
ATOM     15  H   LIG d   1       2.028  -4.627 -10.604  0.00  0.00     0.055 H 
ATOM     16  H   LIG d   1       1.842  -2.540  -8.774  0.00  0.00     0.064 H 
ATOM     17  O   LIG d   1       3.695  -2.968  -9.716  0.00  0.00    -0.370 OA
ATOM     18  C   LIG d   1       4.373  -1.713  -9.491  0.00  0.00     0.073 C 
ATOM     19  H   LIG d   1       4.298  -1.424  -8.441  0.00  0.00     0.058 H 
ATOM     20  H   LIG d   1       5.419  -1.788  -9.790  0.00  0.00     0.058 H 
ATOM     21  H   LIG d   1       4.138  -0.584 -11.340  0.00  0.00     0.060 H 
BRANCH  12  22
ATOM     22  N   LIG d   1       0.143  -3.738 -10.276  0.00  0.00    -0.308 N 
ATOM     23  C   LIG d   1      -0.526  -4.898 -10.438  0.00  0.00     0.210 C 
ATOM     24  O   LIG d   1       0.042  -5.865 -10.900  0.00  0.00    -0.276 OA
ATOM     25  H   LIG d   1      -0.310  -2.964  -9.907  0.00  0.00     0.149 HD
BRANCH  23  26
ATOM     26  C   LIG d   1      -1.978  -4.990 -10.049  0.00  0.00     0.012 C 
ATOM     27  H   LIG d   1      -2.095  -5.723  -9.251  0.00  0.00     0.032 H 
ATOM     28  H   LIG d   1      -2.324  -4.016  -9.701  0.00  0.00     0.032 H 
ATOM     29  H   LIG d   1      -2.567  -5.297 -10.913  0.00  0.00     0.032 H 
ENDBRANCH  23  26
ENDBRANCH  12  22
ENDBRANCH   1   6
BRANCH   2  30
ATOM     30  O   LIG d   1       2.675  -0.096  -7.552  0.00  0.00    -0.423 OA
BRANCH  30  31
ATOM     31  C   LIG d   1       3.194  -0.054  -6.297  0.00  0.00     0.134 A 
ATOM     32  C   LIG d   1       4.486  -0.499  -6.066  0.00  0.00     0.002 A 
ATOM     33  C   LIG d   1       5.014  -0.454  -4.782  0.00  0.00     0.033 A 
ATOM     34  H   LIG d   1       5.082  -0.880  -6.882  0.00  0.00     0.067 H 
ATOM     35  C   LIG d   1       4.246   0.036  -3.734  0.00  0.00    -0.040 A 
ATOM     36  C   LIG d   1       2.958   0.478  -3.968  0.00  0.00    -0.057 A 
ATOM     37  H   LIG d   1       4.655   0.071  -2.735  0.00  0.00     0.064 H 
ATOM     38  C   LIG d   1       2.432   0.440  -5.246  0.00  0.00    -0.019 A 
ATOM     39  H   LIG d   1       2.362   0.859  -3.152  0.00  0.00     0.062 H 
ATOM     40  H   LIG d   1       1.427   0.789  -5.427  0.00  0.00     0.065 H 
BRANCH  33  41
ATOM     41  N   LIG d   1       6.316  -0.901  -4.545  0.00  0.00    -0.336 N 
BRANCH  41  42
ATOM     42  C   LIG d   1       7.395  -0.538  -5.468  0.00  0.00     0.000 C 
ATOM     43  H   LIG d   1       8.120  -1.351  -5.518  0.00  0.00     0.043 H 
ATOM     44  H   LIG d   1       6.980  -0.360  -6.460  0.00  0.00     0.043 H 
ATOM     45  H   LIG d   1       7.888   0.366  -5.112  0.00  0.00     0.043 H 
ENDBRANCH  41  42
BRANCH  41  46
ATOM     46  C   LIG d   1       6.603  -1.733  -3.375  0.00  0.00     0.000 C 
ATOM     47  H   LIG d   1       5.850  -2.517  -3.292  0.00  0.00     0.043 H 
ATOM     48  H   LIG d   1       7.588  -2.187  -3.484  0.00  0.00     0.043 H 
ATOM     49  H   LIG d   1       6.585  -1.116  -2.477  0.00  0.00     0.043 H 
ENDBRANCH  41  46
ENDBRANCH  33  41
ENDBRANCH  30  31
ENDBRANCH   2  30
TORSDOF 8
ENDMDL
MODEL 4
REMARK VINA RESULT:      -5.8      3.503      4.342
REMARK  8 active torsions:
REMARK  status: ('A' for Active; 'I' for Inactive)
REMARK    1  A    between atoms: C_1  and  C_2 
REMARK       I    between atoms: C_2  and  N_4 
REMARK    2  A    between atoms: N_4  and  C_5 
REMARK    3  A    between atoms: C_15  and  N_17 
REMARK    4  A    between atoms: C_18  and  O_22 
REMARK    5  A    between atoms: O_22  and  C_23 
REMARK    6  A    between atoms: C_27  and  N_29 
REMARK    7  A    between atoms: N_29  and  C_30 
REMARK    8  A    between atoms: N_29  and  C_31 
ROOT
ATOM      1  N   LIG d   1       4.967  -1.420  -4.567  0.00  0.00    -0.187 N 
ATOM      2  C   LIG d   1       4.847  -2.255  -5.623  0.00  0.00     0.342 A 
ATOM      3  N   LIG d   1       4.430  -3.410  -5.158  0.00  0.00    -0.070 NA
ATOM      4  N   LIG d   1       4.272  -3.354  -3.885  0.00  0.00    -0.020 NA
ATOM      5  N   LIG d   1       4.577  -2.179  -3.449  0.00  0.00    -0.041 NA
ENDROOT
BRANCH   1   6
ATOM      6  C   LIG d   1       5.403  -0.021  -4.583  0.00  0.00     0.111 C 
ATOM      7  C   LIG d   1       6.920   0.069  -4.870  0.00  0.00     0.111 C 
ATOM      8  O   LIG d   1       7.129   0.995  -5.940  0.00  0.00    -0.370 OA
ATOM      9  H   LIG d   1       7.369  -0.903  -5.072  0.00  0.00     0.065 H 
ATOM     10  C   LIG d   1       7.495   0.731  -3.588  0.00  0.00     0.107 C 
ATOM     11  C   LIG d   1       8.082   1.994  -5.576  0.00  0.00     0.069 C 
ATOM     12  C   LIG d   1       8.550   1.710  -4.140  0.00  0.00     0.075 C 
ATOM     13  H   LIG d   1       7.619   2.979  -5.625  0.00  0.00     0.058 H 
ATOM     14  H   LIG d   1       8.933   1.953  -6.256  0.00  0.00     0.058 H 
ATOM     15  H   LIG d   1       8.563   2.630  -3.554  0.00  0.00     0.055 H 
ATOM     16  H   LIG d   1       7.917   0.007  -2.891  0.00  0.00     0.064 H 
ATOM     17  O   LIG d   1       6.392   1.475  -3.035  0.00  0.00    -0.370 OA
ATOM     18  C   LIG d   1       5.242   0.612  -3.185  0.00  0.00     0.073 C 
ATOM     19  H   LIG d   1       5.246  -0.161  -2.415  0.00  0.00     0.058 H 
ATOM     20  H   LIG d   1       4.322   1.194  -3.134  0.00  0.00     0.058 H 
ATOM     21  H   LIG d   1       4.841   0.545  -5.326  0.00  0.00     0.060 H 
BRANCH  12  22
ATOM     22  N   LIG d   1       9.876   1.087  -4.145  0.00  0.00    -0.308 N 
ATOM     23  C   LIG d   1      10.961   1.810  -3.801  0.00  0.00     0.210 C 
ATOM     24  O   LIG d   1      10.839   2.975  -3.487  0.00  0.00    -0.276 OA
ATOM     25  H   LIG d   1       9.973   0.155  -4.396  0.00  0.00     0.149 HD
BRANCH  23  26
ATOM     26  C   LIG d   1      12.325   1.171  -3.812  0.00  0.00     0.012 C 
ATOM     27  H   LIG d   1      12.400   0.458  -2.992  0.00  0.00     0.032 H 
ATOM     28  H   LIG d   1      12.476   0.653  -4.760  0.00  0.00     0.032 H 
ATOM     29  H   LIG d   1      13.088   1.941  -3.695  0.00  0.00     0.032 H 
ENDBRANCH  23  26
ENDBRANCH  12  22
ENDBRANCH   1   6
BRANCH   2  30
ATOM     30  O   LIG d   1       5.111  -1.956  -6.918  0.00  0.00    -0.423 OA
BRANCH  30  31
ATOM     31  C   LIG d   1       4.065  -1.646  -7.726  0.00  0.00     0.134 A 
ATOM     32  C   LIG d   1       3.569  -2.589  -8.613  0.00  0.00     0.002 A 
ATOM     33  C   LIG d   1       2.499  -2.269  -9.438  0.00  0.00     0.033 A 
ATOM     34  H   LIG d   1       4.014  -3.572  -8.661  0.00  0.00     0.067 H 
ATOM     35  C   LIG d   1       1.929  -1.004  -9.373  0.00  0.00    -0.040 A 
ATOM     36  C   LIG d   1       2.426  -0.066  -8.488  0.00  0.00    -0.057 A 
ATOM     37  H   LIG d   1       1.097  -0.753 -10.014  0.00  0.00     0.064 H 
ATOM     38  C   LIG d   1       3.487  -0.384  -7.662  0.00  0.00    -0.019 A 
ATOM     39  H   LIG d   1       1.982   0.918  -8.439  0.00  0.00     0.062 H 
ATOM     40  H   LIG d   1       3.871   0.349  -6.970  0.00  0.00     0.065 H 
BRANCH  33  41
ATOM     41  N   LIG d   1       1.997  -3.217 -10.332  0.00  0.00    -0.336 N 
BRANCH  41  42
ATOM     42  C   LIG d   1       1.180  -2.790 -11.471  0.00  0.00     0.000 C 
ATOM     43  H   LIG d   1       1.189  -1.702 -11.536  0.00  0.00     0.043 H 
ATOM     44  H   LIG d   1       1.588  -3.212 -12.389  0.00  0.00     0.043 H 
ATOM     45  H   LIG d   1       0.156  -3.136 -11.334  0.00  0.00     0.043 H 
ENDBRANCH  41  42
BRANCH  41  46
ATOM     46  C   LIG d   1       2.287  -4.638 -10.131  0.00  0.00     0.000 C 
ATOM     47  H   LIG d   1       1.353  -5.187 -10.009  0.00  0.00     0.043 H 
ATOM     48  H   LIG d   1       2.825  -5.025 -10.997  0.00  0.00     0.043 H 
ATOM     49  H   LIG d   1       2.900  -4.762  -9.239  0.00  0.00     0.043 H 
ENDBRANCH  41  46
ENDBRANCH  33  41
ENDBRANCH  30  31
ENDBRANCH   2  30
TORSDOF 8
ENDMDL
MODEL 5
REMARK VINA RESULT:      -5.6     11.948     14.370
REMARK  8 active torsions:
REMARK  status: ('A' for Active; 'I' for Inactive)
REMARK    1  A    between atoms: C_1  and  C_2 
REMARK       I    between atoms: C_2  and  N_4 
REMARK    2  A    between atoms: N_4  and  C_5 
REMARK    3  A    between atoms: C_15  and  N_17 
REMARK    4  A    between atoms: C_18  and  O_22 
REMARK    5  A    between atoms: O_22  and  C_23 
REMARK    6  A    between atoms: C_27  and  N_29 
REMARK    7  A    between atoms: N_29  and  C_30 
REMARK    8  A    between atoms: N_29  and  C_31 
ROOT
ATOM      1  N   LIG d   1      10.847  10.647  -1.642  0.00  0.00    -0.187 N 
ATOM      2  C   LIG d   1      10.869  10.013  -0.450  0.00  0.00     0.342 A 
ATOM      3  N   LIG d   1      11.840  10.547   0.255  0.00  0.00    -0.070 NA
ATOM      4  N   LIG d   1      12.423  11.478  -0.412  0.00  0.00    -0.020 NA
ATOM      5  N   LIG d   1      11.878  11.601  -1.575  0.00  0.00    -0.041 NA
ENDROOT
BRANCH   1   6
ATOM      6  C   LIG d   1       9.938  10.399  -2.765  0.00  0.00     0.111 C 
ATOM      7  C   LIG d   1      10.598  10.824  -4.098  0.00  0.00     0.111 C 
ATOM      8  O   LIG d   1      10.494   9.740  -5.025  0.00  0.00    -0.370 OA
ATOM      9  H   LIG d   1      11.626  11.161  -3.971  0.00  0.00     0.065 H 
ATOM     10  C   LIG d   1       9.667  11.951  -4.623  0.00  0.00     0.107 C 
ATOM     11  C   LIG d   1       9.905  10.169  -6.253  0.00  0.00     0.069 C 
ATOM     12  C   LIG d   1       9.589  11.668  -6.136  0.00  0.00     0.075 C 
ATOM     13  H   LIG d   1       8.987   9.612  -6.436  0.00  0.00     0.058 H 
ATOM     14  H   LIG d   1      10.605  10.003  -7.073  0.00  0.00     0.058 H 
ATOM     15  H   LIG d   1       8.588  11.879  -6.515  0.00  0.00     0.055 H 
ATOM     16  H   LIG d   1      10.043  12.949  -4.400  0.00  0.00     0.064 H 
ATOM     17  O   LIG d   1       8.387  11.679  -4.017  0.00  0.00    -0.370 OA
ATOM     18  C   LIG d   1       8.687  11.297  -2.657  0.00  0.00     0.073 C 
ATOM     19  H   LIG d   1       8.904  12.179  -2.054  0.00  0.00     0.058 H 
ATOM     20  H   LIG d   1       7.855  10.739  -2.228  0.00  0.00     0.058 H 
ATOM     21  H   LIG d   1       9.653   9.348  -2.800  0.00  0.00     0.060 H 
BRANCH  12  22
ATOM     22  N   LIG d   1      10.587  12.462  -6.858  0.00  0.00    -0.308 N 
ATOM     23  C   LIG d   1      10.208  13.249  -7.885  0.00  0.00     0.210 C 
ATOM     24  O   LIG d   1       9.040  13.300  -8.210  0.00  0.00    -0.276 OA
ATOM     25  H   LIG d   1      11.521  12.420  -6.597  0.00  0.00     0.149 HD
BRANCH  23  26
ATOM     26  C   LIG d   1      11.234  14.060  -8.631  0.00  0.00     0.012 C 
ATOM     27  H   LIG d   1      12.080  14.269  -7.976  0.00  0.00     0.032 H 
ATOM     28  H   LIG d   1      11.578  13.500  -9.501  0.00  0.00     0.032 H 
ATOM     29  H   LIG d   1      10.788  15.000  -8.957  0.00  0.00     0.032 H 
ENDBRANCH  23  26
ENDBRANCH  12  22
ENDBRANCH   1   6
BRANCH   2  30
ATOM     30  O   LIG d   1      10.046   9.013  -0.055  0.00  0.00    -0.423 OA
BRANCH  30  31
ATOM     31  C   LIG d   1      10.438   7.733  -0.291  0.00  0.00     0.134 A 
ATOM     32  C   LIG d   1      10.025   7.084  -1.444  0.00  0.00     0.002 A 
ATOM     33  C   LIG d   1      10.428   5.776  -1.684  0.00  0.00     0.033 A 
ATOM     34  H   LIG d   1       9.392   7.593  -2.155  0.00  0.00     0.067 H 
ATOM     35  C   LIG d   1      11.243   5.124  -0.767  0.00  0.00    -0.040 A 
ATOM     36  C   LIG d   1      11.652   5.775   0.381  0.00  0.00    -0.057 A 
ATOM     37  H   LIG d   1      11.557   4.108  -0.952  0.00  0.00     0.064 H 
ATOM     38  C   LIG d   1      11.257   7.077   0.619  0.00  0.00    -0.019 A 
ATOM     39  H   LIG d   1      12.285   5.266   1.093  0.00  0.00     0.062 H 
ATOM     40  H   LIG d   1      11.581   7.585   1.515  0.00  0.00     0.065 H 
BRANCH  33  41
ATOM     41  N   LIG d   1      10.015   5.119  -2.844  0.00  0.00    -0.336 N 
BRANCH  41  42
ATOM     42  C   LIG d   1      10.065   3.656  -2.915  0.00  0.00     0.000 C 
ATOM     43  H   LIG d   1      11.068   3.340  -3.202  0.00  0.00     0.043 H 
ATOM     44  H   LIG d   1       9.817   3.237  -1.939  0.00  0.00     0.043 H 
ATOM     45  H   LIG d   1       9.348   3.303  -3.656  0.00  0.00     0.043 H 
ENDBRANCH  41  42
BRANCH  41  46
ATOM     46  C   LIG d   1       9.530   5.891  -3.991  0.00  0.00     0.000 C 
ATOM     47  H   LIG d   1      10.325   5.978  -4.732  0.00  0.00     0.043 H 
ATOM     48  H   LIG d   1       8.674   5.384  -4.434  0.00  0.00     0.043 H 
ATOM     49  H   LIG d   1       9.232   6.885  -3.660  0.00  0.00     0.043 H 
ENDBRANCH  41  46
ENDBRANCH  33  41
ENDBRANCH  30  31
ENDBRANCH   2  30
TORSDOF 8
ENDMDL
MODEL 6
REMARK VINA RESULT:      -5.6      4.088      7.262
REMARK  8 active torsions:
REMARK  status: ('A' for Active; 'I' for Inactive)
REMARK    1  A    between atoms: C_1  and  C_2 
REMARK       I    between atoms: C_2  and  N_4 
REMARK    2  A    between atoms: N_4  and  C_5 
REMARK    3  A    between atoms: C_15  and  N_17 
REMARK    4  A    between atoms: C_18  and  O_22 
REMARK    5  A    between atoms: O_22  and  C_23 
REMARK    6  A    between atoms: C_27  and  N_29 
REMARK    7  A    between atoms: N_29  and  C_30 
REMARK    8  A    between atoms: N_29  and  C_31 
ROOT
ATOM      1  N   LIG d   1       5.504   0.119  -4.328  0.00  0.00    -0.187 N 
ATOM      2  C   LIG d   1       6.388   0.851  -3.615  0.00  0.00     0.342 A 
ATOM      3  N   LIG d   1       5.694   1.653  -2.842  0.00  0.00    -0.070 NA
ATOM      4  N   LIG d   1       4.435   1.468  -3.016  0.00  0.00    -0.020 NA
ATOM      5  N   LIG d   1       4.236   0.553  -3.902  0.00  0.00    -0.041 NA
ENDROOT
BRANCH   1   6
ATOM      6  C   LIG d   1       5.802  -0.911  -5.327  0.00  0.00     0.111 C 
ATOM      7  C   LIG d   1       5.232  -0.507  -6.707  0.00  0.00     0.111 C 
ATOM      8  O   LIG d   1       6.272  -0.624  -7.682  0.00  0.00    -0.370 OA
ATOM      9  H   LIG d   1       4.781   0.485  -6.702  0.00  0.00     0.065 H 
ATOM     10  C   LIG d   1       4.201  -1.625  -7.018  0.00  0.00     0.107 C 
ATOM     11  C   LIG d   1       5.855  -1.431  -8.783  0.00  0.00     0.069 C 
ATOM     12  C   LIG d   1       4.412  -1.892  -8.521  0.00  0.00     0.075 C 
ATOM     13  H   LIG d   1       6.508  -2.299  -8.873  0.00  0.00     0.058 H 
ATOM     14  H   LIG d   1       5.893  -0.846  -9.702  0.00  0.00     0.058 H 
ATOM     15  H   LIG d   1       4.305  -2.956  -8.740  0.00  0.00     0.055 H 
ATOM     16  H   LIG d   1       3.177  -1.334  -6.782  0.00  0.00     0.064 H 
ATOM     17  O   LIG d   1       4.656  -2.764  -6.259  0.00  0.00    -0.370 OA
ATOM     18  C   LIG d   1       5.069  -2.226  -4.983  0.00  0.00     0.073 C 
ATOM     19  H   LIG d   1       4.198  -2.022  -4.358  0.00  0.00     0.058 H 
ATOM     20  H   LIG d   1       5.744  -2.918  -4.481  0.00  0.00     0.058 H 
ATOM     21  H   LIG d   1       6.877  -1.080  -5.393  0.00  0.00     0.060 H 
BRANCH  12  22
ATOM     22  N   LIG d   1       3.468  -1.107  -9.320  0.00  0.00    -0.308 N 
ATOM     23  C   LIG d   1       2.381  -1.699  -9.853  0.00  0.00     0.210 C 
ATOM     24  O   LIG d   1       2.184  -2.882  -9.671  0.00  0.00    -0.276 OA
ATOM     25  H   LIG d   1       3.626  -0.161  -9.465  0.00  0.00     0.149 HD
BRANCH  23  26
ATOM     26  C   LIG d   1       1.413  -0.893 -10.679  0.00  0.00     0.012 C 
ATOM     27  H   LIG d   1       0.393  -1.134 -10.383  0.00  0.00     0.032 H 
ATOM     28  H   LIG d   1       1.596   0.170 -10.519  0.00  0.00     0.032 H 
ATOM     29  H   LIG d   1       1.551  -1.129 -11.734  0.00  0.00     0.032 H 
ENDBRANCH  23  26
ENDBRANCH  12  22
ENDBRANCH   1   6
BRANCH   2  30
ATOM     30  O   LIG d   1       7.739   0.773  -3.687  0.00  0.00    -0.423 OA
BRANCH  30  31
ATOM     31  C   LIG d   1       8.399   1.751  -4.362  0.00  0.00     0.134 A 
ATOM     32  C   LIG d   1       9.053   2.755  -3.664  0.00  0.00     0.002 A 
ATOM     33  C   LIG d   1       9.727   3.752  -4.356  0.00  0.00     0.033 A 
ATOM     34  H   LIG d   1       9.038   2.761  -2.584  0.00  0.00     0.067 H 
ATOM     35  C   LIG d   1       9.743   3.742  -5.746  0.00  0.00    -0.040 A 
ATOM     36  C   LIG d   1       9.089   2.739  -6.437  0.00  0.00    -0.057 A 
ATOM     37  H   LIG d   1      10.266   4.516  -6.285  0.00  0.00     0.064 H 
ATOM     38  C   LIG d   1       8.423   1.743  -5.750  0.00  0.00    -0.019 A 
ATOM     39  H   LIG d   1       9.103   2.733  -7.517  0.00  0.00     0.062 H 
ATOM     40  H   LIG d   1       7.917   0.959  -6.293  0.00  0.00     0.065 H 
BRANCH  33  41
ATOM     41  N   LIG d   1      10.387   4.765  -3.657  0.00  0.00    -0.336 N 
BRANCH  41  42
ATOM     42  C   LIG d   1      10.405   4.751  -2.192  0.00  0.00     0.000 C 
ATOM     43  H   LIG d   1      11.034   5.565  -1.829  0.00  0.00     0.043 H 
ATOM     44  H   LIG d   1       9.391   4.880  -1.815  0.00  0.00     0.043 H 
ATOM     45  H   LIG d   1      10.806   3.800  -1.842  0.00  0.00     0.043 H 
ENDBRANCH  41  42
BRANCH  41  46
ATOM     46  C   LIG d   1      11.061   5.840  -4.388  0.00  0.00     0.000 C 
ATOM     47  H   LIG d   1      10.973   6.771  -3.828  0.00  0.00     0.043 H 
ATOM     48  H   LIG d   1      12.115   5.589  -4.513  0.00  0.00     0.043 H 
ATOM     49  H   LIG d   1      10.598   5.960  -5.367  0.00  0.00     0.043 H 
ENDBRANCH  41  46
ENDBRANCH  33  41
ENDBRANCH  30  31
ENDBRANCH   2  30
TORSDOF 8
ENDMDL
MODEL 7
REMARK VINA RESULT:      -5.6      2.032      2.699
REMARK  8 active torsions:
REMARK  status: ('A' for Active; 'I' for Inactive)
REMARK    1  A    between atoms: C_1  and  C_2 
REMARK       I    between atoms: C_2  and  N_4 
REMARK    2  A    between atoms: N_4  and  C_5 
REMARK    3  A    between atoms: C_15  and  N_17 
REMARK    4  A    between atoms: C_18  and  O_22 
REMARK    5  A    between atoms: O_22  and  C_23 
REMARK    6  A    between atoms: C_27  and  N_29 
REMARK    7  A    between atoms: N_29  and  C_30 
REMARK    8  A    between atoms: N_29  and  C_31 
ROOT
ATOM      1  N   LIG d   1       4.362  -0.653  -4.467  0.00  0.00    -0.187 N 
ATOM      2  C   LIG d   1       3.549   0.058  -5.278  0.00  0.00     0.342 A 
ATOM      3  N   LIG d   1       2.369   0.103  -4.702  0.00  0.00    -0.070 NA
ATOM      4  N   LIG d   1       2.391  -0.525  -3.581  0.00  0.00    -0.020 NA
ATOM      5  N   LIG d   1       3.565  -1.013  -3.366  0.00  0.00    -0.041 NA
ENDROOT
BRANCH   1   6
ATOM      6  C   LIG d   1       5.775  -0.976  -4.684  0.00  0.00     0.111 C 
ATOM      7  C   LIG d   1       5.916  -2.350  -5.379  0.00  0.00     0.111 C 
ATOM      8  O   LIG d   1       6.768  -2.202  -6.518  0.00  0.00    -0.370 OA
ATOM      9  H   LIG d   1       4.953  -2.791  -5.639  0.00  0.00     0.065 H 
ATOM     10  C   LIG d   1       6.697  -3.204  -4.344  0.00  0.00     0.107 C 
ATOM     11  C   LIG d   1       7.835  -3.149  -6.488  0.00  0.00     0.069 C 
ATOM     12  C   LIG d   1       7.682  -4.004  -5.220  0.00  0.00     0.075 C 
ATOM     13  H   LIG d   1       8.791  -2.627  -6.466  0.00  0.00     0.058 H 
ATOM     14  H   LIG d   1       7.785  -3.787  -7.370  0.00  0.00     0.058 H 
ATOM     15  H   LIG d   1       8.642  -4.114  -4.715  0.00  0.00     0.055 H 
ATOM     16  H   LIG d   1       6.048  -3.845  -3.748  0.00  0.00     0.064 H 
ATOM     17  O   LIG d   1       7.428  -2.244  -3.555  0.00  0.00    -0.370 OA
ATOM     18  C   LIG d   1       6.502  -1.156  -3.335  0.00  0.00     0.073 C 
ATOM     19  H   LIG d   1       5.790  -1.418  -2.551  0.00  0.00     0.058 H 
ATOM     20  H   LIG d   1       7.043  -0.248  -3.069  0.00  0.00     0.058 H 
ATOM     21  H   LIG d   1       6.257  -0.198  -5.277  0.00  0.00     0.060 H 
BRANCH  12  22
ATOM     22  N   LIG d   1       7.124  -5.318  -5.551  0.00  0.00    -0.308 N 
ATOM     23  C   LIG d   1       7.750  -6.439  -5.139  0.00  0.00     0.210 C 
ATOM     24  O   LIG d   1       8.775  -6.359  -4.495  0.00  0.00    -0.276 OA
ATOM     25  H   LIG d   1       6.304  -5.381  -6.065  0.00  0.00     0.149 HD
BRANCH  23  26
ATOM     26  C   LIG d   1       7.180  -7.790  -5.484  0.00  0.00     0.012 C 
ATOM     27  H   LIG d   1       7.474  -8.062  -6.497  0.00  0.00     0.032 H 
ATOM     28  H   LIG d   1       7.560  -8.534  -4.784  0.00  0.00     0.032 H 
ATOM     29  H   LIG d   1       6.093  -7.753  -5.419  0.00  0.00     0.032 H 
ENDBRANCH  23  26
ENDBRANCH  12  22
ENDBRANCH   1   6
BRANCH   2  30
ATOM     30  O   LIG d   1       3.886   0.617  -6.465  0.00  0.00    -0.423 OA
BRANCH  30  31
ATOM     31  C   LIG d   1       3.355   0.082  -7.596  0.00  0.00     0.134 A 
ATOM     32  C   LIG d   1       3.458  -1.280  -7.832  0.00  0.00     0.002 A 
ATOM     33  C   LIG d   1       2.915  -1.825  -8.988  0.00  0.00     0.033 A 
ATOM     34  H   LIG d   1       3.959  -1.917  -7.118  0.00  0.00     0.067 H 
ATOM     35  C   LIG d   1       2.271  -1.003  -9.905  0.00  0.00    -0.040 A 
ATOM     36  C   LIG d   1       2.171   0.355  -9.665  0.00  0.00    -0.057 A 
ATOM     37  H   LIG d   1       1.848  -1.425 -10.804  0.00  0.00     0.064 H 
ATOM     38  C   LIG d   1       2.706   0.898  -8.513  0.00  0.00    -0.019 A 
ATOM     39  H   LIG d   1       1.670   0.992 -10.379  0.00  0.00     0.062 H 
ATOM     40  H   LIG d   1       2.623   1.958  -8.327  0.00  0.00     0.065 H 
BRANCH  33  41
ATOM     41  N   LIG d   1       3.016  -3.197  -9.229  0.00  0.00    -0.336 N 
BRANCH  41  42
ATOM     42  C   LIG d   1       2.287  -3.799 -10.349  0.00  0.00     0.000 C 
ATOM     43  H   LIG d   1       1.946  -3.015 -11.025  0.00  0.00     0.043 H 
ATOM     44  H   LIG d   1       2.947  -4.480 -10.887  0.00  0.00     0.043 H 
ATOM     45  H   LIG d   1       1.427  -4.350  -9.969  0.00  0.00     0.043 H 
ENDBRANCH  41  42
BRANCH  41  46
ATOM     46  C   LIG d   1       3.850  -4.033  -8.364  0.00  0.00     0.000 C 
ATOM     47  H   LIG d   1       4.902  -3.807  -8.544  0.00  0.00     0.043 H 
ATOM     48  H   LIG d   1       3.609  -3.830  -7.320  0.00  0.00     0.043 H 
ATOM     49  H   LIG d   1       3.662  -5.084  -8.583  0.00  0.00     0.043 H 
ENDBRANCH  41  46
ENDBRANCH  33  41
ENDBRANCH  30  31
ENDBRANCH   2  30
TORSDOF 8
ENDMDL
MODEL 8
REMARK VINA RESULT:      -5.5     10.693     12.779
REMARK  8 active torsions:
REMARK  status: ('A' for Active; 'I' for Inactive)
REMARK    1  A    between atoms: C_1  and  C_2 
REMARK       I    between atoms: C_2  and  N_4 
REMARK    2  A    between atoms: N_4  and  C_5 
REMARK    3  A    between atoms: C_15  and  N_17 
REMARK    4  A    between atoms: C_18  and  O_22 
REMARK    5  A    between atoms: O_22  and  C_23 
REMARK    6  A    between atoms: C_27  and  N_29 
REMARK    7  A    between atoms: N_29  and  C_30 
REMARK    8  A    between atoms: N_29  and  C_31 
ROOT
ATOM      1  N   LIG d   1      11.069   7.999   0.655  0.00  0.00    -0.187 N 
ATOM      2  C   LIG d   1      10.739   6.772   0.195  0.00  0.00     0.342 A 
ATOM      3  N   LIG d   1      10.892   5.930   1.191  0.00  0.00    -0.070 NA
ATOM      4  N   LIG d   1      11.288   6.547   2.246  0.00  0.00    -0.020 NA
ATOM      5  N   LIG d   1      11.419   7.807   2.003  0.00  0.00    -0.041 NA
ENDROOT
BRANCH   1   6
ATOM      6  C   LIG d   1      11.057   9.261  -0.089  0.00  0.00     0.111 C 
ATOM      7  C   LIG d   1      10.086   9.173  -1.289  0.00  0.00     0.111 C 
ATOM      8  O   LIG d   1       9.206  10.300  -1.249  0.00  0.00    -0.370 OA
ATOM      9  H   LIG d   1       9.544   8.228  -1.323  0.00  0.00     0.065 H 
ATOM     10  C   LIG d   1      11.009   9.370  -2.521  0.00  0.00     0.107 C 
ATOM     11  C   LIG d   1       9.208  10.997  -2.495  0.00  0.00     0.069 C 
ATOM     12  C   LIG d   1      10.172  10.273  -3.449  0.00  0.00     0.075 C 
ATOM     13  H   LIG d   1       9.543  12.023  -2.342  0.00  0.00     0.058 H 
ATOM     14  H   LIG d   1       8.203  10.997  -2.917  0.00  0.00     0.058 H 
ATOM     15  H   LIG d   1      10.811  10.991  -3.964  0.00  0.00     0.055 H 
ATOM     16  H   LIG d   1      11.292   8.429  -2.993  0.00  0.00     0.064 H 
ATOM     17  O   LIG d   1      12.137  10.113  -2.018  0.00  0.00    -0.370 OA
ATOM     18  C   LIG d   1      12.435   9.522  -0.734  0.00  0.00     0.073 C 
ATOM     19  H   LIG d   1      12.976   8.584  -0.865  0.00  0.00     0.058 H 
ATOM     20  H   LIG d   1      13.016  10.213  -0.124  0.00  0.00     0.058 H 
ATOM     21  H   LIG d   1      10.780  10.087   0.566  0.00  0.00     0.060 H 
BRANCH  12  22
ATOM     22  N   LIG d   1       9.426   9.464  -4.416  0.00  0.00    -0.308 N 
ATOM     23  C   LIG d   1       9.879   9.336  -5.679  0.00  0.00     0.210 C 
ATOM     24  O   LIG d   1      10.905   9.890  -6.014  0.00  0.00    -0.276 OA
ATOM     25  H   LIG d   1       8.606   9.021  -4.147  0.00  0.00     0.149 HD
BRANCH  23  26
ATOM     26  C   LIG d   1       9.109   8.509  -6.675  0.00  0.00     0.012 C 
ATOM     27  H   LIG d   1       8.766   7.591  -6.199  0.00  0.00     0.032 H 
ATOM     28  H   LIG d   1       8.249   9.077  -7.031  0.00  0.00     0.032 H 
ATOM     29  H   LIG d   1       9.754   8.262  -7.518  0.00  0.00     0.032 H 
ENDBRANCH  23  26
ENDBRANCH  12  22
ENDBRANCH   1   6
BRANCH   2  30
ATOM     30  O   LIG d   1      10.329   6.467  -1.060  0.00  0.00    -0.423 OA
BRANCH  30  31
ATOM     31  C   LIG d   1      11.096   5.619  -1.793  0.00  0.00     0.134 A 
ATOM     32  C   LIG d   1      10.554   4.442  -2.284  0.00  0.00     0.002 A 
ATOM     33  C   LIG d   1      11.341   3.577  -3.034  0.00  0.00     0.033 A 
ATOM     34  H   LIG d   1       9.521   4.198  -2.085  0.00  0.00     0.067 H 
ATOM     35  C   LIG d   1      12.669   3.894  -3.288  0.00  0.00    -0.040 A 
ATOM     36  C   LIG d   1      13.206   5.069  -2.796  0.00  0.00    -0.057 A 
ATOM     37  H   LIG d   1      13.282   3.223  -3.870  0.00  0.00     0.064 H 
ATOM     38  C   LIG d   1      12.424   5.933  -2.054  0.00  0.00    -0.019 A 
ATOM     39  H   LIG d   1      14.240   5.313  -2.994  0.00  0.00     0.062 H 
ATOM     40  H   LIG d   1      12.845   6.852  -1.675  0.00  0.00     0.065 H 
BRANCH  33  41
ATOM     41  N   LIG d   1      10.798   2.391  -3.531  0.00  0.00    -0.336 N 
BRANCH  41  42
ATOM     42  C   LIG d   1      11.682   1.323  -4.006  0.00  0.00     0.000 C 
ATOM     43  H   LIG d   1      12.717   1.587  -3.793  0.00  0.00     0.043 H 
ATOM     44  H   LIG d   1      11.432   0.392  -3.498  0.00  0.00     0.043 H 
ATOM     45  H   LIG d   1      11.554   1.197  -5.081  0.00  0.00     0.043 H 
ENDBRANCH  41  42
BRANCH  41  46
ATOM     46  C   LIG d   1       9.345   2.213  -3.576  0.00  0.00     0.000 C 
ATOM     47  H   LIG d   1       8.868   3.167  -3.805  0.00  0.00     0.043 H 
ATOM     48  H   LIG d   1       9.091   1.486  -4.348  0.00  0.00     0.043 H 
ATOM     49  H   LIG d   1       8.992   1.855  -2.610  0.00  0.00     0.043 H 
ENDBRANCH  41  46
ENDBRANCH  33  41
ENDBRANCH  30  31
ENDBRANCH   2  30
TORSDOF 8
ENDMDL
MODEL 9
REMARK VINA RESULT:      -5.5      6.672      8.561
REMARK  8 active torsions:
REMARK  status: ('A' for Active; 'I' for Inactive)
REMARK    1  A    between atoms: C_1  and  C_2 
REMARK       I    between atoms: C_2  and  N_4 
REMARK    2  A    between atoms: N_4  and  C_5 
REMARK    3  A    between atoms: C_15  and  N_17 
REMARK    4  A    between atoms: C_18  and  O_22 
REMARK    5  A    between atoms: O_22  and  C_23 
REMARK    6  A    between atoms: C_27  and  N_29 
REMARK    7  A    between atoms: N_29  and  C_30 
REMARK    8  A    between atoms: N_29  and  C_31 
ROOT
ATOM      1  N   LIG d   1       8.959   2.177  -4.538  0.00  0.00    -0.187 N 
ATOM      2  C   LIG d   1       7.659   1.817  -4.476  0.00  0.00     0.342 A 
ATOM      3  N   LIG d   1       7.287   1.494  -5.694  0.00  0.00    -0.070 NA
ATOM      4  N   LIG d   1       8.269   1.619  -6.513  0.00  0.00    -0.020 NA
ATOM      5  N   LIG d   1       9.321   2.029  -5.889  0.00  0.00    -0.041 NA
ENDROOT
BRANCH   1   6
ATOM      6  C   LIG d   1       9.814   2.619  -3.433  0.00  0.00     0.111 C 
ATOM      7  C   LIG d   1       9.992   4.155  -3.469  0.00  0.00     0.111 C 
ATOM      8  O   LIG d   1       9.688   4.681  -2.174  0.00  0.00    -0.370 OA
ATOM      9  H   LIG d   1       9.405   4.629  -4.255  0.00  0.00     0.065 H 
ATOM     10  C   LIG d   1      11.520   4.340  -3.678  0.00  0.00     0.107 C 
ATOM     11  C   LIG d   1      10.752   5.500  -1.690  0.00  0.00     0.069 C 
ATOM     12  C   LIG d   1      11.862   5.524  -2.753  0.00  0.00     0.075 C 
ATOM     13  H   LIG d   1      11.141   5.087  -0.760  0.00  0.00     0.058 H 
ATOM     14  H   LIG d   1      10.386   6.512  -1.517  0.00  0.00     0.058 H 
ATOM     15  H   LIG d   1      12.838   5.379  -2.289  0.00  0.00     0.055 H 
ATOM     16  H   LIG d   1      11.784   4.529  -4.719  0.00  0.00     0.064 H 
ATOM     17  O   LIG d   1      12.109   3.134  -3.153  0.00  0.00    -0.370 OA
ATOM     18  C   LIG d   1      11.245   2.066  -3.601  0.00  0.00     0.073 C 
ATOM     19  H   LIG d   1      11.442   1.833  -4.648  0.00  0.00     0.058 H 
ATOM     20  H   LIG d   1      11.386   1.180  -2.981  0.00  0.00     0.058 H 
ATOM     21  H   LIG d   1       9.393   2.307  -2.477  0.00  0.00     0.060 H 
BRANCH  12  22
ATOM     22  N   LIG d   1      11.832   6.784  -3.499  0.00  0.00    -0.308 N 
ATOM     23  C   LIG d   1      12.983   7.421  -3.793  0.00  0.00     0.210 C 
ATOM     24  O   LIG d   1      14.044   6.950  -3.440  0.00  0.00    -0.276 OA
ATOM     25  H   LIG d   1      10.983   7.161  -3.781  0.00  0.00     0.149 HD
BRANCH  23  26
ATOM     26  C   LIG d   1      12.952   8.720  -4.555  0.00  0.00     0.012 C 
ATOM     27  H   LIG d   1      13.560   9.461  -4.037  0.00  0.00     0.032 H 
ATOM     28  H   LIG d   1      13.348   8.562  -5.559  0.00  0.00     0.032 H 
ATOM     29  H   LIG d   1      11.924   9.077  -4.623  0.00  0.00     0.032 H 
ENDBRANCH  23  26
ENDBRANCH  12  22
ENDBRANCH   1   6
BRANCH   2  30
ATOM     30  O   LIG d   1       6.882   1.796  -3.367  0.00  0.00    -0.423 OA
BRANCH  30  31
ATOM     31  C   LIG d   1       6.163   0.671  -3.113  0.00  0.00     0.134 A 
ATOM     32  C   LIG d   1       6.480  -0.515  -3.758  0.00  0.00     0.002 A 
ATOM     33  C   LIG d   1       5.744  -1.663  -3.497  0.00  0.00     0.033 A 
ATOM     34  H   LIG d   1       7.298  -0.545  -4.463  0.00  0.00     0.067 H 
ATOM     35  C   LIG d   1       4.692  -1.620  -2.590  0.00  0.00    -0.040 A 
ATOM     36  C   LIG d   1       4.379  -0.435  -1.950  0.00  0.00    -0.057 A 
ATOM     37  H   LIG d   1       4.118  -2.511  -2.386  0.00  0.00     0.064 H 
ATOM     38  C   LIG d   1       5.113   0.707  -2.204  0.00  0.00    -0.019 A 
ATOM     39  H   LIG d   1       3.560  -0.404  -1.245  0.00  0.00     0.062 H 
ATOM     40  H   LIG d   1       4.869   1.629  -1.700  0.00  0.00     0.065 H 
BRANCH  33  41
ATOM     41  N   LIG d   1       6.060  -2.859  -4.144  0.00  0.00    -0.336 N 
BRANCH  41  42
ATOM     42  C   LIG d   1       7.457  -3.289  -4.247  0.00  0.00     0.000 C 
ATOM     43  H   LIG d   1       7.506  -4.241  -4.775  0.00  0.00     0.043 H 
ATOM     44  H   LIG d   1       8.028  -2.540  -4.796  0.00  0.00     0.043 H 
ATOM     45  H   LIG d   1       7.876  -3.407  -3.248  0.00  0.00     0.043 H 
ENDBRANCH  41  42
BRANCH  41  46
ATOM     46  C   LIG d   1       4.996  -3.684  -4.720  0.00  0.00     0.000 C 
ATOM     47  H   LIG d   1       4.041  -3.167  -4.621  0.00  0.00     0.043 H 
ATOM     48  H   LIG d   1       5.204  -3.862  -5.775  0.00  0.00     0.043 H 
ATOM     49  H   LIG d   1       4.948  -4.636  -4.193  0.00  0.00     0.043 H 
ENDBRANCH  41  46
ENDBRANCH  33  41
ENDBRANCH  30  31
ENDBRANCH   2  30
TORSDOF 8
ENDMDL
MODEL 10
REMARK VINA RESULT:      -5.4      9.412     10.720
REMARK  8 active torsions:
REMARK  status: ('A' for Active; 'I' for Inactive)
REMARK    1  A    between atoms: C_1  and  C_2 
REMARK       I    between atoms: C_2  and  N_4 
REMARK    2  A    between atoms: N_4  and  C_5 
REMARK    3  A    between atoms: C_15  and  N_17 
REMARK    4  A    between atoms: C_18  and  O_22 
REMARK    5  A    between atoms: O_22  and  C_23 
REMARK    6  A    between atoms: C_27  and  N_29 
REMARK    7  A    between atoms: N_29  and  C_30 
REMARK    8  A    between atoms: N_29  and  C_31 
ROOT
ATOM      1  N   LIG d   1      11.192   5.668  -1.056  0.00  0.00    -0.187 N 
ATOM      2  C   LIG d   1      10.355   6.578  -0.512  0.00  0.00     0.342 A 
ATOM      3  N   LIG d   1      10.692   6.709   0.751  0.00  0.00    -0.070 NA
ATOM      4  N   LIG d   1      11.688   5.949   1.032  0.00  0.00    -0.020 NA
ATOM      5  N   LIG d   1      12.052   5.285  -0.011  0.00  0.00    -0.041 NA
ENDROOT
BRANCH   1   6
ATOM      6  C   LIG d   1      11.207   5.188  -2.440  0.00  0.00     0.111 C 
ATOM      7  C   LIG d   1       9.999   4.259  -2.703  0.00  0.00     0.111 C 
ATOM      8  O   LIG d   1       9.324   4.709  -3.881  0.00  0.00    -0.370 OA
ATOM      9  H   LIG d   1       9.329   4.186  -1.846  0.00  0.00     0.065 H 
ATOM     10  C   LIG d   1      10.656   2.897  -3.059  0.00  0.00     0.107 C 
ATOM     11  C   LIG d   1       9.161   3.646  -4.819  0.00  0.00     0.069 C 
ATOM     12  C   LIG d   1       9.781   2.375  -4.215  0.00  0.00     0.075 C 
ATOM     13  H   LIG d   1       9.667   3.896  -5.751  0.00  0.00     0.058 H 
ATOM     14  H   LIG d   1       8.100   3.483  -5.009  0.00  0.00     0.058 H 
ATOM     15  H   LIG d   1      10.393   1.859  -4.956  0.00  0.00     0.055 H 
ATOM     16  H   LIG d   1      10.689   2.210  -2.213  0.00  0.00     0.064 H 
ATOM     17  O   LIG d   1      11.962   3.242  -3.562  0.00  0.00    -0.370 OA
ATOM     18  C   LIG d   1      12.438   4.290  -2.688  0.00  0.00     0.073 C 
ATOM     19  H   LIG d   1      12.795   3.866  -1.749  0.00  0.00     0.058 H 
ATOM     20  H   LIG d   1      13.231   4.857  -3.175  0.00  0.00     0.058 H 
ATOM     21  H   LIG d   1      11.201   6.027  -3.135  0.00  0.00     0.060 H 
BRANCH  12  22
ATOM     22  N   LIG d   1       8.734   1.485  -3.706  0.00  0.00    -0.308 N 
ATOM     23  C   LIG d   1       8.268   0.483  -4.478  0.00  0.00     0.210 C 
ATOM     24  O   LIG d   1       8.715   0.318  -5.594  0.00  0.00    -0.276 OA
ATOM     25  H   LIG d   1       8.377   1.617  -2.814  0.00  0.00     0.149 HD
BRANCH  23  26
ATOM     26  C   LIG d   1       7.188  -0.429  -3.957  0.00  0.00     0.012 C 
ATOM     27  H   LIG d   1       7.602  -1.082  -3.189  0.00  0.00     0.032 H 
ATOM     28  H   LIG d   1       6.382   0.169  -3.529  0.00  0.00     0.032 H 
ATOM     29  H   LIG d   1       6.796  -1.033  -4.775  0.00  0.00     0.032 H 
ENDBRANCH  23  26
ENDBRANCH  12  22
ENDBRANCH   1   6
BRANCH   2  30
ATOM     30  O   LIG d   1       9.353   7.230  -1.149  0.00  0.00    -0.423 OA
BRANCH  30  31
ATOM     31  C   LIG d   1       9.608   8.475  -1.631  0.00  0.00     0.134 A 
ATOM     32  C   LIG d   1      10.005   8.639  -2.949  0.00  0.00     0.002 A 
ATOM     33  C   LIG d   1      10.264   9.912  -3.440  0.00  0.00     0.033 A 
ATOM     34  H   LIG d   1      10.111   7.779  -3.594  0.00  0.00     0.067 H 
ATOM     35  C   LIG d   1      10.127  11.016  -2.609  0.00  0.00    -0.040 A 
ATOM     36  C   LIG d   1       9.732  10.848  -1.295  0.00  0.00    -0.057 A 
ATOM     37  H   LIG d   1      10.329  12.006  -2.989  0.00  0.00     0.064 H 
ATOM     38  C   LIG d   1       9.468   9.583  -0.806  0.00  0.00    -0.019 A 
ATOM     39  H   LIG d   1       9.626  11.708  -0.650  0.00  0.00     0.062 H 
ATOM     40  H   LIG d   1       9.156   9.455   0.219  0.00  0.00     0.065 H 
BRANCH  33  41
ATOM     41  N   LIG d   1      10.663  10.081  -4.768  0.00  0.00    -0.336 N 
BRANCH  41  42
ATOM     42  C   LIG d   1       9.726   9.795  -5.857  0.00  0.00     0.000 C 
ATOM     43  H   LIG d   1      10.281   9.625  -6.779  0.00  0.00     0.043 H 
ATOM     44  H   LIG d   1       9.146   8.906  -5.612  0.00  0.00     0.043 H 
ATOM     45  H   LIG d   1       9.054  10.643  -5.990  0.00  0.00     0.043 H 
ENDBRANCH  41  42
BRANCH  41  46
ATOM     46  C   LIG d   1      12.019  10.545  -5.071  0.00  0.00     0.000 C 
ATOM     47  H   LIG d   1      11.979  11.574  -5.431  0.00  0.00     0.043 H 
ATOM     48  H   LIG d   1      12.629  10.500  -4.169  0.00  0.00     0.043 H 
ATOM     49  H   LIG d   1      12.458   9.909  -5.839  0.00  0.00     0.043 H 
ENDBRANCH  41  46
ENDBRANCH  33  41
ENDBRANCH  30  31
ENDBRANCH   2  30
TORSDOF 8
ENDMDL
