MODEL 1
REMARK VINA RESULT:      -4.2      0.000      0.000
REMARK  2 active torsions:
REMARK  status: ('A' for Active; 'I' for Inactive)
REMARK    1  A    between atoms: C_1  and  O_2 
REMARK    2  A    between atoms: O_2  and  C_3 
ROOT
ATOM      1  C   LIG d   1       5.834  -0.890  -2.969  0.00  0.00     0.157 A 
ATOM      2  C   LIG d   1       6.777  -1.327  -3.889  0.00  0.00     0.085 A 
ATOM      3  C   LIG d   1       7.575  -0.410  -4.549  0.00  0.00    -0.021 A 
ATOM      4  C   LIG d   1       7.426   0.942  -4.301  0.00  0.00     0.044 A 
ATOM      5  C   LIG d   1       6.484   1.382  -3.388  0.00  0.00    -0.021 A 
ATOM      6  C   LIG d   1       5.688   0.468  -2.722  0.00  0.00     0.085 A 
ATOM      7 CL   LIG d   1       4.506   1.019  -1.576  0.00  0.00    -0.080 Cl
ATOM      8 CL   LIG d   1       8.424   2.092  -5.136  0.00  0.00    -0.083 Cl
ATOM      9 CL   LIG d   1       6.959  -3.024  -4.206  0.00  0.00    -0.080 Cl
ATOM     10  H   LIG d   1       8.311  -0.750  -5.263  0.00  0.00     0.065 H 
ATOM     11  H   LIG d   1       6.370   2.438  -3.195  0.00  0.00     0.065 H 
ENDROOT
BRANCH   1  12
ATOM     12  O   LIG d   1       5.053  -1.789  -2.316  0.00  0.00    -0.492 OA
BRANCH  12  13
ATOM     13  C   LIG d   1       3.762  -2.051  -2.870  0.00  0.00     0.079 C 
ATOM     14  H   LIG d   1       3.657  -1.518  -3.815  0.00  0.00     0.066 H 
ATOM     15  H   LIG d   1       3.653  -3.122  -3.044  0.00  0.00     0.066 H 
ATOM     16  H   LIG d   1       2.992  -1.716  -2.175  0.00  0.00     0.066 H 
ENDBRANCH  12  13
ENDBRANCH   1  12
TORSDOF 2
ENDMDL
MODEL 2
REMARK VINA RESULT:      -4.2      0.037      2.724
REMARK  2 active torsions:
REMARK  status: ('A' for Active; 'I' for Inactive)
REMARK    1  A    between atoms: C_1  and  O_2 
REMARK    2  A    between atoms: O_2  and  C_3 
ROOT
ATOM      1  C   LIG d   1       5.809  -0.898  -2.982  0.00  0.00     0.157 A 
ATOM      2  C   LIG d   1       5.684   0.460  -2.723  0.00  0.00     0.085 A 
ATOM      3  C   LIG d   1       6.480   1.366  -3.398  0.00  0.00    -0.021 A 
ATOM      4  C   LIG d   1       7.409   0.921  -4.321  0.00  0.00     0.044 A 
ATOM      5  C   LIG d   1       7.540  -0.433  -4.577  0.00  0.00    -0.021 A 
ATOM      6  C   LIG d   1       6.741  -1.343  -3.909  0.00  0.00     0.085 A 
ATOM      7 CL   LIG d   1       6.904  -3.041  -4.230  0.00  0.00    -0.080 Cl
ATOM      8 CL   LIG d   1       8.413   2.061  -5.161  0.00  0.00    -0.083 Cl
ATOM      9 CL   LIG d   1       4.524   1.019  -1.560  0.00  0.00    -0.080 Cl
ATOM     10  H   LIG d   1       6.381   2.424  -3.200  0.00  0.00     0.065 H 
ATOM     11  H   LIG d   1       8.264  -0.778  -5.299  0.00  0.00     0.065 H 
ENDROOT
BRANCH   1  12
ATOM     12  O   LIG d   1       5.024  -1.791  -2.324  0.00  0.00    -0.492 OA
BRANCH  12  13
ATOM     13  C   LIG d   1       3.726  -2.039  -2.867  0.00  0.00     0.079 C 
ATOM     14  H   LIG d   1       3.798  -2.137  -3.951  0.00  0.00     0.066 H 
ATOM     15  H   LIG d   1       3.326  -2.961  -2.446  0.00  0.00     0.066 H 
ATOM     16  H   LIG d   1       3.064  -1.209  -2.621  0.00  0.00     0.066 H 
ENDBRANCH  12  13
ENDBRANCH   1  12
TORSDOF 2
ENDMDL
MODEL 3
REMARK VINA RESULT:      -4.1      1.599      3.176
REMARK  2 active torsions:
REMARK  status: ('A' for Active; 'I' for Inactive)
REMARK    1  A    between atoms: C_1  and  O_2 
REMARK    2  A    between atoms: O_2  and  C_3 
ROOT
ATOM      1  C   LIG d   1       6.018   0.030  -2.976  0.00  0.00     0.157 A 
ATOM      2  C   LIG d   1       7.094   0.358  -3.789  0.00  0.00     0.085 A 
ATOM      3  C   LIG d   1       7.698  -0.617  -4.561  0.00  0.00    -0.021 A 
ATOM      4  C   LIG d   1       7.237  -1.920  -4.518  0.00  0.00     0.044 A 
ATOM      5  C   LIG d   1       6.166  -2.251  -3.705  0.00  0.00    -0.021 A 
ATOM      6  C   LIG d   1       5.556  -1.278  -2.935  0.00  0.00     0.085 A 
ATOM      7 CL   LIG d   1       4.214  -1.693  -1.916  0.00  0.00    -0.080 Cl
ATOM      8 CL   LIG d   1       8.001  -3.144  -5.483  0.00  0.00    -0.083 Cl
ATOM      9 CL   LIG d   1       7.678   1.992  -3.839  0.00  0.00    -0.080 Cl
ATOM     10  H   LIG d   1       8.533  -0.362  -5.196  0.00  0.00     0.065 H 
ATOM     11  H   LIG d   1       5.807  -3.269  -3.673  0.00  0.00     0.065 H 
ENDROOT
BRANCH   1  12
ATOM     12  O   LIG d   1       5.419   0.987  -2.220  0.00  0.00    -0.492 OA
BRANCH  12  13
ATOM     13  C   LIG d   1       4.222   1.570  -2.737  0.00  0.00     0.079 C 
ATOM     14  H   LIG d   1       4.096   2.570  -2.321  0.00  0.00     0.066 H 
ATOM     15  H   LIG d   1       4.291   1.636  -3.824  0.00  0.00     0.066 H 
ATOM     16  H   LIG d   1       3.368   0.952  -2.464  0.00  0.00     0.066 H 
ENDBRANCH  12  13
ENDBRANCH   1  12
TORSDOF 2
ENDMDL
MODEL 4
REMARK VINA RESULT:      -4.1      1.600      3.122
REMARK  2 active torsions:
REMARK  status: ('A' for Active; 'I' for Inactive)
REMARK    1  A    between atoms: C_1  and  O_2 
REMARK    2  A    between atoms: O_2  and  C_3 
ROOT
ATOM      1  C   LIG d   1       6.017   0.022  -2.976  0.00  0.00     0.157 A 
ATOM      2  C   LIG d   1       5.551  -1.285  -2.941  0.00  0.00     0.085 A 
ATOM      3  C   LIG d   1       6.164  -2.256  -3.711  0.00  0.00    -0.021 A 
ATOM      4  C   LIG d   1       7.233  -1.925  -4.523  0.00  0.00     0.044 A 
ATOM      5  C   LIG d   1       7.697  -0.622  -4.564  0.00  0.00    -0.021 A 
ATOM      6  C   LIG d   1       7.090   0.352  -3.791  0.00  0.00     0.085 A 
ATOM      7 CL   LIG d   1       7.672   1.987  -3.842  0.00  0.00    -0.080 Cl
ATOM      8 CL   LIG d   1       7.996  -3.146  -5.494  0.00  0.00    -0.083 Cl
ATOM      9 CL   LIG d   1       4.205  -1.700  -1.928  0.00  0.00    -0.080 Cl
ATOM     10  H   LIG d   1       5.804  -3.274  -3.682  0.00  0.00     0.065 H 
ATOM     11  H   LIG d   1       8.532  -0.365  -5.198  0.00  0.00     0.065 H 
ENDROOT
BRANCH   1  12
ATOM     12  O   LIG d   1       5.420   0.978  -2.217  0.00  0.00    -0.492 OA
BRANCH  12  13
ATOM     13  C   LIG d   1       4.231   1.575  -2.740  0.00  0.00     0.079 C 
ATOM     14  H   LIG d   1       3.869   0.985  -3.582  0.00  0.00     0.066 H 
ATOM     15  H   LIG d   1       3.467   1.605  -1.963  0.00  0.00     0.066 H 
ATOM     16  H   LIG d   1       4.450   2.589  -3.074  0.00  0.00     0.066 H 
ENDBRANCH  12  13
ENDBRANCH   1  12
TORSDOF 2
ENDMDL
MODEL 5
REMARK VINA RESULT:      -4.0      2.371      3.099
REMARK  2 active torsions:
REMARK  status: ('A' for Active; 'I' for Inactive)
REMARK    1  A    between atoms: C_1  and  O_2 
REMARK    2  A    between atoms: O_2  and  C_3 
ROOT
ATOM      1  C   LIG d   1       4.765  -0.149  -4.366  0.00  0.00     0.157 A 
ATOM      2  C   LIG d   1       5.323  -0.767  -5.477  0.00  0.00     0.085 A 
ATOM      3  C   LIG d   1       6.313  -1.718  -5.314  0.00  0.00    -0.021 A 
ATOM      4  C   LIG d   1       6.756  -2.046  -4.045  0.00  0.00     0.044 A 
ATOM      5  C   LIG d   1       6.205  -1.428  -2.936  0.00  0.00    -0.021 A 
ATOM      6  C   LIG d   1       5.211  -0.481  -3.095  0.00  0.00     0.085 A 
ATOM      7 CL   LIG d   1       4.520   0.294  -1.703  0.00  0.00    -0.080 Cl
ATOM      8 CL   LIG d   1       8.004  -3.235  -3.843  0.00  0.00    -0.083 Cl
ATOM      9 CL   LIG d   1       4.773  -0.351  -7.070  0.00  0.00    -0.080 Cl
ATOM     10  H   LIG d   1       6.745  -2.201  -6.178  0.00  0.00     0.065 H 
ATOM     11  H   LIG d   1       6.552  -1.687  -1.946  0.00  0.00     0.065 H 
ENDROOT
BRANCH   1  12
ATOM     12  O   LIG d   1       3.789   0.782  -4.524  0.00  0.00    -0.492 OA
BRANCH  12  13
ATOM     13  C   LIG d   1       2.444   0.306  -4.605  0.00  0.00     0.079 C 
ATOM     14  H   LIG d   1       1.819   0.860  -3.904  0.00  0.00     0.066 H 
ATOM     15  H   LIG d   1       2.068   0.450  -5.618  0.00  0.00     0.066 H 
ATOM     16  H   LIG d   1       2.418  -0.755  -4.356  0.00  0.00     0.066 H 
ENDBRANCH  12  13
ENDBRANCH   1  12
TORSDOF 2
ENDMDL
MODEL 6
REMARK VINA RESULT:      -4.0      2.805      3.679
REMARK  2 active torsions:
REMARK  status: ('A' for Active; 'I' for Inactive)
REMARK    1  A    between atoms: C_1  and  O_2 
REMARK    2  A    between atoms: O_2  and  C_3 
ROOT
ATOM      1  C   LIG d   1       4.561  -1.449  -5.335  0.00  0.00     0.157 A 
ATOM      2  C   LIG d   1       5.361  -1.857  -4.277  0.00  0.00     0.085 A 
ATOM      3  C   LIG d   1       5.351  -1.145  -3.091  0.00  0.00    -0.021 A 
ATOM      4  C   LIG d   1       4.553  -0.023  -2.963  0.00  0.00     0.044 A 
ATOM      5  C   LIG d   1       3.758   0.389  -4.018  0.00  0.00    -0.021 A 
ATOM      6  C   LIG d   1       3.761  -0.323  -5.204  0.00  0.00     0.085 A 
ATOM      7 CL   LIG d   1       2.763   0.192  -6.528  0.00  0.00    -0.080 Cl
ATOM      8 CL   LIG d   1       4.549   0.873  -1.476  0.00  0.00    -0.083 Cl
ATOM      9 CL   LIG d   1       6.367  -3.261  -4.439  0.00  0.00    -0.080 Cl
ATOM     10  H   LIG d   1       5.971  -1.464  -2.266  0.00  0.00     0.065 H 
ATOM     11  H   LIG d   1       3.136   1.265  -3.916  0.00  0.00     0.065 H 
ENDROOT
BRANCH   1  12
ATOM     12  O   LIG d   1       4.565  -2.150  -6.500  0.00  0.00    -0.492 OA
BRANCH  12  13
ATOM     13  C   LIG d   1       5.514  -1.754  -7.492  0.00  0.00     0.079 C 
ATOM     14  H   LIG d   1       6.347  -1.239  -7.014  0.00  0.00     0.066 H 
ATOM     15  H   LIG d   1       5.885  -2.638  -8.012  0.00  0.00     0.066 H 
ATOM     16  H   LIG d   1       5.035  -1.086  -8.208  0.00  0.00     0.066 H 
ENDBRANCH  12  13
ENDBRANCH   1  12
TORSDOF 2
ENDMDL
MODEL 7
REMARK VINA RESULT:      -3.9      2.388      3.768
REMARK  2 active torsions:
REMARK  status: ('A' for Active; 'I' for Inactive)
REMARK    1  A    between atoms: C_1  and  O_2 
REMARK    2  A    between atoms: O_2  and  C_3 
ROOT
ATOM      1  C   LIG d   1       4.761  -0.203  -4.391  0.00  0.00     0.157 A 
ATOM      2  C   LIG d   1       5.178  -0.634  -3.139  0.00  0.00     0.085 A 
ATOM      3  C   LIG d   1       6.144  -1.618  -3.034  0.00  0.00    -0.021 A 
ATOM      4  C   LIG d   1       6.688  -2.180  -4.175  0.00  0.00     0.044 A 
ATOM      5  C   LIG d   1       6.271  -1.756  -5.425  0.00  0.00    -0.021 A 
ATOM      6  C   LIG d   1       5.309  -0.768  -5.534  0.00  0.00     0.085 A 
ATOM      7 CL   LIG d   1       4.787  -0.236  -7.102  0.00  0.00    -0.080 Cl
ATOM      8 CL   LIG d   1       7.895  -3.420  -4.040  0.00  0.00    -0.083 Cl
ATOM      9 CL   LIG d   1       4.491   0.066  -1.707  0.00  0.00    -0.080 Cl
ATOM     10  H   LIG d   1       6.471  -1.951  -2.060  0.00  0.00     0.065 H 
ATOM     11  H   LIG d   1       6.698  -2.195  -6.314  0.00  0.00     0.065 H 
ENDROOT
BRANCH   1  12
ATOM     12  O   LIG d   1       3.816   0.767  -4.498  0.00  0.00    -0.492 OA
BRANCH  12  13
ATOM     13  C   LIG d   1       2.457   0.339  -4.610  0.00  0.00     0.079 C 
ATOM     14  H   LIG d   1       1.946   0.499  -3.660  0.00  0.00     0.066 H 
ATOM     15  H   LIG d   1       1.959   0.915  -5.391  0.00  0.00     0.066 H 
ATOM     16  H   LIG d   1       2.428  -0.720  -4.866  0.00  0.00     0.066 H 
ENDBRANCH  12  13
ENDBRANCH   1  12
TORSDOF 2
ENDMDL
MODEL 8
REMARK VINA RESULT:      -3.9      2.793      4.223
REMARK  2 active torsions:
REMARK  status: ('A' for Active; 'I' for Inactive)
REMARK    1  A    between atoms: C_1  and  O_2 
REMARK    2  A    between atoms: O_2  and  C_3 
ROOT
ATOM      1  C   LIG d   1       4.576  -1.443  -5.326  0.00  0.00     0.157 A 
ATOM      2  C   LIG d   1       3.767  -0.323  -5.193  0.00  0.00     0.085 A 
ATOM      3  C   LIG d   1       3.770   0.393  -4.010  0.00  0.00    -0.021 A 
ATOM      4  C   LIG d   1       4.569  -0.012  -2.957  0.00  0.00     0.044 A 
ATOM      5  C   LIG d   1       5.373  -1.131  -3.085  0.00  0.00    -0.021 A 
ATOM      6  C   LIG d   1       5.378  -1.847  -4.268  0.00  0.00     0.085 A 
ATOM      7 CL   LIG d   1       6.386  -3.251  -4.430  0.00  0.00    -0.080 Cl
ATOM      8 CL   LIG d   1       4.565   0.884  -1.470  0.00  0.00    -0.083 Cl
ATOM      9 CL   LIG d   1       2.758   0.182  -6.512  0.00  0.00    -0.080 Cl
ATOM     10  H   LIG d   1       3.143   1.266  -3.907  0.00  0.00     0.065 H 
ATOM     11  H   LIG d   1       5.997  -1.445  -2.262  0.00  0.00     0.065 H 
ENDROOT
BRANCH   1  12
ATOM     12  O   LIG d   1       4.579  -2.146  -6.490  0.00  0.00    -0.492 OA
BRANCH  12  13
ATOM     13  C   LIG d   1       5.525  -1.750  -7.485  0.00  0.00     0.079 C 
ATOM     14  H   LIG d   1       5.546  -2.494  -8.282  0.00  0.00     0.066 H 
ATOM     15  H   LIG d   1       5.234  -0.784  -7.898  0.00  0.00     0.066 H 
ATOM     16  H   LIG d   1       6.514  -1.670  -7.035  0.00  0.00     0.066 H 
ENDBRANCH  12  13
ENDBRANCH   1  12
TORSDOF 2
ENDMDL
MODEL 9
REMARK VINA RESULT:      -3.8      2.307      4.467
REMARK  2 active torsions:
REMARK  status: ('A' for Active; 'I' for Inactive)
REMARK    1  A    between atoms: C_1  and  O_2 
REMARK    2  A    between atoms: O_2  and  C_3 
ROOT
ATOM      1  C   LIG d   1       5.281  -0.606  -4.311  0.00  0.00     0.157 A 
ATOM      2  C   LIG d   1       4.763  -1.464  -3.351  0.00  0.00     0.085 A 
ATOM      3  C   LIG d   1       4.594  -2.805  -3.644  0.00  0.00    -0.021 A 
ATOM      4  C   LIG d   1       4.930  -3.289  -4.895  0.00  0.00     0.044 A 
ATOM      5  C   LIG d   1       5.442  -2.434  -5.856  0.00  0.00    -0.021 A 
ATOM      6  C   LIG d   1       5.618  -1.094  -5.565  0.00  0.00     0.085 A 
ATOM      7 CL   LIG d   1       6.261  -0.022  -6.770  0.00  0.00    -0.080 Cl
ATOM      8 CL   LIG d   1       4.710  -4.971  -5.262  0.00  0.00    -0.083 Cl
ATOM      9 CL   LIG d   1       4.334  -0.856  -1.783  0.00  0.00    -0.080 Cl
ATOM     10  H   LIG d   1       4.194  -3.474  -2.896  0.00  0.00     0.065 H 
ATOM     11  H   LIG d   1       5.705  -2.815  -6.831  0.00  0.00     0.065 H 
ENDROOT
BRANCH   1  12
ATOM     12  O   LIG d   1       5.452   0.711  -4.024  0.00  0.00    -0.492 OA
BRANCH  12  13
ATOM     13  C   LIG d   1       6.721   1.101  -3.494  0.00  0.00     0.079 C 
ATOM     14  H   LIG d   1       7.047   0.366  -2.757  0.00  0.00     0.066 H 
ATOM     15  H   LIG d   1       7.451   1.154  -4.301  0.00  0.00     0.066 H 
ATOM     16  H   LIG d   1       6.632   2.078  -3.019  0.00  0.00     0.066 H 
ENDBRANCH  12  13
ENDBRANCH   1  12
TORSDOF 2
ENDMDL
MODEL 10
REMARK VINA RESULT:      -3.8      2.319      4.044
REMARK  2 active torsions:
REMARK  status: ('A' for Active; 'I' for Inactive)
REMARK    1  A    between atoms: C_1  and  O_2 
REMARK    2  A    between atoms: O_2  and  C_3 
ROOT
ATOM      1  C   LIG d   1       5.262  -0.619  -4.318  0.00  0.00     0.157 A 
ATOM      2  C   LIG d   1       5.599  -1.098  -5.576  0.00  0.00     0.085 A 
ATOM      3  C   LIG d   1       5.423  -2.437  -5.874  0.00  0.00    -0.021 A 
ATOM      4  C   LIG d   1       4.921  -3.300  -4.917  0.00  0.00     0.044 A 
ATOM      5  C   LIG d   1       4.589  -2.826  -3.659  0.00  0.00    -0.021 A 
ATOM      6  C   LIG d   1       4.758  -1.487  -3.359  0.00  0.00     0.085 A 
ATOM      7 CL   LIG d   1       4.342  -0.891  -1.783  0.00  0.00    -0.080 Cl
ATOM      8 CL   LIG d   1       4.707  -4.982  -5.291  0.00  0.00    -0.083 Cl
ATOM      9 CL   LIG d   1       6.235  -0.018  -6.776  0.00  0.00    -0.080 Cl
ATOM     10  H   LIG d   1       5.681  -2.810  -6.854  0.00  0.00     0.065 H 
ATOM     11  H   LIG d   1       4.196  -3.501  -2.914  0.00  0.00     0.065 H 
ENDROOT
BRANCH   1  12
ATOM     12  O   LIG d   1       5.430   0.697  -4.024  0.00  0.00    -0.492 OA
BRANCH  12  13
ATOM     13  C   LIG d   1       6.696   1.087  -3.487  0.00  0.00     0.079 C 
ATOM     14  H   LIG d   1       7.447   0.342  -3.751  0.00  0.00     0.066 H 
ATOM     15  H   LIG d   1       6.983   2.054  -3.899  0.00  0.00     0.066 H 
ATOM     16  H   LIG d   1       6.624   1.161  -2.402  0.00  0.00     0.066 H 
ENDBRANCH  12  13
ENDBRANCH   1  12
TORSDOF 2
ENDMDL
