MODEL 1
REMARK VINA RESULT:      -4.5      0.000      0.000
REMARK  8 active torsions:
REMARK  status: ('A' for Active; 'I' for Inactive)
REMARK    1  A    between atoms: C_1  and  C_2 
REMARK    2  A    between atoms: C_2  and  N_3 
REMARK    3  A    between atoms: N_3  and  C_4 
REMARK    4  A    between atoms: N_3  and  C_6 
REMARK    5  A    between atoms: N_3  and  C_8 
REMARK    6  A    between atoms: C_4  and  C_5 
REMARK    7  A    between atoms: C_6  and  C_7 
REMARK    8  A    between atoms: C_8  and  C_9 
ROOT
ATOM      1  N   LIG d   1       5.423  -2.632  -4.802  0.00  0.00     0.246 N 
ENDROOT
BRANCH   1   2
ATOM      2  C   LIG d   1       5.945  -3.989  -5.014  0.00  0.00    -0.033 C 
ATOM      3  H   LIG d   1       6.715  -3.965  -5.785  0.00  0.00     0.081 H 
ATOM      4  H   LIG d   1       6.373  -4.362  -4.084  0.00  0.00     0.081 H 
BRANCH   2   5
ATOM      5  C   LIG d   1       4.808  -4.910  -5.459  0.00  0.00    -0.024 C 
ATOM      6  H   LIG d   1       3.898  -4.324  -5.594  0.00  0.00     0.028 H 
ATOM      7  H   LIG d   1       5.074  -5.388  -6.401  0.00  0.00     0.028 H 
ATOM      8  H   LIG d   1       4.639  -5.673  -4.698  0.00  0.00     0.028 H 
ENDBRANCH   2   5
ENDBRANCH   1   2
BRANCH   1   9
ATOM      9  C   LIG d   1       4.804  -2.147  -6.042  0.00  0.00    -0.033 C 
ATOM     10  H   LIG d   1       4.517  -2.997  -6.661  0.00  0.00     0.081 H 
ATOM     11  H   LIG d   1       3.919  -1.557  -5.801  0.00  0.00     0.081 H 
BRANCH   9  12
ATOM     12  C   LIG d   1       5.805  -1.276  -6.804  0.00  0.00    -0.024 C 
ATOM     13  H   LIG d   1       6.740  -1.821  -6.930  0.00  0.00     0.028 H 
ATOM     14  H   LIG d   1       5.396  -1.024  -7.783  0.00  0.00     0.028 H 
ATOM     15  H   LIG d   1       5.991  -0.361  -6.242  0.00  0.00     0.028 H 
ENDBRANCH   9  12
ENDBRANCH   1   9
BRANCH   1  16
ATOM     16  C   LIG d   1       6.524  -1.737  -4.422  0.00  0.00    -0.033 C 
ATOM     17  H   LIG d   1       6.906  -1.233  -5.308  0.00  0.00     0.081 H 
ATOM     18  H   LIG d   1       6.160  -0.995  -3.711  0.00  0.00     0.081 H 
BRANCH  16  19
ATOM     19  C   LIG d   1       7.645  -2.554  -3.777  0.00  0.00    -0.024 C 
ATOM     20  H   LIG d   1       7.970  -2.064  -2.859  0.00  0.00     0.028 H 
ATOM     21  H   LIG d   1       7.279  -3.555  -3.544  0.00  0.00     0.028 H 
ATOM     22  H   LIG d   1       8.486  -2.626  -4.467  0.00  0.00     0.028 H 
ENDBRANCH  16  19
ENDBRANCH   1  16
BRANCH   1  23
ATOM     23  C   LIG d   1       4.419  -2.656  -3.730  0.00  0.00    -0.004 C 
ATOM     24  H   LIG d   1       4.783  -3.267  -2.905  0.00  0.00     0.087 H 
ATOM     25  H   LIG d   1       3.489  -3.078  -4.112  0.00  0.00     0.087 H 
BRANCH  23  26
ATOM     26  C   LIG d   1       4.169  -1.252  -3.244  0.00  0.00    -0.003 A 
ATOM     27  C   LIG d   1       4.751  -0.813  -2.070  0.00  0.00    -0.053 A 
ATOM     28  C   LIG d   1       4.522   0.475  -1.624  0.00  0.00    -0.061 A 
ATOM     29  H   LIG d   1       5.386  -1.475  -1.501  0.00  0.00     0.062 H 
ATOM     30  C   LIG d   1       3.709   1.324  -2.353  0.00  0.00    -0.062 A 
ATOM     31  H   LIG d   1       4.977   0.819  -0.708  0.00  0.00     0.062 H 
ATOM     32  C   LIG d   1       3.126   0.886  -3.527  0.00  0.00    -0.061 A 
ATOM     33  H   LIG d   1       3.530   2.331  -2.004  0.00  0.00     0.062 H 
ATOM     34  C   LIG d   1       3.359  -0.401  -3.975  0.00  0.00    -0.053 A 
ATOM     35  H   LIG d   1       2.491   1.548  -4.095  0.00  0.00     0.062 H 
ATOM     36  H   LIG d   1       2.908  -0.743  -4.895  0.00  0.00     0.062 H 
ENDBRANCH  23  26
ENDBRANCH   1  23
TORSDOF 8
ENDMDL
MODEL 2
REMARK VINA RESULT:      -4.5      0.089      2.466
REMARK  8 active torsions:
REMARK  status: ('A' for Active; 'I' for Inactive)
REMARK    1  A    between atoms: C_1  and  C_2 
REMARK    2  A    between atoms: C_2  and  N_3 
REMARK    3  A    between atoms: N_3  and  C_4 
REMARK    4  A    between atoms: N_3  and  C_6 
REMARK    5  A    between atoms: N_3  and  C_8 
REMARK    6  A    between atoms: C_4  and  C_5 
REMARK    7  A    between atoms: C_6  and  C_7 
REMARK    8  A    between atoms: C_8  and  C_9 
ROOT
ATOM      1  N   LIG d   1       5.457  -2.649  -4.783  0.00  0.00     0.246 N 
ENDROOT
BRANCH   1   2
ATOM      2  C   LIG d   1       6.571  -1.774  -4.396  0.00  0.00    -0.033 C 
ATOM      3  H   LIG d   1       6.968  -1.277  -5.281  0.00  0.00     0.081 H 
ATOM      4  H   LIG d   1       6.216  -1.026  -3.687  0.00  0.00     0.081 H 
BRANCH   2   5
ATOM      5  C   LIG d   1       7.675  -2.611  -3.744  0.00  0.00    -0.024 C 
ATOM      6  H   LIG d   1       8.295  -1.969  -3.118  0.00  0.00     0.028 H 
ATOM      7  H   LIG d   1       7.225  -3.391  -3.131  0.00  0.00     0.028 H 
ATOM      8  H   LIG d   1       8.290  -3.067  -4.520  0.00  0.00     0.028 H 
ENDBRANCH   2   5
ENDBRANCH   1   2
BRANCH   1   9
ATOM      9  C   LIG d   1       5.958  -4.011  -5.005  0.00  0.00    -0.033 C 
ATOM     10  H   LIG d   1       6.851  -3.972  -5.630  0.00  0.00     0.081 H 
ATOM     11  H   LIG d   1       6.205  -4.469  -4.047  0.00  0.00     0.081 H 
BRANCH   9  12
ATOM     12  C   LIG d   1       4.882  -4.843  -5.706  0.00  0.00    -0.024 C 
ATOM     13  H   LIG d   1       4.000  -4.226  -5.877  0.00  0.00     0.028 H 
ATOM     14  H   LIG d   1       5.265  -5.203  -6.661  0.00  0.00     0.028 H 
ATOM     15  H   LIG d   1       4.614  -5.692  -5.078  0.00  0.00     0.028 H 
ENDBRANCH   9  12
ENDBRANCH   1   9
BRANCH   1  16
ATOM     16  C   LIG d   1       4.846  -2.145  -6.020  0.00  0.00    -0.033 C 
ATOM     17  H   LIG d   1       4.620  -2.980  -6.682  0.00  0.00     0.081 H 
ATOM     18  H   LIG d   1       3.925  -1.613  -5.780  0.00  0.00     0.081 H 
BRANCH  16  19
ATOM     19  C   LIG d   1       5.818  -1.191  -6.717  0.00  0.00    -0.024 C 
ATOM     20  H   LIG d   1       6.842  -1.455  -6.448  0.00  0.00     0.028 H 
ATOM     21  H   LIG d   1       5.694  -1.270  -7.797  0.00  0.00     0.028 H 
ATOM     22  H   LIG d   1       5.613  -0.168  -6.401  0.00  0.00     0.028 H 
ENDBRANCH  16  19
ENDBRANCH   1  16
BRANCH   1  23
ATOM     23  C   LIG d   1       4.452  -2.666  -3.712  0.00  0.00    -0.004 C 
ATOM     24  H   LIG d   1       4.822  -3.260  -2.876  0.00  0.00     0.087 H 
ATOM     25  H   LIG d   1       3.527  -3.103  -4.088  0.00  0.00     0.087 H 
BRANCH  23  26
ATOM     26  C   LIG d   1       4.187  -1.256  -3.248  0.00  0.00    -0.003 A 
ATOM     27  C   LIG d   1       3.385  -0.420  -4.001  0.00  0.00    -0.053 A 
ATOM     28  C   LIG d   1       3.142   0.872  -3.576  0.00  0.00    -0.061 A 
ATOM     29  H   LIG d   1       2.945  -0.777  -4.921  0.00  0.00     0.062 H 
ATOM     30  C   LIG d   1       3.704   1.329  -2.398  0.00  0.00    -0.062 A 
ATOM     31  H   LIG d   1       2.514   1.526  -4.163  0.00  0.00     0.062 H 
ATOM     32  C   LIG d   1       4.507   0.494  -1.645  0.00  0.00    -0.061 A 
ATOM     33  H   LIG d   1       3.514   2.340  -2.066  0.00  0.00     0.062 H 
ATOM     34  C   LIG d   1       4.745  -0.801  -2.068  0.00  0.00    -0.053 A 
ATOM     35  H   LIG d   1       4.946   0.850  -0.725  0.00  0.00     0.062 H 
ATOM     36  H   LIG d   1       5.369  -1.456  -1.477  0.00  0.00     0.062 H 
ENDBRANCH  23  26
ENDBRANCH   1  23
TORSDOF 8
ENDMDL
MODEL 3
REMARK VINA RESULT:      -4.5      0.236      2.215
REMARK  8 active torsions:
REMARK  status: ('A' for Active; 'I' for Inactive)
REMARK    1  A    between atoms: C_1  and  C_2 
REMARK    2  A    between atoms: C_2  and  N_3 
REMARK    3  A    between atoms: N_3  and  C_4 
REMARK    4  A    between atoms: N_3  and  C_6 
REMARK    5  A    between atoms: N_3  and  C_8 
REMARK    6  A    between atoms: C_4  and  C_5 
REMARK    7  A    between atoms: C_6  and  C_7 
REMARK    8  A    between atoms: C_8  and  C_9 
ROOT
ATOM      1  N   LIG d   1       5.582  -2.567  -4.922  0.00  0.00     0.246 N 
ENDROOT
BRANCH   1   2
ATOM      2  C   LIG d   1       5.107  -1.926  -6.155  0.00  0.00    -0.033 C 
ATOM      3  H   LIG d   1       4.988  -2.680  -6.934  0.00  0.00     0.081 H 
ATOM      4  H   LIG d   1       4.149  -1.442  -5.968  0.00  0.00     0.081 H 
BRANCH   2   5
ATOM      5  C   LIG d   1       6.127  -0.879  -6.612  0.00  0.00    -0.024 C 
ATOM      6  H   LIG d   1       7.006  -0.926  -5.969  0.00  0.00     0.028 H 
ATOM      7  H   LIG d   1       6.419  -1.082  -7.641  0.00  0.00     0.028 H 
ATOM      8  H   LIG d   1       5.682   0.114  -6.547  0.00  0.00     0.028 H 
ENDBRANCH   2   5
ENDBRANCH   1   2
BRANCH   1   9
ATOM      9  C   LIG d   1       6.676  -1.773  -4.347  0.00  0.00    -0.033 C 
ATOM     10  H   LIG d   1       7.147  -1.182  -5.133  0.00  0.00     0.081 H 
ATOM     11  H   LIG d   1       6.279  -1.107  -3.580  0.00  0.00     0.081 H 
BRANCH   9  12
ATOM     12  C   LIG d   1       7.712  -2.709  -3.723  0.00  0.00    -0.024 C 
ATOM     13  H   LIG d   1       8.669  -2.581  -4.228  0.00  0.00     0.028 H 
ATOM     14  H   LIG d   1       7.825  -2.473  -2.664  0.00  0.00     0.028 H 
ATOM     15  H   LIG d   1       7.381  -3.741  -3.831  0.00  0.00     0.028 H 
ENDBRANCH   9  12
ENDBRANCH   1   9
BRANCH   1  16
ATOM     16  C   LIG d   1       6.068  -3.919  -5.228  0.00  0.00    -0.033 C 
ATOM     17  H   LIG d   1       6.639  -3.899  -6.155  0.00  0.00     0.081 H 
ATOM     18  H   LIG d   1       6.705  -4.269  -4.416  0.00  0.00     0.081 H 
BRANCH  16  19
ATOM     19  C   LIG d   1       4.876  -4.866  -5.384  0.00  0.00    -0.024 C 
ATOM     20  H   LIG d   1       4.353  -4.641  -6.314  0.00  0.00     0.028 H 
ATOM     21  H   LIG d   1       5.230  -5.896  -5.407  0.00  0.00     0.028 H 
ATOM     22  H   LIG d   1       4.195  -4.734  -4.544  0.00  0.00     0.028 H 
ENDBRANCH  16  19
ENDBRANCH   1  16
BRANCH   1  23
ATOM     23  C   LIG d   1       4.478  -2.650  -3.957  0.00  0.00    -0.004 C 
ATOM     24  H   LIG d   1       4.752  -3.329  -3.149  0.00  0.00     0.087 H 
ATOM     25  H   LIG d   1       3.585  -3.023  -4.458  0.00  0.00     0.087 H 
BRANCH  23  26
ATOM     26  C   LIG d   1       4.200  -1.281  -3.391  0.00  0.00    -0.003 A 
ATOM     27  C   LIG d   1       4.750  -0.910  -2.179  0.00  0.00    -0.053 A 
ATOM     28  C   LIG d   1       4.496   0.346  -1.660  0.00  0.00    -0.061 A 
ATOM     29  H   LIG d   1       5.380  -1.600  -1.637  0.00  0.00     0.062 H 
ATOM     30  C   LIG d   1       3.691   1.230  -2.354  0.00  0.00    -0.062 A 
ATOM     31  H   LIG d   1       4.926   0.637  -0.714  0.00  0.00     0.062 H 
ATOM     32  C   LIG d   1       3.140   0.859  -3.567  0.00  0.00    -0.061 A 
ATOM     33  H   LIG d   1       3.492   2.211  -1.948  0.00  0.00     0.062 H 
ATOM     34  C   LIG d   1       3.399  -0.395  -4.087  0.00  0.00    -0.053 A 
ATOM     35  H   LIG d   1       2.511   1.549  -4.108  0.00  0.00     0.062 H 
ATOM     36  H   LIG d   1       2.972  -0.684  -5.037  0.00  0.00     0.062 H 
ENDBRANCH  23  26
ENDBRANCH   1  23
TORSDOF 8
ENDMDL
MODEL 4
REMARK VINA RESULT:      -4.3      2.300      4.378
REMARK  8 active torsions:
REMARK  status: ('A' for Active; 'I' for Inactive)
REMARK    1  A    between atoms: C_1  and  C_2 
REMARK    2  A    between atoms: C_2  and  N_3 
REMARK    3  A    between atoms: N_3  and  C_4 
REMARK    4  A    between atoms: N_3  and  C_6 
REMARK    5  A    between atoms: N_3  and  C_8 
REMARK    6  A    between atoms: C_4  and  C_5 
REMARK    7  A    between atoms: C_6  and  C_7 
REMARK    8  A    between atoms: C_8  and  C_9 
ROOT
ATOM      1  N   LIG d   1       4.249  -0.218  -3.645  0.00  0.00     0.246 N 
ENDROOT
BRANCH   1   2
ATOM      2  C   LIG d   1       4.223   1.140  -3.085  0.00  0.00    -0.033 C 
ATOM      3  H   LIG d   1       5.014   1.736  -3.542  0.00  0.00     0.081 H 
ATOM      4  H   LIG d   1       3.256   1.599  -3.291  0.00  0.00     0.081 H 
BRANCH   2   5
ATOM      5  C   LIG d   1       4.446   1.072  -1.573  0.00  0.00    -0.024 C 
ATOM      6  H   LIG d   1       3.815   1.812  -1.080  0.00  0.00     0.028 H 
ATOM      7  H   LIG d   1       4.188   0.078  -1.211  0.00  0.00     0.028 H 
ATOM      8  H   LIG d   1       5.492   1.281  -1.349  0.00  0.00     0.028 H 
ENDBRANCH   2   5
ENDBRANCH   1   2
BRANCH   1   9
ATOM      9  C   LIG d   1       3.807  -0.179  -5.046  0.00  0.00    -0.033 C 
ATOM     10  H   LIG d   1       4.540   0.365  -5.642  0.00  0.00     0.081 H 
ATOM     11  H   LIG d   1       3.712  -1.196  -5.426  0.00  0.00     0.081 H 
BRANCH   9  12
ATOM     12  C   LIG d   1       2.453   0.528  -5.133  0.00  0.00    -0.024 C 
ATOM     13  H   LIG d   1       2.300   1.132  -4.239  0.00  0.00     0.028 H 
ATOM     14  H   LIG d   1       2.435   1.170  -6.014  0.00  0.00     0.028 H 
ATOM     15  H   LIG d   1       1.660  -0.215  -5.209  0.00  0.00     0.028 H 
ENDBRANCH   9  12
ENDBRANCH   1   9
BRANCH   1  16
ATOM     16  C   LIG d   1       3.347  -1.083  -2.872  0.00  0.00    -0.033 C 
ATOM     17  H   LIG d   1       3.113  -0.607  -1.921  0.00  0.00     0.081 H 
ATOM     18  H   LIG d   1       2.427  -1.242  -3.434  0.00  0.00     0.081 H 
BRANCH  16  19
ATOM     19  C   LIG d   1       4.027  -2.429  -2.615  0.00  0.00    -0.024 C 
ATOM     20  H   LIG d   1       3.598  -2.889  -1.725  0.00  0.00     0.028 H 
ATOM     21  H   LIG d   1       3.873  -3.084  -3.473  0.00  0.00     0.028 H 
ATOM     22  H   LIG d   1       5.096  -2.273  -2.464  0.00  0.00     0.028 H 
ENDBRANCH  16  19
ENDBRANCH   1  16
BRANCH   1  23
ATOM     23  C   LIG d   1       5.616  -0.751  -3.577  0.00  0.00    -0.004 C 
ATOM     24  H   LIG d   1       5.632  -1.762  -3.983  0.00  0.00     0.087 H 
ATOM     25  H   LIG d   1       5.947  -0.770  -2.539  0.00  0.00     0.087 H 
BRANCH  23  26
ATOM     26  C   LIG d   1       6.538   0.129  -4.381  0.00  0.00    -0.003 A 
ATOM     27  C   LIG d   1       7.231   1.152  -3.763  0.00  0.00    -0.053 A 
ATOM     28  C   LIG d   1       8.077   1.958  -4.501  0.00  0.00    -0.061 A 
ATOM     29  H   LIG d   1       7.112   1.322  -2.703  0.00  0.00     0.062 H 
ATOM     30  C   LIG d   1       8.230   1.741  -5.858  0.00  0.00    -0.062 A 
ATOM     31  H   LIG d   1       8.619   2.758  -4.019  0.00  0.00     0.062 H 
ATOM     32  C   LIG d   1       7.537   0.717  -6.477  0.00  0.00    -0.061 A 
ATOM     33  H   LIG d   1       8.891   2.372  -6.434  0.00  0.00     0.062 H 
ATOM     34  C   LIG d   1       6.695  -0.092  -5.738  0.00  0.00    -0.053 A 
ATOM     35  H   LIG d   1       7.656   0.548  -7.536  0.00  0.00     0.062 H 
ATOM     36  H   LIG d   1       6.156  -0.895  -6.220  0.00  0.00     0.062 H 
ENDBRANCH  23  26
ENDBRANCH   1  23
TORSDOF 8
ENDMDL
MODEL 5
REMARK VINA RESULT:      -4.3      1.327      2.700
REMARK  8 active torsions:
REMARK  status: ('A' for Active; 'I' for Inactive)
REMARK    1  A    between atoms: C_1  and  C_2 
REMARK    2  A    between atoms: C_2  and  N_3 
REMARK    3  A    between atoms: N_3  and  C_4 
REMARK    4  A    between atoms: N_3  and  C_6 
REMARK    5  A    between atoms: N_3  and  C_8 
REMARK    6  A    between atoms: C_4  and  C_5 
REMARK    7  A    between atoms: C_6  and  C_7 
REMARK    8  A    between atoms: C_8  and  C_9 
ROOT
ATOM      1  N   LIG d   1       6.600  -2.282  -5.095  0.00  0.00     0.246 N 
ENDROOT
BRANCH   1   2
ATOM      2  C   LIG d   1       7.670  -1.723  -5.933  0.00  0.00    -0.033 C 
ATOM      3  H   LIG d   1       7.637  -2.185  -6.920  0.00  0.00     0.081 H 
ATOM      4  H   LIG d   1       7.530  -0.647  -6.029  0.00  0.00     0.081 H 
BRANCH   2   5
ATOM      5  C   LIG d   1       9.026  -2.006  -5.283  0.00  0.00    -0.024 C 
ATOM      6  H   LIG d   1       9.685  -2.479  -6.012  0.00  0.00     0.028 H 
ATOM      7  H   LIG d   1       9.470  -1.070  -4.947  0.00  0.00     0.028 H 
ATOM      8  H   LIG d   1       8.890  -2.672  -4.431  0.00  0.00     0.028 H 
ENDBRANCH   2   5
ENDBRANCH   1   2
BRANCH   1   9
ATOM      9  C   LIG d   1       6.475  -3.722  -5.357  0.00  0.00    -0.033 C 
ATOM     10  H   LIG d   1       6.743  -3.927  -6.394  0.00  0.00     0.081 H 
ATOM     11  H   LIG d   1       7.142  -4.272  -4.693  0.00  0.00     0.081 H 
BRANCH   9  12
ATOM     12  C   LIG d   1       5.031  -4.162  -5.108  0.00  0.00    -0.024 C 
ATOM     13  H   LIG d   1       4.847  -4.214  -4.034  0.00  0.00     0.028 H 
ATOM     14  H   LIG d   1       4.348  -3.442  -5.559  0.00  0.00     0.028 H 
ATOM     15  H   LIG d   1       4.868  -5.144  -5.552  0.00  0.00     0.028 H 
ENDBRANCH   9  12
ENDBRANCH   1   9
BRANCH   1  16
ATOM     16  C   LIG d   1       5.331  -1.615  -5.413  0.00  0.00    -0.033 C 
ATOM     17  H   LIG d   1       4.550  -2.362  -5.550  0.00  0.00     0.081 H 
ATOM     18  H   LIG d   1       5.055  -0.949  -4.596  0.00  0.00     0.081 H 
BRANCH  16  19
ATOM     19  C   LIG d   1       5.490  -0.803  -6.700  0.00  0.00    -0.024 C 
ATOM     20  H   LIG d   1       5.067  -1.361  -7.537  0.00  0.00     0.028 H 
ATOM     21  H   LIG d   1       4.969   0.149  -6.597  0.00  0.00     0.028 H 
ATOM     22  H   LIG d   1       6.548  -0.619  -6.885  0.00  0.00     0.028 H 
ENDBRANCH  16  19
ENDBRANCH   1  16
BRANCH   1  23
ATOM     23  C   LIG d   1       6.924  -2.068  -3.679  0.00  0.00    -0.004 C 
ATOM     24  H   LIG d   1       7.954  -1.722  -3.591  0.00  0.00     0.087 H 
ATOM     25  H   LIG d   1       6.807  -3.005  -3.134  0.00  0.00     0.087 H 
BRANCH  23  26
ATOM     26  C   LIG d   1       5.995  -1.033  -3.101  0.00  0.00    -0.003 A 
ATOM     27  C   LIG d   1       6.292   0.311  -3.227  0.00  0.00    -0.053 A 
ATOM     28  C   LIG d   1       5.440   1.261  -2.697  0.00  0.00    -0.061 A 
ATOM     29  H   LIG d   1       7.191   0.619  -3.741  0.00  0.00     0.062 H 
ATOM     30  C   LIG d   1       4.289   0.866  -2.040  0.00  0.00    -0.062 A 
ATOM     31  H   LIG d   1       5.671   2.310  -2.796  0.00  0.00     0.062 H 
ATOM     32  C   LIG d   1       3.990  -0.478  -1.914  0.00  0.00    -0.061 A 
ATOM     33  H   LIG d   1       3.623   1.609  -1.626  0.00  0.00     0.062 H 
ATOM     34  C   LIG d   1       4.841  -1.427  -2.448  0.00  0.00    -0.053 A 
ATOM     35  H   LIG d   1       3.092  -0.785  -1.400  0.00  0.00     0.062 H 
ATOM     36  H   LIG d   1       4.606  -2.477  -2.353  0.00  0.00     0.062 H 
ENDBRANCH  23  26
ENDBRANCH   1  23
TORSDOF 8
ENDMDL
MODEL 6
REMARK VINA RESULT:      -4.2      1.910      2.781
REMARK  8 active torsions:
REMARK  status: ('A' for Active; 'I' for Inactive)
REMARK    1  A    between atoms: C_1  and  C_2 
REMARK    2  A    between atoms: C_2  and  N_3 
REMARK    3  A    between atoms: N_3  and  C_4 
REMARK    4  A    between atoms: N_3  and  C_6 
REMARK    5  A    between atoms: N_3  and  C_8 
REMARK    6  A    between atoms: C_4  and  C_5 
REMARK    7  A    between atoms: C_6  and  C_7 
REMARK    8  A    between atoms: C_8  and  C_9 
ROOT
ATOM      1  N   LIG d   1       7.268  -0.464  -4.703  0.00  0.00     0.246 N 
ENDROOT
BRANCH   1   2
ATOM      2  C   LIG d   1       8.370  -1.423  -4.862  0.00  0.00    -0.033 C 
ATOM      3  H   LIG d   1       8.876  -1.242  -5.810  0.00  0.00     0.081 H 
ATOM      4  H   LIG d   1       9.077  -1.302  -4.042  0.00  0.00     0.081 H 
BRANCH   2   5
ATOM      5  C   LIG d   1       7.811  -2.848  -4.848  0.00  0.00    -0.024 C 
ATOM      6  H   LIG d   1       8.625  -3.555  -4.683  0.00  0.00     0.028 H 
ATOM      7  H   LIG d   1       7.079  -2.944  -4.047  0.00  0.00     0.028 H 
ATOM      8  H   LIG d   1       7.334  -3.061  -5.805  0.00  0.00     0.028 H 
ENDBRANCH   2   5
ENDBRANCH   1   2
BRANCH   1   9
ATOM      9  C   LIG d   1       6.084  -0.955  -5.420  0.00  0.00    -0.033 C 
ATOM     10  H   LIG d   1       6.200  -2.019  -5.626  0.00  0.00     0.081 H 
ATOM     11  H   LIG d   1       5.196  -0.798  -4.807  0.00  0.00     0.081 H 
BRANCH   9  12
ATOM     12  C   LIG d   1       5.935  -0.194  -6.739  0.00  0.00    -0.024 C 
ATOM     13  H   LIG d   1       5.415   0.747  -6.559  0.00  0.00     0.028 H 
ATOM     14  H   LIG d   1       6.922   0.010  -7.154  0.00  0.00     0.028 H 
ATOM     15  H   LIG d   1       5.362  -0.796  -7.443  0.00  0.00     0.028 H 
ENDBRANCH   9  12
ENDBRANCH   1   9
BRANCH   1  16
ATOM     16  C   LIG d   1       7.670   0.837  -5.254  0.00  0.00    -0.033 C 
ATOM     17  H   LIG d   1       8.510   0.701  -5.933  0.00  0.00     0.081 H 
ATOM     18  H   LIG d   1       6.832   1.275  -5.797  0.00  0.00     0.081 H 
BRANCH  16  19
ATOM     19  C   LIG d   1       8.081   1.769  -4.113  0.00  0.00    -0.024 C 
ATOM     20  H   LIG d   1       7.430   1.602  -3.255  0.00  0.00     0.028 H 
ATOM     21  H   LIG d   1       9.114   1.565  -3.831  0.00  0.00     0.028 H 
ATOM     22  H   LIG d   1       7.992   2.805  -4.440  0.00  0.00     0.028 H 
ENDBRANCH  16  19
ENDBRANCH   1  16
BRANCH   1  23
ATOM     23  C   LIG d   1       6.951  -0.315  -3.277  0.00  0.00    -0.004 C 
ATOM     24  H   LIG d   1       7.243   0.680  -2.942  0.00  0.00     0.087 H 
ATOM     25  H   LIG d   1       7.493  -1.066  -2.703  0.00  0.00     0.087 H 
BRANCH  23  26
ATOM     26  C   LIG d   1       5.469  -0.500  -3.070  0.00  0.00    -0.003 A 
ATOM     27  C   LIG d   1       4.614   0.578  -3.195  0.00  0.00    -0.053 A 
ATOM     28  C   LIG d   1       3.255   0.408  -3.006  0.00  0.00    -0.061 A 
ATOM     29  H   LIG d   1       5.006   1.553  -3.442  0.00  0.00     0.062 H 
ATOM     30  C   LIG d   1       2.752  -0.841  -2.690  0.00  0.00    -0.062 A 
ATOM     31  H   LIG d   1       2.586   1.250  -3.104  0.00  0.00     0.062 H 
ATOM     32  C   LIG d   1       3.608  -1.920  -2.564  0.00  0.00    -0.061 A 
ATOM     33  H   LIG d   1       1.691  -0.973  -2.541  0.00  0.00     0.062 H 
ATOM     34  C   LIG d   1       4.966  -1.750  -2.759  0.00  0.00    -0.053 A 
ATOM     35  H   LIG d   1       3.215  -2.894  -2.318  0.00  0.00     0.062 H 
ATOM     36  H   LIG d   1       5.634  -2.594  -2.666  0.00  0.00     0.062 H 
ENDBRANCH  23  26
ENDBRANCH   1  23
TORSDOF 8
ENDMDL
MODEL 7
REMARK VINA RESULT:      -4.2      2.026      4.308
REMARK  8 active torsions:
REMARK  status: ('A' for Active; 'I' for Inactive)
REMARK    1  A    between atoms: C_1  and  C_2 
REMARK    2  A    between atoms: C_2  and  N_3 
REMARK    3  A    between atoms: N_3  and  C_4 
REMARK    4  A    between atoms: N_3  and  C_6 
REMARK    5  A    between atoms: N_3  and  C_8 
REMARK    6  A    between atoms: C_4  and  C_5 
REMARK    7  A    between atoms: C_6  and  C_7 
REMARK    8  A    between atoms: C_8  and  C_9 
ROOT
ATOM      1  N   LIG d   1       4.642  -0.377  -3.714  0.00  0.00     0.246 N 
ENDROOT
BRANCH   1   2
ATOM      2  C   LIG d   1       4.787  -1.149  -2.472  0.00  0.00    -0.033 C 
ATOM      3  H   LIG d   1       5.787  -1.578  -2.425  0.00  0.00     0.081 H 
ATOM      4  H   LIG d   1       4.632  -0.491  -1.616  0.00  0.00     0.081 H 
BRANCH   2   5
ATOM      5  C   LIG d   1       3.749  -2.273  -2.446  0.00  0.00    -0.024 C 
ATOM      6  H   LIG d   1       3.252  -2.285  -1.475  0.00  0.00     0.028 H 
ATOM      7  H   LIG d   1       3.011  -2.104  -3.229  0.00  0.00     0.028 H 
ATOM      8  H   LIG d   1       4.244  -3.229  -2.612  0.00  0.00     0.028 H 
ENDBRANCH   2   5
ENDBRANCH   1   2
BRANCH   1   9
ATOM      9  C   LIG d   1       5.931   0.237  -4.061  0.00  0.00    -0.033 C 
ATOM     10  H   LIG d   1       6.000   0.349  -5.143  0.00  0.00     0.081 H 
ATOM     11  H   LIG d   1       6.006   1.217  -3.588  0.00  0.00     0.081 H 
BRANCH   9  12
ATOM     12  C   LIG d   1       7.071  -0.656  -3.566  0.00  0.00    -0.024 C 
ATOM     13  H   LIG d   1       7.791  -0.804  -4.371  0.00  0.00     0.028 H 
ATOM     14  H   LIG d   1       7.564  -0.180  -2.719  0.00  0.00     0.028 H 
ATOM     15  H   LIG d   1       6.668  -1.620  -3.258  0.00  0.00     0.028 H 
ENDBRANCH   9  12
ENDBRANCH   1   9
BRANCH   1  16
ATOM     16  C   LIG d   1       3.635   0.674  -3.522  0.00  0.00    -0.033 C 
ATOM     17  H   LIG d   1       3.725   1.414  -4.316  0.00  0.00     0.081 H 
ATOM     18  H   LIG d   1       2.639   0.232  -3.549  0.00  0.00     0.081 H 
BRANCH  16  19
ATOM     19  C   LIG d   1       3.856   1.351  -2.168  0.00  0.00    -0.024 C 
ATOM     20  H   LIG d   1       2.963   1.914  -1.893  0.00  0.00     0.028 H 
ATOM     21  H   LIG d   1       4.055   0.593  -1.410  0.00  0.00     0.028 H 
ATOM     22  H   LIG d   1       4.706   2.030  -2.235  0.00  0.00     0.028 H 
ENDBRANCH  16  19
ENDBRANCH   1  16
BRANCH   1  23
ATOM     23  C   LIG d   1       4.217  -1.271  -4.799  0.00  0.00    -0.004 C 
ATOM     24  H   LIG d   1       3.232  -1.677  -4.570  0.00  0.00     0.087 H 
ATOM     25  H   LIG d   1       4.933  -2.087  -4.898  0.00  0.00     0.087 H 
BRANCH  23  26
ATOM     26  C   LIG d   1       4.155  -0.498  -6.091  0.00  0.00    -0.003 A 
ATOM     27  C   LIG d   1       2.985   0.137  -6.460  0.00  0.00    -0.053 A 
ATOM     28  C   LIG d   1       2.928   0.846  -7.646  0.00  0.00    -0.061 A 
ATOM     29  H   LIG d   1       2.115   0.082  -5.823  0.00  0.00     0.062 H 
ATOM     30  C   LIG d   1       4.041   0.918  -8.462  0.00  0.00    -0.062 A 
ATOM     31  H   LIG d   1       2.014   1.344  -7.934  0.00  0.00     0.062 H 
ATOM     32  C   LIG d   1       5.212   0.282  -8.093  0.00  0.00    -0.061 A 
ATOM     33  H   LIG d   1       3.996   1.472  -9.388  0.00  0.00     0.062 H 
ATOM     34  C   LIG d   1       5.270  -0.422  -6.905  0.00  0.00    -0.053 A 
ATOM     35  H   LIG d   1       6.081   0.338  -8.731  0.00  0.00     0.062 H 
ATOM     36  H   LIG d   1       6.186  -0.916  -6.614  0.00  0.00     0.062 H 
ENDBRANCH  23  26
ENDBRANCH   1  23
TORSDOF 8
ENDMDL
MODEL 8
REMARK VINA RESULT:      -4.2      1.953      3.397
REMARK  8 active torsions:
REMARK  status: ('A' for Active; 'I' for Inactive)
REMARK    1  A    between atoms: C_1  and  C_2 
REMARK    2  A    between atoms: C_2  and  N_3 
REMARK    3  A    between atoms: N_3  and  C_4 
REMARK    4  A    between atoms: N_3  and  C_6 
REMARK    5  A    between atoms: N_3  and  C_8 
REMARK    6  A    between atoms: C_4  and  C_5 
REMARK    7  A    between atoms: C_6  and  C_7 
REMARK    8  A    between atoms: C_8  and  C_9 
ROOT
ATOM      1  N   LIG d   1       4.437  -0.613  -6.522  0.00  0.00     0.246 N 
ENDROOT
BRANCH   1   2
ATOM      2  C   LIG d   1       4.286   0.020  -7.839  0.00  0.00    -0.033 C 
ATOM      3  H   LIG d   1       5.191   0.576  -8.082  0.00  0.00     0.081 H 
ATOM      4  H   LIG d   1       4.117  -0.748  -8.593  0.00  0.00     0.081 H 
BRANCH   2   5
ATOM      5  C   LIG d   1       3.093   0.978  -7.810  0.00  0.00    -0.024 C 
ATOM      6  H   LIG d   1       3.220   1.738  -8.582  0.00  0.00     0.028 H 
ATOM      7  H   LIG d   1       2.175   0.422  -7.998  0.00  0.00     0.028 H 
ATOM      8  H   LIG d   1       3.035   1.458  -6.833  0.00  0.00     0.028 H 
ENDBRANCH   2   5
ENDBRANCH   1   2
BRANCH   1   9
ATOM      9  C   LIG d   1       5.739  -0.245  -5.949  0.00  0.00    -0.033 C 
ATOM     10  H   LIG d   1       5.608   0.583  -5.252  0.00  0.00     0.081 H 
ATOM     11  H   LIG d   1       6.160  -1.102  -5.422  0.00  0.00     0.081 H 
BRANCH   9  12
ATOM     12  C   LIG d   1       6.688   0.179  -7.072  0.00  0.00    -0.024 C 
ATOM     13  H   LIG d   1       7.661   0.429  -6.650  0.00  0.00     0.028 H 
ATOM     14  H   LIG d   1       6.800  -0.641  -7.782  0.00  0.00     0.028 H 
ATOM     15  H   LIG d   1       6.279   1.050  -7.583  0.00  0.00     0.028 H 
ENDBRANCH   9  12
ENDBRANCH   1   9
BRANCH   1  16
ATOM     16  C   LIG d   1       4.362  -2.072  -6.668  0.00  0.00    -0.033 C 
ATOM     17  H   LIG d   1       5.273  -2.525  -6.281  0.00  0.00     0.081 H 
ATOM     18  H   LIG d   1       3.504  -2.449  -6.111  0.00  0.00     0.081 H 
BRANCH  16  19
ATOM     19  C   LIG d   1       4.205  -2.428  -8.148  0.00  0.00    -0.024 C 
ATOM     20  H   LIG d   1       4.263  -3.510  -8.270  0.00  0.00     0.028 H 
ATOM     21  H   LIG d   1       3.239  -2.074  -8.507  0.00  0.00     0.028 H 
ATOM     22  H   LIG d   1       5.002  -1.955  -8.722  0.00  0.00     0.028 H 
ENDBRANCH  16  19
ENDBRANCH   1  16
BRANCH   1  23
ATOM     23  C   LIG d   1       3.363  -0.153  -5.631  0.00  0.00    -0.004 C 
ATOM     24  H   LIG d   1       2.444  -0.693  -5.863  0.00  0.00     0.087 H 
ATOM     25  H   LIG d   1       3.204   0.915  -5.775  0.00  0.00     0.087 H 
BRANCH  23  26
ATOM     26  C   LIG d   1       3.752  -0.414  -4.199  0.00  0.00    -0.003 A 
ATOM     27  C   LIG d   1       4.154   0.633  -3.390  0.00  0.00    -0.053 A 
ATOM     28  C   LIG d   1       4.510   0.394  -2.076  0.00  0.00    -0.061 A 
ATOM     29  H   LIG d   1       4.188   1.638  -3.785  0.00  0.00     0.062 H 
ATOM     30  C   LIG d   1       4.465  -0.892  -1.571  0.00  0.00    -0.062 A 
ATOM     31  H   LIG d   1       4.823   1.211  -1.444  0.00  0.00     0.062 H 
ATOM     32  C   LIG d   1       4.063  -1.939  -2.379  0.00  0.00    -0.061 A 
ATOM     33  H   LIG d   1       4.744  -1.078  -0.544  0.00  0.00     0.062 H 
ATOM     34  C   LIG d   1       3.703  -1.699  -3.692  0.00  0.00    -0.053 A 
ATOM     35  H   LIG d   1       4.029  -2.944  -1.985  0.00  0.00     0.062 H 
ATOM     36  H   LIG d   1       3.384  -2.517  -4.323  0.00  0.00     0.062 H 
ENDBRANCH  23  26
ENDBRANCH   1  23
TORSDOF 8
ENDMDL
MODEL 9
REMARK VINA RESULT:      -4.2      1.564      3.039
REMARK  8 active torsions:
REMARK  status: ('A' for Active; 'I' for Inactive)
REMARK    1  A    between atoms: C_1  and  C_2 
REMARK    2  A    between atoms: C_2  and  N_3 
REMARK    3  A    between atoms: N_3  and  C_4 
REMARK    4  A    between atoms: N_3  and  C_6 
REMARK    5  A    between atoms: N_3  and  C_8 
REMARK    6  A    between atoms: C_4  and  C_5 
REMARK    7  A    between atoms: C_6  and  C_7 
REMARK    8  A    between atoms: C_8  and  C_9 
ROOT
ATOM      1  N   LIG d   1       7.170  -1.554  -4.806  0.00  0.00     0.246 N 
ENDROOT
BRANCH   1   2
ATOM      2  C   LIG d   1       8.528  -1.039  -5.027  0.00  0.00    -0.033 C 
ATOM      3  H   LIG d   1       9.184  -1.388  -4.229  0.00  0.00     0.081 H 
ATOM      4  H   LIG d   1       8.901  -1.397  -5.987  0.00  0.00     0.081 H 
BRANCH   2   5
ATOM      5  C   LIG d   1       8.499   0.491  -5.030  0.00  0.00    -0.024 C 
ATOM      6  H   LIG d   1       7.590   0.836  -5.523  0.00  0.00     0.028 H 
ATOM      7  H   LIG d   1       8.516   0.857  -4.004  0.00  0.00     0.028 H 
ATOM      8  H   LIG d   1       9.370   0.870  -5.566  0.00  0.00     0.028 H 
ENDBRANCH   2   5
ENDBRANCH   1   2
BRANCH   1   9
ATOM      9  C   LIG d   1       7.041  -2.876  -5.432  0.00  0.00    -0.033 C 
ATOM     10  H   LIG d   1       5.985  -3.123  -5.544  0.00  0.00     0.081 H 
ATOM     11  H   LIG d   1       7.517  -2.863  -6.413  0.00  0.00     0.081 H 
BRANCH   9  12
ATOM     12  C   LIG d   1       7.719  -3.926  -4.550  0.00  0.00    -0.024 C 
ATOM     13  H   LIG d   1       8.485  -4.445  -5.126  0.00  0.00     0.028 H 
ATOM     14  H   LIG d   1       8.180  -3.437  -3.691  0.00  0.00     0.028 H 
ATOM     15  H   LIG d   1       6.977  -4.645  -4.204  0.00  0.00     0.028 H 
ENDBRANCH   9  12
ENDBRANCH   1   9
BRANCH   1  16
ATOM     16  C   LIG d   1       6.194  -0.633  -5.403  0.00  0.00    -0.033 C 
ATOM     17  H   LIG d   1       5.399  -0.430  -4.687  0.00  0.00     0.081 H 
ATOM     18  H   LIG d   1       6.691   0.301  -5.667  0.00  0.00     0.081 H 
BRANCH  16  19
ATOM     19  C   LIG d   1       5.598  -1.266  -6.661  0.00  0.00    -0.024 C 
ATOM     20  H   LIG d   1       4.980  -2.119  -6.381  0.00  0.00     0.028 H 
ATOM     21  H   LIG d   1       4.987  -0.531  -7.185  0.00  0.00     0.028 H 
ATOM     22  H   LIG d   1       6.403  -1.602  -7.316  0.00  0.00     0.028 H 
ENDBRANCH  16  19
ENDBRANCH   1  16
BRANCH   1  23
ATOM     23  C   LIG d   1       6.918  -1.668  -3.364  0.00  0.00    -0.004 C 
ATOM     24  H   LIG d   1       7.725  -1.181  -2.815  0.00  0.00     0.087 H 
ATOM     25  H   LIG d   1       6.871  -2.720  -3.085  0.00  0.00     0.087 H 
BRANCH  23  26
ATOM     26  C   LIG d   1       5.609  -1.001  -3.028  0.00  0.00    -0.003 A 
ATOM     27  C   LIG d   1       4.433  -1.725  -3.077  0.00  0.00    -0.053 A 
ATOM     28  C   LIG d   1       3.232  -1.114  -2.769  0.00  0.00    -0.061 A 
ATOM     29  H   LIG d   1       4.451  -2.768  -3.356  0.00  0.00     0.062 H 
ATOM     30  C   LIG d   1       3.208   0.222  -2.412  0.00  0.00    -0.062 A 
ATOM     31  H   LIG d   1       2.312  -1.679  -2.807  0.00  0.00     0.062 H 
ATOM     32  C   LIG d   1       4.384   0.946  -2.363  0.00  0.00    -0.061 A 
ATOM     33  H   LIG d   1       2.269   0.699  -2.172  0.00  0.00     0.062 H 
ATOM     34  C   LIG d   1       5.585   0.333  -2.666  0.00  0.00    -0.053 A 
ATOM     35  H   LIG d   1       4.365   1.989  -2.084  0.00  0.00     0.062 H 
ATOM     36  H   LIG d   1       6.506   0.898  -2.623  0.00  0.00     0.062 H 
ENDBRANCH  23  26
ENDBRANCH   1  23
TORSDOF 8
ENDMDL
