MODEL 1
REMARK VINA RESULT:      -6.9      0.000      0.000
REMARK  9 active torsions:
REMARK  status: ('A' for Active; 'I' for Inactive)
REMARK    1  A    between atoms: C_1  and  O_2 
REMARK    2  A    between atoms: O_2  and  C_3 
REMARK    3  A    between atoms: C_6  and  C_11 
REMARK    4  A    between atoms: C_8  and  O_9 
REMARK    5  A    between atoms: O_9  and  C_10 
REMARK    6  A    between atoms: C_18  and  O_22 
REMARK    7  A    between atoms: O_22  and  C_23 
REMARK    8  A    between atoms: C_23  and  C_24 
REMARK    9  A    between atoms: C_24  and  C_26 
ROOT
ATOM      1  C   LIG d   1       4.924  -3.431  -4.685  0.00  0.00    -0.008 C 
ATOM      2  C   LIG d   1       4.659  -3.745  -5.978  0.00  0.00     0.176 A 
ATOM      3  C   LIG d   1       4.047  -4.992  -6.460  0.00  0.00     0.232 A 
ATOM      4  O   LIG d   1       3.677  -5.947  -5.799  0.00  0.00    -0.283 OA
ATOM      5  C   LIG d   1       3.983  -4.830  -7.924  0.00  0.00     0.068 A 
ATOM      6  C   LIG d   1       3.515  -5.645  -8.955  0.00  0.00    -0.044 A 
ATOM      7  C   LIG d   1       3.587  -5.216 -10.249  0.00  0.00    -0.019 A 
ATOM      8  C   LIG d   1       4.127  -3.966 -10.543  0.00  0.00     0.125 A 
ATOM      9  C   LIG d   1       4.596  -3.146  -9.529  0.00  0.00     0.023 A 
ATOM     10  C   LIG d   1       4.529  -3.568  -8.207  0.00  0.00     0.143 A 
ATOM     11  O   LIG d   1       4.905  -2.966  -7.057  0.00  0.00    -0.451 OA
ATOM     12  H   LIG d   1       4.759  -4.161  -3.906  0.00  0.00     0.066 H 
ATOM     13  H   LIG d   1       3.096  -6.615  -8.730  0.00  0.00     0.063 H 
ATOM     14  H   LIG d   1       3.225  -5.847 -11.048  0.00  0.00     0.065 H 
ATOM     15  H   LIG d   1       5.013  -2.179  -9.767  0.00  0.00     0.069 H 
ENDROOT
BRANCH   1  16
ATOM     16  C   LIG d   1       5.437  -2.098  -4.343  0.00  0.00    -0.018 A 
ATOM     17  C   LIG d   1       6.816  -1.885  -4.226  0.00  0.00    -0.051 A 
ATOM     18  C   LIG d   1       7.294  -0.634  -3.907  0.00  0.00    -0.016 A 
ATOM     19  H   LIG d   1       7.505  -2.702  -4.385  0.00  0.00     0.062 H 
ATOM     20  C   LIG d   1       6.413   0.420  -3.706  0.00  0.00     0.162 A 
ATOM     21  H   LIG d   1       8.358  -0.470  -3.816  0.00  0.00     0.066 H 
ATOM     22  C   LIG d   1       5.038   0.216  -3.816  0.00  0.00     0.162 A 
ATOM     23  C   LIG d   1       4.549  -1.036  -4.135  0.00  0.00    -0.009 A 
ATOM     24  H   LIG d   1       3.484  -1.194  -4.227  0.00  0.00     0.066 H 
BRANCH  20  25
ATOM     25  O   LIG d   1       6.891   1.653  -3.397  0.00  0.00    -0.491 OA
BRANCH  25  26
ATOM     26  C   LIG d   1       8.205   1.974  -3.859  0.00  0.00     0.079 C 
ATOM     27  H   LIG d   1       8.144   2.766  -4.605  0.00  0.00     0.066 H 
ATOM     28  H   LIG d   1       8.813   2.309  -3.020  0.00  0.00     0.066 H 
ATOM     29  H   LIG d   1       8.659   1.089  -4.307  0.00  0.00     0.066 H 
ENDBRANCH  25  26
ENDBRANCH  20  25
BRANCH  22  30
ATOM     30  O   LIG d   1       4.178   1.250  -3.614  0.00  0.00    -0.491 OA
BRANCH  30  31
ATOM     31  C   LIG d   1       3.559   1.338  -2.329  0.00  0.00     0.079 C 
ATOM     32  H   LIG d   1       4.288   1.689  -1.599  0.00  0.00     0.066 H 
ATOM     33  H   LIG d   1       3.193   0.354  -2.034  0.00  0.00     0.066 H 
ATOM     34  H   LIG d   1       2.725   2.037  -2.375  0.00  0.00     0.066 H 
ENDBRANCH  30  31
ENDBRANCH  22  30
ENDBRANCH   1  16
BRANCH   8  35
ATOM     35  O   LIG d   1       4.195  -3.548 -11.832  0.00  0.00    -0.484 OA
BRANCH  35  36
ATOM     36  C   LIG d   1       2.989  -3.056 -12.420  0.00  0.00     0.152 C 
ATOM     37  H   LIG d   1       2.811  -3.545 -13.274  0.00  0.00     0.078 H 
ATOM     38  H   LIG d   1       2.159  -3.212 -11.732  0.00  0.00     0.078 H 
BRANCH  36  39
ATOM     39  C   LIG d   1       3.136  -1.584 -12.707  0.00  0.00     0.200 C 
ATOM     40  O   LIG d   1       3.312  -1.201 -13.844  0.00  0.00    -0.288 OA
BRANCH  39  41
ATOM     41  C   LIG d   1       3.066  -0.610 -11.606  0.00  0.00     0.021 A 
ATOM     42  C   LIG d   1       2.106  -0.755 -10.600  0.00  0.00    -0.050 A 
ATOM     43  C   LIG d   1       2.048   0.160  -9.572  0.00  0.00    -0.043 A 
ATOM     44  H   LIG d   1       1.411  -1.581 -10.630  0.00  0.00     0.062 H 
ATOM     45  C   LIG d   1       2.937   1.222  -9.532  0.00  0.00     0.041 A 
ATOM     46  H   LIG d   1       1.306   0.049  -8.794  0.00  0.00     0.063 H 
ATOM     47  C   LIG d   1       3.892   1.371 -10.526  0.00  0.00    -0.043 A 
ATOM     48 CL   LIG d   1       2.856   2.369  -8.232  0.00  0.00    -0.084 Cl
ATOM     49  C   LIG d   1       3.966   0.460 -11.557  0.00  0.00    -0.050 A 
ATOM     50  H   LIG d   1       4.582   2.202 -10.489  0.00  0.00     0.063 H 
ATOM     51  H   LIG d   1       4.713   0.575 -12.329  0.00  0.00     0.062 H 
ENDBRANCH  39  41
ENDBRANCH  36  39
ENDBRANCH  35  36
ENDBRANCH   8  35
TORSDOF 9
ENDMDL
MODEL 2
REMARK VINA RESULT:      -6.8      1.296      2.155
REMARK  9 active torsions:
REMARK  status: ('A' for Active; 'I' for Inactive)
REMARK    1  A    between atoms: C_1  and  O_2 
REMARK    2  A    between atoms: O_2  and  C_3 
REMARK    3  A    between atoms: C_6  and  C_11 
REMARK    4  A    between atoms: C_8  and  O_9 
REMARK    5  A    between atoms: O_9  and  C_10 
REMARK    6  A    between atoms: C_18  and  O_22 
REMARK    7  A    between atoms: O_22  and  C_23 
REMARK    8  A    between atoms: C_23  and  C_24 
REMARK    9  A    between atoms: C_24  and  C_26 
ROOT
ATOM      1  C   LIG d   1       5.145  -4.133  -4.563  0.00  0.00    -0.008 C 
ATOM      2  C   LIG d   1       4.674  -4.416  -5.804  0.00  0.00     0.176 A 
ATOM      3  C   LIG d   1       4.602  -5.747  -6.423  0.00  0.00     0.232 A 
ATOM      4  O   LIG d   1       4.945  -6.814  -5.942  0.00  0.00    -0.283 OA
ATOM      5  C   LIG d   1       4.022  -5.504  -7.756  0.00  0.00     0.068 A 
ATOM      6  C   LIG d   1       3.698  -6.342  -8.823  0.00  0.00    -0.044 A 
ATOM      7  C   LIG d   1       3.159  -5.817  -9.963  0.00  0.00    -0.019 A 
ATOM      8  C   LIG d   1       2.931  -4.447 -10.062  0.00  0.00     0.125 A 
ATOM      9  C   LIG d   1       3.248  -3.602  -9.011  0.00  0.00     0.023 A 
ATOM     10  C   LIG d   1       3.797  -4.121  -7.844  0.00  0.00     0.143 A 
ATOM     11  O   LIG d   1       4.181  -3.524  -6.695  0.00  0.00    -0.451 OA
ATOM     12  H   LIG d   1       5.589  -4.914  -3.963  0.00  0.00     0.066 H 
ATOM     13  H   LIG d   1       3.874  -7.406  -8.749  0.00  0.00     0.063 H 
ATOM     14  H   LIG d   1       2.908  -6.466 -10.789  0.00  0.00     0.065 H 
ATOM     15  H   LIG d   1       3.068  -2.541  -9.097  0.00  0.00     0.069 H 
ENDROOT
BRANCH   1  16
ATOM     16  C   LIG d   1       5.051  -2.766  -4.036  0.00  0.00    -0.018 A 
ATOM     17  C   LIG d   1       4.197  -2.485  -2.961  0.00  0.00    -0.051 A 
ATOM     18  C   LIG d   1       4.112  -1.202  -2.468  0.00  0.00    -0.016 A 
ATOM     19  H   LIG d   1       3.606  -3.273  -2.521  0.00  0.00     0.062 H 
ATOM     20  C   LIG d   1       4.875  -0.186  -3.029  0.00  0.00     0.162 A 
ATOM     21  H   LIG d   1       3.453  -0.985  -1.640  0.00  0.00     0.066 H 
ATOM     22  C   LIG d   1       5.724  -0.456  -4.102  0.00  0.00     0.162 A 
ATOM     23  C   LIG d   1       5.815  -1.740  -4.604  0.00  0.00    -0.009 A 
ATOM     24  H   LIG d   1       6.477  -1.952  -5.432  0.00  0.00     0.066 H 
BRANCH  20  25
ATOM     25  O   LIG d   1       4.791   1.076  -2.535  0.00  0.00    -0.491 OA
BRANCH  25  26
ATOM     26  C   LIG d   1       3.511   1.709  -2.586  0.00  0.00     0.079 C 
ATOM     27  H   LIG d   1       3.500   2.439  -3.396  0.00  0.00     0.066 H 
ATOM     28  H   LIG d   1       2.741   0.959  -2.762  0.00  0.00     0.066 H 
ATOM     29  H   LIG d   1       3.317   2.215  -1.640  0.00  0.00     0.066 H 
ENDBRANCH  25  26
ENDBRANCH  20  25
BRANCH  22  30
ATOM     30  O   LIG d   1       6.466   0.543  -4.651  0.00  0.00    -0.491 OA
BRANCH  30  31
ATOM     31  C   LIG d   1       7.820   0.661  -4.212  0.00  0.00     0.079 C 
ATOM     32  H   LIG d   1       7.912   1.522  -3.549  0.00  0.00     0.066 H 
ATOM     33  H   LIG d   1       8.472   0.796  -5.076  0.00  0.00     0.066 H 
ATOM     34  H   LIG d   1       8.109  -0.242  -3.677  0.00  0.00     0.066 H 
ENDBRANCH  30  31
ENDBRANCH  22  30
ENDBRANCH   1  16
BRANCH   8  35
ATOM     35  O   LIG d   1       2.396  -3.934 -11.199  0.00  0.00    -0.484 OA
BRANCH  35  36
ATOM     36  C   LIG d   1       1.140  -3.262 -11.080  0.00  0.00     0.152 C 
ATOM     37  H   LIG d   1       0.429  -3.803 -11.529  0.00  0.00     0.078 H 
ATOM     38  H   LIG d   1       0.892  -3.140 -10.026  0.00  0.00     0.078 H 
BRANCH  36  39
ATOM     39  C   LIG d   1       1.231  -1.909 -11.736  0.00  0.00     0.200 C 
ATOM     40  O   LIG d   1       0.637  -1.695 -12.771  0.00  0.00    -0.288 OA
BRANCH  39  41
ATOM     41  C   LIG d   1       2.042  -0.847 -11.120  0.00  0.00     0.021 A 
ATOM     42  C   LIG d   1       3.166  -0.347 -11.785  0.00  0.00    -0.050 A 
ATOM     43  C   LIG d   1       3.920   0.649 -11.202  0.00  0.00    -0.043 A 
ATOM     44  H   LIG d   1       3.443  -0.740 -12.751  0.00  0.00     0.062 H 
ATOM     45  C   LIG d   1       3.567   1.155  -9.962  0.00  0.00     0.041 A 
ATOM     46  H   LIG d   1       4.788   1.037 -11.715  0.00  0.00     0.063 H 
ATOM     47  C   LIG d   1       2.454   0.664  -9.297  0.00  0.00    -0.043 A 
ATOM     48 CL   LIG d   1       4.523   2.408  -9.236  0.00  0.00    -0.084 Cl
ATOM     49  C   LIG d   1       1.687  -0.327  -9.870  0.00  0.00    -0.050 A 
ATOM     50  H   LIG d   1       2.185   1.062  -8.330  0.00  0.00     0.063 H 
ATOM     51  H   LIG d   1       0.817  -0.706  -9.354  0.00  0.00     0.062 H 
ENDBRANCH  39  41
ENDBRANCH  36  39
ENDBRANCH  35  36
ENDBRANCH   8  35
TORSDOF 9
ENDMDL
MODEL 3
REMARK VINA RESULT:      -6.8      4.065      8.023
REMARK  9 active torsions:
REMARK  status: ('A' for Active; 'I' for Inactive)
REMARK    1  A    between atoms: C_1  and  O_2 
REMARK    2  A    between atoms: O_2  and  C_3 
REMARK    3  A    between atoms: C_6  and  C_11 
REMARK    4  A    between atoms: C_8  and  O_9 
REMARK    5  A    between atoms: O_9  and  C_10 
REMARK    6  A    between atoms: C_18  and  O_22 
REMARK    7  A    between atoms: O_22  and  C_23 
REMARK    8  A    between atoms: C_23  and  C_24 
REMARK    9  A    between atoms: C_24  and  C_26 
ROOT
ATOM      1  C   LIG d   1       9.941   5.114  -4.478  0.00  0.00    -0.008 C 
ATOM      2  C   LIG d   1       9.409   3.890  -4.730  0.00  0.00     0.176 A 
ATOM      3  C   LIG d   1       9.262   3.264  -6.052  0.00  0.00     0.232 A 
ATOM      4  O   LIG d   1       9.585   3.721  -7.135  0.00  0.00    -0.283 OA
ATOM      5  C   LIG d   1       8.637   1.958  -5.773  0.00  0.00     0.068 A 
ATOM      6  C   LIG d   1       8.239   0.898  -6.588  0.00  0.00    -0.044 A 
ATOM      7  C   LIG d   1       7.674  -0.214  -6.032  0.00  0.00    -0.019 A 
ATOM      8  C   LIG d   1       7.493  -0.292  -4.654  0.00  0.00     0.125 A 
ATOM      9  C   LIG d   1       7.883   0.754  -3.832  0.00  0.00     0.023 A 
ATOM     10  C   LIG d   1       8.460   1.892  -4.383  0.00  0.00     0.143 A 
ATOM     11  O   LIG d   1       8.923   3.024  -3.810  0.00  0.00    -0.451 OA
ATOM     12  H   LIG d   1      10.228   5.757  -5.296  0.00  0.00     0.066 H 
ATOM     13  H   LIG d   1       8.378   0.955  -7.659  0.00  0.00     0.063 H 
ATOM     14  H   LIG d   1       7.366  -1.035  -6.663  0.00  0.00     0.065 H 
ATOM     15  H   LIG d   1       7.739   0.684  -2.764  0.00  0.00     0.069 H 
ENDROOT
BRANCH   1  16
ATOM     16  C   LIG d   1      10.125   5.563  -3.092  0.00  0.00    -0.018 A 
ATOM     17  C   LIG d   1      11.069   4.935  -2.270  0.00  0.00    -0.051 A 
ATOM     18  C   LIG d   1      11.240   5.358  -0.971  0.00  0.00    -0.016 A 
ATOM     19  H   LIG d   1      11.662   4.118  -2.654  0.00  0.00     0.062 H 
ATOM     20  C   LIG d   1      10.483   6.412  -0.474  0.00  0.00     0.162 A 
ATOM     21  H   LIG d   1      11.968   4.873  -0.337  0.00  0.00     0.066 H 
ATOM     22  C   LIG d   1       9.537   7.039  -1.284  0.00  0.00     0.162 A 
ATOM     23  C   LIG d   1       9.358   6.621  -2.588  0.00  0.00    -0.009 A 
ATOM     24  H   LIG d   1       8.630   7.110  -3.219  0.00  0.00     0.066 H 
BRANCH  20  25
ATOM     25  O   LIG d   1      10.661   6.829   0.806  0.00  0.00    -0.491 OA
BRANCH  25  26
ATOM     26  C   LIG d   1      11.008   5.833   1.770  0.00  0.00     0.079 C 
ATOM     27  H   LIG d   1      12.064   5.580   1.665  0.00  0.00     0.066 H 
ATOM     28  H   LIG d   1      10.824   6.217   2.772  0.00  0.00     0.066 H 
ATOM     29  H   LIG d   1      10.404   4.940   1.606  0.00  0.00     0.066 H 
ENDBRANCH  25  26
ENDBRANCH  20  25
BRANCH  22  30
ATOM     30  O   LIG d   1       8.795   8.067  -0.792  0.00  0.00    -0.491 OA
BRANCH  30  31
ATOM     31  C   LIG d   1       9.273   9.390  -1.041  0.00  0.00     0.079 C 
ATOM     32  H   LIG d   1      10.329   9.449  -0.775  0.00  0.00     0.066 H 
ATOM     33  H   LIG d   1       8.706  10.101  -0.440  0.00  0.00     0.066 H 
ATOM     34  H   LIG d   1       9.151   9.628  -2.097  0.00  0.00     0.066 H 
ENDBRANCH  30  31
ENDBRANCH  22  30
ENDBRANCH   1  16
BRANCH   8  35
ATOM     35  O   LIG d   1       6.930  -1.400  -4.110  0.00  0.00    -0.484 OA
BRANCH  35  36
ATOM     36  C   LIG d   1       5.764  -1.208  -3.306  0.00  0.00     0.152 C 
ATOM     37  H   LIG d   1       5.892  -1.655  -2.421  0.00  0.00     0.078 H 
ATOM     38  H   LIG d   1       5.599  -0.141  -3.154  0.00  0.00     0.078 H 
BRANCH  36  39
ATOM     39  C   LIG d   1       4.569  -1.807  -4.003  0.00  0.00     0.200 C 
ATOM     40  O   LIG d   1       4.045  -2.806  -3.558  0.00  0.00    -0.288 OA
BRANCH  39  41
ATOM     41  C   LIG d   1       4.040  -1.181  -5.225  0.00  0.00     0.021 A 
ATOM     42  C   LIG d   1       3.193  -0.072  -5.134  0.00  0.00    -0.050 A 
ATOM     43  C   LIG d   1       2.703   0.511  -6.283  0.00  0.00    -0.043 A 
ATOM     44  H   LIG d   1       2.924   0.328  -4.168  0.00  0.00     0.062 H 
ATOM     45  C   LIG d   1       3.046   0.001  -7.524  0.00  0.00     0.041 A 
ATOM     46  H   LIG d   1       2.049   1.369  -6.215  0.00  0.00     0.063 H 
ATOM     47  C   LIG d   1       3.885  -1.099  -7.621  0.00  0.00    -0.043 A 
ATOM     48 CL   LIG d   1       2.423   0.741  -8.965  0.00  0.00    -0.084 Cl
ATOM     49  C   LIG d   1       4.388  -1.687  -6.481  0.00  0.00    -0.050 A 
ATOM     50  H   LIG d   1       4.147  -1.492  -8.592  0.00  0.00     0.063 H 
ATOM     51  H   LIG d   1       5.045  -2.541  -6.557  0.00  0.00     0.062 H 
ENDBRANCH  39  41
ENDBRANCH  36  39
ENDBRANCH  35  36
ENDBRANCH   8  35
TORSDOF 9
ENDMDL
MODEL 4
REMARK VINA RESULT:      -6.7      3.672      7.414
REMARK  9 active torsions:
REMARK  status: ('A' for Active; 'I' for Inactive)
REMARK    1  A    between atoms: C_1  and  O_2 
REMARK    2  A    between atoms: O_2  and  C_3 
REMARK    3  A    between atoms: C_6  and  C_11 
REMARK    4  A    between atoms: C_8  and  O_9 
REMARK    5  A    between atoms: O_9  and  C_10 
REMARK    6  A    between atoms: C_18  and  O_22 
REMARK    7  A    between atoms: O_22  and  C_23 
REMARK    8  A    between atoms: C_23  and  C_24 
REMARK    9  A    between atoms: C_24  and  C_26 
ROOT
ATOM      1  C   LIG d   1      10.386   3.358  -4.082  0.00  0.00    -0.008 C 
ATOM      2  C   LIG d   1       9.421   2.404  -4.097  0.00  0.00     0.176 A 
ATOM      3  C   LIG d   1       9.549   1.049  -4.653  0.00  0.00     0.232 A 
ATOM      4  O   LIG d   1      10.524   0.550  -5.188  0.00  0.00    -0.283 OA
ATOM      5  C   LIG d   1       8.232   0.428  -4.418  0.00  0.00     0.068 A 
ATOM      6  C   LIG d   1       7.707  -0.832  -4.704  0.00  0.00    -0.044 A 
ATOM      7  C   LIG d   1       6.420  -1.129  -4.357  0.00  0.00    -0.019 A 
ATOM      8  C   LIG d   1       5.631  -0.176  -3.717  0.00  0.00     0.125 A 
ATOM      9  C   LIG d   1       6.139   1.080  -3.427  0.00  0.00     0.023 A 
ATOM     10  C   LIG d   1       7.447   1.397  -3.773  0.00  0.00     0.143 A 
ATOM     11  O   LIG d   1       8.168   2.526  -3.599  0.00  0.00    -0.451 OA
ATOM     12  H   LIG d   1      11.329   3.181  -4.579  0.00  0.00     0.066 H 
ATOM     13  H   LIG d   1       8.317  -1.573  -5.201  0.00  0.00     0.063 H 
ATOM     14  H   LIG d   1       6.013  -2.104  -4.579  0.00  0.00     0.065 H 
ATOM     15  H   LIG d   1       5.520   1.812  -2.931  0.00  0.00     0.069 H 
ENDROOT
BRANCH   1  16
ATOM     16  C   LIG d   1      10.149   4.632  -3.390  0.00  0.00    -0.018 A 
ATOM     17  C   LIG d   1       9.696   5.746  -4.108  0.00  0.00    -0.051 A 
ATOM     18  C   LIG d   1       9.474   6.939  -3.457  0.00  0.00    -0.016 A 
ATOM     19  H   LIG d   1       9.523   5.670  -5.171  0.00  0.00     0.062 H 
ATOM     20  C   LIG d   1       9.692   7.039  -2.089  0.00  0.00     0.162 A 
ATOM     21  H   LIG d   1       9.125   7.799  -4.010  0.00  0.00     0.066 H 
ATOM     22  C   LIG d   1      10.147   5.936  -1.368  0.00  0.00     0.162 A 
ATOM     23  C   LIG d   1      10.374   4.736  -2.012  0.00  0.00    -0.009 A 
ATOM     24  H   LIG d   1      10.721   3.878  -1.454  0.00  0.00     0.066 H 
BRANCH  20  25
ATOM     25  O   LIG d   1       9.465   8.217  -1.451  0.00  0.00    -0.491 OA
BRANCH  25  26
ATOM     26  C   LIG d   1      10.441   9.246  -1.624  0.00  0.00     0.079 C 
ATOM     27  H   LIG d   1      11.085   8.997  -2.468  0.00  0.00     0.066 H 
ATOM     28  H   LIG d   1       9.939  10.194  -1.817  0.00  0.00     0.066 H 
ATOM     29  H   LIG d   1      11.044   9.331  -0.720  0.00  0.00     0.066 H 
ENDBRANCH  25  26
ENDBRANCH  20  25
BRANCH  22  30
ATOM     30  O   LIG d   1      10.363   6.040  -0.029  0.00  0.00    -0.491 OA
BRANCH  30  31
ATOM     31  C   LIG d   1      11.718   5.951   0.418  0.00  0.00     0.079 C 
ATOM     32  H   LIG d   1      12.333   6.650  -0.150  0.00  0.00     0.066 H 
ATOM     33  H   LIG d   1      12.086   4.936   0.266  0.00  0.00     0.066 H 
ATOM     34  H   LIG d   1      11.767   6.202   1.477  0.00  0.00     0.066 H 
ENDBRANCH  30  31
ENDBRANCH  22  30
ENDBRANCH   1  16
BRANCH   8  35
ATOM     35  O   LIG d   1       4.353  -0.480  -3.377  0.00  0.00    -0.484 OA
BRANCH  35  36
ATOM     36  C   LIG d   1       3.486  -0.912  -4.429  0.00  0.00     0.152 C 
ATOM     37  H   LIG d   1       3.970  -1.565  -5.011  0.00  0.00     0.078 H 
ATOM     38  H   LIG d   1       2.606  -1.391  -4.000  0.00  0.00     0.078 H 
BRANCH  36  39
ATOM     39  C   LIG d   1       3.063   0.277  -5.252  0.00  0.00     0.200 C 
ATOM     40  O   LIG d   1       2.613   1.262  -4.708  0.00  0.00    -0.288 OA
BRANCH  39  41
ATOM     41  C   LIG d   1       3.195   0.241  -6.717  0.00  0.00     0.021 A 
ATOM     42  C   LIG d   1       3.731  -0.886  -7.346  0.00  0.00    -0.050 A 
ATOM     43  C   LIG d   1       3.850  -0.913  -8.719  0.00  0.00    -0.043 A 
ATOM     44  H   LIG d   1       4.051  -1.734  -6.759  0.00  0.00     0.062 H 
ATOM     45  C   LIG d   1       3.441   0.172  -9.475  0.00  0.00     0.041 A 
ATOM     46  H   LIG d   1       4.264  -1.785  -9.206  0.00  0.00     0.063 H 
ATOM     47  C   LIG d   1       2.909   1.294  -8.858  0.00  0.00    -0.043 A 
ATOM     48 CL   LIG d   1       3.596   0.130 -11.203  0.00  0.00    -0.084 Cl
ATOM     49  C   LIG d   1       2.777   1.332  -7.487  0.00  0.00    -0.050 A 
ATOM     50  H   LIG d   1       2.593   2.138  -9.454  0.00  0.00     0.063 H 
ATOM     51  H   LIG d   1       2.359   2.204  -7.007  0.00  0.00     0.062 H 
ENDBRANCH  39  41
ENDBRANCH  36  39
ENDBRANCH  35  36
ENDBRANCH   8  35
TORSDOF 9
ENDMDL
MODEL 5
REMARK VINA RESULT:      -6.2      2.999      8.750
REMARK  9 active torsions:
REMARK  status: ('A' for Active; 'I' for Inactive)
REMARK    1  A    between atoms: C_1  and  O_2 
REMARK    2  A    between atoms: O_2  and  C_3 
REMARK    3  A    between atoms: C_6  and  C_11 
REMARK    4  A    between atoms: C_8  and  O_9 
REMARK    5  A    between atoms: O_9  and  C_10 
REMARK    6  A    between atoms: C_18  and  O_22 
REMARK    7  A    between atoms: O_22  and  C_23 
REMARK    8  A    between atoms: C_23  and  C_24 
REMARK    9  A    between atoms: C_24  and  C_26 
ROOT
ATOM      1  C   LIG d   1       2.027  -3.149 -11.705  0.00  0.00    -0.008 C 
ATOM      2  C   LIG d   1       2.293  -2.083 -10.907  0.00  0.00     0.176 A 
ATOM      3  C   LIG d   1       2.869  -0.800 -11.335  0.00  0.00     0.232 A 
ATOM      4  O   LIG d   1       3.204  -0.471 -12.460  0.00  0.00    -0.283 OA
ATOM      5  C   LIG d   1       2.951  -0.002 -10.098  0.00  0.00     0.068 A 
ATOM      6  C   LIG d   1       3.401   1.290  -9.826  0.00  0.00    -0.044 A 
ATOM      7  C   LIG d   1       3.352   1.773  -8.549  0.00  0.00    -0.019 A 
ATOM      8  C   LIG d   1       2.855   0.979  -7.519  0.00  0.00     0.125 A 
ATOM      9  C   LIG d   1       2.405  -0.306  -7.775  0.00  0.00     0.023 A 
ATOM     10  C   LIG d   1       2.447  -0.812  -9.069  0.00  0.00     0.143 A 
ATOM     11  O   LIG d   1       2.070  -2.007  -9.574  0.00  0.00    -0.451 OA
ATOM     12  H   LIG d   1       2.317  -3.130 -12.745  0.00  0.00     0.066 H 
ATOM     13  H   LIG d   1       3.788   1.909 -10.623  0.00  0.00     0.063 H 
ATOM     14  H   LIG d   1       3.701   2.773  -8.337  0.00  0.00     0.065 H 
ATOM     15  H   LIG d   1       2.021  -0.915  -6.971  0.00  0.00     0.069 H 
ENDROOT
BRANCH   1  16
ATOM     16  C   LIG d   1       1.345  -4.327 -11.154  0.00  0.00    -0.018 A 
ATOM     17  C   LIG d   1      -0.054  -4.390 -11.149  0.00  0.00    -0.051 A 
ATOM     18  C   LIG d   1      -0.690  -5.497 -10.633  0.00  0.00    -0.016 A 
ATOM     19  H   LIG d   1      -0.633  -3.572 -11.550  0.00  0.00     0.062 H 
ATOM     20  C   LIG d   1       0.051  -6.554 -10.121  0.00  0.00     0.162 A 
ATOM     21  H   LIG d   1      -1.769  -5.545 -10.629  0.00  0.00     0.066 H 
ATOM     22  C   LIG d   1       1.445  -6.497 -10.118  0.00  0.00     0.162 A 
ATOM     23  C   LIG d   1       2.092  -5.391 -10.633  0.00  0.00    -0.009 A 
ATOM     24  H   LIG d   1       3.172  -5.348 -10.635  0.00  0.00     0.066 H 
BRANCH  20  25
ATOM     25  O   LIG d   1      -0.582  -7.645  -9.619  0.00  0.00    -0.491 OA
BRANCH  25  26
ATOM     26  C   LIG d   1      -1.681  -8.161 -10.373  0.00  0.00     0.079 C 
ATOM     27  H   LIG d   1      -1.622  -9.249 -10.402  0.00  0.00     0.066 H 
ATOM     28  H   LIG d   1      -2.617  -7.860  -9.903  0.00  0.00     0.066 H 
ATOM     29  H   LIG d   1      -1.642  -7.768 -11.389  0.00  0.00     0.066 H 
ENDBRANCH  25  26
ENDBRANCH  20  25
BRANCH  22  30
ATOM     30  O   LIG d   1       2.167  -7.532  -9.611  0.00  0.00    -0.491 OA
BRANCH  30  31
ATOM     31  C   LIG d   1       3.386  -7.861 -10.280  0.00  0.00     0.079 C 
ATOM     32  H   LIG d   1       3.985  -8.511  -9.642  0.00  0.00     0.066 H 
ATOM     33  H   LIG d   1       3.942  -6.947 -10.493  0.00  0.00     0.066 H 
ATOM     34  H   LIG d   1       3.161  -8.375 -11.213  0.00  0.00     0.066 H 
ENDBRANCH  30  31
ENDBRANCH  22  30
ENDBRANCH   1  16
BRANCH   8  35
ATOM     35  O   LIG d   1       2.811   1.467  -6.254  0.00  0.00    -0.484 OA
BRANCH  35  36
ATOM     36  C   LIG d   1       2.540   0.533  -5.206  0.00  0.00     0.152 C 
ATOM     37  H   LIG d   1       1.621   0.694  -4.847  0.00  0.00     0.078 H 
ATOM     38  H   LIG d   1       2.604  -0.482  -5.599  0.00  0.00     0.078 H 
BRANCH  36  39
ATOM     39  C   LIG d   1       3.549   0.710  -4.101  0.00  0.00     0.200 C 
ATOM     40  O   LIG d   1       3.441   1.633  -3.322  0.00  0.00    -0.288 OA
BRANCH  39  41
ATOM     41  C   LIG d   1       4.668  -0.236  -3.970  0.00  0.00     0.021 A 
ATOM     42  C   LIG d   1       4.456  -1.606  -4.157  0.00  0.00    -0.050 A 
ATOM     43  C   LIG d   1       5.508  -2.486  -4.034  0.00  0.00    -0.043 A 
ATOM     44  H   LIG d   1       3.469  -1.973  -4.398  0.00  0.00     0.062 H 
ATOM     45  C   LIG d   1       6.775  -2.018  -3.724  0.00  0.00     0.041 A 
ATOM     46  H   LIG d   1       5.345  -3.544  -4.179  0.00  0.00     0.063 H 
ATOM     47  C   LIG d   1       6.993  -0.662  -3.537  0.00  0.00    -0.043 A 
ATOM     48 CL   LIG d   1       8.095  -3.135  -3.570  0.00  0.00    -0.084 Cl
ATOM     49  C   LIG d   1       5.951   0.231  -3.664  0.00  0.00    -0.050 A 
ATOM     50  H   LIG d   1       7.983  -0.304  -3.294  0.00  0.00     0.063 H 
ATOM     51  H   LIG d   1       6.123   1.287  -3.522  0.00  0.00     0.062 H 
ENDBRANCH  39  41
ENDBRANCH  36  39
ENDBRANCH  35  36
ENDBRANCH   8  35
TORSDOF 9
ENDMDL
MODEL 6
REMARK VINA RESULT:      -6.1      5.700      9.360
REMARK  9 active torsions:
REMARK  status: ('A' for Active; 'I' for Inactive)
REMARK    1  A    between atoms: C_1  and  O_2 
REMARK    2  A    between atoms: O_2  and  C_3 
REMARK    3  A    between atoms: C_6  and  C_11 
REMARK    4  A    between atoms: C_8  and  O_9 
REMARK    5  A    between atoms: O_9  and  C_10 
REMARK    6  A    between atoms: C_18  and  O_22 
REMARK    7  A    between atoms: O_22  and  C_23 
REMARK    8  A    between atoms: C_23  and  C_24 
REMARK    9  A    between atoms: C_24  and  C_26 
ROOT
ATOM      1  C   LIG d   1      10.289   5.044  -4.394  0.00  0.00    -0.008 C 
ATOM      2  C   LIG d   1       9.574   3.928  -4.688  0.00  0.00     0.176 A 
ATOM      3  C   LIG d   1       9.482   3.277  -6.003  0.00  0.00     0.232 A 
ATOM      4  O   LIG d   1      10.020   3.616  -7.043  0.00  0.00    -0.283 OA
ATOM      5  C   LIG d   1       8.593   2.122  -5.781  0.00  0.00     0.068 A 
ATOM      6  C   LIG d   1       8.110   1.115  -6.618  0.00  0.00    -0.044 A 
ATOM      7  C   LIG d   1       7.280   0.154  -6.118  0.00  0.00    -0.019 A 
ATOM      8  C   LIG d   1       6.914   0.176  -4.774  0.00  0.00     0.125 A 
ATOM      9  C   LIG d   1       7.384   1.170  -3.932  0.00  0.00     0.023 A 
ATOM     10  C   LIG d   1       8.231   2.156  -4.426  0.00  0.00     0.143 A 
ATOM     11  O   LIG d   1       8.821   3.210  -3.822  0.00  0.00    -0.451 OA
ATOM     12  H   LIG d   1      10.794   5.585  -5.182  0.00  0.00     0.066 H 
ATOM     13  H   LIG d   1       8.393   1.096  -7.661  0.00  0.00     0.063 H 
ATOM     14  H   LIG d   1       6.907  -0.626  -6.764  0.00  0.00     0.065 H 
ATOM     15  H   LIG d   1       7.095   1.179  -2.892  0.00  0.00     0.069 H 
ENDROOT
BRANCH   1  16
ATOM     16  C   LIG d   1      10.376   5.517  -3.007  0.00  0.00    -0.018 A 
ATOM     17  C   LIG d   1      11.315   4.957  -2.132  0.00  0.00    -0.051 A 
ATOM     18  C   LIG d   1      11.395   5.403  -0.832  0.00  0.00    -0.016 A 
ATOM     19  H   LIG d   1      11.976   4.176  -2.476  0.00  0.00     0.062 H 
ATOM     20  C   LIG d   1      10.550   6.411  -0.386  0.00  0.00     0.162 A 
ATOM     21  H   LIG d   1      12.119   4.971  -0.157  0.00  0.00     0.066 H 
ATOM     22  C   LIG d   1       9.608   6.971  -1.249  0.00  0.00     0.162 A 
ATOM     23  C   LIG d   1       9.521   6.529  -2.555  0.00  0.00    -0.009 A 
ATOM     24  H   LIG d   1       8.796   6.966  -3.227  0.00  0.00     0.066 H 
BRANCH  20  25
ATOM     25  O   LIG d   1      10.638   6.851   0.896  0.00  0.00    -0.491 OA
BRANCH  25  26
ATOM     26  C   LIG d   1      11.575   7.897   1.160  0.00  0.00     0.079 C 
ATOM     27  H   LIG d   1      11.316   8.387   2.099  0.00  0.00     0.066 H 
ATOM     28  H   LIG d   1      12.577   7.478   1.232  0.00  0.00     0.066 H 
ATOM     29  H   LIG d   1      11.543   8.627   0.350  0.00  0.00     0.066 H 
ENDBRANCH  25  26
ENDBRANCH  20  25
BRANCH  22  30
ATOM     30  O   LIG d   1       8.780   7.955  -0.807  0.00  0.00    -0.491 OA
BRANCH  30  31
ATOM     31  C   LIG d   1       9.124   9.297  -1.155  0.00  0.00     0.079 C 
ATOM     32  H   LIG d   1      10.100   9.307  -1.640  0.00  0.00     0.066 H 
ATOM     33  H   LIG d   1       9.160   9.909  -0.253  0.00  0.00     0.066 H 
ATOM     34  H   LIG d   1       8.376   9.699  -1.837  0.00  0.00     0.066 H 
ENDBRANCH  30  31
ENDBRANCH  22  30
ENDBRANCH   1  16
BRANCH   8  35
ATOM     35  O   LIG d   1       6.087  -0.784  -4.286  0.00  0.00    -0.484 OA
BRANCH  35  36
ATOM     36  C   LIG d   1       6.639  -1.693  -3.332  0.00  0.00     0.152 C 
ATOM     37  H   LIG d   1       7.338  -1.225  -2.791  0.00  0.00     0.078 H 
ATOM     38  H   LIG d   1       5.850  -2.051  -2.672  0.00  0.00     0.078 H 
BRANCH  36  39
ATOM     39  C   LIG d   1       7.261  -2.861  -4.053  0.00  0.00     0.200 C 
ATOM     40  O   LIG d   1       6.576  -3.578  -4.750  0.00  0.00    -0.288 OA
BRANCH  39  41
ATOM     41  C   LIG d   1       8.701  -3.132  -3.909  0.00  0.00     0.021 A 
ATOM     42  C   LIG d   1       9.155  -4.001  -2.912  0.00  0.00    -0.050 A 
ATOM     43  C   LIG d   1      10.504  -4.251  -2.784  0.00  0.00    -0.043 A 
ATOM     44  H   LIG d   1       8.451  -4.475  -2.244  0.00  0.00     0.062 H 
ATOM     45  C   LIG d   1      11.410  -3.644  -3.639  0.00  0.00     0.041 A 
ATOM     46  H   LIG d   1      10.857  -4.923  -2.015  0.00  0.00     0.063 H 
ATOM     47  C   LIG d   1      10.966  -2.781  -4.629  0.00  0.00    -0.043 A 
ATOM     48 CL   LIG d   1      13.107  -3.965  -3.470  0.00  0.00    -0.084 Cl
ATOM     49  C   LIG d   1       9.619  -2.527  -4.773  0.00  0.00    -0.050 A 
ATOM     50  H   LIG d   1      11.677  -2.310  -5.291  0.00  0.00     0.063 H 
ATOM     51  H   LIG d   1       9.274  -1.858  -5.547  0.00  0.00     0.062 H 
ENDBRANCH  39  41
ENDBRANCH  36  39
ENDBRANCH  35  36
ENDBRANCH   8  35
TORSDOF 9
ENDMDL
MODEL 7
REMARK VINA RESULT:      -6.0      3.070      8.541
REMARK  9 active torsions:
REMARK  status: ('A' for Active; 'I' for Inactive)
REMARK    1  A    between atoms: C_1  and  O_2 
REMARK    2  A    between atoms: O_2  and  C_3 
REMARK    3  A    between atoms: C_6  and  C_11 
REMARK    4  A    between atoms: C_8  and  O_9 
REMARK    5  A    between atoms: O_9  and  C_10 
REMARK    6  A    between atoms: C_18  and  O_22 
REMARK    7  A    between atoms: O_22  and  C_23 
REMARK    8  A    between atoms: C_23  and  C_24 
REMARK    9  A    between atoms: C_24  and  C_26 
ROOT
ATOM      1  C   LIG d   1       4.134   0.933 -11.076  0.00  0.00    -0.008 C 
ATOM      2  C   LIG d   1       5.056   0.696 -10.109  0.00  0.00     0.176 A 
ATOM      3  C   LIG d   1       5.682   1.703  -9.240  0.00  0.00     0.232 A 
ATOM      4  O   LIG d   1       5.487   2.906  -9.232  0.00  0.00    -0.283 OA
ATOM      5  C   LIG d   1       6.597   0.931  -8.380  0.00  0.00     0.068 A 
ATOM      6  C   LIG d   1       7.472   1.290  -7.355  0.00  0.00    -0.044 A 
ATOM      7  C   LIG d   1       8.210   0.331  -6.722  0.00  0.00    -0.019 A 
ATOM      8  C   LIG d   1       8.091  -1.005  -7.098  0.00  0.00     0.125 A 
ATOM      9  C   LIG d   1       7.226  -1.376  -8.115  0.00  0.00     0.023 A 
ATOM     10  C   LIG d   1       6.467  -0.411  -8.768  0.00  0.00     0.143 A 
ATOM     11  O   LIG d   1       5.564  -0.512  -9.767  0.00  0.00    -0.451 OA
ATOM     12  H   LIG d   1       3.856   1.948 -11.320  0.00  0.00     0.066 H 
ATOM     13  H   LIG d   1       7.567   2.326  -7.061  0.00  0.00     0.063 H 
ATOM     14  H   LIG d   1       8.888   0.608  -5.928  0.00  0.00     0.065 H 
ATOM     15  H   LIG d   1       7.140  -2.414  -8.399  0.00  0.00     0.069 H 
ENDROOT
BRANCH   1  16
ATOM     16  C   LIG d   1       3.514  -0.190 -11.792  0.00  0.00    -0.018 A 
ATOM     17  C   LIG d   1       4.080  -0.661 -12.983  0.00  0.00    -0.051 A 
ATOM     18  C   LIG d   1       3.498  -1.715 -13.651  0.00  0.00    -0.016 A 
ATOM     19  H   LIG d   1       4.972  -0.198 -13.378  0.00  0.00     0.062 H 
ATOM     20  C   LIG d   1       2.353  -2.316 -13.144  0.00  0.00     0.162 A 
ATOM     21  H   LIG d   1       3.934  -2.077 -14.571  0.00  0.00     0.066 H 
ATOM     22  C   LIG d   1       1.780  -1.850 -11.961  0.00  0.00     0.162 A 
ATOM     23  C   LIG d   1       2.357  -0.793 -11.285  0.00  0.00    -0.009 A 
ATOM     24  H   LIG d   1       1.918  -0.435 -10.365  0.00  0.00     0.066 H 
BRANCH  20  25
ATOM     25  O   LIG d   1       1.786  -3.359 -13.805  0.00  0.00    -0.491 OA
BRANCH  25  26
ATOM     26  C   LIG d   1       1.033  -3.050 -14.979  0.00  0.00     0.079 C 
ATOM     27  H   LIG d   1       1.508  -3.509 -15.847  0.00  0.00     0.066 H 
ATOM     28  H   LIG d   1       0.019  -3.435 -14.873  0.00  0.00     0.066 H 
ATOM     29  H   LIG d   1       0.998  -1.968 -15.116  0.00  0.00     0.066 H 
ENDBRANCH  25  26
ENDBRANCH  20  25
BRANCH  22  30
ATOM     30  O   LIG d   1       0.657  -2.439 -11.471  0.00  0.00    -0.491 OA
BRANCH  30  31
ATOM     31  C   LIG d   1       0.838  -3.534 -10.571  0.00  0.00     0.079 C 
ATOM     32  H   LIG d   1       1.901  -3.765 -10.492  0.00  0.00     0.066 H 
ATOM     33  H   LIG d   1       0.304  -4.407 -10.948  0.00  0.00     0.066 H 
ATOM     34  H   LIG d   1       0.451  -3.265  -9.590  0.00  0.00     0.066 H 
ENDBRANCH  30  31
ENDBRANCH  22  30
ENDBRANCH   1  16
BRANCH   8  35
ATOM     35  O   LIG d   1       8.829  -1.951  -6.465  0.00  0.00    -0.484 OA
BRANCH  35  36
ATOM     36  C   LIG d   1       9.027  -1.786  -5.059  0.00  0.00     0.152 C 
ATOM     37  H   LIG d   1       9.866  -2.255  -4.784  0.00  0.00     0.078 H 
ATOM     38  H   LIG d   1       9.111  -0.725  -4.826  0.00  0.00     0.078 H 
BRANCH  36  39
ATOM     39  C   LIG d   1       7.856  -2.375  -4.314  0.00  0.00     0.200 C 
ATOM     40  O   LIG d   1       7.754  -3.577  -4.197  0.00  0.00    -0.288 OA
BRANCH  39  41
ATOM     41  C   LIG d   1       6.836  -1.489  -3.732  0.00  0.00     0.021 A 
ATOM     42  C   LIG d   1       5.629  -2.019  -3.266  0.00  0.00    -0.050 A 
ATOM     43  C   LIG d   1       4.679  -1.184  -2.720  0.00  0.00    -0.043 A 
ATOM     44  H   LIG d   1       5.441  -3.081  -3.334  0.00  0.00     0.062 H 
ATOM     45  C   LIG d   1       4.916   0.178  -2.632  0.00  0.00     0.041 A 
ATOM     46  H   LIG d   1       3.746  -1.592  -2.359  0.00  0.00     0.063 H 
ATOM     47  C   LIG d   1       6.111   0.711  -3.092  0.00  0.00    -0.043 A 
ATOM     48 CL   LIG d   1       3.713   1.223  -1.943  0.00  0.00    -0.084 Cl
ATOM     49  C   LIG d   1       7.073  -0.113  -3.634  0.00  0.00    -0.050 A 
ATOM     50  H   LIG d   1       6.289   1.774  -3.021  0.00  0.00     0.063 H 
ATOM     51  H   LIG d   1       8.005   0.302  -3.988  0.00  0.00     0.062 H 
ENDBRANCH  39  41
ENDBRANCH  36  39
ENDBRANCH  35  36
ENDBRANCH   8  35
TORSDOF 9
ENDMDL
MODEL 8
REMARK VINA RESULT:      -6.0      5.287      8.191
REMARK  9 active torsions:
REMARK  status: ('A' for Active; 'I' for Inactive)
REMARK    1  A    between atoms: C_1  and  O_2 
REMARK    2  A    between atoms: O_2  and  C_3 
REMARK    3  A    between atoms: C_6  and  C_11 
REMARK    4  A    between atoms: C_8  and  O_9 
REMARK    5  A    between atoms: O_9  and  C_10 
REMARK    6  A    between atoms: C_18  and  O_22 
REMARK    7  A    between atoms: O_22  and  C_23 
REMARK    8  A    between atoms: C_23  and  C_24 
REMARK    9  A    between atoms: C_24  and  C_26 
ROOT
ATOM      1  C   LIG d   1       7.355   0.632  -3.302  0.00  0.00    -0.008 C 
ATOM      2  C   LIG d   1       7.852   1.378  -4.321  0.00  0.00     0.176 A 
ATOM      3  C   LIG d   1       8.745   2.539  -4.192  0.00  0.00     0.232 A 
ATOM      4  O   LIG d   1       9.191   3.028  -3.168  0.00  0.00    -0.283 OA
ATOM      5  C   LIG d   1       8.981   2.978  -5.579  0.00  0.00     0.068 A 
ATOM      6  C   LIG d   1       9.732   4.014  -6.137  0.00  0.00    -0.044 A 
ATOM      7  C   LIG d   1       9.762   4.180  -7.492  0.00  0.00    -0.019 A 
ATOM      8  C   LIG d   1       9.046   3.318  -8.318  0.00  0.00     0.125 A 
ATOM      9  C   LIG d   1       8.296   2.285  -7.778  0.00  0.00     0.023 A 
ATOM     10  C   LIG d   1       8.255   2.103  -6.401  0.00  0.00     0.143 A 
ATOM     11  O   LIG d   1       7.618   1.186  -5.640  0.00  0.00    -0.451 OA
ATOM     12  H   LIG d   1       7.543   0.922  -2.278  0.00  0.00     0.066 H 
ATOM     13  H   LIG d   1      10.289   4.685  -5.498  0.00  0.00     0.063 H 
ATOM     14  H   LIG d   1      10.343   4.981  -7.924  0.00  0.00     0.065 H 
ATOM     15  H   LIG d   1       7.744   1.622  -8.427  0.00  0.00     0.069 H 
ENDROOT
BRANCH   1  16
ATOM     16  C   LIG d   1       6.561  -0.569  -3.590  0.00  0.00    -0.018 A 
ATOM     17  C   LIG d   1       7.170  -1.692  -4.165  0.00  0.00    -0.051 A 
ATOM     18  C   LIG d   1       6.424  -2.817  -4.433  0.00  0.00    -0.016 A 
ATOM     19  H   LIG d   1       8.225  -1.675  -4.398  0.00  0.00     0.062 H 
ATOM     20  C   LIG d   1       5.069  -2.845  -4.130  0.00  0.00     0.162 A 
ATOM     21  H   LIG d   1       6.894  -3.683  -4.877  0.00  0.00     0.066 H 
ATOM     22  C   LIG d   1       4.453  -1.730  -3.562  0.00  0.00     0.162 A 
ATOM     23  C   LIG d   1       5.194  -0.597  -3.290  0.00  0.00    -0.009 A 
ATOM     24  H   LIG d   1       4.720   0.266  -2.845  0.00  0.00     0.066 H 
BRANCH  20  25
ATOM     25  O   LIG d   1       4.339  -3.960  -4.392  0.00  0.00    -0.491 OA
BRANCH  25  26
ATOM     26  C   LIG d   1       4.817  -4.819  -5.430  0.00  0.00     0.079 C 
ATOM     27  H   LIG d   1       5.567  -4.292  -6.020  0.00  0.00     0.066 H 
ATOM     28  H   LIG d   1       5.261  -5.711  -4.989  0.00  0.00     0.066 H 
ATOM     29  H   LIG d   1       3.986  -5.108  -6.074  0.00  0.00     0.066 H 
ENDBRANCH  25  26
ENDBRANCH  20  25
BRANCH  22  30
ATOM     30  O   LIG d   1       3.125  -1.760  -3.272  0.00  0.00    -0.491 OA
BRANCH  30  31
ATOM     31  C   LIG d   1       2.399  -0.540  -3.430  0.00  0.00     0.079 C 
ATOM     32  H   LIG d   1       3.090   0.302  -3.383  0.00  0.00     0.066 H 
ATOM     33  H   LIG d   1       1.661  -0.450  -2.633  0.00  0.00     0.066 H 
ATOM     34  H   LIG d   1       1.893  -0.541  -4.395  0.00  0.00     0.066 H 
ENDBRANCH  30  31
ENDBRANCH  22  30
ENDBRANCH   1  16
BRANCH   8  35
ATOM     35  O   LIG d   1       9.081   3.491  -9.664  0.00  0.00    -0.484 OA
BRANCH  35  36
ATOM     36  C   LIG d   1      10.053   4.406 -10.175  0.00  0.00     0.152 C 
ATOM     37  H   LIG d   1      10.755   4.568  -9.481  0.00  0.00     0.078 H 
ATOM     38  H   LIG d   1      10.516   3.983 -11.067  0.00  0.00     0.078 H 
BRANCH  36  39
ATOM     39  C   LIG d   1       9.382   5.708 -10.526  0.00  0.00     0.200 C 
ATOM     40  O   LIG d   1       8.586   5.755 -11.439  0.00  0.00    -0.288 OA
BRANCH  39  41
ATOM     41  C   LIG d   1       9.693   6.925  -9.759  0.00  0.00     0.021 A 
ATOM     42  C   LIG d   1       8.821   7.366  -8.758  0.00  0.00    -0.050 A 
ATOM     43  C   LIG d   1       9.120   8.506  -8.043  0.00  0.00    -0.043 A 
ATOM     44  H   LIG d   1       7.916   6.816  -8.546  0.00  0.00     0.062 H 
ATOM     45  C   LIG d   1      10.279   9.214  -8.313  0.00  0.00     0.041 A 
ATOM     46  H   LIG d   1       8.448   8.847  -7.269  0.00  0.00     0.063 H 
ATOM     47  C   LIG d   1      11.148   8.782  -9.304  0.00  0.00    -0.043 A 
ATOM     48 CL   LIG d   1      10.647  10.648  -7.407  0.00  0.00    -0.084 Cl
ATOM     49  C   LIG d   1      10.865   7.641 -10.022  0.00  0.00    -0.050 A 
ATOM     50  H   LIG d   1      12.049   9.340  -9.510  0.00  0.00     0.063 H 
ATOM     51  H   LIG d   1      11.544   7.303 -10.791  0.00  0.00     0.062 H 
ENDBRANCH  39  41
ENDBRANCH  36  39
ENDBRANCH  35  36
ENDBRANCH   8  35
TORSDOF 9
ENDMDL
MODEL 9
REMARK VINA RESULT:      -5.9      4.317      8.367
REMARK  9 active torsions:
REMARK  status: ('A' for Active; 'I' for Inactive)
REMARK    1  A    between atoms: C_1  and  O_2 
REMARK    2  A    between atoms: O_2  and  C_3 
REMARK    3  A    between atoms: C_6  and  C_11 
REMARK    4  A    between atoms: C_8  and  O_9 
REMARK    5  A    between atoms: O_9  and  C_10 
REMARK    6  A    between atoms: C_18  and  O_22 
REMARK    7  A    between atoms: O_22  and  C_23 
REMARK    8  A    between atoms: C_23  and  C_24 
REMARK    9  A    between atoms: C_24  and  C_26 
ROOT
ATOM      1  C   LIG d   1      10.412   4.539  -6.749  0.00  0.00    -0.008 C 
ATOM      2  C   LIG d   1       9.804   3.460  -6.194  0.00  0.00     0.176 A 
ATOM      3  C   LIG d   1      10.056   2.051  -6.532  0.00  0.00     0.232 A 
ATOM      4  O   LIG d   1      10.841   1.610  -7.353  0.00  0.00    -0.283 OA
ATOM      5  C   LIG d   1       9.147   1.293  -5.654  0.00  0.00     0.068 A 
ATOM      6  C   LIG d   1       8.902  -0.070  -5.483  0.00  0.00    -0.044 A 
ATOM      7  C   LIG d   1       7.977  -0.487  -4.569  0.00  0.00    -0.019 A 
ATOM      8  C   LIG d   1       7.278   0.445  -3.806  0.00  0.00     0.125 A 
ATOM      9  C   LIG d   1       7.510   1.802  -3.965  0.00  0.00     0.023 A 
ATOM     10  C   LIG d   1       8.449   2.242  -4.891  0.00  0.00     0.143 A 
ATOM     11  O   LIG d   1       8.858   3.485  -5.226  0.00  0.00    -0.451 OA
ATOM     12  H   LIG d   1      11.099   4.407  -7.572  0.00  0.00     0.066 H 
ATOM     13  H   LIG d   1       9.443  -0.796  -6.074  0.00  0.00     0.063 H 
ATOM     14  H   LIG d   1       7.787  -1.542  -4.437  0.00  0.00     0.065 H 
ATOM     15  H   LIG d   1       6.963   2.517  -3.369  0.00  0.00     0.069 H 
ENDROOT
BRANCH   1  16
ATOM     16  C   LIG d   1      10.137   5.885  -6.230  0.00  0.00    -0.018 A 
ATOM     17  C   LIG d   1       9.599   6.865  -7.074  0.00  0.00    -0.051 A 
ATOM     18  C   LIG d   1       9.341   8.126  -6.585  0.00  0.00    -0.016 A 
ATOM     19  H   LIG d   1       9.388   6.633  -8.107  0.00  0.00     0.062 H 
ATOM     20  C   LIG d   1       9.607   8.428  -5.256  0.00  0.00     0.162 A 
ATOM     21  H   LIG d   1       8.928   8.883  -7.236  0.00  0.00     0.066 H 
ATOM     22  C   LIG d   1      10.146   7.459  -4.410  0.00  0.00     0.162 A 
ATOM     23  C   LIG d   1      10.409   6.191  -4.892  0.00  0.00    -0.009 A 
ATOM     24  H   LIG d   1      10.822   5.438  -4.237  0.00  0.00     0.066 H 
BRANCH  20  25
ATOM     25  O   LIG d   1       9.345   9.672  -4.778  0.00  0.00    -0.491 OA
BRANCH  25  26
ATOM     26  C   LIG d   1      10.082  10.755  -5.349  0.00  0.00     0.079 C 
ATOM     27  H   LIG d   1      11.146  10.515  -5.336  0.00  0.00     0.066 H 
ATOM     28  H   LIG d   1       9.757  10.914  -6.376  0.00  0.00     0.066 H 
ATOM     29  H   LIG d   1       9.908  11.660  -4.767  0.00  0.00     0.066 H 
ENDBRANCH  25  26
ENDBRANCH  20  25
BRANCH  22  30
ATOM     30  O   LIG d   1      10.409   7.760  -3.110  0.00  0.00    -0.491 OA
BRANCH  30  31
ATOM     31  C   LIG d   1       9.614   7.105  -2.120  0.00  0.00     0.079 C 
ATOM     32  H   LIG d   1       9.067   6.282  -2.580  0.00  0.00     0.066 H 
ATOM     33  H   LIG d   1       8.907   7.817  -1.691  0.00  0.00     0.066 H 
ATOM     34  H   LIG d   1      10.260   6.717  -1.334  0.00  0.00     0.066 H 
ENDBRANCH  30  31
ENDBRANCH  22  30
ENDBRANCH   1  16
BRANCH   8  35
ATOM     35  O   LIG d   1       6.360   0.021  -2.901  0.00  0.00    -0.484 OA
BRANCH  35  36
ATOM     36  C   LIG d   1       5.885  -1.320  -3.037  0.00  0.00     0.152 C 
ATOM     37  H   LIG d   1       6.385  -1.777  -3.773  0.00  0.00     0.078 H 
ATOM     38  H   LIG d   1       6.042  -1.857  -2.102  0.00  0.00     0.078 H 
BRANCH  36  39
ATOM     39  C   LIG d   1       4.414  -1.301  -3.366  0.00  0.00     0.200 C 
ATOM     40  O   LIG d   1       3.606  -1.703  -2.557  0.00  0.00    -0.288 OA
BRANCH  39  41
ATOM     41  C   LIG d   1       3.960  -0.794  -4.671  0.00  0.00     0.021 A 
ATOM     42  C   LIG d   1       2.901   0.117  -4.740  0.00  0.00    -0.050 A 
ATOM     43  C   LIG d   1       2.482   0.588  -5.966  0.00  0.00    -0.043 A 
ATOM     44  H   LIG d   1       2.413   0.451  -3.837  0.00  0.00     0.062 H 
ATOM     45  C   LIG d   1       3.105   0.161  -7.127  0.00  0.00     0.041 A 
ATOM     46  H   LIG d   1       1.665   1.293  -6.021  0.00  0.00     0.063 H 
ATOM     47  C   LIG d   1       4.155  -0.742  -7.065  0.00  0.00    -0.043 A 
ATOM     48 CL   LIG d   1       2.570   0.760  -8.665  0.00  0.00    -0.084 Cl
ATOM     49  C   LIG d   1       4.589  -1.217  -5.846  0.00  0.00    -0.050 A 
ATOM     50  H   LIG d   1       4.636  -1.072  -7.974  0.00  0.00     0.063 H 
ATOM     51  H   LIG d   1       5.410  -1.917  -5.799  0.00  0.00     0.062 H 
ENDBRANCH  39  41
ENDBRANCH  36  39
ENDBRANCH  35  36
ENDBRANCH   8  35
TORSDOF 9
ENDMDL
