MODEL 1
REMARK VINA RESULT:      -5.2      0.000      0.000
REMARK  17 active torsions:
REMARK  status: ('A' for Active; 'I' for Inactive)
REMARK    1  A    between atoms: C_1  and  C_2 
REMARK    2  A    between atoms: C_2  and  C_3 
REMARK    3  A    between atoms: C_3  and  C_4 
REMARK    4  A    between atoms: C_4  and  C_5 
REMARK    5  A    between atoms: C_5  and  C_6 
REMARK    6  A    between atoms: C_6  and  C_7 
REMARK    7  A    between atoms: C_7  and  C_9 
REMARK    8  A    between atoms: C_7  and  O_22 
REMARK    9  A    between atoms: C_9  and  C_10 
REMARK   10  A    between atoms: C_11  and  C_12 
REMARK   11  A    between atoms: C_12  and  C_13 
REMARK   12  A    between atoms: C_13  and  C_14 
REMARK   13  A    between atoms: C_14  and  C_15 
REMARK   14  A    between atoms: C_15  and  C_16 
REMARK   15  A    between atoms: C_16  and  C_17 
REMARK   16  A    between atoms: C_17  and  C_18 
REMARK   17  A    between atoms: C_18  and  C_19 
ROOT
ATOM      1  C   LIG d   1       4.409  -1.340  -6.769  0.00  0.00    -0.086 C 
ATOM      2  C   LIG d   1       4.010  -0.199  -6.266  0.00  0.00    -0.088 C 
ATOM      3  H   LIG d   1       3.812  -1.840  -7.517  0.00  0.00     0.057 H 
ATOM      4  H   LIG d   1       4.607   0.301  -5.518  0.00  0.00     0.057 H 
ENDROOT
BRANCH   1   5
ATOM      5  C   LIG d   1       5.705  -1.955  -6.306  0.00  0.00    -0.009 C 
ATOM      6  H   LIG d   1       6.303  -1.202  -5.793  0.00  0.00     0.033 H 
ATOM      7  H   LIG d   1       6.256  -2.333  -7.167  0.00  0.00     0.033 H 
BRANCH   5   8
ATOM      8  C   LIG d   1       5.406  -3.110  -5.346  0.00  0.00     0.059 C 
ATOM      9  H   LIG d   1       6.107  -3.923  -5.527  0.00  0.00     0.060 H 
BRANCH   8  10
ATOM     10  C   LIG d   1       5.552  -2.622  -3.903  0.00  0.00    -0.027 C 
ATOM     11  H   LIG d   1       6.045  -1.650  -3.896  0.00  0.00     0.029 H 
ATOM     12  H   LIG d   1       6.148  -3.337  -3.336  0.00  0.00     0.029 H 
BRANCH  10  13
ATOM     13  C   LIG d   1       4.167  -2.494  -3.266  0.00  0.00    -0.051 C 
ATOM     14  H   LIG d   1       3.821  -3.478  -2.947  0.00  0.00     0.027 H 
ATOM     15  H   LIG d   1       3.468  -2.082  -3.994  0.00  0.00     0.027 H 
BRANCH  13  16
ATOM     16  C   LIG d   1       4.246  -1.565  -2.053  0.00  0.00    -0.053 C 
ATOM     17  H   LIG d   1       4.643  -2.114  -1.200  0.00  0.00     0.026 H 
ATOM     18  H   LIG d   1       3.249  -1.194  -1.813  0.00  0.00     0.026 H 
BRANCH  16  19
ATOM     19  C   LIG d   1       5.165  -0.385  -2.373  0.00  0.00    -0.053 C 
ATOM     20  H   LIG d   1       5.230  -0.257  -3.454  0.00  0.00     0.026 H 
ATOM     21  H   LIG d   1       6.159  -0.581  -1.971  0.00  0.00     0.026 H 
BRANCH  19  22
ATOM     22  C   LIG d   1       4.601   0.888  -1.741  0.00  0.00    -0.056 C 
ATOM     23  H   LIG d   1       5.397   1.626  -1.639  0.00  0.00     0.026 H 
ATOM     24  H   LIG d   1       4.194   0.656  -0.757  0.00  0.00     0.026 H 
BRANCH  22  25
ATOM     25  C   LIG d   1       3.493   1.453  -2.632  0.00  0.00    -0.065 C 
ATOM     26  H   LIG d   1       3.203   2.440  -2.270  0.00  0.00     0.023 H 
ATOM     27  H   LIG d   1       3.856   1.533  -3.657  0.00  0.00     0.023 H 
ATOM     28  H   LIG d   1       2.630   0.788  -2.603  0.00  0.00     0.023 H 
ENDBRANCH  22  25
ENDBRANCH  19  22
ENDBRANCH  16  19
ENDBRANCH  13  16
ENDBRANCH  10  13
ENDBRANCH   8  10
BRANCH   8  29
ATOM     29  O   LIG d   1       4.071  -3.572  -5.560  0.00  0.00    -0.392 OA
ATOM     30  H   LIG d   1       3.905  -3.896  -6.456  0.00  0.00     0.210 HD
ENDBRANCH   8  29
ENDBRANCH   5   8
ENDBRANCH   1   5
BRANCH   2  31
ATOM     31  C   LIG d   1       2.715   0.416  -6.729  0.00  0.00    -0.035 C 
ATOM     32  H   LIG d   1       1.888  -0.255  -6.491  0.00  0.00     0.031 H 
ATOM     33  H   LIG d   1       2.565   1.370  -6.225  0.00  0.00     0.031 H 
BRANCH  31  34
ATOM     34  C   LIG d   1       2.769   0.642  -8.241  0.00  0.00    -0.050 C 
ATOM     35  H   LIG d   1       3.657   0.159  -8.649  0.00  0.00     0.027 H 
ATOM     36  H   LIG d   1       1.878   0.216  -8.704  0.00  0.00     0.027 H 
BRANCH  34  37
ATOM     37  C   LIG d   1       2.826   2.143  -8.530  0.00  0.00    -0.053 C 
ATOM     38  H   LIG d   1       1.947   2.437  -9.103  0.00  0.00     0.026 H 
ATOM     39  H   LIG d   1       2.849   2.694  -7.591  0.00  0.00     0.026 H 
BRANCH  37  40
ATOM     40  C   LIG d   1       4.088   2.458  -9.337  0.00  0.00    -0.053 C 
ATOM     41  H   LIG d   1       3.881   3.272 -10.031  0.00  0.00     0.026 H 
ATOM     42  H   LIG d   1       4.889   2.753  -8.658  0.00  0.00     0.026 H 
BRANCH  40  43
ATOM     43  C   LIG d   1       4.517   1.216 -10.120  0.00  0.00    -0.053 C 
ATOM     44  H   LIG d   1       3.873   0.378  -9.854  0.00  0.00     0.026 H 
ATOM     45  H   LIG d   1       4.433   1.414 -11.189  0.00  0.00     0.026 H 
BRANCH  43  46
ATOM     46  C   LIG d   1       5.968   0.872  -9.779  0.00  0.00    -0.048 C 
ATOM     47  H   LIG d   1       6.016  -0.138  -9.370  0.00  0.00     0.027 H 
ATOM     48  H   LIG d   1       6.577   0.927 -10.681  0.00  0.00     0.027 H 
BRANCH  46  49
ATOM     49  C   LIG d   1       6.498   1.867  -8.745  0.00  0.00    -0.013 C 
ATOM     50  H   LIG d   1       7.142   2.595  -9.238  0.00  0.00     0.033 H 
ATOM     51  H   LIG d   1       5.660   2.382  -8.273  0.00  0.00     0.033 H 
BRANCH  49  52
ATOM     52  C   LIG d   1       7.287   1.127  -7.694  0.00  0.00     0.042 C 
ATOM     53  O   LIG d   1       7.195   1.451  -6.523  0.00  0.00    -0.550 OA
ATOM     54  O   LIG d   1       8.018   0.206  -8.018  0.00  0.00    -0.550 OA
ENDBRANCH  49  52
ENDBRANCH  46  49
ENDBRANCH  43  46
ENDBRANCH  40  43
ENDBRANCH  37  40
ENDBRANCH  34  37
ENDBRANCH  31  34
ENDBRANCH   2  31
TORSDOF 17
ENDMDL
MODEL 2
REMARK VINA RESULT:      -5.1      1.924      6.309
REMARK  17 active torsions:
REMARK  status: ('A' for Active; 'I' for Inactive)
REMARK    1  A    between atoms: C_1  and  C_2 
REMARK    2  A    between atoms: C_2  and  C_3 
REMARK    3  A    between atoms: C_3  and  C_4 
REMARK    4  A    between atoms: C_4  and  C_5 
REMARK    5  A    between atoms: C_5  and  C_6 
REMARK    6  A    between atoms: C_6  and  C_7 
REMARK    7  A    between atoms: C_7  and  C_9 
REMARK    8  A    between atoms: C_7  and  O_22 
REMARK    9  A    between atoms: C_9  and  C_10 
REMARK   10  A    between atoms: C_11  and  C_12 
REMARK   11  A    between atoms: C_12  and  C_13 
REMARK   12  A    between atoms: C_13  and  C_14 
REMARK   13  A    between atoms: C_14  and  C_15 
REMARK   14  A    between atoms: C_15  and  C_16 
REMARK   15  A    between atoms: C_16  and  C_17 
REMARK   16  A    between atoms: C_17  and  C_18 
REMARK   17  A    between atoms: C_18  and  C_19 
ROOT
ATOM      1  C   LIG d   1       3.131  -0.090  -5.822  0.00  0.00    -0.086 C 
ATOM      2  C   LIG d   1       2.457   0.372  -4.799  0.00  0.00    -0.088 C 
ATOM      3  H   LIG d   1       3.841  -0.892  -5.684  0.00  0.00     0.057 H 
ATOM      4  H   LIG d   1       1.747   1.174  -4.937  0.00  0.00     0.057 H 
ENDROOT
BRANCH   1   5
ATOM      5  C   LIG d   1       2.915   0.497  -7.194  0.00  0.00    -0.009 C 
ATOM      6  H   LIG d   1       3.842   0.949  -7.546  0.00  0.00     0.033 H 
ATOM      7  H   LIG d   1       2.135   1.257  -7.145  0.00  0.00     0.033 H 
BRANCH   5   8
ATOM      8  C   LIG d   1       2.487  -0.611  -8.160  0.00  0.00     0.059 C 
ATOM      9  H   LIG d   1       1.640  -1.151  -7.741  0.00  0.00     0.060 H 
BRANCH   8  10
ATOM     10  C   LIG d   1       2.085   0.010  -9.499  0.00  0.00    -0.027 C 
ATOM     11  H   LIG d   1       1.989   1.090  -9.386  0.00  0.00     0.029 H 
ATOM     12  H   LIG d   1       1.131  -0.407  -9.821  0.00  0.00     0.029 H 
BRANCH  10  13
ATOM     13  C   LIG d   1       3.157  -0.299 -10.547  0.00  0.00    -0.051 C 
ATOM     14  H   LIG d   1       2.680  -0.653 -11.461  0.00  0.00     0.027 H 
ATOM     15  H   LIG d   1       3.827  -1.068 -10.164  0.00  0.00     0.027 H 
BRANCH  13  16
ATOM     16  C   LIG d   1       3.956   0.970 -10.848  0.00  0.00    -0.053 C 
ATOM     17  H   LIG d   1       3.426   1.837 -10.453  0.00  0.00     0.026 H 
ATOM     18  H   LIG d   1       4.073   1.079 -11.927  0.00  0.00     0.026 H 
BRANCH  16  19
ATOM     19  C   LIG d   1       5.335   0.873 -10.193  0.00  0.00    -0.053 C 
ATOM     20  H   LIG d   1       6.108   0.979 -10.956  0.00  0.00     0.026 H 
ATOM     21  H   LIG d   1       5.437  -0.096  -9.705  0.00  0.00     0.026 H 
BRANCH  19  22
ATOM     22  C   LIG d   1       5.487   1.985  -9.154  0.00  0.00    -0.056 C 
ATOM     23  H   LIG d   1       6.422   2.519  -9.328  0.00  0.00     0.026 H 
ATOM     24  H   LIG d   1       5.498   1.550  -8.155  0.00  0.00     0.026 H 
BRANCH  22  25
ATOM     25  C   LIG d   1       4.313   2.960  -9.274  0.00  0.00    -0.065 C 
ATOM     26  H   LIG d   1       3.874   3.121  -8.290  0.00  0.00     0.023 H 
ATOM     27  H   LIG d   1       4.668   3.909  -9.675  0.00  0.00     0.023 H 
ATOM     28  H   LIG d   1       3.561   2.541  -9.943  0.00  0.00     0.023 H 
ENDBRANCH  22  25
ENDBRANCH  19  22
ENDBRANCH  16  19
ENDBRANCH  13  16
ENDBRANCH  10  13
ENDBRANCH   8  10
BRANCH   8  29
ATOM     29  O   LIG d   1       3.577  -1.512  -8.361  0.00  0.00    -0.392 OA
ATOM     30  H   LIG d   1       3.952  -1.484  -9.252  0.00  0.00     0.210 HD
ENDBRANCH   8  29
ENDBRANCH   5   8
ENDBRANCH   1   5
BRANCH   2  31
ATOM     31  C   LIG d   1       2.673  -0.215  -3.428  0.00  0.00    -0.035 C 
ATOM     32  H   LIG d   1       1.707  -0.411  -2.960  0.00  0.00     0.031 H 
ATOM     33  H   LIG d   1       3.230  -1.147  -3.515  0.00  0.00     0.031 H 
BRANCH  31  34
ATOM     34  C   LIG d   1       3.464   0.773  -2.568  0.00  0.00    -0.050 C 
ATOM     35  H   LIG d   1       3.960   1.499  -3.213  0.00  0.00     0.027 H 
ATOM     36  H   LIG d   1       2.784   1.292  -1.892  0.00  0.00     0.027 H 
BRANCH  34  37
ATOM     37  C   LIG d   1       4.513   0.014  -1.754  0.00  0.00    -0.053 C 
ATOM     38  H   LIG d   1       5.447   0.575  -1.749  0.00  0.00     0.026 H 
ATOM     39  H   LIG d   1       4.159  -0.110  -0.731  0.00  0.00     0.026 H 
BRANCH  37  40
ATOM     40  C   LIG d   1       4.748  -1.362  -2.382  0.00  0.00    -0.053 C 
ATOM     41  H   LIG d   1       4.725  -2.124  -1.604  0.00  0.00     0.026 H 
ATOM     42  H   LIG d   1       3.966  -1.566  -3.114  0.00  0.00     0.026 H 
BRANCH  40  43
ATOM     43  C   LIG d   1       6.112  -1.380  -3.075  0.00  0.00    -0.053 C 
ATOM     44  H   LIG d   1       6.266  -0.437  -3.599  0.00  0.00     0.026 H 
ATOM     45  H   LIG d   1       6.896  -1.513  -2.329  0.00  0.00     0.026 H 
BRANCH  43  46
ATOM     46  C   LIG d   1       6.160  -2.535  -4.077  0.00  0.00    -0.048 C 
ATOM     47  H   LIG d   1       6.517  -2.166  -5.039  0.00  0.00     0.027 H 
ATOM     48  H   LIG d   1       6.838  -3.306  -3.711  0.00  0.00     0.027 H 
BRANCH  46  49
ATOM     49  C   LIG d   1       4.759  -3.124  -4.244  0.00  0.00    -0.013 C 
ATOM     50  H   LIG d   1       4.604  -3.909  -3.503  0.00  0.00     0.033 H 
ATOM     51  H   LIG d   1       4.015  -2.339  -4.103  0.00  0.00     0.033 H 
BRANCH  49  52
ATOM     52  C   LIG d   1       4.620  -3.705  -5.628  0.00  0.00     0.042 C 
ATOM     53  O   LIG d   1       4.044  -4.768  -5.787  0.00  0.00    -0.550 OA
ATOM     54  O   LIG d   1       5.083  -3.112  -6.587  0.00  0.00    -0.550 OA
ENDBRANCH  49  52
ENDBRANCH  46  49
ENDBRANCH  43  46
ENDBRANCH  40  43
ENDBRANCH  37  40
ENDBRANCH  34  37
ENDBRANCH  31  34
ENDBRANCH   2  31
TORSDOF 17
ENDMDL
MODEL 3
REMARK VINA RESULT:      -5.1      1.696      6.708
REMARK  17 active torsions:
REMARK  status: ('A' for Active; 'I' for Inactive)
REMARK    1  A    between atoms: C_1  and  C_2 
REMARK    2  A    between atoms: C_2  and  C_3 
REMARK    3  A    between atoms: C_3  and  C_4 
REMARK    4  A    between atoms: C_4  and  C_5 
REMARK    5  A    between atoms: C_5  and  C_6 
REMARK    6  A    between atoms: C_6  and  C_7 
REMARK    7  A    between atoms: C_7  and  C_9 
REMARK    8  A    between atoms: C_7  and  O_22 
REMARK    9  A    between atoms: C_9  and  C_10 
REMARK   10  A    between atoms: C_11  and  C_12 
REMARK   11  A    between atoms: C_12  and  C_13 
REMARK   12  A    between atoms: C_13  and  C_14 
REMARK   13  A    between atoms: C_14  and  C_15 
REMARK   14  A    between atoms: C_15  and  C_16 
REMARK   15  A    between atoms: C_16  and  C_17 
REMARK   16  A    between atoms: C_17  and  C_18 
REMARK   17  A    between atoms: C_18  and  C_19 
ROOT
ATOM      1  C   LIG d   1       3.199  -0.061  -5.771  0.00  0.00    -0.086 C 
ATOM      2  C   LIG d   1       2.409   0.303  -4.793  0.00  0.00    -0.088 C 
ATOM      3  H   LIG d   1       3.996  -0.767  -5.590  0.00  0.00     0.057 H 
ATOM      4  H   LIG d   1       1.612   1.009  -4.975  0.00  0.00     0.057 H 
ENDROOT
BRANCH   1   5
ATOM      5  C   LIG d   1       2.996   0.506  -7.154  0.00  0.00    -0.009 C 
ATOM      6  H   LIG d   1       2.690   1.549  -7.078  0.00  0.00     0.033 H 
ATOM      7  H   LIG d   1       2.223  -0.064  -7.670  0.00  0.00     0.033 H 
BRANCH   5   8
ATOM      8  C   LIG d   1       4.307   0.414  -7.939  0.00  0.00     0.059 C 
ATOM      9  H   LIG d   1       4.314  -0.502  -8.528  0.00  0.00     0.060 H 
BRANCH   8  10
ATOM     10  C   LIG d   1       4.426   1.622  -8.871  0.00  0.00    -0.027 C 
ATOM     11  H   LIG d   1       5.420   1.639  -9.318  0.00  0.00     0.029 H 
ATOM     12  H   LIG d   1       4.267   2.538  -8.302  0.00  0.00     0.029 H 
BRANCH  10  13
ATOM     13  C   LIG d   1       3.373   1.518  -9.977  0.00  0.00    -0.051 C 
ATOM     14  H   LIG d   1       3.063   2.519 -10.278  0.00  0.00     0.027 H 
ATOM     15  H   LIG d   1       2.510   0.966  -9.605  0.00  0.00     0.027 H 
BRANCH  13  16
ATOM     16  C   LIG d   1       3.968   0.785 -11.180  0.00  0.00    -0.053 C 
ATOM     17  H   LIG d   1       4.988   0.478 -10.952  0.00  0.00     0.026 H 
ATOM     18  H   LIG d   1       3.975   1.451 -12.044  0.00  0.00     0.026 H 
BRANCH  16  19
ATOM     19  C   LIG d   1       3.121  -0.449 -11.496  0.00  0.00    -0.053 C 
ATOM     20  H   LIG d   1       3.710  -1.350 -11.317  0.00  0.00     0.026 H 
ATOM     21  H   LIG d   1       2.812  -0.419 -12.541  0.00  0.00     0.026 H 
BRANCH  19  22
ATOM     22  C   LIG d   1       1.883  -0.463 -10.598  0.00  0.00    -0.056 C 
ATOM     23  H   LIG d   1       0.995  -0.268 -11.201  0.00  0.00     0.026 H 
ATOM     24  H   LIG d   1       1.979   0.309  -9.835  0.00  0.00     0.026 H 
BRANCH  22  25
ATOM     25  C   LIG d   1       1.754  -1.832  -9.927  0.00  0.00    -0.065 C 
ATOM     26  H   LIG d   1       0.902  -2.365 -10.350  0.00  0.00     0.023 H 
ATOM     27  H   LIG d   1       2.664  -2.407 -10.097  0.00  0.00     0.023 H 
ATOM     28  H   LIG d   1       1.602  -1.697  -8.856  0.00  0.00     0.023 H 
ENDBRANCH  22  25
ENDBRANCH  19  22
ENDBRANCH  16  19
ENDBRANCH  13  16
ENDBRANCH  10  13
ENDBRANCH   8  10
BRANCH   8  29
ATOM     29  O   LIG d   1       5.407   0.405  -7.028  0.00  0.00    -0.392 OA
ATOM     30  H   LIG d   1       5.854   1.258  -6.941  0.00  0.00     0.210 HD
ENDBRANCH   8  29
ENDBRANCH   5   8
ENDBRANCH   1   5
BRANCH   2  31
ATOM     31  C   LIG d   1       2.612  -0.264  -3.411  0.00  0.00    -0.035 C 
ATOM     32  H   LIG d   1       1.643  -0.403  -2.930  0.00  0.00     0.031 H 
ATOM     33  H   LIG d   1       3.123  -1.223  -3.483  0.00  0.00     0.031 H 
BRANCH  31  34
ATOM     34  C   LIG d   1       3.458   0.704  -2.582  0.00  0.00    -0.050 C 
ATOM     35  H   LIG d   1       3.971   1.400  -3.246  0.00  0.00     0.027 H 
ATOM     36  H   LIG d   1       2.813   1.260  -1.902  0.00  0.00     0.027 H 
BRANCH  34  37
ATOM     37  C   LIG d   1       4.491  -0.085  -1.775  0.00  0.00    -0.053 C 
ATOM     38  H   LIG d   1       5.447   0.437  -1.797  0.00  0.00     0.026 H 
ATOM     39  H   LIG d   1       4.153  -0.178  -0.743  0.00  0.00     0.026 H 
BRANCH  37  40
ATOM     40  C   LIG d   1       4.657  -1.478  -2.385  0.00  0.00    -0.053 C 
ATOM     41  H   LIG d   1       4.612  -2.228  -1.595  0.00  0.00     0.026 H 
ATOM     42  H   LIG d   1       3.858  -1.659  -3.104  0.00  0.00     0.026 H 
BRANCH  40  43
ATOM     43  C   LIG d   1       6.010  -1.567  -3.094  0.00  0.00    -0.053 C 
ATOM     44  H   LIG d   1       6.373  -0.562  -3.311  0.00  0.00     0.026 H 
ATOM     45  H   LIG d   1       6.724  -2.080  -2.450  0.00  0.00     0.026 H 
BRANCH  43  46
ATOM     46  C   LIG d   1       5.851  -2.345  -4.402  0.00  0.00    -0.048 C 
ATOM     47  H   LIG d   1       5.696  -1.646  -5.224  0.00  0.00     0.027 H 
ATOM     48  H   LIG d   1       6.752  -2.930  -4.589  0.00  0.00     0.027 H 
BRANCH  46  49
ATOM     49  C   LIG d   1       4.647  -3.283  -4.294  0.00  0.00    -0.013 C 
ATOM     50  H   LIG d   1       4.513  -3.584  -3.256  0.00  0.00     0.033 H 
ATOM     51  H   LIG d   1       3.752  -2.766  -4.641  0.00  0.00     0.033 H 
BRANCH  49  52
ATOM     52  C   LIG d   1       4.884  -4.504  -5.146  0.00  0.00     0.042 C 
ATOM     53  O   LIG d   1       4.014  -5.351  -5.251  0.00  0.00    -0.550 OA
ATOM     54  O   LIG d   1       5.946  -4.644  -5.729  0.00  0.00    -0.550 OA
ENDBRANCH  49  52
ENDBRANCH  46  49
ENDBRANCH  43  46
ENDBRANCH  40  43
ENDBRANCH  37  40
ENDBRANCH  34  37
ENDBRANCH  31  34
ENDBRANCH   2  31
TORSDOF 17
ENDMDL
MODEL 4
REMARK VINA RESULT:      -5.1      2.085      3.254
REMARK  17 active torsions:
REMARK  status: ('A' for Active; 'I' for Inactive)
REMARK    1  A    between atoms: C_1  and  C_2 
REMARK    2  A    between atoms: C_2  and  C_3 
REMARK    3  A    between atoms: C_3  and  C_4 
REMARK    4  A    between atoms: C_4  and  C_5 
REMARK    5  A    between atoms: C_5  and  C_6 
REMARK    6  A    between atoms: C_6  and  C_7 
REMARK    7  A    between atoms: C_7  and  C_9 
REMARK    8  A    between atoms: C_7  and  O_22 
REMARK    9  A    between atoms: C_9  and  C_10 
REMARK   10  A    between atoms: C_11  and  C_12 
REMARK   11  A    between atoms: C_12  and  C_13 
REMARK   12  A    between atoms: C_13  and  C_14 
REMARK   13  A    between atoms: C_14  and  C_15 
REMARK   14  A    between atoms: C_15  and  C_16 
REMARK   15  A    between atoms: C_16  and  C_17 
REMARK   16  A    between atoms: C_17  and  C_18 
REMARK   17  A    between atoms: C_18  and  C_19 
ROOT
ATOM      1  C   LIG d   1       4.285  -0.392  -6.866  0.00  0.00    -0.086 C 
ATOM      2  C   LIG d   1       3.206   0.348  -6.878  0.00  0.00    -0.088 C 
ATOM      3  H   LIG d   1       4.762  -0.668  -7.795  0.00  0.00     0.057 H 
ATOM      4  H   LIG d   1       2.730   0.624  -5.949  0.00  0.00     0.057 H 
ENDROOT
BRANCH   1   5
ATOM      5  C   LIG d   1       4.865  -0.860  -5.555  0.00  0.00    -0.009 C 
ATOM      6  H   LIG d   1       4.207  -0.560  -4.740  0.00  0.00     0.033 H 
ATOM      7  H   LIG d   1       5.848  -0.412  -5.412  0.00  0.00     0.033 H 
BRANCH   5   8
ATOM      8  C   LIG d   1       4.997  -2.385  -5.572  0.00  0.00     0.059 C 
ATOM      9  H   LIG d   1       5.988  -2.659  -5.929  0.00  0.00     0.060 H 
BRANCH   8  10
ATOM     10  C   LIG d   1       4.797  -2.928  -4.155  0.00  0.00    -0.027 C 
ATOM     11  H   LIG d   1       5.756  -2.958  -3.638  0.00  0.00     0.029 H 
ATOM     12  H   LIG d   1       4.380  -3.933  -4.207  0.00  0.00     0.029 H 
BRANCH  10  13
ATOM     13  C   LIG d   1       3.836  -2.015  -3.391  0.00  0.00    -0.051 C 
ATOM     14  H   LIG d   1       2.869  -2.509  -3.288  0.00  0.00     0.027 H 
ATOM     15  H   LIG d   1       3.710  -1.080  -3.937  0.00  0.00     0.027 H 
BRANCH  13  16
ATOM     16  C   LIG d   1       4.406  -1.721  -2.002  0.00  0.00    -0.053 C 
ATOM     17  H   LIG d   1       5.418  -2.121  -1.932  0.00  0.00     0.026 H 
ATOM     18  H   LIG d   1       3.778  -2.191  -1.244  0.00  0.00     0.026 H 
BRANCH  16  19
ATOM     19  C   LIG d   1       4.439  -0.209  -1.773  0.00  0.00    -0.053 C 
ATOM     20  H   LIG d   1       5.383   0.194  -2.139  0.00  0.00     0.026 H 
ATOM     21  H   LIG d   1       4.345  -0.002  -0.707  0.00  0.00     0.026 H 
BRANCH  19  22
ATOM     22  C   LIG d   1       3.278   0.446  -2.523  0.00  0.00    -0.056 C 
ATOM     23  H   LIG d   1       2.436   0.580  -1.844  0.00  0.00     0.026 H 
ATOM     24  H   LIG d   1       2.977  -0.191  -3.354  0.00  0.00     0.026 H 
BRANCH  22  25
ATOM     25  C   LIG d   1       3.722   1.809  -3.059  0.00  0.00    -0.065 C 
ATOM     26  H   LIG d   1       2.845   2.428  -3.248  0.00  0.00     0.023 H 
ATOM     27  H   LIG d   1       4.362   2.298  -2.325  0.00  0.00     0.023 H 
ATOM     28  H   LIG d   1       4.275   1.670  -3.989  0.00  0.00     0.023 H 
ENDBRANCH  22  25
ENDBRANCH  19  22
ENDBRANCH  16  19
ENDBRANCH  13  16
ENDBRANCH  10  13
ENDBRANCH   8  10
BRANCH   8  29
ATOM     29  O   LIG d   1       4.005  -2.938  -6.438  0.00  0.00    -0.392 OA
ATOM     30  H   LIG d   1       3.379  -3.527  -5.995  0.00  0.00     0.210 HD
ENDBRANCH   8  29
ENDBRANCH   5   8
ENDBRANCH   1   5
BRANCH   2  31
ATOM     31  C   LIG d   1       2.627   0.815  -8.188  0.00  0.00    -0.035 C 
ATOM     32  H   LIG d   1       2.924   0.129  -8.982  0.00  0.00     0.031 H 
ATOM     33  H   LIG d   1       1.540   0.841  -8.117  0.00  0.00     0.031 H 
BRANCH  31  34
ATOM     34  C   LIG d   1       3.150   2.218  -8.506  0.00  0.00    -0.050 C 
ATOM     35  H   LIG d   1       2.372   2.952  -8.299  0.00  0.00     0.027 H 
ATOM     36  H   LIG d   1       4.023   2.428  -7.888  0.00  0.00     0.027 H 
BRANCH  34  37
ATOM     37  C   LIG d   1       3.541   2.293  -9.983  0.00  0.00    -0.053 C 
ATOM     38  H   LIG d   1       2.649   2.195 -10.601  0.00  0.00     0.026 H 
ATOM     39  H   LIG d   1       4.018   3.251 -10.185  0.00  0.00     0.026 H 
BRANCH  37  40
ATOM     40  C   LIG d   1       4.515   1.159 -10.311  0.00  0.00    -0.053 C 
ATOM     41  H   LIG d   1       5.511   1.571 -10.471  0.00  0.00     0.026 H 
ATOM     42  H   LIG d   1       4.542   0.452  -9.482  0.00  0.00     0.026 H 
BRANCH  40  43
ATOM     43  C   LIG d   1       4.051   0.438 -11.579  0.00  0.00    -0.053 C 
ATOM     44  H   LIG d   1       3.146   0.913 -11.956  0.00  0.00     0.026 H 
ATOM     45  H   LIG d   1       4.834   0.497 -12.336  0.00  0.00     0.026 H 
BRANCH  43  46
ATOM     46  C   LIG d   1       3.762  -1.028 -11.256  0.00  0.00    -0.048 C 
ATOM     47  H   LIG d   1       4.130  -1.659 -12.067  0.00  0.00     0.027 H 
ATOM     48  H   LIG d   1       4.265  -1.302 -10.328  0.00  0.00     0.027 H 
BRANCH  46  49
ATOM     49  C   LIG d   1       2.254  -1.228 -11.097  0.00  0.00    -0.013 C 
ATOM     50  H   LIG d   1       1.803  -0.310 -10.722  0.00  0.00     0.033 H 
ATOM     51  H   LIG d   1       1.817  -1.479 -12.065  0.00  0.00     0.033 H 
BRANCH  49  52
ATOM     52  C   LIG d   1       1.995  -2.349 -10.123  0.00  0.00     0.042 C 
ATOM     53  O   LIG d   1       2.783  -2.564  -9.219  0.00  0.00    -0.550 OA
ATOM     54  O   LIG d   1       0.998  -3.041 -10.241  0.00  0.00    -0.550 OA
ENDBRANCH  49  52
ENDBRANCH  46  49
ENDBRANCH  43  46
ENDBRANCH  40  43
ENDBRANCH  37  40
ENDBRANCH  34  37
ENDBRANCH  31  34
ENDBRANCH   2  31
TORSDOF 17
ENDMDL
MODEL 5
REMARK VINA RESULT:      -5.0      1.915      2.792
REMARK  17 active torsions:
REMARK  status: ('A' for Active; 'I' for Inactive)
REMARK    1  A    between atoms: C_1  and  C_2 
REMARK    2  A    between atoms: C_2  and  C_3 
REMARK    3  A    between atoms: C_3  and  C_4 
REMARK    4  A    between atoms: C_4  and  C_5 
REMARK    5  A    between atoms: C_5  and  C_6 
REMARK    6  A    between atoms: C_6  and  C_7 
REMARK    7  A    between atoms: C_7  and  C_9 
REMARK    8  A    between atoms: C_7  and  O_22 
REMARK    9  A    between atoms: C_9  and  C_10 
REMARK   10  A    between atoms: C_11  and  C_12 
REMARK   11  A    between atoms: C_12  and  C_13 
REMARK   12  A    between atoms: C_13  and  C_14 
REMARK   13  A    between atoms: C_14  and  C_15 
REMARK   14  A    between atoms: C_15  and  C_16 
REMARK   15  A    between atoms: C_16  and  C_17 
REMARK   16  A    between atoms: C_17  and  C_18 
REMARK   17  A    between atoms: C_18  and  C_19 
ROOT
ATOM      1  C   LIG d   1       3.112  -0.368  -7.117  0.00  0.00    -0.086 C 
ATOM      2  C   LIG d   1       3.543  -1.391  -7.810  0.00  0.00    -0.088 C 
ATOM      3  H   LIG d   1       2.337   0.269  -7.518  0.00  0.00     0.057 H 
ATOM      4  H   LIG d   1       4.317  -2.028  -7.409  0.00  0.00     0.057 H 
ENDROOT
BRANCH   1   5
ATOM      5  C   LIG d   1       3.696  -0.077  -5.758  0.00  0.00    -0.009 C 
ATOM      6  H   LIG d   1       4.512   0.639  -5.859  0.00  0.00     0.033 H 
ATOM      7  H   LIG d   1       4.075  -1.001  -5.321  0.00  0.00     0.033 H 
BRANCH   5   8
ATOM      8  C   LIG d   1       2.611   0.509  -4.851  0.00  0.00     0.059 C 
ATOM      9  H   LIG d   1       1.661   0.017  -5.058  0.00  0.00     0.060 H 
BRANCH   8  10
ATOM     10  C   LIG d   1       2.995   0.283  -3.387  0.00  0.00    -0.027 C 
ATOM     11  H   LIG d   1       2.317   0.843  -2.743  0.00  0.00     0.029 H 
ATOM     12  H   LIG d   1       4.017   0.625  -3.223  0.00  0.00     0.029 H 
BRANCH  10  13
ATOM     13  C   LIG d   1       2.896  -1.208  -3.059  0.00  0.00    -0.051 C 
ATOM     14  H   LIG d   1       2.878  -1.784  -3.984  0.00  0.00     0.027 H 
ATOM     15  H   LIG d   1       1.982  -1.396  -2.495  0.00  0.00     0.027 H 
BRANCH  13  16
ATOM     16  C   LIG d   1       4.106  -1.627  -2.222  0.00  0.00    -0.053 C 
ATOM     17  H   LIG d   1       4.507  -2.565  -2.607  0.00  0.00     0.026 H 
ATOM     18  H   LIG d   1       3.801  -1.764  -1.184  0.00  0.00     0.026 H 
BRANCH  16  19
ATOM     19  C   LIG d   1       5.181  -0.542  -2.299  0.00  0.00    -0.053 C 
ATOM     20  H   LIG d   1       5.553  -0.327  -1.296  0.00  0.00     0.026 H 
ATOM     21  H   LIG d   1       4.753   0.363  -2.728  0.00  0.00     0.026 H 
BRANCH  19  22
ATOM     22  C   LIG d   1       6.335  -1.027  -3.178  0.00  0.00    -0.056 C 
ATOM     23  H   LIG d   1       5.951  -1.713  -3.935  0.00  0.00     0.026 H 
ATOM     24  H   LIG d   1       7.070  -1.543  -2.561  0.00  0.00     0.026 H 
BRANCH  22  25
ATOM     25  C   LIG d   1       6.994   0.172  -3.863  0.00  0.00    -0.065 C 
ATOM     26  H   LIG d   1       6.385   0.484  -4.712  0.00  0.00     0.023 H 
ATOM     27  H   LIG d   1       7.078   0.995  -3.153  0.00  0.00     0.023 H 
ATOM     28  H   LIG d   1       7.987  -0.110  -4.212  0.00  0.00     0.023 H 
ENDBRANCH  22  25
ENDBRANCH  19  22
ENDBRANCH  16  19
ENDBRANCH  13  16
ENDBRANCH  10  13
ENDBRANCH   8  10
BRANCH   8  29
ATOM     29  O   LIG d   1       2.488   1.910  -5.101  0.00  0.00    -0.392 OA
ATOM     30  H   LIG d   1       1.641   2.168  -5.490  0.00  0.00     0.210 HD
ENDBRANCH   8  29
ENDBRANCH   5   8
ENDBRANCH   1   5
BRANCH   2  31
ATOM     31  C   LIG d   1       2.958  -1.682  -9.168  0.00  0.00    -0.035 C 
ATOM     32  H   LIG d   1       3.752  -1.997  -9.846  0.00  0.00     0.031 H 
ATOM     33  H   LIG d   1       2.217  -2.476  -9.083  0.00  0.00     0.031 H 
BRANCH  31  34
ATOM     34  C   LIG d   1       2.291  -0.419  -9.717  0.00  0.00    -0.050 C 
ATOM     35  H   LIG d   1       1.214  -0.574  -9.777  0.00  0.00     0.027 H 
ATOM     36  H   LIG d   1       2.501   0.420  -9.054  0.00  0.00     0.027 H 
BRANCH  34  37
ATOM     37  C   LIG d   1       2.841  -0.118 -11.112  0.00  0.00    -0.053 C 
ATOM     38  H   LIG d   1       3.233  -1.033 -11.554  0.00  0.00     0.026 H 
ATOM     39  H   LIG d   1       2.043   0.276 -11.741  0.00  0.00     0.026 H 
BRANCH  37  40
ATOM     40  C   LIG d   1       3.963   0.917 -11.005  0.00  0.00    -0.053 C 
ATOM     41  H   LIG d   1       4.836   0.459 -10.541  0.00  0.00     0.026 H 
ATOM     42  H   LIG d   1       4.226   1.275 -12.001  0.00  0.00     0.026 H 
BRANCH  40  43
ATOM     43  C   LIG d   1       3.491   2.095 -10.149  0.00  0.00    -0.053 C 
ATOM     44  H   LIG d   1       3.222   2.929 -10.797  0.00  0.00     0.026 H 
ATOM     45  H   LIG d   1       2.621   1.794  -9.565  0.00  0.00     0.026 H 
BRANCH  43  46
ATOM     46  C   LIG d   1       4.616   2.523  -9.205  0.00  0.00    -0.048 C 
ATOM     47  H   LIG d   1       5.063   3.449  -9.569  0.00  0.00     0.027 H 
ATOM     48  H   LIG d   1       4.210   2.686  -8.206  0.00  0.00     0.027 H 
BRANCH  46  49
ATOM     49  C   LIG d   1       5.681   1.427  -9.150  0.00  0.00    -0.013 C 
ATOM     50  H   LIG d   1       5.324   0.604  -8.532  0.00  0.00     0.033 H 
ATOM     51  H   LIG d   1       5.882   1.065 -10.159  0.00  0.00     0.033 H 
BRANCH  49  52
ATOM     52  C   LIG d   1       6.949   1.988  -8.557  0.00  0.00     0.042 C 
ATOM     53  O   LIG d   1       7.634   2.762  -9.204  0.00  0.00    -0.550 OA
ATOM     54  O   LIG d   1       7.288   1.668  -7.430  0.00  0.00    -0.550 OA
ENDBRANCH  49  52
ENDBRANCH  46  49
ENDBRANCH  43  46
ENDBRANCH  40  43
ENDBRANCH  37  40
ENDBRANCH  34  37
ENDBRANCH  31  34
ENDBRANCH   2  31
TORSDOF 17
ENDMDL
MODEL 6
REMARK VINA RESULT:      -5.0      1.593      5.929
REMARK  17 active torsions:
REMARK  status: ('A' for Active; 'I' for Inactive)
REMARK    1  A    between atoms: C_1  and  C_2 
REMARK    2  A    between atoms: C_2  and  C_3 
REMARK    3  A    between atoms: C_3  and  C_4 
REMARK    4  A    between atoms: C_4  and  C_5 
REMARK    5  A    between atoms: C_5  and  C_6 
REMARK    6  A    between atoms: C_6  and  C_7 
REMARK    7  A    between atoms: C_7  and  C_9 
REMARK    8  A    between atoms: C_7  and  O_22 
REMARK    9  A    between atoms: C_9  and  C_10 
REMARK   10  A    between atoms: C_11  and  C_12 
REMARK   11  A    between atoms: C_12  and  C_13 
REMARK   12  A    between atoms: C_13  and  C_14 
REMARK   13  A    between atoms: C_14  and  C_15 
REMARK   14  A    between atoms: C_15  and  C_16 
REMARK   15  A    between atoms: C_16  and  C_17 
REMARK   16  A    between atoms: C_17  and  C_18 
REMARK   17  A    between atoms: C_18  and  C_19 
ROOT
ATOM      1  C   LIG d   1       5.945   0.876  -3.426  0.00  0.00    -0.086 C 
ATOM      2  C   LIG d   1       5.365   1.251  -2.314  0.00  0.00    -0.088 C 
ATOM      3  H   LIG d   1       5.432   0.214  -4.107  0.00  0.00     0.057 H 
ATOM      4  H   LIG d   1       5.878   1.913  -1.632  0.00  0.00     0.057 H 
ENDROOT
BRANCH   1   5
ATOM      5  C   LIG d   1       7.331   1.370  -3.756  0.00  0.00    -0.009 C 
ATOM      6  H   LIG d   1       8.036   0.998  -3.013  0.00  0.00     0.033 H 
ATOM      7  H   LIG d   1       7.339   2.460  -3.752  0.00  0.00     0.033 H 
BRANCH   5   8
ATOM      8  C   LIG d   1       7.735   0.862  -5.142  0.00  0.00     0.059 C 
ATOM      9  H   LIG d   1       8.700   0.360  -5.079  0.00  0.00     0.060 H 
BRANCH   8  10
ATOM     10  C   LIG d   1       6.680  -0.123  -5.651  0.00  0.00    -0.027 C 
ATOM     11  H   LIG d   1       5.739   0.050  -5.128  0.00  0.00     0.029 H 
ATOM     12  H   LIG d   1       7.016  -1.143  -5.467  0.00  0.00     0.029 H 
BRANCH  10  13
ATOM     13  C   LIG d   1       6.473   0.083  -7.153  0.00  0.00    -0.051 C 
ATOM     14  H   LIG d   1       7.320  -0.336  -7.697  0.00  0.00     0.027 H 
ATOM     15  H   LIG d   1       6.395   1.149  -7.366  0.00  0.00     0.027 H 
BRANCH  13  16
ATOM     16  C   LIG d   1       5.187  -0.620  -7.592  0.00  0.00    -0.053 C 
ATOM     17  H   LIG d   1       5.295  -1.696  -7.453  0.00  0.00     0.026 H 
ATOM     18  H   LIG d   1       4.999  -0.409  -8.645  0.00  0.00     0.026 H 
BRANCH  16  19
ATOM     19  C   LIG d   1       4.015  -0.112  -6.752  0.00  0.00    -0.053 C 
ATOM     20  H   LIG d   1       4.282   0.840  -6.293  0.00  0.00     0.026 H 
ATOM     21  H   LIG d   1       3.785  -0.839  -5.973  0.00  0.00     0.026 H 
BRANCH  19  22
ATOM     22  C   LIG d   1       2.789   0.079  -7.648  0.00  0.00    -0.056 C 
ATOM     23  H   LIG d   1       1.890   0.106  -7.032  0.00  0.00     0.026 H 
ATOM     24  H   LIG d   1       2.722  -0.750  -8.352  0.00  0.00     0.026 H 
BRANCH  22  25
ATOM     25  C   LIG d   1       2.920   1.394  -8.418  0.00  0.00    -0.065 C 
ATOM     26  H   LIG d   1       2.770   2.231  -7.735  0.00  0.00     0.023 H 
ATOM     27  H   LIG d   1       3.914   1.460  -8.860  0.00  0.00     0.023 H 
ATOM     28  H   LIG d   1       2.168   1.430  -9.206  0.00  0.00     0.023 H 
ENDBRANCH  22  25
ENDBRANCH  19  22
ENDBRANCH  16  19
ENDBRANCH  13  16
ENDBRANCH  10  13
ENDBRANCH   8  10
BRANCH   8  29
ATOM     29  O   LIG d   1       7.830   1.966  -6.044  0.00  0.00    -0.392 OA
ATOM     30  H   LIG d   1       7.980   1.711  -6.965  0.00  0.00     0.210 HD
ENDBRANCH   8  29
ENDBRANCH   5   8
ENDBRANCH   1   5
BRANCH   2  31
ATOM     31  C   LIG d   1       3.979   0.758  -1.984  0.00  0.00    -0.035 C 
ATOM     32  H   LIG d   1       4.049  -0.093  -1.305  0.00  0.00     0.031 H 
ATOM     33  H   LIG d   1       3.413   1.557  -1.508  0.00  0.00     0.031 H 
BRANCH  31  34
ATOM     34  C   LIG d   1       3.271   0.327  -3.270  0.00  0.00    -0.050 C 
ATOM     35  H   LIG d   1       2.384   0.942  -3.419  0.00  0.00     0.027 H 
ATOM     36  H   LIG d   1       3.947   0.453  -4.116  0.00  0.00     0.027 H 
BRANCH  34  37
ATOM     37  C   LIG d   1       2.860  -1.142  -3.158  0.00  0.00    -0.053 C 
ATOM     38  H   LIG d   1       1.874  -1.210  -2.700  0.00  0.00     0.026 H 
ATOM     39  H   LIG d   1       2.831  -1.588  -4.151  0.00  0.00     0.026 H 
BRANCH  37  40
ATOM     40  C   LIG d   1       3.876  -1.890  -2.292  0.00  0.00    -0.053 C 
ATOM     41  H   LIG d   1       4.302  -1.206  -1.559  0.00  0.00     0.026 H 
ATOM     42  H   LIG d   1       3.380  -2.712  -1.777  0.00  0.00     0.026 H 
BRANCH  40  43
ATOM     43  C   LIG d   1       4.992  -2.446  -3.180  0.00  0.00    -0.053 C 
ATOM     44  H   LIG d   1       5.783  -1.702  -3.277  0.00  0.00     0.026 H 
ATOM     45  H   LIG d   1       5.399  -3.350  -2.728  0.00  0.00     0.026 H 
BRANCH  43  46
ATOM     46  C   LIG d   1       4.428  -2.775  -4.563  0.00  0.00    -0.048 C 
ATOM     47  H   LIG d   1       3.346  -2.892  -4.496  0.00  0.00     0.027 H 
ATOM     48  H   LIG d   1       4.662  -1.964  -5.253  0.00  0.00     0.027 H 
BRANCH  46  49
ATOM     49  C   LIG d   1       5.053  -4.075  -5.072  0.00  0.00    -0.013 C 
ATOM     50  H   LIG d   1       6.094  -3.897  -5.340  0.00  0.00     0.033 H 
ATOM     51  H   LIG d   1       5.002  -4.833  -4.290  0.00  0.00     0.033 H 
BRANCH  49  52
ATOM     52  C   LIG d   1       4.297  -4.554  -6.285  0.00  0.00     0.042 C 
ATOM     53  O   LIG d   1       4.516  -4.055  -7.376  0.00  0.00    -0.550 OA
ATOM     54  O   LIG d   1       3.466  -5.440  -6.175  0.00  0.00    -0.550 OA
ENDBRANCH  49  52
ENDBRANCH  46  49
ENDBRANCH  43  46
ENDBRANCH  40  43
ENDBRANCH  37  40
ENDBRANCH  34  37
ENDBRANCH  31  34
ENDBRANCH   2  31
TORSDOF 17
ENDMDL
MODEL 7
REMARK VINA RESULT:      -4.9      2.157      4.172
REMARK  17 active torsions:
REMARK  status: ('A' for Active; 'I' for Inactive)
REMARK    1  A    between atoms: C_1  and  C_2 
REMARK    2  A    between atoms: C_2  and  C_3 
REMARK    3  A    between atoms: C_3  and  C_4 
REMARK    4  A    between atoms: C_4  and  C_5 
REMARK    5  A    between atoms: C_5  and  C_6 
REMARK    6  A    between atoms: C_6  and  C_7 
REMARK    7  A    between atoms: C_7  and  C_9 
REMARK    8  A    between atoms: C_7  and  O_22 
REMARK    9  A    between atoms: C_9  and  C_10 
REMARK   10  A    between atoms: C_11  and  C_12 
REMARK   11  A    between atoms: C_12  and  C_13 
REMARK   12  A    between atoms: C_13  and  C_14 
REMARK   13  A    between atoms: C_14  and  C_15 
REMARK   14  A    between atoms: C_15  and  C_16 
REMARK   15  A    between atoms: C_16  and  C_17 
REMARK   16  A    between atoms: C_17  and  C_18 
REMARK   17  A    between atoms: C_18  and  C_19 
ROOT
ATOM      1  C   LIG d   1       4.390  -2.595  -3.714  0.00  0.00    -0.086 C 
ATOM      2  C   LIG d   1       5.664  -2.721  -3.991  0.00  0.00    -0.088 C 
ATOM      3  H   LIG d   1       3.648  -3.005  -4.382  0.00  0.00     0.057 H 
ATOM      4  H   LIG d   1       6.406  -2.311  -3.323  0.00  0.00     0.057 H 
ENDROOT
BRANCH   1   5
ATOM      5  C   LIG d   1       3.960  -1.877  -2.460  0.00  0.00    -0.009 C 
ATOM      6  H   LIG d   1       4.804  -1.321  -2.052  0.00  0.00     0.033 H 
ATOM      7  H   LIG d   1       3.614  -2.604  -1.725  0.00  0.00     0.033 H 
BRANCH   5   8
ATOM      8  C   LIG d   1       2.823  -0.908  -2.793  0.00  0.00     0.059 C 
ATOM      9  H   LIG d   1       1.954  -1.143  -2.179  0.00  0.00     0.060 H 
BRANCH   8  10
ATOM     10  C   LIG d   1       3.276   0.526  -2.507  0.00  0.00    -0.027 C 
ATOM     11  H   LIG d   1       2.623   0.972  -1.757  0.00  0.00     0.029 H 
ATOM     12  H   LIG d   1       3.229   1.112  -3.425  0.00  0.00     0.029 H 
BRANCH  10  13
ATOM     13  C   LIG d   1       4.715   0.511  -1.986  0.00  0.00    -0.051 C 
ATOM     14  H   LIG d   1       5.111  -0.503  -2.042  0.00  0.00     0.027 H 
ATOM     15  H   LIG d   1       4.729   0.850  -0.950  0.00  0.00     0.027 H 
BRANCH  13  16
ATOM     16  C   LIG d   1       5.577   1.442  -2.839  0.00  0.00    -0.053 C 
ATOM     17  H   LIG d   1       5.966   2.249  -2.218  0.00  0.00     0.026 H 
ATOM     18  H   LIG d   1       4.971   1.865  -3.642  0.00  0.00     0.026 H 
BRANCH  16  19
ATOM     19  C   LIG d   1       6.741   0.654  -3.440  0.00  0.00    -0.053 C 
ATOM     20  H   LIG d   1       6.385   0.069  -4.289  0.00  0.00     0.026 H 
ATOM     21  H   LIG d   1       7.153  -0.017  -2.685  0.00  0.00     0.026 H 
BRANCH  19  22
ATOM     22  C   LIG d   1       7.828   1.623  -3.907  0.00  0.00    -0.056 C 
ATOM     23  H   LIG d   1       8.470   1.883  -3.065  0.00  0.00     0.026 H 
ATOM     24  H   LIG d   1       7.364   2.526  -4.302  0.00  0.00     0.026 H 
BRANCH  22  25
ATOM     25  C   LIG d   1       8.667   0.960  -5.002  0.00  0.00    -0.065 C 
ATOM     26  H   LIG d   1       8.020   0.670  -5.830  0.00  0.00     0.023 H 
ATOM     27  H   LIG d   1       9.421   1.662  -5.357  0.00  0.00     0.023 H 
ATOM     28  H   LIG d   1       9.157   0.074  -4.597  0.00  0.00     0.023 H 
ENDBRANCH  22  25
ENDBRANCH  19  22
ENDBRANCH  16  19
ENDBRANCH  13  16
ENDBRANCH  10  13
ENDBRANCH   8  10
BRANCH   8  29
ATOM     29  O   LIG d   1       2.481  -1.033  -4.174  0.00  0.00    -0.392 OA
ATOM     30  H   LIG d   1       3.093  -1.582  -4.684  0.00  0.00     0.210 HD
ENDBRANCH   8  29
ENDBRANCH   5   8
ENDBRANCH   1   5
BRANCH   2  31
ATOM     31  C   LIG d   1       6.094  -3.439  -5.244  0.00  0.00    -0.035 C 
ATOM     32  H   LIG d   1       7.183  -3.456  -5.298  0.00  0.00     0.031 H 
ATOM     33  H   LIG d   1       5.715  -4.460  -5.227  0.00  0.00     0.031 H 
BRANCH  31  34
ATOM     34  C   LIG d   1       5.535  -2.709  -6.468  0.00  0.00    -0.050 C 
ATOM     35  H   LIG d   1       5.703  -3.314  -7.359  0.00  0.00     0.027 H 
ATOM     36  H   LIG d   1       4.466  -2.545  -6.335  0.00  0.00     0.027 H 
BRANCH  34  37
ATOM     37  C   LIG d   1       6.243  -1.362  -6.625  0.00  0.00    -0.053 C 
ATOM     38  H   LIG d   1       6.821  -1.148  -5.726  0.00  0.00     0.026 H 
ATOM     39  H   LIG d   1       6.910  -1.400  -7.485  0.00  0.00     0.026 H 
BRANCH  37  40
ATOM     40  C   LIG d   1       5.202  -0.261  -6.835  0.00  0.00    -0.053 C 
ATOM     41  H   LIG d   1       4.972   0.208  -5.878  0.00  0.00     0.026 H 
ATOM     42  H   LIG d   1       5.597   0.488  -7.522  0.00  0.00     0.026 H 
BRANCH  40  43
ATOM     43  C   LIG d   1       3.927  -0.869  -7.423  0.00  0.00    -0.053 C 
ATOM     44  H   LIG d   1       4.140  -1.270  -8.414  0.00  0.00     0.026 H 
ATOM     45  H   LIG d   1       3.575  -1.672  -6.775  0.00  0.00     0.026 H 
BRANCH  43  46
ATOM     46  C   LIG d   1       2.848   0.210  -7.530  0.00  0.00    -0.048 C 
ATOM     47  H   LIG d   1       1.928  -0.148  -7.066  0.00  0.00     0.027 H 
ATOM     48  H   LIG d   1       3.185   1.112  -7.019  0.00  0.00     0.027 H 
BRANCH  46  49
ATOM     49  C   LIG d   1       2.587   0.526  -9.004  0.00  0.00    -0.013 C 
ATOM     50  H   LIG d   1       2.876  -0.328  -9.615  0.00  0.00     0.033 H 
ATOM     51  H   LIG d   1       1.526   0.734  -9.148  0.00  0.00     0.033 H 
BRANCH  49  52
ATOM     52  C   LIG d   1       3.395   1.732  -9.410  0.00  0.00     0.042 C 
ATOM     53  O   LIG d   1       3.712   2.562  -8.576  0.00  0.00    -0.550 OA
ATOM     54  O   LIG d   1       3.730   1.877 -10.574  0.00  0.00    -0.550 OA
ENDBRANCH  49  52
ENDBRANCH  46  49
ENDBRANCH  43  46
ENDBRANCH  40  43
ENDBRANCH  37  40
ENDBRANCH  34  37
ENDBRANCH  31  34
ENDBRANCH   2  31
TORSDOF 17
ENDMDL
MODEL 8
REMARK VINA RESULT:      -4.9      1.553      2.860
REMARK  17 active torsions:
REMARK  status: ('A' for Active; 'I' for Inactive)
REMARK    1  A    between atoms: C_1  and  C_2 
REMARK    2  A    between atoms: C_2  and  C_3 
REMARK    3  A    between atoms: C_3  and  C_4 
REMARK    4  A    between atoms: C_4  and  C_5 
REMARK    5  A    between atoms: C_5  and  C_6 
REMARK    6  A    between atoms: C_6  and  C_7 
REMARK    7  A    between atoms: C_7  and  C_9 
REMARK    8  A    between atoms: C_7  and  O_22 
REMARK    9  A    between atoms: C_9  and  C_10 
REMARK   10  A    between atoms: C_11  and  C_12 
REMARK   11  A    between atoms: C_12  and  C_13 
REMARK   12  A    between atoms: C_13  and  C_14 
REMARK   13  A    between atoms: C_14  and  C_15 
REMARK   14  A    between atoms: C_15  and  C_16 
REMARK   15  A    between atoms: C_16  and  C_17 
REMARK   16  A    between atoms: C_17  and  C_18 
REMARK   17  A    between atoms: C_18  and  C_19 
ROOT
ATOM      1  C   LIG d   1       2.933   0.217  -5.023  0.00  0.00    -0.086 C 
ATOM      2  C   LIG d   1       3.066   0.647  -6.252  0.00  0.00    -0.088 C 
ATOM      3  H   LIG d   1       2.529  -0.767  -4.834  0.00  0.00     0.057 H 
ATOM      4  H   LIG d   1       3.471   1.630  -6.441  0.00  0.00     0.057 H 
ENDROOT
BRANCH   1   5
ATOM      5  C   LIG d   1       3.346   1.095  -3.869  0.00  0.00    -0.009 C 
ATOM      6  H   LIG d   1       2.709   1.979  -3.838  0.00  0.00     0.033 H 
ATOM      7  H   LIG d   1       4.385   1.400  -3.998  0.00  0.00     0.033 H 
BRANCH   5   8
ATOM      8  C   LIG d   1       3.202   0.316  -2.559  0.00  0.00     0.059 C 
ATOM      9  H   LIG d   1       2.416   0.766  -1.954  0.00  0.00     0.060 H 
BRANCH   8  10
ATOM     10  C   LIG d   1       2.838  -1.138  -2.870  0.00  0.00    -0.027 C 
ATOM     11  H   LIG d   1       2.715  -1.260  -3.946  0.00  0.00     0.029 H 
ATOM     12  H   LIG d   1       1.906  -1.395  -2.366  0.00  0.00     0.029 H 
BRANCH  10  13
ATOM     13  C   LIG d   1       3.956  -2.059  -2.378  0.00  0.00    -0.051 C 
ATOM     14  H   LIG d   1       3.545  -2.791  -1.682  0.00  0.00     0.027 H 
ATOM     15  H   LIG d   1       4.719  -1.467  -1.874  0.00  0.00     0.027 H 
BRANCH  13  16
ATOM     16  C   LIG d   1       4.580  -2.786  -3.570  0.00  0.00    -0.053 C 
ATOM     17  H   LIG d   1       3.860  -2.829  -4.388  0.00  0.00     0.026 H 
ATOM     18  H   LIG d   1       4.853  -3.800  -3.276  0.00  0.00     0.026 H 
BRANCH  16  19
ATOM     19  C   LIG d   1       5.830  -2.035  -4.029  0.00  0.00    -0.053 C 
ATOM     20  H   LIG d   1       6.709  -2.455  -3.538  0.00  0.00     0.026 H 
ATOM     21  H   LIG d   1       5.737  -0.981  -3.767  0.00  0.00     0.026 H 
BRANCH  19  22
ATOM     22  C   LIG d   1       5.980  -2.170  -5.546  0.00  0.00    -0.056 C 
ATOM     23  H   LIG d   1       6.898  -2.712  -5.773  0.00  0.00     0.026 H 
ATOM     24  H   LIG d   1       6.022  -1.179  -5.996  0.00  0.00     0.026 H 
BRANCH  22  25
ATOM     25  C   LIG d   1       4.782  -2.937  -6.110  0.00  0.00    -0.065 C 
ATOM     26  H   LIG d   1       4.522  -2.534  -7.089  0.00  0.00     0.023 H 
ATOM     27  H   LIG d   1       5.039  -3.992  -6.208  0.00  0.00     0.023 H 
ATOM     28  H   LIG d   1       3.933  -2.830  -5.436  0.00  0.00     0.023 H 
ENDBRANCH  22  25
ENDBRANCH  19  22
ENDBRANCH  16  19
ENDBRANCH  13  16
ENDBRANCH  10  13
ENDBRANCH   8  10
BRANCH   8  29
ATOM     29  O   LIG d   1       4.438   0.355  -1.844  0.00  0.00    -0.392 OA
ATOM     30  H   LIG d   1       5.219   0.219  -2.398  0.00  0.00     0.210 HD
ENDBRANCH   8  29
ENDBRANCH   5   8
ENDBRANCH   1   5
BRANCH   2  31
ATOM     31  C   LIG d   1       2.654  -0.231  -7.406  0.00  0.00    -0.035 C 
ATOM     32  H   LIG d   1       3.377  -1.039  -7.524  0.00  0.00     0.031 H 
ATOM     33  H   LIG d   1       1.668  -0.651  -7.209  0.00  0.00     0.031 H 
BRANCH  31  34
ATOM     34  C   LIG d   1       2.606   0.602  -8.689  0.00  0.00    -0.050 C 
ATOM     35  H   LIG d   1       3.379   0.256  -9.375  0.00  0.00     0.027 H 
ATOM     36  H   LIG d   1       1.628   0.491  -9.157  0.00  0.00     0.027 H 
BRANCH  34  37
ATOM     37  C   LIG d   1       2.846   2.074  -8.350  0.00  0.00    -0.053 C 
ATOM     38  H   LIG d   1       1.899   2.613  -8.379  0.00  0.00     0.026 H 
ATOM     39  H   LIG d   1       3.277   2.152  -7.352  0.00  0.00     0.026 H 
BRANCH  37  40
ATOM     40  C   LIG d   1       3.810   2.681  -9.371  0.00  0.00    -0.053 C 
ATOM     41  H   LIG d   1       3.258   2.963 -10.268  0.00  0.00     0.026 H 
ATOM     42  H   LIG d   1       4.285   3.564  -8.944  0.00  0.00     0.026 H 
BRANCH  40  43
ATOM     43  C   LIG d   1       4.883   1.652  -9.736  0.00  0.00    -0.053 C 
ATOM     44  H   LIG d   1       4.477   0.648  -9.617  0.00  0.00     0.026 H 
ATOM     45  H   LIG d   1       5.190   1.800 -10.771  0.00  0.00     0.026 H 
BRANCH  43  46
ATOM     46  C   LIG d   1       6.091   1.827  -8.814  0.00  0.00    -0.048 C 
ATOM     47  H   LIG d   1       6.957   2.131  -9.404  0.00  0.00     0.027 H 
ATOM     48  H   LIG d   1       5.873   2.594  -8.070  0.00  0.00     0.027 H 
BRANCH  46  49
ATOM     49  C   LIG d   1       6.391   0.503  -8.110  0.00  0.00    -0.013 C 
ATOM     50  H   LIG d   1       5.483   0.127  -7.640  0.00  0.00     0.033 H 
ATOM     51  H   LIG d   1       6.751  -0.223  -8.840  0.00  0.00     0.033 H 
BRANCH  49  52
ATOM     52  C   LIG d   1       7.448   0.722  -7.057  0.00  0.00     0.042 C 
ATOM     53  O   LIG d   1       7.260   1.533  -6.166  0.00  0.00    -0.550 OA
ATOM     54  O   LIG d   1       8.489   0.089  -7.097  0.00  0.00    -0.550 OA
ENDBRANCH  49  52
ENDBRANCH  46  49
ENDBRANCH  43  46
ENDBRANCH  40  43
ENDBRANCH  37  40
ENDBRANCH  34  37
ENDBRANCH  31  34
ENDBRANCH   2  31
TORSDOF 17
ENDMDL
MODEL 9
REMARK VINA RESULT:      -4.8      2.345      6.236
REMARK  17 active torsions:
REMARK  status: ('A' for Active; 'I' for Inactive)
REMARK    1  A    between atoms: C_1  and  C_2 
REMARK    2  A    between atoms: C_2  and  C_3 
REMARK    3  A    between atoms: C_3  and  C_4 
REMARK    4  A    between atoms: C_4  and  C_5 
REMARK    5  A    between atoms: C_5  and  C_6 
REMARK    6  A    between atoms: C_6  and  C_7 
REMARK    7  A    between atoms: C_7  and  C_9 
REMARK    8  A    between atoms: C_7  and  O_22 
REMARK    9  A    between atoms: C_9  and  C_10 
REMARK   10  A    between atoms: C_11  and  C_12 
REMARK   11  A    between atoms: C_12  and  C_13 
REMARK   12  A    between atoms: C_13  and  C_14 
REMARK   13  A    between atoms: C_14  and  C_15 
REMARK   14  A    between atoms: C_15  and  C_16 
REMARK   15  A    between atoms: C_16  and  C_17 
REMARK   16  A    between atoms: C_17  and  C_18 
REMARK   17  A    between atoms: C_18  and  C_19 
ROOT
ATOM      1  C   LIG d   1       2.367  -0.195  -8.029  0.00  0.00    -0.086 C 
ATOM      2  C   LIG d   1       3.071  -0.389  -6.943  0.00  0.00    -0.088 C 
ATOM      3  H   LIG d   1       1.840   0.738  -8.173  0.00  0.00     0.057 H 
ATOM      4  H   LIG d   1       3.598  -1.321  -6.800  0.00  0.00     0.057 H 
ENDROOT
BRANCH   1   5
ATOM      5  C   LIG d   1       2.291  -1.272  -9.082  0.00  0.00    -0.009 C 
ATOM      6  H   LIG d   1       1.459  -1.939  -8.859  0.00  0.00     0.033 H 
ATOM      7  H   LIG d   1       3.222  -1.839  -9.088  0.00  0.00     0.033 H 
BRANCH   5   8
ATOM      8  C   LIG d   1       2.077  -0.628 -10.454  0.00  0.00     0.059 C 
ATOM      9  H   LIG d   1       2.241   0.446 -10.381  0.00  0.00     0.060 H 
BRANCH   8  10
ATOM     10  C   LIG d   1       3.064  -1.229 -11.457  0.00  0.00    -0.027 C 
ATOM     11  H   LIG d   1       2.514  -1.746 -12.243  0.00  0.00     0.029 H 
ATOM     12  H   LIG d   1       3.717  -1.935 -10.945  0.00  0.00     0.029 H 
BRANCH  10  13
ATOM     13  C   LIG d   1       3.906  -0.110 -12.075  0.00  0.00    -0.051 C 
ATOM     14  H   LIG d   1       3.427   0.243 -12.989  0.00  0.00     0.027 H 
ATOM     15  H   LIG d   1       4.900  -0.490 -12.309  0.00  0.00     0.027 H 
BRANCH  13  16
ATOM     16  C   LIG d   1       4.024   1.047 -11.082  0.00  0.00    -0.053 C 
ATOM     17  H   LIG d   1       3.134   1.079 -10.453  0.00  0.00     0.026 H 
ATOM     18  H   LIG d   1       4.114   1.987 -11.628  0.00  0.00     0.026 H 
BRANCH  16  19
ATOM     19  C   LIG d   1       5.261   0.846 -10.207  0.00  0.00    -0.053 C 
ATOM     20  H   LIG d   1       6.159   0.927 -10.821  0.00  0.00     0.026 H 
ATOM     21  H   LIG d   1       5.224  -0.143  -9.748  0.00  0.00     0.026 H 
BRANCH  19  22
ATOM     22  C   LIG d   1       5.292   1.914  -9.112  0.00  0.00    -0.056 C 
ATOM     23  H   LIG d   1       6.188   2.524  -9.227  0.00  0.00     0.026 H 
ATOM     24  H   LIG d   1       5.304   1.432  -8.135  0.00  0.00     0.026 H 
BRANCH  22  25
ATOM     25  C   LIG d   1       4.051   2.801  -9.229  0.00  0.00    -0.065 C 
ATOM     26  H   LIG d   1       3.960   3.417  -8.334  0.00  0.00     0.023 H 
ATOM     27  H   LIG d   1       4.145   3.443 -10.105  0.00  0.00     0.023 H 
ATOM     28  H   LIG d   1       3.166   2.174  -9.330  0.00  0.00     0.023 H 
ENDBRANCH  22  25
ENDBRANCH  19  22
ENDBRANCH  16  19
ENDBRANCH  13  16
ENDBRANCH  10  13
ENDBRANCH   8  10
BRANCH   8  29
ATOM     29  O   LIG d   1       0.740  -0.878 -10.893  0.00  0.00    -0.392 OA
ATOM     30  H   LIG d   1       0.428  -0.267 -11.574  0.00  0.00     0.210 HD
ENDBRANCH   8  29
ENDBRANCH   5   8
ENDBRANCH   1   5
BRANCH   2  31
ATOM     31  C   LIG d   1       3.147   0.687  -5.891  0.00  0.00    -0.035 C 
ATOM     32  H   LIG d   1       4.161   0.735  -5.493  0.00  0.00     0.031 H 
ATOM     33  H   LIG d   1       2.886   1.648  -6.334  0.00  0.00     0.031 H 
BRANCH  31  34
ATOM     34  C   LIG d   1       2.169   0.365  -4.759  0.00  0.00    -0.050 C 
ATOM     35  H   LIG d   1       1.959   1.271  -4.192  0.00  0.00     0.027 H 
ATOM     36  H   LIG d   1       1.243  -0.025  -5.180  0.00  0.00     0.027 H 
BRANCH  34  37
ATOM     37  C   LIG d   1       2.790  -0.683  -3.834  0.00  0.00    -0.053 C 
ATOM     38  H   LIG d   1       2.032  -1.414  -3.551  0.00  0.00     0.026 H 
ATOM     39  H   LIG d   1       3.606  -1.188  -4.350  0.00  0.00     0.026 H 
BRANCH  37  40
ATOM     40  C   LIG d   1       3.329   0.003  -2.576  0.00  0.00    -0.053 C 
ATOM     41  H   LIG d   1       3.805   0.944  -2.852  0.00  0.00     0.026 H 
ATOM     42  H   LIG d   1       2.507   0.198  -1.887  0.00  0.00     0.026 H 
BRANCH  40  43
ATOM     43  C   LIG d   1       4.356  -0.908  -1.899  0.00  0.00    -0.053 C 
ATOM     44  H   LIG d   1       5.070  -0.300  -1.344  0.00  0.00     0.026 H 
ATOM     45  H   LIG d   1       3.844  -1.584  -1.213  0.00  0.00     0.026 H 
BRANCH  43  46
ATOM     46  C   LIG d   1       5.096  -1.723  -2.961  0.00  0.00    -0.048 C 
ATOM     47  H   LIG d   1       5.226  -2.747  -2.608  0.00  0.00     0.027 H 
ATOM     48  H   LIG d   1       4.515  -1.729  -3.884  0.00  0.00     0.027 H 
BRANCH  46  49
ATOM     49  C   LIG d   1       6.465  -1.094  -3.224  0.00  0.00    -0.013 C 
ATOM     50  H   LIG d   1       6.728  -0.436  -2.396  0.00  0.00     0.033 H 
ATOM     51  H   LIG d   1       7.215  -1.881  -3.315  0.00  0.00     0.033 H 
BRANCH  49  52
ATOM     52  C   LIG d   1       6.415  -0.298  -4.502  0.00  0.00     0.042 C 
ATOM     53  O   LIG d   1       6.371  -0.872  -5.577  0.00  0.00    -0.550 OA
ATOM     54  O   LIG d   1       6.420   0.921  -4.462  0.00  0.00    -0.550 OA
ENDBRANCH  49  52
ENDBRANCH  46  49
ENDBRANCH  43  46
ENDBRANCH  40  43
ENDBRANCH  37  40
ENDBRANCH  34  37
ENDBRANCH  31  34
ENDBRANCH   2  31
TORSDOF 17
ENDMDL
