MODEL 1
REMARK VINA RESULT:      -6.1      0.000      0.000
REMARK  8 active torsions:
REMARK  status: ('A' for Active; 'I' for Inactive)
REMARK    1  A    between atoms: C_1  and  C_2 
REMARK    2  A    between atoms: C_2  and  C_25 
REMARK    3  A    between atoms: C_3  and  C_4 
REMARK    4  A    between atoms: C_4  and  O_5 
REMARK    5  A    between atoms: O_5  and  C_6 
REMARK    6  A    between atoms: C_11  and  C_17 
REMARK    7  A    between atoms: C_20  and  O_23 
REMARK    8  A    between atoms: O_23  and  C_24 
ROOT
ATOM      1  C   LIG d   1       3.223   0.421  -7.067  0.00  0.00     0.124 A 
ATOM      2  C   LIG d   1       2.892   1.476  -7.915  0.00  0.00    -0.019 A 
ATOM      3  C   LIG d   1       2.527   1.235  -9.207  0.00  0.00    -0.048 A 
ATOM      4  C   LIG d   1       2.485  -0.083  -9.688  0.00  0.00     0.018 A 
ATOM      5  C   LIG d   1       2.105  -0.339 -11.031  0.00  0.00    -0.036 A 
ATOM      6  C   LIG d   1       2.073  -1.634 -11.473  0.00  0.00     0.067 A 
ATOM      7  C   LIG d   1       2.429  -2.711 -10.546  0.00  0.00     0.345 A 
ATOM      8  O   LIG d   1       2.406  -3.868 -10.923  0.00  0.00    -0.244 OA
ATOM      9  O   LIG d   1       2.782  -2.426  -9.282  0.00  0.00    -0.422 OA
ATOM     10  C   LIG d   1       2.817  -1.151  -8.835  0.00  0.00     0.143 A 
ATOM     11  C   LIG d   1       3.186  -0.885  -7.524  0.00  0.00     0.023 A 
ATOM     12  H   LIG d   1       2.924   2.491  -7.548  0.00  0.00     0.065 H 
ATOM     13  H   LIG d   1       2.272   2.057  -9.859  0.00  0.00     0.063 H 
ATOM     14  H   LIG d   1       1.847   0.474 -11.694  0.00  0.00     0.063 H 
ATOM     15  H   LIG d   1       3.444  -1.697  -6.860  0.00  0.00     0.069 H 
ENDROOT
BRANCH   1  16
ATOM     16  O   LIG d   1       3.578   0.676  -5.781  0.00  0.00    -0.488 OA
BRANCH  16  17
ATOM     17  C   LIG d   1       2.663   0.267  -4.763  0.00  0.00     0.108 C 
ATOM     18  H   LIG d   1       2.375   1.131  -4.163  0.00  0.00     0.074 H 
ATOM     19  H   LIG d   1       1.775  -0.167  -5.224  0.00  0.00     0.074 H 
BRANCH  17  20
ATOM     20  C   LIG d   1       3.322  -0.760  -3.878  0.00  0.00    -0.048 C 
ATOM     21  C   LIG d   1       3.792  -0.410  -2.706  0.00  0.00    -0.076 C 
ATOM     22  H   LIG d   1       3.407  -1.784  -4.210  0.00  0.00     0.060 H 
BRANCH  21  23
ATOM     23  C   LIG d   1       3.790   1.040  -2.296  0.00  0.00    -0.044 C 
ATOM     24  H   LIG d   1       4.795   1.333  -1.990  0.00  0.00     0.027 H 
ATOM     25  H   LIG d   1       3.474   1.656  -3.137  0.00  0.00     0.027 H 
ATOM     26  H   LIG d   1       3.101   1.181  -1.463  0.00  0.00     0.027 H 
ENDBRANCH  21  23
BRANCH  21  27
ATOM     27  C   LIG d   1       4.335  -1.457  -1.769  0.00  0.00    -0.044 C 
ATOM     28  H   LIG d   1       3.580  -2.227  -1.607  0.00  0.00     0.027 H 
ATOM     29  H   LIG d   1       5.226  -1.909  -2.205  0.00  0.00     0.027 H 
ATOM     30  H   LIG d   1       4.592  -0.995  -0.816  0.00  0.00     0.027 H 
ENDBRANCH  21  27
ENDBRANCH  17  20
ENDBRANCH  16  17
ENDBRANCH   1  16
BRANCH   6  31
ATOM     31  C   LIG d   1       1.682  -1.942 -12.868  0.00  0.00    -0.011 A 
ATOM     32  C   LIG d   1       0.347  -2.195 -13.181  0.00  0.00    -0.050 A 
ATOM     33  C   LIG d   1      -0.013  -2.483 -14.480  0.00  0.00    -0.019 A 
ATOM     34  H   LIG d   1      -0.405  -2.167 -12.406  0.00  0.00     0.062 H 
ATOM     35  C   LIG d   1       0.951  -2.519 -15.478  0.00  0.00     0.120 A 
ATOM     36  H   LIG d   1      -1.048  -2.680 -14.723  0.00  0.00     0.065 H 
ATOM     37  C   LIG d   1       2.283  -2.267 -15.171  0.00  0.00    -0.019 A 
ATOM     38  C   LIG d   1       2.649  -1.974 -13.874  0.00  0.00    -0.050 A 
ATOM     39  H   LIG d   1       3.030  -2.297 -15.949  0.00  0.00     0.065 H 
ATOM     40  H   LIG d   1       3.683  -1.775 -13.636  0.00  0.00     0.062 H 
BRANCH  35  41
ATOM     41  O   LIG d   1       0.594  -2.802 -16.758  0.00  0.00    -0.495 OA
BRANCH  41  42
ATOM     42  C   LIG d   1       0.366  -1.692 -17.629  0.00  0.00     0.079 C 
ATOM     43  H   LIG d   1       1.315  -1.205 -17.853  0.00  0.00     0.066 H 
ATOM     44  H   LIG d   1      -0.089  -2.045 -18.555  0.00  0.00     0.066 H 
ATOM     45  H   LIG d   1      -0.303  -0.981 -17.145  0.00  0.00     0.066 H 
ENDBRANCH  41  42
ENDBRANCH  35  41
ENDBRANCH   6  31
TORSDOF 8
ENDMDL
MODEL 2
REMARK VINA RESULT:      -6.0      1.116      1.675
REMARK  8 active torsions:
REMARK  status: ('A' for Active; 'I' for Inactive)
REMARK    1  A    between atoms: C_1  and  C_2 
REMARK    2  A    between atoms: C_2  and  C_25 
REMARK    3  A    between atoms: C_3  and  C_4 
REMARK    4  A    between atoms: C_4  and  O_5 
REMARK    5  A    between atoms: O_5  and  C_6 
REMARK    6  A    between atoms: C_11  and  C_17 
REMARK    7  A    between atoms: C_20  and  O_23 
REMARK    8  A    between atoms: O_23  and  C_24 
ROOT
ATOM      1  C   LIG d   1       2.728   1.088  -7.260  0.00  0.00     0.124 A 
ATOM      2  C   LIG d   1       2.942   2.035  -8.260  0.00  0.00    -0.019 A 
ATOM      3  C   LIG d   1       3.012   1.655  -9.567  0.00  0.00    -0.048 A 
ATOM      4  C   LIG d   1       2.870   0.302  -9.912  0.00  0.00     0.018 A 
ATOM      5  C   LIG d   1       2.943  -0.098 -11.271  0.00  0.00    -0.036 A 
ATOM      6  C   LIG d   1       2.801  -1.425 -11.577  0.00  0.00     0.067 A 
ATOM      7  C   LIG d   1       2.577  -2.386 -10.494  0.00  0.00     0.345 A 
ATOM      8  O   LIG d   1       2.449  -3.569 -10.749  0.00  0.00    -0.244 OA
ATOM      9  O   LIG d   1       2.515  -1.965  -9.220  0.00  0.00    -0.422 OA
ATOM     10  C   LIG d   1       2.654  -0.658  -8.907  0.00  0.00     0.143 A 
ATOM     11  C   LIG d   1       2.585  -0.251  -7.581  0.00  0.00     0.023 A 
ATOM     12  H   LIG d   1       3.052   3.077  -7.998  0.00  0.00     0.065 H 
ATOM     13  H   LIG d   1       3.179   2.394 -10.337  0.00  0.00     0.063 H 
ATOM     14  H   LIG d   1       3.108   0.630 -12.051  0.00  0.00     0.063 H 
ATOM     15  H   LIG d   1       2.419  -0.979  -6.800  0.00  0.00     0.069 H 
ENDROOT
BRANCH   1  16
ATOM     16  O   LIG d   1       2.653   1.482  -5.963  0.00  0.00    -0.488 OA
BRANCH  16  17
ATOM     17  C   LIG d   1       2.671   0.454  -4.971  0.00  0.00     0.108 C 
ATOM     18  H   LIG d   1       1.648   0.183  -4.708  0.00  0.00     0.074 H 
ATOM     19  H   LIG d   1       3.189  -0.422  -5.364  0.00  0.00     0.074 H 
BRANCH  17  20
ATOM     20  C   LIG d   1       3.389   0.954  -3.743  0.00  0.00    -0.048 C 
ATOM     21  C   LIG d   1       3.664   0.128  -2.764  0.00  0.00    -0.076 C 
ATOM     22  H   LIG d   1       3.677   1.992  -3.671  0.00  0.00     0.060 H 
BRANCH  21  23
ATOM     23  C   LIG d   1       3.151  -1.289  -2.806  0.00  0.00    -0.044 C 
ATOM     24  H   LIG d   1       2.088  -1.298  -2.563  0.00  0.00     0.027 H 
ATOM     25  H   LIG d   1       3.299  -1.700  -3.804  0.00  0.00     0.027 H 
ATOM     26  H   LIG d   1       3.695  -1.894  -2.080  0.00  0.00     0.027 H 
ENDBRANCH  21  23
BRANCH  21  27
ATOM     27  C   LIG d   1       4.493   0.594  -1.596  0.00  0.00    -0.044 C 
ATOM     28  H   LIG d   1       5.551   0.462  -1.824  0.00  0.00     0.027 H 
ATOM     29  H   LIG d   1       4.292   1.649  -1.406  0.00  0.00     0.027 H 
ATOM     30  H   LIG d   1       4.237   0.011  -0.712  0.00  0.00     0.027 H 
ENDBRANCH  21  27
ENDBRANCH  17  20
ENDBRANCH  16  17
ENDBRANCH   1  16
BRANCH   6  31
ATOM     31  C   LIG d   1       2.870  -1.883 -12.984  0.00  0.00    -0.011 A 
ATOM     32  C   LIG d   1       4.107  -2.018 -13.615  0.00  0.00    -0.050 A 
ATOM     33  C   LIG d   1       4.169  -2.444 -14.925  0.00  0.00    -0.019 A 
ATOM     34  H   LIG d   1       5.016  -1.790 -13.078  0.00  0.00     0.062 H 
ATOM     35  C   LIG d   1       3.002  -2.739 -15.616  0.00  0.00     0.120 A 
ATOM     36  H   LIG d   1       5.127  -2.549 -15.414  0.00  0.00     0.065 H 
ATOM     37  C   LIG d   1       1.768  -2.605 -14.992  0.00  0.00    -0.019 A 
ATOM     38  C   LIG d   1       1.700  -2.185 -13.681  0.00  0.00    -0.050 A 
ATOM     39  H   LIG d   1       0.863  -2.836 -15.533  0.00  0.00     0.065 H 
ATOM     40  H   LIG d   1       0.740  -2.085 -13.194  0.00  0.00     0.062 H 
BRANCH  35  41
ATOM     41  O   LIG d   1       3.065  -3.160 -16.907  0.00  0.00    -0.495 OA
BRANCH  41  42
ATOM     42  C   LIG d   1       2.345  -2.395 -17.876  0.00  0.00     0.079 C 
ATOM     43  H   LIG d   1       2.208  -2.991 -18.778  0.00  0.00     0.066 H 
ATOM     44  H   LIG d   1       1.372  -2.120 -17.470  0.00  0.00     0.066 H 
ATOM     45  H   LIG d   1       2.906  -1.493 -18.117  0.00  0.00     0.066 H 
ENDBRANCH  41  42
ENDBRANCH  35  41
ENDBRANCH   6  31
TORSDOF 8
ENDMDL
MODEL 3
REMARK VINA RESULT:      -5.7      7.162      8.959
REMARK  8 active torsions:
REMARK  status: ('A' for Active; 'I' for Inactive)
REMARK    1  A    between atoms: C_1  and  C_2 
REMARK    2  A    between atoms: C_2  and  C_25 
REMARK    3  A    between atoms: C_3  and  C_4 
REMARK    4  A    between atoms: C_4  and  O_5 
REMARK    5  A    between atoms: O_5  and  C_6 
REMARK    6  A    between atoms: C_11  and  C_17 
REMARK    7  A    between atoms: C_20  and  O_23 
REMARK    8  A    between atoms: O_23  and  C_24 
ROOT
ATOM      1  C   LIG d   1       6.200  -2.847  -5.062  0.00  0.00     0.124 A 
ATOM      2  C   LIG d   1       4.857  -3.024  -5.395  0.00  0.00    -0.019 A 
ATOM      3  C   LIG d   1       4.360  -4.275  -5.614  0.00  0.00    -0.048 A 
ATOM      4  C   LIG d   1       5.202  -5.392  -5.508  0.00  0.00     0.018 A 
ATOM      5  C   LIG d   1       4.688  -6.695  -5.735  0.00  0.00    -0.036 A 
ATOM      6  C   LIG d   1       5.533  -7.766  -5.624  0.00  0.00     0.067 A 
ATOM      7  C   LIG d   1       6.936  -7.534  -5.273  0.00  0.00     0.345 A 
ATOM      8  O   LIG d   1       7.700  -8.475  -5.171  0.00  0.00    -0.244 OA
ATOM      9  O   LIG d   1       7.382  -6.284  -5.065  0.00  0.00    -0.422 OA
ATOM     10  C   LIG d   1       6.557  -5.219  -5.172  0.00  0.00     0.143 A 
ATOM     11  C   LIG d   1       7.045  -3.938  -4.952  0.00  0.00     0.023 A 
ATOM     12  H   LIG d   1       4.207  -2.166  -5.478  0.00  0.00     0.065 H 
ATOM     13  H   LIG d   1       3.319  -4.405  -5.871  0.00  0.00     0.063 H 
ATOM     14  H   LIG d   1       3.650  -6.839  -5.992  0.00  0.00     0.063 H 
ATOM     15  H   LIG d   1       8.084  -3.793  -4.695  0.00  0.00     0.069 H 
ENDROOT
BRANCH   1  16
ATOM     16  O   LIG d   1       6.680  -1.597  -4.840  0.00  0.00    -0.488 OA
BRANCH  16  17
ATOM     17  C   LIG d   1       6.891  -1.217  -3.479  0.00  0.00     0.108 C 
ATOM     18  H   LIG d   1       6.621  -2.045  -2.823  0.00  0.00     0.074 H 
ATOM     19  H   LIG d   1       7.942  -0.964  -3.331  0.00  0.00     0.074 H 
BRANCH  17  20
ATOM     20  C   LIG d   1       6.035  -0.019  -3.154  0.00  0.00    -0.048 C 
ATOM     21  C   LIG d   1       4.960  -0.163  -2.420  0.00  0.00    -0.076 C 
ATOM     22  H   LIG d   1       6.309   0.957  -3.526  0.00  0.00     0.060 H 
BRANCH  21  23
ATOM     23  C   LIG d   1       4.507  -1.540  -2.007  0.00  0.00    -0.044 C 
ATOM     24  H   LIG d   1       5.224  -1.962  -1.303  0.00  0.00     0.027 H 
ATOM     25  H   LIG d   1       3.528  -1.474  -1.534  0.00  0.00     0.027 H 
ATOM     26  H   LIG d   1       4.443  -2.180  -2.888  0.00  0.00     0.027 H 
ENDBRANCH  21  23
BRANCH  21  27
ATOM     27  C   LIG d   1       4.176   1.049  -1.987  0.00  0.00    -0.044 C 
ATOM     28  H   LIG d   1       4.702   1.952  -2.296  0.00  0.00     0.027 H 
ATOM     29  H   LIG d   1       3.189   1.028  -2.451  0.00  0.00     0.027 H 
ATOM     30  H   LIG d   1       4.068   1.044  -0.903  0.00  0.00     0.027 H 
ENDBRANCH  21  27
ENDBRANCH  17  20
ENDBRANCH  16  17
ENDBRANCH   1  16
BRANCH   6  31
ATOM     31  C   LIG d   1       5.035  -9.143  -5.854  0.00  0.00    -0.011 A 
ATOM     32  C   LIG d   1       4.595  -9.916  -4.780  0.00  0.00    -0.050 A 
ATOM     33  C   LIG d   1       4.133 -11.197  -4.997  0.00  0.00    -0.019 A 
ATOM     34  H   LIG d   1       4.616  -9.512  -3.779  0.00  0.00     0.062 H 
ATOM     35  C   LIG d   1       4.104 -11.717  -6.284  0.00  0.00     0.120 A 
ATOM     36  H   LIG d   1       3.793 -11.796  -4.166  0.00  0.00     0.065 H 
ATOM     37  C   LIG d   1       4.541 -10.950  -7.357  0.00  0.00    -0.019 A 
ATOM     38  C   LIG d   1       5.000  -9.667  -7.147  0.00  0.00    -0.050 A 
ATOM     39  H   LIG d   1       4.517 -11.358  -8.356  0.00  0.00     0.065 H 
ATOM     40  H   LIG d   1       5.336  -9.069  -7.982  0.00  0.00     0.062 H 
BRANCH  35  41
ATOM     41  O   LIG d   1       3.647 -12.979  -6.496  0.00  0.00    -0.495 OA
BRANCH  41  42
ATOM     42  C   LIG d   1       2.230 -13.161  -6.529  0.00  0.00     0.079 C 
ATOM     43  H   LIG d   1       1.755 -12.243  -6.875  0.00  0.00     0.066 H 
ATOM     44  H   LIG d   1       1.985 -13.976  -7.208  0.00  0.00     0.066 H 
ATOM     45  H   LIG d   1       1.871 -13.401  -5.528  0.00  0.00     0.066 H 
ENDBRANCH  41  42
ENDBRANCH  35  41
ENDBRANCH   6  31
TORSDOF 8
ENDMDL
MODEL 4
REMARK VINA RESULT:      -5.7     11.379     13.445
REMARK  8 active torsions:
REMARK  status: ('A' for Active; 'I' for Inactive)
REMARK    1  A    between atoms: C_1  and  C_2 
REMARK    2  A    between atoms: C_2  and  C_25 
REMARK    3  A    between atoms: C_3  and  C_4 
REMARK    4  A    between atoms: C_4  and  O_5 
REMARK    5  A    between atoms: O_5  and  C_6 
REMARK    6  A    between atoms: C_11  and  C_17 
REMARK    7  A    between atoms: C_20  and  O_23 
REMARK    8  A    between atoms: O_23  and  C_24 
ROOT
ATOM      1  C   LIG d   1      -5.374   7.802 -14.517  0.00  0.00     0.124 A 
ATOM      2  C   LIG d   1      -5.580   8.790 -15.478  0.00  0.00    -0.019 A 
ATOM      3  C   LIG d   1      -4.520   9.396 -16.084  0.00  0.00    -0.048 A 
ATOM      4  C   LIG d   1      -3.211   9.025 -15.740  0.00  0.00     0.018 A 
ATOM      5  C   LIG d   1      -2.104   9.653 -16.368  0.00  0.00    -0.036 A 
ATOM      6  C   LIG d   1      -0.839   9.270 -16.012  0.00  0.00     0.067 A 
ATOM      7  C   LIG d   1      -0.669   8.228 -14.997  0.00  0.00     0.345 A 
ATOM      8  O   LIG d   1       0.449   7.877 -14.669  0.00  0.00    -0.244 OA
ATOM      9  O   LIG d   1      -1.744   7.659 -14.427  0.00  0.00    -0.422 OA
ATOM     10  C   LIG d   1      -2.997   8.028 -14.771  0.00  0.00     0.143 A 
ATOM     11  C   LIG d   1      -4.090   7.423 -14.165  0.00  0.00     0.023 A 
ATOM     12  H   LIG d   1      -6.587   9.078 -15.745  0.00  0.00     0.065 H 
ATOM     13  H   LIG d   1      -4.687  10.161 -16.828  0.00  0.00     0.063 H 
ATOM     14  H   LIG d   1      -2.257  10.418 -17.114  0.00  0.00     0.063 H 
ATOM     15  H   LIG d   1      -3.938   6.657 -13.419  0.00  0.00     0.069 H 
ENDROOT
BRANCH   1  16
ATOM     16  O   LIG d   1      -6.439   7.203 -13.926  0.00  0.00    -0.488 OA
BRANCH  16  17
ATOM     17  C   LIG d   1      -6.673   5.831 -14.248  0.00  0.00     0.108 C 
ATOM     18  H   LIG d   1      -7.665   5.723 -14.687  0.00  0.00     0.074 H 
ATOM     19  H   LIG d   1      -5.921   5.492 -14.962  0.00  0.00     0.074 H 
BRANCH  17  20
ATOM     20  C   LIG d   1      -6.586   4.999 -12.994  0.00  0.00    -0.048 C 
ATOM     21  C   LIG d   1      -5.662   4.077 -12.883  0.00  0.00    -0.076 C 
ATOM     22  H   LIG d   1      -7.284   5.163 -12.188  0.00  0.00     0.060 H 
BRANCH  21  23
ATOM     23  C   LIG d   1      -4.769   3.759 -14.055  0.00  0.00    -0.044 C 
ATOM     24  H   LIG d   1      -4.779   4.593 -14.756  0.00  0.00     0.027 H 
ATOM     25  H   LIG d   1      -3.752   3.593 -13.702  0.00  0.00     0.027 H 
ATOM     26  H   LIG d   1      -5.131   2.860 -14.555  0.00  0.00     0.027 H 
ENDBRANCH  21  23
BRANCH  21  27
ATOM     27  C   LIG d   1      -5.492   3.333 -11.584  0.00  0.00    -0.044 C 
ATOM     28  H   LIG d   1      -6.346   3.533 -10.936  0.00  0.00     0.027 H 
ATOM     29  H   LIG d   1      -5.430   2.263 -11.782  0.00  0.00     0.027 H 
ATOM     30  H   LIG d   1      -4.578   3.665 -11.092  0.00  0.00     0.027 H 
ENDBRANCH  21  27
ENDBRANCH  17  20
ENDBRANCH  16  17
ENDBRANCH   1  16
BRANCH   6  31
ATOM     31  C   LIG d   1       0.342   9.902 -16.645  0.00  0.00    -0.011 A 
ATOM     32  C   LIG d   1       1.153  10.766 -15.908  0.00  0.00    -0.050 A 
ATOM     33  C   LIG d   1       2.251  11.352 -16.500  0.00  0.00    -0.019 A 
ATOM     34  H   LIG d   1       0.919  10.975 -14.875  0.00  0.00     0.062 H 
ATOM     35  C   LIG d   1       2.552  11.083 -17.828  0.00  0.00     0.120 A 
ATOM     36  H   LIG d   1       2.878  12.022 -15.930  0.00  0.00     0.065 H 
ATOM     37  C   LIG d   1       1.748  10.223 -18.566  0.00  0.00    -0.019 A 
ATOM     38  C   LIG d   1       0.651   9.629 -17.978  0.00  0.00    -0.050 A 
ATOM     39  H   LIG d   1       1.986  10.016 -19.598  0.00  0.00     0.065 H 
ATOM     40  H   LIG d   1       0.029   8.957 -18.551  0.00  0.00     0.062 H 
BRANCH  35  41
ATOM     41  O   LIG d   1       3.636  11.661 -18.409  0.00  0.00    -0.495 OA
BRANCH  41  42
ATOM     42  C   LIG d   1       4.371  12.601 -17.623  0.00  0.00     0.079 C 
ATOM     43  H   LIG d   1       3.716  13.421 -17.332  0.00  0.00     0.066 H 
ATOM     44  H   LIG d   1       4.754  12.106 -16.731  0.00  0.00     0.066 H 
ATOM     45  H   LIG d   1       5.204  12.990 -18.208  0.00  0.00     0.066 H 
ENDBRANCH  41  42
ENDBRANCH  35  41
ENDBRANCH   6  31
TORSDOF 8
ENDMDL
MODEL 5
REMARK VINA RESULT:      -5.6      8.054     11.958
REMARK  8 active torsions:
REMARK  status: ('A' for Active; 'I' for Inactive)
REMARK    1  A    between atoms: C_1  and  C_2 
REMARK    2  A    between atoms: C_2  and  C_25 
REMARK    3  A    between atoms: C_3  and  C_4 
REMARK    4  A    between atoms: C_4  and  O_5 
REMARK    5  A    between atoms: O_5  and  C_6 
REMARK    6  A    between atoms: C_11  and  C_17 
REMARK    7  A    between atoms: C_20  and  O_23 
REMARK    8  A    between atoms: O_23  and  C_24 
ROOT
ATOM      1  C   LIG d   1       7.723   0.474  -4.922  0.00  0.00     0.124 A 
ATOM      2  C   LIG d   1       7.902   0.919  -6.231  0.00  0.00    -0.019 A 
ATOM      3  C   LIG d   1       8.487   2.127  -6.475  0.00  0.00    -0.048 A 
ATOM      4  C   LIG d   1       8.910   2.929  -5.404  0.00  0.00     0.018 A 
ATOM      5  C   LIG d   1       9.518   4.187  -5.654  0.00  0.00    -0.036 A 
ATOM      6  C   LIG d   1       9.922   4.948  -4.590  0.00  0.00     0.067 A 
ATOM      7  C   LIG d   1       9.713   4.440  -3.232  0.00  0.00     0.345 A 
ATOM      8  O   LIG d   1      10.065   5.105  -2.275  0.00  0.00    -0.244 OA
ATOM      9  O   LIG d   1       9.133   3.244  -3.039  0.00  0.00    -0.422 OA
ATOM     10  C   LIG d   1       8.731   2.484  -4.082  0.00  0.00     0.143 A 
ATOM     11  C   LIG d   1       8.135   1.252  -3.854  0.00  0.00     0.023 A 
ATOM     12  H   LIG d   1       7.577   0.304  -7.057  0.00  0.00     0.065 H 
ATOM     13  H   LIG d   1       8.623   2.466  -7.491  0.00  0.00     0.063 H 
ATOM     14  H   LIG d   1       9.661   4.537  -6.665  0.00  0.00     0.063 H 
ATOM     15  H   LIG d   1       7.992   0.900  -2.842  0.00  0.00     0.069 H 
ENDROOT
BRANCH   1  16
ATOM     16  O   LIG d   1       7.146  -0.734  -4.694  0.00  0.00    -0.488 OA
BRANCH  16  17
ATOM     17  C   LIG d   1       6.966  -1.119  -3.330  0.00  0.00     0.108 C 
ATOM     18  H   LIG d   1       7.719  -1.859  -3.059  0.00  0.00     0.074 H 
ATOM     19  H   LIG d   1       7.069  -0.244  -2.688  0.00  0.00     0.074 H 
BRANCH  17  20
ATOM     20  C   LIG d   1       5.591  -1.713  -3.154  0.00  0.00    -0.048 C 
ATOM     21  C   LIG d   1       4.626  -0.988  -2.643  0.00  0.00    -0.076 C 
ATOM     22  H   LIG d   1       5.403  -2.734  -3.447  0.00  0.00     0.060 H 
BRANCH  21  23
ATOM     23  C   LIG d   1       4.918   0.392  -2.115  0.00  0.00    -0.044 C 
ATOM     24  H   LIG d   1       4.558   0.472  -1.089  0.00  0.00     0.027 H 
ATOM     25  H   LIG d   1       5.992   0.571  -2.138  0.00  0.00     0.027 H 
ATOM     26  H   LIG d   1       4.413   1.133  -2.736  0.00  0.00     0.027 H 
ENDBRANCH  21  23
BRANCH  21  27
ATOM     27  C   LIG d   1       3.224  -1.537  -2.585  0.00  0.00    -0.044 C 
ATOM     28  H   LIG d   1       2.567  -0.806  -2.112  0.00  0.00     0.027 H 
ATOM     29  H   LIG d   1       2.870  -1.740  -3.597  0.00  0.00     0.027 H 
ATOM     30  H   LIG d   1       3.218  -2.459  -2.006  0.00  0.00     0.027 H 
ENDBRANCH  21  27
ENDBRANCH  17  20
ENDBRANCH  16  17
ENDBRANCH   1  16
BRANCH   6  31
ATOM     31  C   LIG d   1      10.561   6.266  -4.809  0.00  0.00    -0.011 A 
ATOM     32  C   LIG d   1       9.774   7.410  -4.948  0.00  0.00    -0.050 A 
ATOM     33  C   LIG d   1      10.372   8.636  -5.152  0.00  0.00    -0.019 A 
ATOM     34  H   LIG d   1       8.698   7.336  -4.896  0.00  0.00     0.062 H 
ATOM     35  C   LIG d   1      11.755   8.732  -5.218  0.00  0.00     0.120 A 
ATOM     36  H   LIG d   1       9.764   9.522  -5.260  0.00  0.00     0.065 H 
ATOM     37  C   LIG d   1      12.542   7.596  -5.081  0.00  0.00    -0.019 A 
ATOM     38  C   LIG d   1      11.951   6.368  -4.871  0.00  0.00    -0.050 A 
ATOM     39  H   LIG d   1      13.618   7.675  -5.133  0.00  0.00     0.065 H 
ATOM     40  H   LIG d   1      12.563   5.485  -4.760  0.00  0.00     0.062 H 
BRANCH  35  41
ATOM     41  O   LIG d   1      12.342   9.941  -5.419  0.00  0.00    -0.495 OA
BRANCH  41  42
ATOM     42  C   LIG d   1      12.303  10.472  -6.745  0.00  0.00     0.079 C 
ATOM     43  H   LIG d   1      11.363  10.192  -7.219  0.00  0.00     0.066 H 
ATOM     44  H   LIG d   1      12.379  11.558  -6.703  0.00  0.00     0.066 H 
ATOM     45  H   LIG d   1      13.135  10.071  -7.322  0.00  0.00     0.066 H 
ENDBRANCH  41  42
ENDBRANCH  35  41
ENDBRANCH   6  31
TORSDOF 8
ENDMDL
MODEL 6
REMARK VINA RESULT:      -5.5      7.294     10.894
REMARK  8 active torsions:
REMARK  status: ('A' for Active; 'I' for Inactive)
REMARK    1  A    between atoms: C_1  and  C_2 
REMARK    2  A    between atoms: C_2  and  C_25 
REMARK    3  A    between atoms: C_3  and  C_4 
REMARK    4  A    between atoms: C_4  and  O_5 
REMARK    5  A    between atoms: O_5  and  C_6 
REMARK    6  A    between atoms: C_11  and  C_17 
REMARK    7  A    between atoms: C_20  and  O_23 
REMARK    8  A    between atoms: O_23  and  C_24 
ROOT
ATOM      1  C   LIG d   1       5.252  -2.613  -4.143  0.00  0.00     0.124 A 
ATOM      2  C   LIG d   1       4.747  -1.702  -3.216  0.00  0.00    -0.019 A 
ATOM      3  C   LIG d   1       5.384  -0.516  -2.997  0.00  0.00    -0.048 A 
ATOM      4  C   LIG d   1       6.556  -0.209  -3.705  0.00  0.00     0.018 A 
ATOM      5  C   LIG d   1       7.221   1.024  -3.480  0.00  0.00    -0.036 A 
ATOM      6  C   LIG d   1       8.361   1.297  -4.186  0.00  0.00     0.067 A 
ATOM      7  C   LIG d   1       8.856   0.311  -5.149  0.00  0.00     0.345 A 
ATOM      8  O   LIG d   1       9.869   0.538  -5.785  0.00  0.00    -0.244 OA
ATOM      9  O   LIG d   1       8.195  -0.844  -5.333  0.00  0.00    -0.422 OA
ATOM     10  C   LIG d   1       7.069  -1.124  -4.642  0.00  0.00     0.143 A 
ATOM     11  C   LIG d   1       6.406  -2.326  -4.852  0.00  0.00     0.023 A 
ATOM     12  H   LIG d   1       3.846  -1.937  -2.669  0.00  0.00     0.065 H 
ATOM     13  H   LIG d   1       4.987   0.185  -2.278  0.00  0.00     0.063 H 
ATOM     14  H   LIG d   1       6.835   1.734  -2.764  0.00  0.00     0.063 H 
ATOM     15  H   LIG d   1       6.792  -3.037  -5.568  0.00  0.00     0.069 H 
ENDROOT
BRANCH   1  16
ATOM     16  O   LIG d   1       4.604  -3.787  -4.357  0.00  0.00    -0.488 OA
BRANCH  16  17
ATOM     17  C   LIG d   1       4.749  -4.382  -5.647  0.00  0.00     0.108 C 
ATOM     18  H   LIG d   1       4.057  -3.911  -6.345  0.00  0.00     0.074 H 
ATOM     19  H   LIG d   1       5.772  -4.242  -6.000  0.00  0.00     0.074 H 
BRANCH  17  20
ATOM     20  C   LIG d   1       4.446  -5.856  -5.557  0.00  0.00    -0.048 C 
ATOM     21  C   LIG d   1       5.426  -6.723  -5.497  0.00  0.00    -0.076 C 
ATOM     22  H   LIG d   1       3.422  -6.197  -5.542  0.00  0.00     0.060 H 
BRANCH  21  23
ATOM     23  C   LIG d   1       6.853  -6.261  -5.647  0.00  0.00    -0.044 C 
ATOM     24  H   LIG d   1       7.444  -7.051  -6.110  0.00  0.00     0.027 H 
ATOM     25  H   LIG d   1       6.882  -5.371  -6.273  0.00  0.00     0.027 H 
ATOM     26  H   LIG d   1       7.264  -6.029  -4.664  0.00  0.00     0.027 H 
ENDBRANCH  21  23
BRANCH  21  27
ATOM     27  C   LIG d   1       5.127  -8.184  -5.277  0.00  0.00    -0.044 C 
ATOM     28  H   LIG d   1       4.510  -8.556  -6.096  0.00  0.00     0.027 H 
ATOM     29  H   LIG d   1       6.061  -8.746  -5.244  0.00  0.00     0.027 H 
ATOM     30  H   LIG d   1       4.594  -8.308  -4.335  0.00  0.00     0.027 H 
ENDBRANCH  21  27
ENDBRANCH  17  20
ENDBRANCH  16  17
ENDBRANCH   1  16
BRANCH   6  31
ATOM     31  C   LIG d   1       9.085   2.573  -3.979  0.00  0.00    -0.011 A 
ATOM     32  C   LIG d   1       8.809   3.673  -4.791  0.00  0.00    -0.050 A 
ATOM     33  C   LIG d   1       9.486   4.859  -4.597  0.00  0.00    -0.019 A 
ATOM     34  H   LIG d   1       8.067   3.596  -5.572  0.00  0.00     0.062 H 
ATOM     35  C   LIG d   1      10.439   4.960  -3.593  0.00  0.00     0.120 A 
ATOM     36  H   LIG d   1       9.273   5.711  -5.226  0.00  0.00     0.065 H 
ATOM     37  C   LIG d   1      10.717   3.866  -2.782  0.00  0.00    -0.019 A 
ATOM     38  C   LIG d   1      10.041   2.679  -2.968  0.00  0.00    -0.050 A 
ATOM     39  H   LIG d   1      11.459   3.949  -2.002  0.00  0.00     0.065 H 
ATOM     40  H   LIG d   1      10.254   1.831  -2.334  0.00  0.00     0.062 H 
BRANCH  35  41
ATOM     41  O   LIG d   1      11.103   6.130  -3.402  0.00  0.00    -0.495 OA
BRANCH  41  42
ATOM     42  C   LIG d   1      10.312   7.295  -3.161  0.00  0.00     0.079 C 
ATOM     43  H   LIG d   1      10.829   8.171  -3.550  0.00  0.00     0.066 H 
ATOM     44  H   LIG d   1       9.349   7.189  -3.660  0.00  0.00     0.066 H 
ATOM     45  H   LIG d   1      10.155   7.412  -2.089  0.00  0.00     0.066 H 
ENDBRANCH  41  42
ENDBRANCH  35  41
ENDBRANCH   6  31
TORSDOF 8
ENDMDL
MODEL 7
REMARK VINA RESULT:      -5.5      9.022     14.745
REMARK  8 active torsions:
REMARK  status: ('A' for Active; 'I' for Inactive)
REMARK    1  A    between atoms: C_1  and  C_2 
REMARK    2  A    between atoms: C_2  and  C_25 
REMARK    3  A    between atoms: C_3  and  C_4 
REMARK    4  A    between atoms: C_4  and  O_5 
REMARK    5  A    between atoms: O_5  and  C_6 
REMARK    6  A    between atoms: C_11  and  C_17 
REMARK    7  A    between atoms: C_20  and  O_23 
REMARK    8  A    between atoms: O_23  and  C_24 
ROOT
ATOM      1  C   LIG d   1       9.681   3.039  -4.678  0.00  0.00     0.124 A 
ATOM      2  C   LIG d   1       9.483   4.121  -5.536  0.00  0.00    -0.019 A 
ATOM      3  C   LIG d   1       9.544   5.397  -5.061  0.00  0.00    -0.048 A 
ATOM      4  C   LIG d   1       9.807   5.628  -3.702  0.00  0.00     0.018 A 
ATOM      5  C   LIG d   1       9.872   6.955  -3.204  0.00  0.00    -0.036 A 
ATOM      6  C   LIG d   1      10.130   7.149  -1.874  0.00  0.00     0.067 A 
ATOM      7  C   LIG d   1      10.331   5.983  -1.010  0.00  0.00     0.345 A 
ATOM      8  O   LIG d   1      10.560   6.138   0.175  0.00  0.00    -0.244 OA
ATOM      9  O   LIG d   1      10.261   4.743  -1.522  0.00  0.00    -0.422 OA
ATOM     10  C   LIG d   1      10.007   4.540  -2.833  0.00  0.00     0.143 A 
ATOM     11  C   LIG d   1       9.941   3.247  -3.335  0.00  0.00     0.023 A 
ATOM     12  H   LIG d   1       9.280   3.946  -6.582  0.00  0.00     0.065 H 
ATOM     13  H   LIG d   1       9.390   6.231  -5.730  0.00  0.00     0.063 H 
ATOM     14  H   LIG d   1       9.720   7.797  -3.863  0.00  0.00     0.063 H 
ATOM     15  H   LIG d   1      10.093   2.404  -2.677  0.00  0.00     0.069 H 
ENDROOT
BRANCH   1  16
ATOM     16  O   LIG d   1       9.623   1.773  -5.166  0.00  0.00    -0.488 OA
BRANCH  16  17
ATOM     17  C   LIG d   1       8.338   1.287  -5.557  0.00  0.00     0.108 C 
ATOM     18  H   LIG d   1       7.572   2.003  -5.259  0.00  0.00     0.074 H 
ATOM     19  H   LIG d   1       8.312   1.157  -6.639  0.00  0.00     0.074 H 
BRANCH  17  20
ATOM     20  C   LIG d   1       8.077  -0.037  -4.885  0.00  0.00    -0.048 C 
ATOM     21  C   LIG d   1       7.199  -0.117  -3.916  0.00  0.00    -0.076 C 
ATOM     22  H   LIG d   1       8.613  -0.919  -5.202  0.00  0.00     0.060 H 
BRANCH  21  23
ATOM     23  C   LIG d   1       6.544   1.133  -3.387  0.00  0.00    -0.044 C 
ATOM     24  H   LIG d   1       5.755   1.448  -4.070  0.00  0.00     0.027 H 
ATOM     25  H   LIG d   1       6.115   0.931  -2.406  0.00  0.00     0.027 H 
ATOM     26  H   LIG d   1       7.288   1.925  -3.301  0.00  0.00     0.027 H 
ENDBRANCH  21  23
BRANCH  21  27
ATOM     27  C   LIG d   1       6.842  -1.459  -3.332  0.00  0.00    -0.044 C 
ATOM     28  H   LIG d   1       7.240  -1.533  -2.320  0.00  0.00     0.027 H 
ATOM     29  H   LIG d   1       5.757  -1.567  -3.303  0.00  0.00     0.027 H 
ATOM     30  H   LIG d   1       7.270  -2.250  -3.948  0.00  0.00     0.027 H 
ENDBRANCH  21  27
ENDBRANCH  17  20
ENDBRANCH  16  17
ENDBRANCH   1  16
BRANCH   6  31
ATOM     31  C   LIG d   1      10.205   8.519  -1.316  0.00  0.00    -0.011 A 
ATOM     32  C   LIG d   1      11.410   9.222  -1.348  0.00  0.00    -0.050 A 
ATOM     33  C   LIG d   1      11.477  10.497  -0.827  0.00  0.00    -0.019 A 
ATOM     34  H   LIG d   1      12.289   8.768  -1.781  0.00  0.00     0.062 H 
ATOM     35  C   LIG d   1      10.347  11.082  -0.271  0.00  0.00     0.120 A 
ATOM     36  H   LIG d   1      12.410  11.041  -0.851  0.00  0.00     0.065 H 
ATOM     37  C   LIG d   1       9.146  10.385  -0.237  0.00  0.00    -0.019 A 
ATOM     38  C   LIG d   1       9.070   9.112  -0.761  0.00  0.00    -0.050 A 
ATOM     39  H   LIG d   1       8.269  10.844   0.196  0.00  0.00     0.065 H 
ATOM     40  H   LIG d   1       8.135   8.572  -0.738  0.00  0.00     0.062 H 
BRANCH  35  41
ATOM     41  O   LIG d   1      10.416  12.338   0.241  0.00  0.00    -0.495 OA
BRANCH  41  42
ATOM     42  C   LIG d   1      10.386  13.422  -0.690  0.00  0.00     0.079 C 
ATOM     43  H   LIG d   1       9.351  13.662  -0.934  0.00  0.00     0.066 H 
ATOM     44  H   LIG d   1      10.867  14.294  -0.247  0.00  0.00     0.066 H 
ATOM     45  H   LIG d   1      10.916  13.137  -1.598  0.00  0.00     0.066 H 
ENDBRANCH  41  42
ENDBRANCH  35  41
ENDBRANCH   6  31
TORSDOF 8
ENDMDL
MODEL 8
REMARK VINA RESULT:      -5.4      8.241     10.310
REMARK  8 active torsions:
REMARK  status: ('A' for Active; 'I' for Inactive)
REMARK    1  A    between atoms: C_1  and  C_2 
REMARK    2  A    between atoms: C_2  and  C_25 
REMARK    3  A    between atoms: C_3  and  C_4 
REMARK    4  A    between atoms: C_4  and  O_5 
REMARK    5  A    between atoms: O_5  and  C_6 
REMARK    6  A    between atoms: C_11  and  C_17 
REMARK    7  A    between atoms: C_20  and  O_23 
REMARK    8  A    between atoms: O_23  and  C_24 
ROOT
ATOM      1  C   LIG d   1       8.257   1.387  -4.546  0.00  0.00     0.124 A 
ATOM      2  C   LIG d   1       8.927   2.399  -3.860  0.00  0.00    -0.019 A 
ATOM      3  C   LIG d   1       9.447   3.463  -4.535  0.00  0.00    -0.048 A 
ATOM      4  C   LIG d   1       9.310   3.542  -5.929  0.00  0.00     0.018 A 
ATOM      5  C   LIG d   1       9.850   4.648  -6.636  0.00  0.00    -0.036 A 
ATOM      6  C   LIG d   1       9.701   4.698  -7.996  0.00  0.00     0.067 A 
ATOM      7  C   LIG d   1       8.991   3.612  -8.676  0.00  0.00     0.345 A 
ATOM      8  O   LIG d   1       8.850   3.642  -9.884  0.00  0.00    -0.244 OA
ATOM      9  O   LIG d   1       8.494   2.583  -7.968  0.00  0.00    -0.422 OA
ATOM     10  C   LIG d   1       8.635   2.524  -6.626  0.00  0.00     0.143 A 
ATOM     11  C   LIG d   1       8.113   1.448  -5.921  0.00  0.00     0.023 A 
ATOM     12  H   LIG d   1       9.034   2.340  -2.786  0.00  0.00     0.065 H 
ATOM     13  H   LIG d   1       9.965   4.244  -3.998  0.00  0.00     0.063 H 
ATOM     14  H   LIG d   1      10.369   5.436  -6.111  0.00  0.00     0.063 H 
ATOM     15  H   LIG d   1       7.593   0.660  -6.445  0.00  0.00     0.069 H 
ENDROOT
BRANCH   1  16
ATOM     16  O   LIG d   1       7.739   0.336  -3.859  0.00  0.00    -0.488 OA
BRANCH  16  17
ATOM     17  C   LIG d   1       6.486   0.544  -3.205  0.00  0.00     0.108 C 
ATOM     18  H   LIG d   1       6.655   1.017  -2.237  0.00  0.00     0.074 H 
ATOM     19  H   LIG d   1       5.857   1.189  -3.819  0.00  0.00     0.074 H 
BRANCH  17  20
ATOM     20  C   LIG d   1       5.799  -0.782  -3.001  0.00  0.00    -0.048 C 
ATOM     21  C   LIG d   1       4.594  -0.823  -2.489  0.00  0.00    -0.076 C 
ATOM     22  H   LIG d   1       6.300  -1.698  -3.278  0.00  0.00     0.060 H 
BRANCH  21  23
ATOM     23  C   LIG d   1       3.946   0.440  -1.984  0.00  0.00    -0.044 C 
ATOM     24  H   LIG d   1       3.223   0.192  -1.207  0.00  0.00     0.027 H 
ATOM     25  H   LIG d   1       4.708   1.101  -1.573  0.00  0.00     0.027 H 
ATOM     26  H   LIG d   1       3.436   0.941  -2.808  0.00  0.00     0.027 H 
ENDBRANCH  21  23
BRANCH  21  27
ATOM     27  C   LIG d   1       3.856  -2.134  -2.404  0.00  0.00    -0.044 C 
ATOM     28  H   LIG d   1       4.375  -2.883  -3.003  0.00  0.00     0.027 H 
ATOM     29  H   LIG d   1       3.818  -2.464  -1.365  0.00  0.00     0.027 H 
ATOM     30  H   LIG d   1       2.842  -2.006  -2.782  0.00  0.00     0.027 H 
ENDBRANCH  21  27
ENDBRANCH  17  20
ENDBRANCH  16  17
ENDBRANCH   1  16
BRANCH   6  31
ATOM     31  C   LIG d   1      10.250   5.836  -8.770  0.00  0.00    -0.011 A 
ATOM     32  C   LIG d   1      11.555   5.783  -9.260  0.00  0.00    -0.050 A 
ATOM     33  C   LIG d   1      12.064   6.844  -9.980  0.00  0.00    -0.019 A 
ATOM     34  H   LIG d   1      12.167   4.912  -9.076  0.00  0.00     0.062 H 
ATOM     35  C   LIG d   1      11.278   7.963 -10.218  0.00  0.00     0.120 A 
ATOM     36  H   LIG d   1      13.075   6.804 -10.359  0.00  0.00     0.065 H 
ATOM     37  C   LIG d   1       9.978   8.020  -9.731  0.00  0.00    -0.019 A 
ATOM     38  C   LIG d   1       9.462   6.960  -9.015  0.00  0.00    -0.050 A 
ATOM     39  H   LIG d   1       9.371   8.892  -9.919  0.00  0.00     0.065 H 
ATOM     40  H   LIG d   1       8.449   7.003  -8.641  0.00  0.00     0.062 H 
BRANCH  35  41
ATOM     41  O   LIG d   1      11.781   9.007 -10.928  0.00  0.00    -0.495 OA
BRANCH  41  42
ATOM     42  C   LIG d   1      12.166  10.169 -10.192  0.00  0.00     0.079 C 
ATOM     43  H   LIG d   1      12.010  11.056 -10.806  0.00  0.00     0.066 H 
ATOM     44  H   LIG d   1      11.561  10.242  -9.288  0.00  0.00     0.066 H 
ATOM     45  H   LIG d   1      13.219  10.095  -9.920  0.00  0.00     0.066 H 
ENDBRANCH  41  42
ENDBRANCH  35  41
ENDBRANCH   6  31
TORSDOF 8
ENDMDL
MODEL 9
REMARK VINA RESULT:      -5.4      1.548      1.721
REMARK  8 active torsions:
REMARK  status: ('A' for Active; 'I' for Inactive)
REMARK    1  A    between atoms: C_1  and  C_2 
REMARK    2  A    between atoms: C_2  and  C_25 
REMARK    3  A    between atoms: C_3  and  C_4 
REMARK    4  A    between atoms: C_4  and  O_5 
REMARK    5  A    between atoms: O_5  and  C_6 
REMARK    6  A    between atoms: C_11  and  C_17 
REMARK    7  A    between atoms: C_20  and  O_23 
REMARK    8  A    between atoms: O_23  and  C_24 
ROOT
ATOM      1  C   LIG d   1       3.950   0.163  -7.418  0.00  0.00     0.124 A 
ATOM      2  C   LIG d   1       2.914   0.919  -7.965  0.00  0.00    -0.019 A 
ATOM      3  C   LIG d   1       2.579   0.782  -9.280  0.00  0.00    -0.048 A 
ATOM      4  C   LIG d   1       3.280  -0.124 -10.090  0.00  0.00     0.018 A 
ATOM      5  C   LIG d   1       2.934  -0.270 -11.459  0.00  0.00    -0.036 A 
ATOM      6  C   LIG d   1       3.635  -1.162 -12.225  0.00  0.00     0.067 A 
ATOM      7  C   LIG d   1       4.716  -1.936 -11.608  0.00  0.00     0.345 A 
ATOM      8  O   LIG d   1       5.349  -2.732 -12.276  0.00  0.00    -0.244 OA
ATOM      9  O   LIG d   1       5.010  -1.767 -10.308  0.00  0.00    -0.422 OA
ATOM     10  C   LIG d   1       4.325  -0.890  -9.543  0.00  0.00     0.143 A 
ATOM     11  C   LIG d   1       4.651  -0.737  -8.202  0.00  0.00     0.023 A 
ATOM     12  H   LIG d   1       2.373   1.618  -7.343  0.00  0.00     0.065 H 
ATOM     13  H   LIG d   1       1.776   1.371  -9.697  0.00  0.00     0.063 H 
ATOM     14  H   LIG d   1       2.133   0.312 -11.888  0.00  0.00     0.063 H 
ATOM     15  H   LIG d   1       5.453  -1.319  -7.771  0.00  0.00     0.069 H 
ENDROOT
BRANCH   1  16
ATOM     16  O   LIG d   1       4.268   0.305  -6.106  0.00  0.00    -0.488 OA
BRANCH  16  17
ATOM     17  C   LIG d   1       3.217   0.105  -5.159  0.00  0.00     0.108 C 
ATOM     18  H   LIG d   1       3.085   1.009  -4.565  0.00  0.00     0.074 H 
ATOM     19  H   LIG d   1       2.290  -0.122  -5.686  0.00  0.00     0.074 H 
BRANCH  17  20
ATOM     20  C   LIG d   1       3.573  -1.044  -4.250  0.00  0.00    -0.048 C 
ATOM     21  C   LIG d   1       3.701  -0.844  -2.962  0.00  0.00    -0.076 C 
ATOM     22  H   LIG d   1       3.721  -2.032  -4.661  0.00  0.00     0.060 H 
BRANCH  21  23
ATOM     23  C   LIG d   1       3.621   0.554  -2.404  0.00  0.00    -0.044 C 
ATOM     24  H   LIG d   1       2.905   0.576  -1.581  0.00  0.00     0.027 H 
ATOM     25  H   LIG d   1       4.602   0.857  -2.040  0.00  0.00     0.027 H 
ATOM     26  H   LIG d   1       3.296   1.239  -3.187  0.00  0.00     0.027 H 
ENDBRANCH  21  23
BRANCH  21  27
ATOM     27  C   LIG d   1       3.929  -2.012  -2.037  0.00  0.00    -0.044 C 
ATOM     28  H   LIG d   1       3.500  -1.791  -1.060  0.00  0.00     0.027 H 
ATOM     29  H   LIG d   1       3.451  -2.901  -2.450  0.00  0.00     0.027 H 
ATOM     30  H   LIG d   1       4.999  -2.190  -1.933  0.00  0.00     0.027 H 
ENDBRANCH  21  27
ENDBRANCH  17  20
ENDBRANCH  16  17
ENDBRANCH   1  16
BRANCH   6  31
ATOM     31  C   LIG d   1       3.305  -1.343 -13.658  0.00  0.00    -0.011 A 
ATOM     32  C   LIG d   1       2.276  -2.206 -14.035  0.00  0.00    -0.050 A 
ATOM     33  C   LIG d   1       1.972  -2.374 -15.369  0.00  0.00    -0.019 A 
ATOM     34  H   LIG d   1       1.719  -2.744 -13.282  0.00  0.00     0.062 H 
ATOM     35  C   LIG d   1       2.688  -1.683 -16.337  0.00  0.00     0.120 A 
ATOM     36  H   LIG d   1       1.176  -3.043 -15.662  0.00  0.00     0.065 H 
ATOM     37  C   LIG d   1       3.713  -0.822 -15.966  0.00  0.00    -0.019 A 
ATOM     38  C   LIG d   1       4.019  -0.646 -14.633  0.00  0.00    -0.050 A 
ATOM     39  H   LIG d   1       4.267  -0.286 -16.723  0.00  0.00     0.065 H 
ATOM     40  H   LIG d   1       4.813   0.027 -14.345  0.00  0.00     0.062 H 
BRANCH  35  41
ATOM     41  O   LIG d   1       2.385  -1.848 -17.652  0.00  0.00    -0.495 OA
BRANCH  41  42
ATOM     42  C   LIG d   1       1.801  -0.734 -18.330  0.00  0.00     0.079 C 
ATOM     43  H   LIG d   1       2.075   0.187 -17.817  0.00  0.00     0.066 H 
ATOM     44  H   LIG d   1       2.166  -0.702 -19.356  0.00  0.00     0.066 H 
ATOM     45  H   LIG d   1       0.716  -0.839 -18.333  0.00  0.00     0.066 H 
ENDBRANCH  41  42
ENDBRANCH  35  41
ENDBRANCH   6  31
TORSDOF 8
ENDMDL
MODEL 10
REMARK VINA RESULT:      -5.4      8.304     11.257
REMARK  8 active torsions:
REMARK  status: ('A' for Active; 'I' for Inactive)
REMARK    1  A    between atoms: C_1  and  C_2 
REMARK    2  A    between atoms: C_2  and  C_25 
REMARK    3  A    between atoms: C_3  and  C_4 
REMARK    4  A    between atoms: C_4  and  O_5 
REMARK    5  A    between atoms: O_5  and  C_6 
REMARK    6  A    between atoms: C_11  and  C_17 
REMARK    7  A    between atoms: C_20  and  O_23 
REMARK    8  A    between atoms: O_23  and  C_24 
ROOT
ATOM      1  C   LIG d   1      11.426   5.171  -5.900  0.00  0.00     0.124 A 
ATOM      2  C   LIG d   1      11.425   5.186  -4.506  0.00  0.00    -0.019 A 
ATOM      3  C   LIG d   1      10.582   4.373  -3.808  0.00  0.00    -0.048 A 
ATOM      4  C   LIG d   1       9.708   3.516  -4.493  0.00  0.00     0.018 A 
ATOM      5  C   LIG d   1       8.829   2.669  -3.771  0.00  0.00    -0.036 A 
ATOM      6  C   LIG d   1       7.987   1.844  -4.466  0.00  0.00     0.067 A 
ATOM      7  C   LIG d   1       8.021   1.861  -5.931  0.00  0.00     0.345 A 
ATOM      8  O   LIG d   1       7.279   1.134  -6.564  0.00  0.00    -0.244 OA
ATOM      9  O   LIG d   1       8.870   2.679  -6.576  0.00  0.00    -0.422 OA
ATOM     10  C   LIG d   1       9.705   3.497  -5.900  0.00  0.00     0.143 A 
ATOM     11  C   LIG d   1      10.571   4.332  -6.593  0.00  0.00     0.023 A 
ATOM     12  H   LIG d   1      12.097   5.845  -3.976  0.00  0.00     0.065 H 
ATOM     13  H   LIG d   1      10.587   4.390  -2.728  0.00  0.00     0.063 H 
ATOM     14  H   LIG d   1       8.824   2.675  -2.691  0.00  0.00     0.063 H 
ATOM     15  H   LIG d   1      10.577   4.326  -7.674  0.00  0.00     0.069 H 
ENDROOT
BRANCH   1  16
ATOM     16  O   LIG d   1      12.276   5.981  -6.583  0.00  0.00    -0.488 OA
BRANCH  16  17
ATOM     17  C   LIG d   1      11.689   6.993  -7.403  0.00  0.00     0.108 C 
ATOM     18  H   LIG d   1      12.433   7.369  -8.105  0.00  0.00     0.074 H 
ATOM     19  H   LIG d   1      10.849   6.571  -7.956  0.00  0.00     0.074 H 
BRANCH  17  20
ATOM     20  C   LIG d   1      11.201   8.123  -6.534  0.00  0.00    -0.048 C 
ATOM     21  C   LIG d   1       9.988   8.593  -6.690  0.00  0.00    -0.076 C 
ATOM     22  H   LIG d   1      11.851   8.546  -5.783  0.00  0.00     0.060 H 
BRANCH  21  23
ATOM     23  C   LIG d   1       9.126   8.093  -7.820  0.00  0.00    -0.044 C 
ATOM     24  H   LIG d   1       9.703   7.408  -8.442  0.00  0.00     0.027 H 
ATOM     25  H   LIG d   1       8.260   7.572  -7.414  0.00  0.00     0.027 H 
ATOM     26  H   LIG d   1       8.792   8.937  -8.424  0.00  0.00     0.027 H 
ENDBRANCH  21  23
BRANCH  21  27
ATOM     27  C   LIG d   1       9.455   9.633  -5.740  0.00  0.00    -0.044 C 
ATOM     28  H   LIG d   1      10.115   9.708  -4.875  0.00  0.00     0.027 H 
ATOM     29  H   LIG d   1       9.410  10.599  -6.245  0.00  0.00     0.027 H 
ATOM     30  H   LIG d   1       8.456   9.348  -5.411  0.00  0.00     0.027 H 
ENDBRANCH  21  27
ENDBRANCH  17  20
ENDBRANCH  16  17
ENDBRANCH   1  16
BRANCH   6  31
ATOM     31  C   LIG d   1       7.054   0.944  -3.748  0.00  0.00    -0.011 A 
ATOM     32  C   LIG d   1       5.964   1.474  -3.058  0.00  0.00    -0.050 A 
ATOM     33  C   LIG d   1       5.098   0.634  -2.390  0.00  0.00    -0.019 A 
ATOM     34  H   LIG d   1       5.798   2.541  -3.047  0.00  0.00     0.062 H 
ATOM     35  C   LIG d   1       5.309  -0.738  -2.405  0.00  0.00     0.120 A 
ATOM     36  H   LIG d   1       4.253   1.044  -1.855  0.00  0.00     0.065 H 
ATOM     37  C   LIG d   1       6.394  -1.270  -3.091  0.00  0.00    -0.019 A 
ATOM     38  C   LIG d   1       7.261  -0.436  -3.765  0.00  0.00    -0.050 A 
ATOM     39  H   LIG d   1       6.555  -2.337  -3.099  0.00  0.00     0.065 H 
ATOM     40  H   LIG d   1       8.102  -0.850  -4.302  0.00  0.00     0.062 H 
BRANCH  35  41
ATOM     41  O   LIG d   1       4.454  -1.563  -1.747  0.00  0.00    -0.495 OA
BRANCH  41  42
ATOM     42  C   LIG d   1       3.558  -2.340  -2.544  0.00  0.00     0.079 C 
ATOM     43  H   LIG d   1       2.788  -1.691  -2.961  0.00  0.00     0.066 H 
ATOM     44  H   LIG d   1       4.111  -2.815  -3.354  0.00  0.00     0.066 H 
ATOM     45  H   LIG d   1       3.091  -3.106  -1.925  0.00  0.00     0.066 H 
ENDBRANCH  41  42
ENDBRANCH  35  41
ENDBRANCH   6  31
TORSDOF 8
ENDMDL
