MODEL 1
REMARK VINA RESULT:      -7.2      0.000      0.000
REMARK  8 active torsions:
REMARK  status: ('A' for Active; 'I' for Inactive)
REMARK    1  A    between atoms: C_1  and  C_2 
REMARK    2  A    between atoms: C_2  and  C_3 
REMARK    3  A    between atoms: C_2  and  N_50 
REMARK    4  A    between atoms: C_8  and  C_9 
REMARK    5  A    between atoms: C_8  and  C_10 
REMARK    6  A    between atoms: C_14  and  C_15 
REMARK    7  A    between atoms: C_14  and  C_21 
REMARK    8  A    between atoms: C_14  and  N_50 
ROOT
ATOM      1  N   LIG d   1       5.835  -0.037  -6.535  0.00  0.00    -0.237 N 
ATOM      2  H   LIG d   1       6.548   0.529  -6.059  0.00  0.00     0.446 HD
ENDROOT
BRANCH   1   3
ATOM      3  C   LIG d   1       5.745  -0.018  -7.932  0.00  0.00     0.162 C 
BRANCH   3   4
ATOM      4  C   LIG d   1       6.656  -0.832  -8.814  0.00  0.00     0.017 C 
ATOM      5  H   LIG d   1       7.241  -0.164  -9.447  0.00  0.00     0.033 H 
ATOM      6  H   LIG d   1       7.328  -1.425  -8.193  0.00  0.00     0.033 H 
ATOM      7  H   LIG d   1       6.108  -1.440  -9.388  0.00  0.00     0.033 H 
ENDBRANCH   3   4
BRANCH   3   8
ATOM      8  C   LIG d   1       4.792   0.771  -8.485  0.00  0.00     0.101 A 
ATOM      9  C   LIG d   1       5.031   2.012  -9.079  0.00  0.00     0.147 A 
ATOM     10  C   LIG d   1       3.742   2.605  -9.585  0.00  0.00     0.010 A 
ATOM     11  O   LIG d   1       6.122   2.537  -9.173  0.00  0.00    -0.296 OA
ATOM     12  C   LIG d   1       2.626   1.604  -9.254  0.00  0.00    -0.025 A 
ATOM     13  H   LIG d   1       3.551   3.478  -9.135  0.00  0.00     0.035 H 
ATOM     14  H   LIG d   1       3.802   2.758 -10.662  0.00  0.00     0.035 H 
ATOM     15  C   LIG d   1       3.327   0.436  -8.544  0.00  0.00    -0.013 A 
ATOM     16  H   LIG d   1       1.684   2.010  -8.888  0.00  0.00     0.031 H 
ATOM     17  C   LIG d   1       2.670   0.202  -9.907  0.00  0.00    -0.027 A 
ATOM     18  H   LIG d   1       2.885  -0.025  -7.660  0.00  0.00     0.032 H 
ATOM     19  H   LIG d   1       4.689   0.542  -9.452  0.00  0.00     0.049 H 
BRANCH  17  20
ATOM     20  C   LIG d   1       3.594   0.017 -11.111  0.00  0.00    -0.059 C 
ATOM     21  H   LIG d   1       3.154   0.498 -11.985  0.00  0.00     0.024 H 
ATOM     22  H   LIG d   1       4.563   0.468 -10.899  0.00  0.00     0.024 H 
ATOM     23  H   LIG d   1       3.725  -1.047 -11.310  0.00  0.00     0.024 H 
ENDBRANCH  17  20
BRANCH  17  24
ATOM     24  C   LIG d   1       1.375  -0.612  -9.935  0.00  0.00    -0.059 C 
ATOM     25  H   LIG d   1       1.147  -0.897 -10.961  0.00  0.00     0.024 H 
ATOM     26  H   LIG d   1       1.497  -1.509  -9.327  0.00  0.00     0.024 H 
ATOM     27  H   LIG d   1       0.559  -0.010  -9.535  0.00  0.00     0.024 H 
ENDBRANCH  17  24
ENDBRANCH   3   8
ENDBRANCH   1   3
BRANCH   1  28
ATOM     28  C   LIG d   1       4.890  -0.886  -5.732  0.00  0.00     0.204 C 
ATOM     29  H   LIG d   1       3.934  -1.010  -6.242  0.00  0.00     0.117 H 
BRANCH  28  30
ATOM     30  C   LIG d   1       5.541  -2.233  -5.549  0.00  0.00     0.025 A 
ATOM     31  C   LIG d   1       6.906  -2.321  -5.353  0.00  0.00    -0.052 A 
ATOM     32  C   LIG d   1       7.502  -3.557  -5.185  0.00  0.00    -0.061 A 
ATOM     33  H   LIG d   1       7.507  -1.424  -5.332  0.00  0.00     0.062 H 
ATOM     34  C   LIG d   1       6.732  -4.705  -5.212  0.00  0.00    -0.062 A 
ATOM     35  H   LIG d   1       8.569  -3.625  -5.031  0.00  0.00     0.062 H 
ATOM     36  C   LIG d   1       5.367  -4.617  -5.407  0.00  0.00    -0.061 A 
ATOM     37  H   LIG d   1       7.199  -5.670  -5.081  0.00  0.00     0.062 H 
ATOM     38  C   LIG d   1       4.770  -3.381  -5.570  0.00  0.00    -0.052 A 
ATOM     39  H   LIG d   1       4.766  -5.514  -5.429  0.00  0.00     0.062 H 
ATOM     40  H   LIG d   1       3.703  -3.312  -5.719  0.00  0.00     0.062 H 
ENDBRANCH  28  30
BRANCH  28  41
ATOM     41  C   LIG d   1       4.661  -0.253  -4.383  0.00  0.00     0.025 A 
ATOM     42  C   LIG d   1       3.424  -0.354  -3.773  0.00  0.00    -0.052 A 
ATOM     43  C   LIG d   1       3.214   0.226  -2.536  0.00  0.00    -0.061 A 
ATOM     44  H   LIG d   1       2.623  -0.888  -4.262  0.00  0.00     0.062 H 
ATOM     45  C   LIG d   1       4.241   0.908  -1.909  0.00  0.00    -0.062 A 
ATOM     46  H   LIG d   1       2.249   0.147  -2.060  0.00  0.00     0.062 H 
ATOM     47  C   LIG d   1       5.477   1.010  -2.520  0.00  0.00    -0.061 A 
ATOM     48  H   LIG d   1       4.076   1.362  -0.943  0.00  0.00     0.062 H 
ATOM     49  C   LIG d   1       5.688   0.424  -3.754  0.00  0.00    -0.052 A 
ATOM     50  H   LIG d   1       6.279   1.543  -2.030  0.00  0.00     0.062 H 
ATOM     51  H   LIG d   1       6.655   0.500  -4.229  0.00  0.00     0.062 H 
ENDBRANCH  28  41
ENDBRANCH   1  28
TORSDOF 8
ENDMDL
MODEL 2
REMARK VINA RESULT:      -7.1      2.519      6.320
REMARK  8 active torsions:
REMARK  status: ('A' for Active; 'I' for Inactive)
REMARK    1  A    between atoms: C_1  and  C_2 
REMARK    2  A    between atoms: C_2  and  C_3 
REMARK    3  A    between atoms: C_2  and  N_50 
REMARK    4  A    between atoms: C_8  and  C_9 
REMARK    5  A    between atoms: C_8  and  C_10 
REMARK    6  A    between atoms: C_14  and  C_15 
REMARK    7  A    between atoms: C_14  and  C_21 
REMARK    8  A    between atoms: C_14  and  N_50 
ROOT
ATOM      1  N   LIG d   1       3.632  -1.621  -7.004  0.00  0.00    -0.237 N 
ATOM      2  H   LIG d   1       2.668  -1.826  -6.717  0.00  0.00     0.446 HD
ENDROOT
BRANCH   1   3
ATOM      3  C   LIG d   1       4.622  -1.417  -6.034  0.00  0.00     0.162 C 
BRANCH   3   4
ATOM      4  C   LIG d   1       6.057  -1.125  -6.389  0.00  0.00     0.017 C 
ATOM      5  H   LIG d   1       6.090  -0.429  -7.227  0.00  0.00     0.033 H 
ATOM      6  H   LIG d   1       6.560  -0.683  -5.529  0.00  0.00     0.033 H 
ATOM      7  H   LIG d   1       6.517  -1.976  -6.643  0.00  0.00     0.033 H 
ENDBRANCH   3   4
BRANCH   3   8
ATOM      8  C   LIG d   1       4.246  -1.492  -4.734  0.00  0.00     0.101 A 
ATOM      9  C   LIG d   1       4.518  -2.567  -3.886  0.00  0.00     0.147 A 
ATOM     10  C   LIG d   1       3.951  -2.307  -2.516  0.00  0.00     0.010 A 
ATOM     11  O   LIG d   1       5.125  -3.568  -4.209  0.00  0.00    -0.296 OA
ATOM     12  C   LIG d   1       3.274  -0.930  -2.563  0.00  0.00    -0.025 A 
ATOM     13  H   LIG d   1       3.274  -3.003  -2.273  0.00  0.00     0.035 H 
ATOM     14  H   LIG d   1       4.751  -2.306  -1.777  0.00  0.00     0.035 H 
ATOM     15  C   LIG d   1       3.474  -0.428  -4.001  0.00  0.00    -0.013 A 
ATOM     16  H   LIG d   1       2.317  -0.826  -2.052  0.00  0.00     0.031 H 
ATOM     17  C   LIG d   1       4.146   0.316  -2.844  0.00  0.00    -0.027 A 
ATOM     18  H   LIG d   1       2.661   0.058  -4.540  0.00  0.00     0.032 H 
ATOM     19  H   LIG d   1       4.962  -1.102  -4.156  0.00  0.00     0.049 H 
BRANCH  17  20
ATOM     20  C   LIG d   1       5.660   0.162  -2.693  0.00  0.00    -0.059 C 
ATOM     21  H   LIG d   1       5.963   0.504  -1.703  0.00  0.00     0.024 H 
ATOM     22  H   LIG d   1       5.933  -0.886  -2.814  0.00  0.00     0.024 H 
ATOM     23  H   LIG d   1       6.165   0.758  -3.453  0.00  0.00     0.024 H 
ENDBRANCH  17  20
BRANCH  17  24
ATOM     24  C   LIG d   1       3.579   1.684  -2.463  0.00  0.00    -0.059 C 
ATOM     25  H   LIG d   1       2.531   1.580  -2.186  0.00  0.00     0.024 H 
ATOM     26  H   LIG d   1       4.139   2.086  -1.617  0.00  0.00     0.024 H 
ATOM     27  H   LIG d   1       3.666   2.363  -3.311  0.00  0.00     0.024 H 
ENDBRANCH  17  24
ENDBRANCH   3   8
ENDBRANCH   1   3
BRANCH   1  28
ATOM     28  C   LIG d   1       3.982  -1.539  -8.463  0.00  0.00     0.204 C 
ATOM     29  H   LIG d   1       5.017  -1.832  -8.642  0.00  0.00     0.117 H 
BRANCH  28  30
ATOM     30  C   LIG d   1       3.060  -2.478  -9.199  0.00  0.00     0.025 A 
ATOM     31  C   LIG d   1       1.929  -1.988  -9.824  0.00  0.00    -0.052 A 
ATOM     32  C   LIG d   1       1.085  -2.849 -10.500  0.00  0.00    -0.061 A 
ATOM     33  H   LIG d   1       1.704  -0.932  -9.784  0.00  0.00     0.062 H 
ATOM     34  C   LIG d   1       1.373  -4.200 -10.551  0.00  0.00    -0.062 A 
ATOM     35  H   LIG d   1       0.201  -2.465 -10.988  0.00  0.00     0.062 H 
ATOM     36  C   LIG d   1       2.504  -4.690  -9.927  0.00  0.00    -0.061 A 
ATOM     37  H   LIG d   1       0.712  -4.872 -11.079  0.00  0.00     0.062 H 
ATOM     38  C   LIG d   1       3.351  -3.828  -9.256  0.00  0.00    -0.052 A 
ATOM     39  H   LIG d   1       2.728  -5.746  -9.967  0.00  0.00     0.062 H 
ATOM     40  H   LIG d   1       4.237  -4.210  -8.771  0.00  0.00     0.062 H 
ENDBRANCH  28  30
BRANCH  28  41
ATOM     41  C   LIG d   1       3.765  -0.132  -8.959  0.00  0.00     0.025 A 
ATOM     42  C   LIG d   1       3.085   0.780  -8.174  0.00  0.00    -0.052 A 
ATOM     43  C   LIG d   1       2.886   2.070  -8.629  0.00  0.00    -0.061 A 
ATOM     44  H   LIG d   1       2.710   0.486  -7.205  0.00  0.00     0.062 H 
ATOM     45  C   LIG d   1       3.366   2.448  -9.869  0.00  0.00    -0.062 A 
ATOM     46  H   LIG d   1       2.355   2.783  -8.016  0.00  0.00     0.062 H 
ATOM     47  C   LIG d   1       4.046   1.534 -10.655  0.00  0.00    -0.061 A 
ATOM     48  H   LIG d   1       3.210   3.455 -10.225  0.00  0.00     0.062 H 
ATOM     49  C   LIG d   1       4.249   0.246 -10.197  0.00  0.00    -0.052 A 
ATOM     50  H   LIG d   1       4.421   1.829 -11.623  0.00  0.00     0.062 H 
ATOM     51  H   LIG d   1       4.784  -0.466 -10.808  0.00  0.00     0.062 H 
ENDBRANCH  28  41
ENDBRANCH   1  28
TORSDOF 8
ENDMDL
MODEL 3
REMARK VINA RESULT:      -7.1      2.444      6.844
REMARK  8 active torsions:
REMARK  status: ('A' for Active; 'I' for Inactive)
REMARK    1  A    between atoms: C_1  and  C_2 
REMARK    2  A    between atoms: C_2  and  C_3 
REMARK    3  A    between atoms: C_2  and  N_50 
REMARK    4  A    between atoms: C_8  and  C_9 
REMARK    5  A    between atoms: C_8  and  C_10 
REMARK    6  A    between atoms: C_14  and  C_15 
REMARK    7  A    between atoms: C_14  and  C_21 
REMARK    8  A    between atoms: C_14  and  N_50 
ROOT
ATOM      1  N   LIG d   1       4.653  -1.801  -7.353  0.00  0.00    -0.237 N 
ATOM      2  H   LIG d   1       5.172  -2.590  -7.756  0.00  0.00     0.446 HD
ENDROOT
BRANCH   1   3
ATOM      3  C   LIG d   1       5.174  -1.110  -6.253  0.00  0.00     0.162 C 
BRANCH   3   4
ATOM      4  C   LIG d   1       6.325  -0.143  -6.373  0.00  0.00     0.017 C 
ATOM      5  H   LIG d   1       6.570   0.001  -7.425  0.00  0.00     0.033 H 
ATOM      6  H   LIG d   1       6.043   0.812  -5.930  0.00  0.00     0.033 H 
ATOM      7  H   LIG d   1       7.121  -0.512  -5.893  0.00  0.00     0.033 H 
ENDBRANCH   3   4
BRANCH   3   8
ATOM      8  C   LIG d   1       4.604  -1.339  -5.045  0.00  0.00     0.101 A 
ATOM      9  C   LIG d   1       4.783  -2.495  -4.285  0.00  0.00     0.147 A 
ATOM     10  C   LIG d   1       3.999  -2.404  -3.002  0.00  0.00     0.010 A 
ATOM     11  O   LIG d   1       5.474  -3.440  -4.611  0.00  0.00    -0.296 OA
ATOM     12  C   LIG d   1       3.283  -1.046  -3.009  0.00  0.00    -0.025 A 
ATOM     13  H   LIG d   1       3.322  -3.138  -2.946  0.00  0.00     0.035 H 
ATOM     14  H   LIG d   1       4.674  -2.467  -2.149  0.00  0.00     0.035 H 
ATOM     15  C   LIG d   1       3.684  -0.382  -4.335  0.00  0.00    -0.013 A 
ATOM     16  H   LIG d   1       2.254  -1.023  -2.649  0.00  0.00     0.031 H 
ATOM     17  C   LIG d   1       4.137   0.243  -3.013  0.00  0.00    -0.027 A 
ATOM     18  H   LIG d   1       2.946   0.143  -4.942  0.00  0.00     0.032 H 
ATOM     19  H   LIG d   1       5.205  -0.999  -4.322  0.00  0.00     0.049 H 
BRANCH  17  20
ATOM     20  C   LIG d   1       5.614   0.109  -2.639  0.00  0.00    -0.059 C 
ATOM     21  H   LIG d   1       6.016   1.090  -2.387  0.00  0.00     0.024 H 
ATOM     22  H   LIG d   1       5.712  -0.555  -1.780  0.00  0.00     0.024 H 
ATOM     23  H   LIG d   1       6.167  -0.305  -3.482  0.00  0.00     0.024 H 
ENDBRANCH  17  20
BRANCH  17  24
ATOM     24  C   LIG d   1       3.462   1.547  -2.583  0.00  0.00    -0.059 C 
ATOM     25  H   LIG d   1       2.803   1.895  -3.376  0.00  0.00     0.024 H 
ATOM     26  H   LIG d   1       2.880   1.372  -1.677  0.00  0.00     0.024 H 
ATOM     27  H   LIG d   1       4.223   2.302  -2.384  0.00  0.00     0.024 H 
ENDBRANCH  17  24
ENDBRANCH   3   8
ENDBRANCH   1   3
BRANCH   1  28
ATOM     28  C   LIG d   1       3.335  -1.387  -7.945  0.00  0.00     0.204 C 
ATOM     29  H   LIG d   1       2.549  -1.361  -7.189  0.00  0.00     0.117 H 
BRANCH  28  30
ATOM     30  C   LIG d   1       3.516  -0.009  -8.528  0.00  0.00     0.025 A 
ATOM     31  C   LIG d   1       2.829   1.064  -7.993  0.00  0.00    -0.052 A 
ATOM     32  C   LIG d   1       2.996   2.328  -8.527  0.00  0.00    -0.061 A 
ATOM     33  H   LIG d   1       2.160   0.915  -7.157  0.00  0.00     0.062 H 
ATOM     34  C   LIG d   1       3.852   2.518  -9.596  0.00  0.00    -0.062 A 
ATOM     35  H   LIG d   1       2.459   3.166  -8.108  0.00  0.00     0.062 H 
ATOM     36  C   LIG d   1       4.540   1.446 -10.130  0.00  0.00    -0.061 A 
ATOM     37  H   LIG d   1       3.982   3.506 -10.013  0.00  0.00     0.062 H 
ATOM     38  C   LIG d   1       4.376   0.183  -9.593  0.00  0.00    -0.052 A 
ATOM     39  H   LIG d   1       5.208   1.595 -10.966  0.00  0.00     0.062 H 
ATOM     40  H   LIG d   1       4.917  -0.655 -10.007  0.00  0.00     0.062 H 
ENDBRANCH  28  30
BRANCH  28  41
ATOM     41  C   LIG d   1       2.946  -2.348  -9.040  0.00  0.00     0.025 A 
ATOM     42  C   LIG d   1       3.685  -3.499  -9.244  0.00  0.00    -0.052 A 
ATOM     43  C   LIG d   1       3.328  -4.379 -10.248  0.00  0.00    -0.061 A 
ATOM     44  H   LIG d   1       4.539  -3.711  -8.618  0.00  0.00     0.062 H 
ATOM     45  C   LIG d   1       2.234  -4.109 -11.049  0.00  0.00    -0.062 A 
ATOM     46  H   LIG d   1       3.905  -5.278 -10.407  0.00  0.00     0.062 H 
ATOM     47  C   LIG d   1       1.497  -2.957 -10.845  0.00  0.00    -0.061 A 
ATOM     48  H   LIG d   1       1.956  -4.796 -11.834  0.00  0.00     0.062 H 
ATOM     49  C   LIG d   1       1.850  -2.080  -9.837  0.00  0.00    -0.052 A 
ATOM     50  H   LIG d   1       0.642  -2.746 -11.470  0.00  0.00     0.062 H 
ATOM     51  H   LIG d   1       1.271  -1.182  -9.675  0.00  0.00     0.062 H 
ENDBRANCH  28  41
ENDBRANCH   1  28
TORSDOF 8
ENDMDL
MODEL 4
REMARK VINA RESULT:      -7.0      1.776      4.217
REMARK  8 active torsions:
REMARK  status: ('A' for Active; 'I' for Inactive)
REMARK    1  A    between atoms: C_1  and  C_2 
REMARK    2  A    between atoms: C_2  and  C_3 
REMARK    3  A    between atoms: C_2  and  N_50 
REMARK    4  A    between atoms: C_8  and  C_9 
REMARK    5  A    between atoms: C_8  and  C_10 
REMARK    6  A    between atoms: C_14  and  C_15 
REMARK    7  A    between atoms: C_14  and  C_21 
REMARK    8  A    between atoms: C_14  and  N_50 
ROOT
ATOM      1  N   LIG d   1       6.194  -1.723  -6.263  0.00  0.00    -0.237 N 
ATOM      2  H   LIG d   1       5.838  -2.617  -6.620  0.00  0.00     0.446 HD
ENDROOT
BRANCH   1   3
ATOM      3  C   LIG d   1       5.977  -0.544  -6.987  0.00  0.00     0.162 C 
BRANCH   3   4
ATOM      4  C   LIG d   1       7.040   0.511  -7.155  0.00  0.00     0.017 C 
ATOM      5  H   LIG d   1       6.614   1.379  -7.658  0.00  0.00     0.033 H 
ATOM      6  H   LIG d   1       7.416   0.806  -6.175  0.00  0.00     0.033 H 
ATOM      7  H   LIG d   1       7.791   0.143  -7.704  0.00  0.00     0.033 H 
ENDBRANCH   3   4
BRANCH   3   8
ATOM      8  C   LIG d   1       4.755  -0.372  -7.548  0.00  0.00     0.101 A 
ATOM      9  C   LIG d   1       3.599  -0.022  -6.848  0.00  0.00     0.147 A 
ATOM     10  C   LIG d   1       2.429   0.081  -7.791  0.00  0.00     0.010 A 
ATOM     11  O   LIG d   1       3.545   0.171  -5.650  0.00  0.00    -0.296 OA
ATOM     12  C   LIG d   1       2.956  -0.241  -9.197  0.00  0.00    -0.025 A 
ATOM     13  H   LIG d   1       1.715  -0.574  -7.544  0.00  0.00     0.035 H 
ATOM     14  H   LIG d   1       2.020   1.090  -7.766  0.00  0.00     0.035 H 
ATOM     15  C   LIG d   1       4.452  -0.533  -9.013  0.00  0.00    -0.013 A 
ATOM     16  H   LIG d   1       2.328  -0.865  -9.834  0.00  0.00     0.031 H 
ATOM     17  C   LIG d   1       4.019   0.691  -9.823  0.00  0.00    -0.027 A 
ATOM     18  H   LIG d   1       4.926  -1.368  -9.530  0.00  0.00     0.032 H 
ATOM     19  H   LIG d   1       4.647   0.582  -7.825  0.00  0.00     0.049 H 
BRANCH  17  20
ATOM     20  C   LIG d   1       4.213   2.066  -9.181  0.00  0.00    -0.059 C 
ATOM     21  H   LIG d   1       5.270   2.331  -9.201  0.00  0.00     0.024 H 
ATOM     22  H   LIG d   1       3.641   2.810  -9.736  0.00  0.00     0.024 H 
ATOM     23  H   LIG d   1       3.864   2.039  -8.149  0.00  0.00     0.024 H 
ENDBRANCH  17  20
BRANCH  17  24
ATOM     24  C   LIG d   1       4.210   0.637 -11.339  0.00  0.00    -0.059 C 
ATOM     25  H   LIG d   1       4.006   1.617 -11.768  0.00  0.00     0.024 H 
ATOM     26  H   LIG d   1       5.238   0.349 -11.565  0.00  0.00     0.024 H 
ATOM     27  H   LIG d   1       3.526  -0.096 -11.766  0.00  0.00     0.024 H 
ENDBRANCH  17  24
ENDBRANCH   3   8
ENDBRANCH   1   3
BRANCH   1  28
ATOM     28  C   LIG d   1       6.946  -1.679  -4.963  0.00  0.00     0.204 C 
ATOM     29  H   LIG d   1       7.715  -0.905  -4.973  0.00  0.00     0.117 H 
BRANCH  28  30
ATOM     30  C   LIG d   1       5.946  -1.380  -3.875  0.00  0.00     0.025 A 
ATOM     31  C   LIG d   1       4.972  -2.307  -3.557  0.00  0.00    -0.052 A 
ATOM     32  C   LIG d   1       4.056  -2.033  -2.559  0.00  0.00    -0.061 A 
ATOM     33  H   LIG d   1       4.926  -3.246  -4.090  0.00  0.00     0.062 H 
ATOM     34  C   LIG d   1       4.115  -0.831  -1.877  0.00  0.00    -0.062 A 
ATOM     35  H   LIG d   1       3.294  -2.758  -2.311  0.00  0.00     0.062 H 
ATOM     36  C   LIG d   1       5.090   0.096  -2.194  0.00  0.00    -0.061 A 
ATOM     37  H   LIG d   1       3.399  -0.617  -1.098  0.00  0.00     0.062 H 
ATOM     38  C   LIG d   1       6.009  -0.181  -3.189  0.00  0.00    -0.052 A 
ATOM     39  H   LIG d   1       5.136   1.034  -1.663  0.00  0.00     0.062 H 
ATOM     40  H   LIG d   1       6.774   0.542  -3.435  0.00  0.00     0.062 H 
ENDBRANCH  28  30
BRANCH  28  41
ATOM     41  C   LIG d   1       7.586  -3.018  -4.701  0.00  0.00     0.025 A 
ATOM     42  C   LIG d   1       7.269  -4.103  -5.497  0.00  0.00    -0.052 A 
ATOM     43  C   LIG d   1       7.855  -5.331  -5.257  0.00  0.00    -0.061 A 
ATOM     44  H   LIG d   1       6.564  -3.991  -6.308  0.00  0.00     0.062 H 
ATOM     45  C   LIG d   1       8.759  -5.475  -4.220  0.00  0.00    -0.062 A 
ATOM     46  H   LIG d   1       7.608  -6.178  -5.879  0.00  0.00     0.062 H 
ATOM     47  C   LIG d   1       9.075  -4.390  -3.423  0.00  0.00    -0.061 A 
ATOM     48  H   LIG d   1       9.216  -6.435  -4.032  0.00  0.00     0.062 H 
ATOM     49  C   LIG d   1       8.492  -3.161  -3.668  0.00  0.00    -0.052 A 
ATOM     50  H   LIG d   1       9.780  -4.503  -2.613  0.00  0.00     0.062 H 
ATOM     51  H   LIG d   1       8.743  -2.312  -3.048  0.00  0.00     0.062 H 
ENDBRANCH  28  41
ENDBRANCH   1  28
TORSDOF 8
ENDMDL
MODEL 5
REMARK VINA RESULT:      -7.0      1.647      4.152
REMARK  8 active torsions:
REMARK  status: ('A' for Active; 'I' for Inactive)
REMARK    1  A    between atoms: C_1  and  C_2 
REMARK    2  A    between atoms: C_2  and  C_3 
REMARK    3  A    between atoms: C_2  and  N_50 
REMARK    4  A    between atoms: C_8  and  C_9 
REMARK    5  A    between atoms: C_8  and  C_10 
REMARK    6  A    between atoms: C_14  and  C_15 
REMARK    7  A    between atoms: C_14  and  C_21 
REMARK    8  A    between atoms: C_14  and  N_50 
ROOT
ATOM      1  N   LIG d   1       4.339  -2.485  -6.504  0.00  0.00    -0.237 N 
ATOM      2  H   LIG d   1       3.462  -2.821  -6.087  0.00  0.00     0.446 HD
ENDROOT
BRANCH   1   3
ATOM      3  C   LIG d   1       4.380  -2.135  -7.859  0.00  0.00     0.162 C 
BRANCH   3   4
ATOM      4  C   LIG d   1       5.202  -2.895  -8.869  0.00  0.00     0.017 C 
ATOM      5  H   LIG d   1       5.873  -3.580  -8.350  0.00  0.00     0.033 H 
ATOM      6  H   LIG d   1       4.539  -3.461  -9.524  0.00  0.00     0.033 H 
ATOM      7  H   LIG d   1       5.739  -2.251  -9.413  0.00  0.00     0.033 H 
ENDBRANCH   3   4
BRANCH   3   8
ATOM      8  C   LIG d   1       3.643  -1.067  -8.250  0.00  0.00     0.101 A 
ATOM      9  C   LIG d   1       3.916   0.258  -7.908  0.00  0.00     0.147 A 
ATOM     10  C   LIG d   1       2.890   1.177  -8.517  0.00  0.00     0.010 A 
ATOM     11  O   LIG d   1       4.849   0.618  -7.217  0.00  0.00    -0.296 OA
ATOM     12  C   LIG d   1       1.910   0.296  -9.304  0.00  0.00    -0.025 A 
ATOM     13  H   LIG d   1       2.394   1.677  -7.807  0.00  0.00     0.035 H 
ATOM     14  H   LIG d   1       3.377   1.886  -9.186  0.00  0.00     0.035 H 
ATOM     15  C   LIG d   1       2.413  -1.142  -9.113  0.00  0.00    -0.013 A 
ATOM     16  H   LIG d   1       0.850   0.543  -9.233  0.00  0.00     0.031 H 
ATOM     17  C   LIG d   1       2.443  -0.514 -10.509  0.00  0.00    -0.027 A 
ATOM     18  H   LIG d   1       1.715  -1.956  -8.916  0.00  0.00     0.032 H 
ATOM     19  H   LIG d   1       3.997  -0.716  -9.117  0.00  0.00     0.049 H 
BRANCH  17  20
ATOM     20  C   LIG d   1       3.807  -0.117 -11.074  0.00  0.00    -0.059 C 
ATOM     21  H   LIG d   1       4.184  -0.917 -11.711  0.00  0.00     0.024 H 
ATOM     22  H   LIG d   1       3.705   0.797 -11.661  0.00  0.00     0.024 H 
ATOM     23  H   LIG d   1       4.505   0.056 -10.255  0.00  0.00     0.024 H 
ENDBRANCH  17  20
BRANCH  17  24
ATOM     24  C   LIG d   1       1.426  -1.022 -11.532  0.00  0.00    -0.059 C 
ATOM     25  H   LIG d   1       1.641  -2.062 -11.775  0.00  0.00     0.024 H 
ATOM     26  H   LIG d   1       0.421  -0.947 -11.114  0.00  0.00     0.024 H 
ATOM     27  H   LIG d   1       1.487  -0.417 -12.437  0.00  0.00     0.024 H 
ENDBRANCH  17  24
ENDBRANCH   3   8
ENDBRANCH   1   3
BRANCH   1  28
ATOM     28  C   LIG d   1       5.577  -2.370  -5.660  0.00  0.00     0.204 C 
ATOM     29  H   LIG d   1       6.301  -1.685  -6.104  0.00  0.00     0.117 H 
BRANCH  28  30
ATOM     30  C   LIG d   1       5.154  -1.848  -4.311  0.00  0.00     0.025 A 
ATOM     31  C   LIG d   1       4.268  -2.573  -3.536  0.00  0.00    -0.052 A 
ATOM     32  C   LIG d   1       3.881  -2.094  -2.298  0.00  0.00    -0.061 A 
ATOM     33  H   LIG d   1       3.876  -3.512  -3.898  0.00  0.00     0.062 H 
ATOM     34  C   LIG d   1       4.382  -0.891  -1.835  0.00  0.00    -0.062 A 
ATOM     35  H   LIG d   1       3.188  -2.660  -1.693  0.00  0.00     0.062 H 
ATOM     36  C   LIG d   1       5.269  -0.168  -2.609  0.00  0.00    -0.061 A 
ATOM     37  H   LIG d   1       4.079  -0.518  -0.868  0.00  0.00     0.062 H 
ATOM     38  C   LIG d   1       5.659  -0.649  -3.845  0.00  0.00    -0.052 A 
ATOM     39  H   LIG d   1       5.659   0.771  -2.247  0.00  0.00     0.062 H 
ATOM     40  H   LIG d   1       6.356  -0.086  -4.448  0.00  0.00     0.062 H 
ENDBRANCH  28  30
BRANCH  28  41
ATOM     41  C   LIG d   1       6.208  -3.730  -5.497  0.00  0.00     0.025 A 
ATOM     42  C   LIG d   1       7.501  -3.839  -5.021  0.00  0.00    -0.052 A 
ATOM     43  C   LIG d   1       8.079  -5.085  -4.871  0.00  0.00    -0.061 A 
ATOM     44  H   LIG d   1       8.060  -2.951  -4.765  0.00  0.00     0.062 H 
ATOM     45  C   LIG d   1       7.364  -6.223  -5.197  0.00  0.00    -0.062 A 
ATOM     46  H   LIG d   1       9.089  -5.171  -4.499  0.00  0.00     0.062 H 
ATOM     47  C   LIG d   1       6.071  -6.113  -5.674  0.00  0.00    -0.061 A 
ATOM     48  H   LIG d   1       7.816  -7.197  -5.081  0.00  0.00     0.062 H 
ATOM     49  C   LIG d   1       5.491  -4.867  -5.818  0.00  0.00    -0.052 A 
ATOM     50  H   LIG d   1       5.513  -7.002  -5.928  0.00  0.00     0.062 H 
ATOM     51  H   LIG d   1       4.479  -4.782  -6.186  0.00  0.00     0.062 H 
ENDBRANCH  28  41
ENDBRANCH   1  28
TORSDOF 8
ENDMDL
MODEL 6
REMARK VINA RESULT:      -6.8      2.306      6.130
REMARK  8 active torsions:
REMARK  status: ('A' for Active; 'I' for Inactive)
REMARK    1  A    between atoms: C_1  and  C_2 
REMARK    2  A    between atoms: C_2  and  C_3 
REMARK    3  A    between atoms: C_2  and  N_50 
REMARK    4  A    between atoms: C_8  and  C_9 
REMARK    5  A    between atoms: C_8  and  C_10 
REMARK    6  A    between atoms: C_14  and  C_15 
REMARK    7  A    between atoms: C_14  and  C_21 
REMARK    8  A    between atoms: C_14  and  N_50 
ROOT
ATOM      1  N   LIG d   1       3.420  -0.680  -6.514  0.00  0.00    -0.237 N 
ATOM      2  H   LIG d   1       2.979  -1.598  -6.641  0.00  0.00     0.446 HD
ENDROOT
BRANCH   1   3
ATOM      3  C   LIG d   1       3.306  -0.013  -5.288  0.00  0.00     0.162 C 
BRANCH   3   4
ATOM      4  C   LIG d   1       2.552   1.284  -5.137  0.00  0.00     0.017 C 
ATOM      5  H   LIG d   1       2.989   2.037  -5.792  0.00  0.00     0.033 H 
ATOM      6  H   LIG d   1       1.507   1.129  -5.406  0.00  0.00     0.033 H 
ATOM      7  H   LIG d   1       2.610   1.594  -4.188  0.00  0.00     0.033 H 
ENDBRANCH   3   4
BRANCH   3   8
ATOM      8  C   LIG d   1       3.907  -0.578  -4.212  0.00  0.00     0.101 A 
ATOM      9  C   LIG d   1       3.239  -1.035  -3.075  0.00  0.00     0.147 A 
ATOM     10  C   LIG d   1       4.222  -1.601  -2.085  0.00  0.00     0.010 A 
ATOM     11  O   LIG d   1       2.037  -0.985  -2.909  0.00  0.00    -0.296 OA
ATOM     12  C   LIG d   1       5.618  -1.463  -2.708  0.00  0.00    -0.025 A 
ATOM     13  H   LIG d   1       4.190  -1.095  -1.222  0.00  0.00     0.035 H 
ATOM     14  H   LIG d   1       3.998  -2.651  -1.898  0.00  0.00     0.035 H 
ATOM     15  C   LIG d   1       5.389  -0.798  -4.074  0.00  0.00    -0.013 A 
ATOM     16  H   LIG d   1       6.429  -1.149  -2.051  0.00  0.00     0.031 H 
ATOM     17  C   LIG d   1       5.927  -2.230  -4.015  0.00  0.00    -0.027 A 
ATOM     18  H   LIG d   1       6.046  -0.002  -4.424  0.00  0.00     0.032 H 
ATOM     19  H   LIG d   1       3.965  -1.567  -4.344  0.00  0.00     0.049 H 
BRANCH  17  20
ATOM     20  C   LIG d   1       4.972  -3.358  -4.410  0.00  0.00    -0.059 C 
ATOM     21  H   LIG d   1       5.543  -4.192  -4.817  0.00  0.00     0.024 H 
ATOM     22  H   LIG d   1       4.420  -3.691  -3.530  0.00  0.00     0.024 H 
ATOM     23  H   LIG d   1       4.271  -2.996  -5.161  0.00  0.00     0.024 H 
ENDBRANCH  17  20
BRANCH  17  24
ATOM     24  C   LIG d   1       7.395  -2.447  -4.385  0.00  0.00    -0.059 C 
ATOM     25  H   LIG d   1       7.467  -2.754  -5.428  0.00  0.00     0.024 H 
ATOM     26  H   LIG d   1       7.946  -1.517  -4.242  0.00  0.00     0.024 H 
ATOM     27  H   LIG d   1       7.820  -3.222  -3.748  0.00  0.00     0.024 H 
ENDBRANCH  17  24
ENDBRANCH   3   8
ENDBRANCH   1   3
BRANCH   1  28
ATOM     28  C   LIG d   1       4.189  -0.052  -7.642  0.00  0.00     0.204 C 
ATOM     29  H   LIG d   1       4.349   1.014  -7.471  0.00  0.00     0.117 H 
BRANCH  28  30
ATOM     30  C   LIG d   1       5.520  -0.753  -7.725  0.00  0.00     0.025 A 
ATOM     31  C   LIG d   1       6.692  -0.031  -7.590  0.00  0.00    -0.052 A 
ATOM     32  C   LIG d   1       7.912  -0.675  -7.664  0.00  0.00    -0.061 A 
ATOM     33  H   LIG d   1       6.653   1.036  -7.427  0.00  0.00     0.062 H 
ATOM     34  C   LIG d   1       7.962  -2.041  -7.873  0.00  0.00    -0.062 A 
ATOM     35  H   LIG d   1       8.828  -0.111  -7.559  0.00  0.00     0.062 H 
ATOM     36  C   LIG d   1       6.791  -2.763  -8.007  0.00  0.00    -0.061 A 
ATOM     37  H   LIG d   1       8.916  -2.543  -7.931  0.00  0.00     0.062 H 
ATOM     38  C   LIG d   1       5.570  -2.120  -7.927  0.00  0.00    -0.052 A 
ATOM     39  H   LIG d   1       6.830  -3.829  -8.170  0.00  0.00     0.062 H 
ATOM     40  H   LIG d   1       4.654  -2.684  -8.027  0.00  0.00     0.062 H 
ENDBRANCH  28  30
BRANCH  28  41
ATOM     41  C   LIG d   1       3.439  -0.245  -8.936  0.00  0.00     0.025 A 
ATOM     42  C   LIG d   1       2.170  -0.793  -8.924  0.00  0.00    -0.052 A 
ATOM     43  C   LIG d   1       1.483  -0.971 -10.110  0.00  0.00    -0.061 A 
ATOM     44  H   LIG d   1       1.714  -1.081  -7.988  0.00  0.00     0.062 H 
ATOM     45  C   LIG d   1       2.065  -0.601 -11.309  0.00  0.00    -0.062 A 
ATOM     46  H   LIG d   1       0.492  -1.398 -10.101  0.00  0.00     0.062 H 
ATOM     47  C   LIG d   1       3.335  -0.054 -11.320  0.00  0.00    -0.061 A 
ATOM     48  H   LIG d   1       1.529  -0.740 -12.235  0.00  0.00     0.062 H 
ATOM     49  C   LIG d   1       4.019   0.129 -10.133  0.00  0.00    -0.052 A 
ATOM     50  H   LIG d   1       3.790   0.235 -12.256  0.00  0.00     0.062 H 
ATOM     51  H   LIG d   1       5.009   0.560 -10.142  0.00  0.00     0.062 H 
ENDBRANCH  28  41
ENDBRANCH   1  28
TORSDOF 8
ENDMDL
MODEL 7
REMARK VINA RESULT:      -6.8      1.825      6.114
REMARK  8 active torsions:
REMARK  status: ('A' for Active; 'I' for Inactive)
REMARK    1  A    between atoms: C_1  and  C_2 
REMARK    2  A    between atoms: C_2  and  C_3 
REMARK    3  A    between atoms: C_2  and  N_50 
REMARK    4  A    between atoms: C_8  and  C_9 
REMARK    5  A    between atoms: C_8  and  C_10 
REMARK    6  A    between atoms: C_14  and  C_15 
REMARK    7  A    between atoms: C_14  and  C_21 
REMARK    8  A    between atoms: C_14  and  N_50 
ROOT
ATOM      1  N   LIG d   1       5.881   0.289  -5.880  0.00  0.00    -0.237 N 
ATOM      2  H   LIG d   1       6.183   1.126  -6.395  0.00  0.00     0.446 HD
ENDROOT
BRANCH   1   3
ATOM      3  C   LIG d   1       6.552  -0.094  -4.713  0.00  0.00     0.162 C 
BRANCH   3   4
ATOM      4  C   LIG d   1       7.984  -0.563  -4.718  0.00  0.00     0.017 C 
ATOM      5  H   LIG d   1       8.528  -0.063  -5.519  0.00  0.00     0.033 H 
ATOM      6  H   LIG d   1       8.447  -0.326  -3.760  0.00  0.00     0.033 H 
ATOM      7  H   LIG d   1       8.010  -1.552  -4.864  0.00  0.00     0.033 H 
ENDBRANCH   3   4
BRANCH   3   8
ATOM      8  C   LIG d   1       5.863  -0.030  -3.548  0.00  0.00     0.101 A 
ATOM      9  C   LIG d   1       5.492   1.152  -2.904  0.00  0.00     0.147 A 
ATOM     10  C   LIG d   1       4.740   0.843  -1.637  0.00  0.00     0.010 A 
ATOM     11  O   LIG d   1       5.741   2.270  -3.310  0.00  0.00    -0.296 OA
ATOM     12  C   LIG d   1       4.658  -0.686  -1.525  0.00  0.00    -0.025 A 
ATOM     13  H   LIG d   1       5.219   1.211  -0.840  0.00  0.00     0.035 H 
ATOM     14  H   LIG d   1       3.738   1.270  -1.687  0.00  0.00     0.035 H 
ATOM     15  C   LIG d   1       5.391  -1.223  -2.763  0.00  0.00    -0.013 A 
ATOM     16  H   LIG d   1       4.811  -1.122  -0.538  0.00  0.00     0.031 H 
ATOM     17  C   LIG d   1       3.887  -1.469  -2.613  0.00  0.00    -0.027 A 
ATOM     18  H   LIG d   1       6.074  -2.069  -2.683  0.00  0.00     0.032 H 
ATOM     19  H   LIG d   1       4.882  -0.008  -3.741  0.00  0.00     0.049 H 
BRANCH  17  20
ATOM     20  C   LIG d   1       2.949  -0.673  -3.521  0.00  0.00    -0.059 C 
ATOM     21  H   LIG d   1       3.474   0.200  -3.911  0.00  0.00     0.024 H 
ATOM     22  H   LIG d   1       2.625  -1.302  -4.350  0.00  0.00     0.024 H 
ATOM     23  H   LIG d   1       2.079  -0.349  -2.951  0.00  0.00     0.024 H 
ENDBRANCH  17  20
BRANCH  17  24
ATOM     24  C   LIG d   1       3.436  -2.893  -2.282  0.00  0.00    -0.059 C 
ATOM     25  H   LIG d   1       2.795  -3.267  -3.079  0.00  0.00     0.024 H 
ATOM     26  H   LIG d   1       4.310  -3.538  -2.185  0.00  0.00     0.024 H 
ATOM     27  H   LIG d   1       2.883  -2.889  -1.342  0.00  0.00     0.024 H 
ENDBRANCH  17  24
ENDBRANCH   3   8
ENDBRANCH   1   3
BRANCH   1  28
ATOM     28  C   LIG d   1       4.719  -0.522  -6.380  0.00  0.00     0.204 C 
ATOM     29  H   LIG d   1       3.908  -0.549  -5.651  0.00  0.00     0.117 H 
BRANCH  28  30
ATOM     30  C   LIG d   1       4.231   0.126  -7.650  0.00  0.00     0.025 A 
ATOM     31  C   LIG d   1       2.967  -0.161  -8.132  0.00  0.00    -0.052 A 
ATOM     32  C   LIG d   1       2.520   0.435  -9.296  0.00  0.00    -0.061 A 
ATOM     33  H   LIG d   1       2.330  -0.851  -7.598  0.00  0.00     0.062 H 
ATOM     34  C   LIG d   1       3.336   1.318  -9.978  0.00  0.00    -0.062 A 
ATOM     35  H   LIG d   1       1.532   0.210  -9.672  0.00  0.00     0.062 H 
ATOM     36  C   LIG d   1       4.599   1.605  -9.497  0.00  0.00    -0.061 A 
ATOM     37  H   LIG d   1       2.986   1.782 -10.888  0.00  0.00     0.062 H 
ATOM     38  C   LIG d   1       5.045   1.014  -8.330  0.00  0.00    -0.052 A 
ATOM     39  H   LIG d   1       5.236   2.295 -10.030  0.00  0.00     0.062 H 
ATOM     40  H   LIG d   1       6.030   1.241  -7.951  0.00  0.00     0.062 H 
ENDBRANCH  28  30
BRANCH  28  41
ATOM     41  C   LIG d   1       5.174  -1.929  -6.678  0.00  0.00     0.025 A 
ATOM     42  C   LIG d   1       4.676  -2.987  -5.940  0.00  0.00    -0.052 A 
ATOM     43  C   LIG d   1       5.093  -4.276  -6.213  0.00  0.00    -0.061 A 
ATOM     44  H   LIG d   1       3.961  -2.806  -5.151  0.00  0.00     0.062 H 
ATOM     45  C   LIG d   1       6.007  -4.507  -7.223  0.00  0.00    -0.062 A 
ATOM     46  H   LIG d   1       4.704  -5.102  -5.637  0.00  0.00     0.062 H 
ATOM     47  C   LIG d   1       6.505  -3.449  -7.961  0.00  0.00    -0.061 A 
ATOM     48  H   LIG d   1       6.334  -5.515  -7.436  0.00  0.00     0.062 H 
ATOM     49  C   LIG d   1       6.084  -2.161  -7.691  0.00  0.00    -0.052 A 
ATOM     50  H   LIG d   1       7.220  -3.630  -8.750  0.00  0.00     0.062 H 
ATOM     51  H   LIG d   1       6.469  -1.334  -8.270  0.00  0.00     0.062 H 
ENDBRANCH  28  41
ENDBRANCH   1  28
TORSDOF 8
ENDMDL
MODEL 8
REMARK VINA RESULT:      -6.7      1.968      3.116
REMARK  8 active torsions:
REMARK  status: ('A' for Active; 'I' for Inactive)
REMARK    1  A    between atoms: C_1  and  C_2 
REMARK    2  A    between atoms: C_2  and  C_3 
REMARK    3  A    between atoms: C_2  and  N_50 
REMARK    4  A    between atoms: C_8  and  C_9 
REMARK    5  A    between atoms: C_8  and  C_10 
REMARK    6  A    between atoms: C_14  and  C_15 
REMARK    7  A    between atoms: C_14  and  C_21 
REMARK    8  A    between atoms: C_14  and  N_50 
ROOT
ATOM      1  N   LIG d   1       6.048   0.578  -6.582  0.00  0.00    -0.237 N 
ATOM      2  H   LIG d   1       5.977   1.591  -6.431  0.00  0.00     0.446 HD
ENDROOT
BRANCH   1   3
ATOM      3  C   LIG d   1       5.540   0.008  -7.755  0.00  0.00     0.162 C 
BRANCH   3   4
ATOM      4  C   LIG d   1       5.973  -1.348  -8.251  0.00  0.00     0.017 C 
ATOM      5  H   LIG d   1       6.993  -1.547  -7.923  0.00  0.00     0.033 H 
ATOM      6  H   LIG d   1       5.305  -2.111  -7.850  0.00  0.00     0.033 H 
ATOM      7  H   LIG d   1       5.935  -1.364  -9.251  0.00  0.00     0.033 H 
ENDBRANCH   3   4
BRANCH   3   8
ATOM      8  C   LIG d   1       4.626   0.725  -8.452  0.00  0.00     0.101 A 
ATOM      9  C   LIG d   1       4.899   1.906  -9.145  0.00  0.00     0.147 A 
ATOM     10  C   LIG d   1       3.647   2.427  -9.802  0.00  0.00     0.010 A 
ATOM     11  O   LIG d   1       5.990   2.436  -9.210  0.00  0.00    -0.296 OA
ATOM     12  C   LIG d   1       2.518   1.446  -9.459  0.00  0.00    -0.025 A 
ATOM     13  H   LIG d   1       3.416   3.337  -9.455  0.00  0.00     0.035 H 
ATOM     14  H   LIG d   1       3.787   2.476 -10.881  0.00  0.00     0.035 H 
ATOM     15  C   LIG d   1       3.171   0.363  -8.587  0.00  0.00    -0.013 A 
ATOM     16  H   LIG d   1       1.547   1.871  -9.205  0.00  0.00     0.031 H 
ATOM     17  C   LIG d   1       2.622  -0.012  -9.966  0.00  0.00    -0.027 A 
ATOM     18  H   LIG d   1       2.668  -0.016  -7.698  0.00  0.00     0.032 H 
ATOM     19  H   LIG d   1       4.597   0.401  -9.398  0.00  0.00     0.049 H 
BRANCH  17  20
ATOM     20  C   LIG d   1       3.635  -0.299 -11.074  0.00  0.00    -0.059 C 
ATOM     21  H   LIG d   1       4.390   0.487 -11.091  0.00  0.00     0.024 H 
ATOM     22  H   LIG d   1       4.116  -1.260 -10.887  0.00  0.00     0.024 H 
ATOM     23  H   LIG d   1       3.124  -0.332 -12.036  0.00  0.00     0.024 H 
ENDBRANCH  17  20
BRANCH  17  24
ATOM     24  C   LIG d   1       1.339  -0.844 -10.011  0.00  0.00    -0.059 C 
ATOM     25  H   LIG d   1       0.509  -0.257  -9.620  0.00  0.00     0.024 H 
ATOM     26  H   LIG d   1       1.128  -1.129 -11.042  0.00  0.00     0.024 H 
ATOM     27  H   LIG d   1       1.467  -1.741  -9.405  0.00  0.00     0.024 H 
ENDBRANCH  17  24
ENDBRANCH   3   8
ENDBRANCH   1   3
BRANCH   1  28
ATOM     28  C   LIG d   1       6.698  -0.293  -5.543  0.00  0.00     0.204 C 
ATOM     29  H   LIG d   1       7.040  -1.236  -5.971  0.00  0.00     0.117 H 
BRANCH  28  30
ATOM     30  C   LIG d   1       7.878   0.467  -4.994  0.00  0.00     0.025 A 
ATOM     31  C   LIG d   1       7.675   1.553  -4.162  0.00  0.00    -0.052 A 
ATOM     32  C   LIG d   1       8.757   2.249  -3.658  0.00  0.00    -0.061 A 
ATOM     33  H   LIG d   1       6.670   1.858  -3.908  0.00  0.00     0.062 H 
ATOM     34  C   LIG d   1      10.043   1.859  -3.985  0.00  0.00    -0.062 A 
ATOM     35  H   LIG d   1       8.598   3.098  -3.009  0.00  0.00     0.062 H 
ATOM     36  C   LIG d   1      10.246   0.773  -4.815  0.00  0.00    -0.061 A 
ATOM     37  H   LIG d   1      10.888   2.404  -3.591  0.00  0.00     0.062 H 
ATOM     38  C   LIG d   1       9.163   0.074  -5.315  0.00  0.00    -0.052 A 
ATOM     39  H   LIG d   1      11.250   0.469  -5.070  0.00  0.00     0.062 H 
ATOM     40  H   LIG d   1       9.321  -0.777  -5.961  0.00  0.00     0.062 H 
ENDBRANCH  28  30
BRANCH  28  41
ATOM     41  C   LIG d   1       5.719  -0.572  -4.431  0.00  0.00     0.025 A 
ATOM     42  C   LIG d   1       6.067  -1.428  -3.403  0.00  0.00    -0.052 A 
ATOM     43  C   LIG d   1       5.170  -1.684  -2.383  0.00  0.00    -0.061 A 
ATOM     44  H   LIG d   1       7.040  -1.897  -3.396  0.00  0.00     0.062 H 
ATOM     45  C   LIG d   1       3.925  -1.083  -2.391  0.00  0.00    -0.062 A 
ATOM     46  H   LIG d   1       5.441  -2.352  -1.580  0.00  0.00     0.062 H 
ATOM     47  C   LIG d   1       3.577  -0.227  -3.420  0.00  0.00    -0.061 A 
ATOM     48  H   LIG d   1       3.223  -1.284  -1.595  0.00  0.00     0.062 H 
ATOM     49  C   LIG d   1       4.476   0.033  -4.436  0.00  0.00    -0.052 A 
ATOM     50  H   LIG d   1       2.604   0.242  -3.426  0.00  0.00     0.062 H 
ATOM     51  H   LIG d   1       4.206   0.705  -5.237  0.00  0.00     0.062 H 
ENDBRANCH  28  41
ENDBRANCH   1  28
TORSDOF 8
ENDMDL
MODEL 9
REMARK VINA RESULT:      -6.7      2.579      5.267
REMARK  8 active torsions:
REMARK  status: ('A' for Active; 'I' for Inactive)
REMARK    1  A    between atoms: C_1  and  C_2 
REMARK    2  A    between atoms: C_2  and  C_3 
REMARK    3  A    between atoms: C_2  and  N_50 
REMARK    4  A    between atoms: C_8  and  C_9 
REMARK    5  A    between atoms: C_8  and  C_10 
REMARK    6  A    between atoms: C_14  and  C_15 
REMARK    7  A    between atoms: C_14  and  C_21 
REMARK    8  A    between atoms: C_14  and  N_50 
ROOT
ATOM      1  N   LIG d   1       5.340  -1.842  -6.146  0.00  0.00    -0.237 N 
ATOM      2  H   LIG d   1       6.267  -1.428  -6.304  0.00  0.00     0.446 HD
ENDROOT
BRANCH   1   3
ATOM      3  C   LIG d   1       5.193  -3.234  -6.105  0.00  0.00     0.162 C 
BRANCH   3   4
ATOM      4  C   LIG d   1       5.455  -4.040  -4.859  0.00  0.00     0.017 C 
ATOM      5  H   LIG d   1       6.528  -4.084  -4.673  0.00  0.00     0.033 H 
ATOM      6  H   LIG d   1       4.957  -3.570  -4.011  0.00  0.00     0.033 H 
ATOM      7  H   LIG d   1       5.101  -4.967  -4.982  0.00  0.00     0.033 H 
ENDBRANCH   3   4
BRANCH   3   8
ATOM      8  C   LIG d   1       4.800  -3.854  -7.244  0.00  0.00     0.101 A 
ATOM      9  C   LIG d   1       3.872  -4.894  -7.306  0.00  0.00     0.147 A 
ATOM     10  C   LIG d   1       3.678  -5.338  -8.732  0.00  0.00     0.010 A 
ATOM     11  O   LIG d   1       3.301  -5.373  -6.346  0.00  0.00    -0.296 OA
ATOM     12  C   LIG d   1       4.590  -4.462  -9.602  0.00  0.00    -0.025 A 
ATOM     13  H   LIG d   1       3.934  -6.299  -8.843  0.00  0.00     0.035 H 
ATOM     14  H   LIG d   1       2.638  -5.203  -9.025  0.00  0.00     0.035 H 
ATOM     15  C   LIG d   1       5.303  -3.519  -8.622  0.00  0.00    -0.013 A 
ATOM     16  H   LIG d   1       5.128  -4.953 -10.413  0.00  0.00     0.031 H 
ATOM     17  C   LIG d   1       4.330  -2.938  -9.650  0.00  0.00    -0.027 A 
ATOM     18  H   LIG d   1       6.368  -3.308  -8.725  0.00  0.00     0.032 H 
ATOM     19  H   LIG d   1       4.007  -3.379  -7.626  0.00  0.00     0.049 H 
BRANCH  17  20
ATOM     20  C   LIG d   1       2.977  -2.440  -9.138  0.00  0.00    -0.059 C 
ATOM     21  H   LIG d   1       2.749  -2.921  -8.187  0.00  0.00     0.024 H 
ATOM     22  H   LIG d   1       3.018  -1.359  -8.997  0.00  0.00     0.024 H 
ATOM     23  H   LIG d   1       2.201  -2.682  -9.863  0.00  0.00     0.024 H 
ENDBRANCH  17  20
BRANCH  17  24
ATOM     24  C   LIG d   1       4.925  -2.149 -10.818  0.00  0.00    -0.059 C 
ATOM     25  H   LIG d   1       4.154  -1.968 -11.566  0.00  0.00     0.024 H 
ATOM     26  H   LIG d   1       5.308  -1.195 -10.453  0.00  0.00     0.024 H 
ATOM     27  H   LIG d   1       5.739  -2.720 -11.265  0.00  0.00     0.024 H 
ENDBRANCH  17  24
ENDBRANCH   3   8
ENDBRANCH   1   3
BRANCH   1  28
ATOM     28  C   LIG d   1       4.142  -0.954  -5.959  0.00  0.00     0.204 C 
ATOM     29  H   LIG d   1       3.215  -1.529  -5.964  0.00  0.00     0.117 H 
BRANCH  28  30
ATOM     30  C   LIG d   1       4.298  -0.263  -4.629  0.00  0.00     0.025 A 
ATOM     31  C   LIG d   1       3.184   0.019  -3.861  0.00  0.00    -0.052 A 
ATOM     32  C   LIG d   1       3.328   0.651  -2.640  0.00  0.00    -0.061 A 
ATOM     33  H   LIG d   1       2.201  -0.255  -4.215  0.00  0.00     0.062 H 
ATOM     34  C   LIG d   1       4.586   1.001  -2.187  0.00  0.00    -0.062 A 
ATOM     35  H   LIG d   1       2.456   0.872  -2.041  0.00  0.00     0.062 H 
ATOM     36  C   LIG d   1       5.700   0.719  -2.954  0.00  0.00    -0.061 A 
ATOM     37  H   LIG d   1       4.698   1.496  -1.233  0.00  0.00     0.062 H 
ATOM     38  C   LIG d   1       5.557   0.081  -4.172  0.00  0.00    -0.052 A 
ATOM     39  H   LIG d   1       6.683   0.992  -2.600  0.00  0.00     0.062 H 
ATOM     40  H   LIG d   1       6.428  -0.143  -4.770  0.00  0.00     0.062 H 
ENDBRANCH  28  30
BRANCH  28  41
ATOM     41  C   LIG d   1       4.099   0.078  -7.057  0.00  0.00     0.025 A 
ATOM     42  C   LIG d   1       2.931   0.775  -7.305  0.00  0.00    -0.052 A 
ATOM     43  C   LIG d   1       2.892   1.721  -8.312  0.00  0.00    -0.061 A 
ATOM     44  H   LIG d   1       2.051   0.582  -6.712  0.00  0.00     0.062 H 
ATOM     45  C   LIG d   1       4.020   1.969  -9.072  0.00  0.00    -0.062 A 
ATOM     46  H   LIG d   1       1.980   2.266  -8.506  0.00  0.00     0.062 H 
ATOM     47  C   LIG d   1       5.188   1.271  -8.824  0.00  0.00    -0.061 A 
ATOM     48  H   LIG d   1       3.989   2.708  -9.859  0.00  0.00     0.062 H 
ATOM     49  C   LIG d   1       5.228   0.330  -7.813  0.00  0.00    -0.052 A 
ATOM     50  H   LIG d   1       6.069   1.465  -9.418  0.00  0.00     0.062 H 
ATOM     51  H   LIG d   1       6.142  -0.212  -7.617  0.00  0.00     0.062 H 
ENDBRANCH  28  41
ENDBRANCH   1  28
TORSDOF 8
ENDMDL
MODEL 10
REMARK VINA RESULT:      -6.7      1.543      2.144
REMARK  8 active torsions:
REMARK  status: ('A' for Active; 'I' for Inactive)
REMARK    1  A    between atoms: C_1  and  C_2 
REMARK    2  A    between atoms: C_2  and  C_3 
REMARK    3  A    between atoms: C_2  and  N_50 
REMARK    4  A    between atoms: C_8  and  C_9 
REMARK    5  A    between atoms: C_8  and  C_10 
REMARK    6  A    between atoms: C_14  and  C_15 
REMARK    7  A    between atoms: C_14  and  C_21 
REMARK    8  A    between atoms: C_14  and  N_50 
ROOT
ATOM      1  N   LIG d   1       5.562  -2.157  -6.909  0.00  0.00    -0.237 N 
ATOM      2  H   LIG d   1       6.494  -1.822  -6.636  0.00  0.00     0.446 HD
ENDROOT
BRANCH   1   3
ATOM      3  C   LIG d   1       5.092  -1.934  -8.209  0.00  0.00     0.162 C 
BRANCH   3   4
ATOM      4  C   LIG d   1       5.546  -2.756  -9.387  0.00  0.00     0.017 C 
ATOM      5  H   LIG d   1       4.826  -2.656 -10.199  0.00  0.00     0.033 H 
ATOM      6  H   LIG d   1       6.522  -2.404  -9.720  0.00  0.00     0.033 H 
ATOM      7  H   LIG d   1       5.612  -3.717  -9.117  0.00  0.00     0.033 H 
ENDBRANCH   3   4
BRANCH   3   8
ATOM      8  C   LIG d   1       4.194  -0.934  -8.385  0.00  0.00     0.101 A 
ATOM      9  C   LIG d   1       4.409   0.400  -8.036  0.00  0.00     0.147 A 
ATOM     10  C   LIG d   1       3.198   1.230  -8.375  0.00  0.00     0.010 A 
ATOM     11  O   LIG d   1       5.427   0.831  -7.532  0.00  0.00    -0.296 OA
ATOM     12  C   LIG d   1       2.161   0.280  -8.990  0.00  0.00    -0.025 A 
ATOM     13  H   LIG d   1       2.816   1.654  -7.553  0.00  0.00     0.035 H 
ATOM     14  H   LIG d   1       3.468   2.005  -9.091  0.00  0.00     0.035 H 
ATOM     15  C   LIG d   1       2.823  -1.105  -8.982  0.00  0.00    -0.013 A 
ATOM     16  H   LIG d   1       1.121   0.416  -8.692  0.00  0.00     0.031 H 
ATOM     17  C   LIG d   1       2.504  -0.433 -10.319  0.00  0.00    -0.027 A 
ATOM     18  H   LIG d   1       2.260  -1.991  -8.689  0.00  0.00     0.032 H 
ATOM     19  H   LIG d   1       4.326  -0.521  -9.286  0.00  0.00     0.049 H 
BRANCH  17  20
ATOM     20  C   LIG d   1       3.678   0.118 -11.129  0.00  0.00    -0.059 C 
ATOM     21  H   LIG d   1       3.673   1.207 -11.083  0.00  0.00     0.024 H 
ATOM     22  H   LIG d   1       4.614  -0.258 -10.715  0.00  0.00     0.024 H 
ATOM     23  H   LIG d   1       3.587  -0.202 -12.167  0.00  0.00     0.024 H 
ENDBRANCH  17  20
BRANCH  17  24
ATOM     24  C   LIG d   1       1.348  -1.008 -11.139  0.00  0.00    -0.059 C 
ATOM     25  H   LIG d   1       1.659  -1.125 -12.176  0.00  0.00     0.024 H 
ATOM     26  H   LIG d   1       1.064  -1.980 -10.733  0.00  0.00     0.024 H 
ATOM     27  H   LIG d   1       0.495  -0.331 -11.089  0.00  0.00     0.024 H 
ENDBRANCH  17  24
ENDBRANCH   3   8
ENDBRANCH   1   3
BRANCH   1  28
ATOM     28  C   LIG d   1       4.704  -2.884  -5.913  0.00  0.00     0.204 C 
ATOM     29  H   LIG d   1       3.674  -2.971  -6.262  0.00  0.00     0.117 H 
BRANCH  28  30
ATOM     30  C   LIG d   1       5.291  -4.261  -5.735  0.00  0.00     0.025 A 
ATOM     31  C   LIG d   1       4.465  -5.370  -5.731  0.00  0.00    -0.052 A 
ATOM     32  C   LIG d   1       5.004  -6.633  -5.569  0.00  0.00    -0.061 A 
ATOM     33  H   LIG d   1       3.398  -5.249  -5.854  0.00  0.00     0.062 H 
ATOM     34  C   LIG d   1       6.369  -6.787  -5.412  0.00  0.00    -0.062 A 
ATOM     35  H   LIG d   1       4.358  -7.499  -5.566  0.00  0.00     0.062 H 
ATOM     36  C   LIG d   1       7.194  -5.679  -5.417  0.00  0.00    -0.061 A 
ATOM     37  H   LIG d   1       6.789  -7.773  -5.285  0.00  0.00     0.062 H 
ATOM     38  C   LIG d   1       6.656  -4.416  -5.584  0.00  0.00    -0.052 A 
ATOM     39  H   LIG d   1       8.260  -5.799  -5.294  0.00  0.00     0.062 H 
ATOM     40  H   LIG d   1       7.301  -3.551  -5.593  0.00  0.00     0.062 H 
ENDBRANCH  28  30
BRANCH  28  41
ATOM     41  C   LIG d   1       4.728  -2.155  -4.594  0.00  0.00     0.025 A 
ATOM     42  C   LIG d   1       4.062  -2.680  -3.502  0.00  0.00    -0.052 A 
ATOM     43  C   LIG d   1       4.084  -2.011  -2.292  0.00  0.00    -0.061 A 
ATOM     44  H   LIG d   1       3.525  -3.613  -3.593  0.00  0.00     0.062 H 
ATOM     45  C   LIG d   1       4.771  -0.818  -2.175  0.00  0.00    -0.062 A 
ATOM     46  H   LIG d   1       3.564  -2.421  -1.439  0.00  0.00     0.062 H 
ATOM     47  C   LIG d   1       5.437  -0.293  -3.267  0.00  0.00    -0.061 A 
ATOM     48  H   LIG d   1       4.788  -0.295  -1.230  0.00  0.00     0.062 H 
ATOM     49  C   LIG d   1       5.419  -0.965  -4.475  0.00  0.00    -0.052 A 
ATOM     50  H   LIG d   1       5.974   0.640  -3.175  0.00  0.00     0.062 H 
ATOM     51  H   LIG d   1       5.943  -0.557  -5.327  0.00  0.00     0.062 H 
ENDBRANCH  28  41
ENDBRANCH   1  28
TORSDOF 8
ENDMDL
