MODEL 1
REMARK VINA RESULT:      -7.8      0.000      0.000
REMARK  1 active torsions:
REMARK  status: ('A' for Active; 'I' for Inactive)
REMARK    1  A    between atoms: C_3  and  C_8 
REMARK       I    between atoms: C_8  and  N_10 
ROOT
ATOM      1  C   UNK d   1       3.023   0.655  -5.274  0.00  0.00     0.247 C 
ATOM      2  O   UNK d   1       2.212   1.560  -5.286  0.00  0.00    -0.270 OA
ATOM      3  N   UNK d   1       3.456   0.124  -6.435  0.00  0.00    -0.294 N 
ATOM      4  C   UNK d   1       4.371  -1.025  -6.426  0.00  0.00     0.031 C 
ATOM      5  C   UNK d   1       5.602  -0.700  -7.288  0.00  0.00     0.031 C 
ATOM      6  N   UNK d   1       5.106  -0.192  -8.579  0.00  0.00    -0.286 N 
ATOM      7  C   UNK d   1       4.266   1.009  -8.543  0.00  0.00     0.118 C 
ATOM      8  H   UNK d   1       4.817   1.789  -8.016  0.00  0.00     0.061 H 
ATOM      9  C   UNK d   1       3.011   0.689  -7.720  0.00  0.00     0.042 C 
ATOM     10  C   UNK d   1       3.939   1.513  -9.906  0.00  0.00     0.235 C 
ATOM     11  O   UNK d   1       3.508   2.641 -10.015  0.00  0.00    -0.274 OA
ATOM     12  H   UNK d   1       4.687  -1.231  -5.404  0.00  0.00     0.048 H 
ATOM     13  H   UNK d   1       3.862  -1.899  -6.834  0.00  0.00     0.048 H 
ATOM     14  H   UNK d   1       6.208   0.063  -6.797  0.00  0.00     0.048 H 
ATOM     15  H   UNK d   1       6.194  -1.601  -7.446  0.00  0.00     0.048 H 
ATOM     16  H   UNK d   1       2.395  -0.038  -8.249  0.00  0.00     0.049 H 
ATOM     17  H   UNK d   1       2.440   1.601  -7.545  0.00  0.00     0.049 H 
ATOM     18  N   GLY d   2       4.096   0.780 -11.017  0.00  0.00    -0.305 N 
ATOM     19  CA  GLY d   2       4.586  -0.595 -10.969  0.00  0.00     0.088 C 
ATOM     20  C   GLY d   2       5.400  -0.816  -9.724  0.00  0.00     0.233 C 
ATOM     21  O   GLY d   2       6.343  -1.578  -9.759  0.00  0.00    -0.274 OA
ATOM     22  H   GLY d   2       3.878   1.173 -11.876  0.00  0.00     0.149 HD
ATOM     23  HA1 GLY d   2       5.206  -0.787 -11.844  0.00  0.00     0.056 H 
ATOM     24  HA2 GLY d   2       3.737  -1.278 -10.971  0.00  0.00     0.056 H 
ENDROOT
BRANCH   1  25
ATOM     25  C   UNK d   1       3.535   0.136  -3.987  0.00  0.00     0.040 A 
ATOM     26  C   UNK d   1       4.266   0.967  -3.138  0.00  0.00    -0.050 A 
ATOM     27  C   UNK d   1       4.742   0.479  -1.938  0.00  0.00    -0.058 A 
ATOM     28  H   UNK d   1       4.459   1.993  -3.419  0.00  0.00     0.062 H 
ATOM     29  C   UNK d   1       4.496  -0.833  -1.577  0.00  0.00    -0.026 A 
ATOM     30  H   UNK d   1       5.307   1.122  -1.281  0.00  0.00     0.062 H 
ATOM     31  C   UNK d   1       3.776  -1.667  -2.418  0.00  0.00     0.124 A 
ATOM     32  H   UNK d   1       4.871  -1.210  -0.637  0.00  0.00     0.065 H 
ATOM     33  C   UNK d   1       3.289  -1.187  -3.619  0.00  0.00    -0.014 A 
ATOM     34  F   UNK d   1       3.545  -2.949  -2.060  0.00  0.00    -0.205 F 
ATOM     35  H   UNK d   1       2.725  -1.836  -4.272  0.00  0.00     0.065 H 
ENDBRANCH   1  25
TORSDOF 1
ENDMDL
MODEL 2
REMARK VINA RESULT:      -6.9      1.681      2.018
REMARK  1 active torsions:
REMARK  status: ('A' for Active; 'I' for Inactive)
REMARK    1  A    between atoms: C_3  and  C_8 
REMARK       I    between atoms: C_8  and  N_10 
ROOT
ATOM      1  C   UNK d   1       3.591  -0.238  -5.655  0.00  0.00     0.247 C 
ATOM      2  O   UNK d   1       2.573   0.346  -5.969  0.00  0.00    -0.270 OA
ATOM      3  N   UNK d   1       4.468  -0.623  -6.604  0.00  0.00    -0.294 N 
ATOM      4  C   UNK d   1       5.657  -1.403  -6.239  0.00  0.00     0.031 C 
ATOM      5  C   UNK d   1       6.910  -0.709  -6.797  0.00  0.00     0.031 C 
ATOM      6  N   UNK d   1       6.651  -0.426  -8.220  0.00  0.00    -0.286 N 
ATOM      7  C   UNK d   1       5.502   0.430  -8.528  0.00  0.00     0.118 C 
ATOM      8  H   UNK d   1       5.615   1.361  -7.972  0.00  0.00     0.061 H 
ATOM      9  C   UNK d   1       4.235  -0.268  -8.014  0.00  0.00     0.042 C 
ATOM     10  C   UNK d   1       5.417   0.765  -9.978  0.00  0.00     0.235 C 
ATOM     11  O   UNK d   1       4.701   1.683 -10.317  0.00  0.00    -0.274 OA
ATOM     12  H   UNK d   1       5.731  -1.469  -5.154  0.00  0.00     0.048 H 
ATOM     13  H   UNK d   1       5.578  -2.406  -6.660  0.00  0.00     0.048 H 
ATOM     14  H   UNK d   1       7.089   0.223  -6.260  0.00  0.00     0.048 H 
ATOM     15  H   UNK d   1       7.773  -1.367  -6.701  0.00  0.00     0.048 H 
ATOM     16  H   UNK d   1       4.046  -1.171  -8.596  0.00  0.00     0.049 H 
ATOM     17  H   UNK d   1       3.383   0.407  -8.090  0.00  0.00     0.049 H 
ATOM     18  N   GLY d   2       6.092   0.099 -10.925  0.00  0.00    -0.305 N 
ATOM     19  CA  GLY d   2       6.955  -1.034 -10.603  0.00  0.00     0.088 C 
ATOM     20  C   GLY d   2       7.426  -0.943  -9.178  0.00  0.00     0.233 C 
ATOM     21  O   GLY d   2       8.532  -1.351  -8.892  0.00  0.00    -0.274 OA
ATOM     22  H   GLY d   2       6.004   0.377 -11.850  0.00  0.00     0.149 HD
ATOM     23  HA1 GLY d   2       7.818  -1.030 -11.269  0.00  0.00     0.056 H 
ATOM     24  HA2 GLY d   2       6.397  -1.960 -10.741  0.00  0.00     0.056 H 
ENDROOT
BRANCH   1  25
ATOM     25  C   UNK d   1       3.869  -0.528  -4.231  0.00  0.00     0.040 A 
ATOM     26  C   UNK d   1       3.794  -1.837  -3.756  0.00  0.00    -0.050 A 
ATOM     27  C   UNK d   1       4.054  -2.103  -2.427  0.00  0.00    -0.058 A 
ATOM     28  H   UNK d   1       3.534  -2.643  -4.428  0.00  0.00     0.062 H 
ATOM     29  C   UNK d   1       4.387  -1.073  -1.565  0.00  0.00    -0.026 A 
ATOM     30  H   UNK d   1       3.996  -3.116  -2.059  0.00  0.00     0.062 H 
ATOM     31  C   UNK d   1       4.457   0.231  -2.029  0.00  0.00     0.124 A 
ATOM     32  H   UNK d   1       4.588  -1.287  -0.526  0.00  0.00     0.065 H 
ATOM     33  C   UNK d   1       4.205   0.508  -3.359  0.00  0.00    -0.014 A 
ATOM     34  F   UNK d   1       4.777   1.232  -1.180  0.00  0.00    -0.205 F 
ATOM     35  H   UNK d   1       4.264   1.524  -3.720  0.00  0.00     0.065 H 
ENDBRANCH   1  25
TORSDOF 1
ENDMDL
MODEL 3
REMARK VINA RESULT:      -6.8      2.021      2.949
REMARK  1 active torsions:
REMARK  status: ('A' for Active; 'I' for Inactive)
REMARK    1  A    between atoms: C_3  and  C_8 
REMARK       I    between atoms: C_8  and  N_10 
ROOT
ATOM      1  C   UNK d   1       6.078  -0.461  -5.650  0.00  0.00     0.247 C 
ATOM      2  O   UNK d   1       7.288  -0.512  -5.754  0.00  0.00    -0.270 OA
ATOM      3  N   UNK d   1       5.325  -0.118  -6.714  0.00  0.00    -0.294 N 
ATOM      4  C   UNK d   1       3.870   0.028  -6.573  0.00  0.00     0.031 C 
ATOM      5  C   UNK d   1       3.169  -0.835  -7.634  0.00  0.00     0.031 C 
ATOM      6  N   UNK d   1       3.796  -0.522  -8.930  0.00  0.00    -0.286 N 
ATOM      7  C   UNK d   1       5.236  -0.767  -9.048  0.00  0.00     0.118 C 
ATOM      8  H   UNK d   1       5.425  -1.806  -8.778  0.00  0.00     0.061 H 
ATOM      9  C   UNK d   1       5.956   0.119  -8.023  0.00  0.00     0.042 C 
ATOM     10  C   UNK d   1       5.736  -0.551 -10.435  0.00  0.00     0.235 C 
ATOM     11  O   UNK d   1       6.826  -0.993 -10.730  0.00  0.00    -0.274 OA
ATOM     12  H   UNK d   1       3.566  -0.299  -5.579  0.00  0.00     0.048 H 
ATOM     13  H   UNK d   1       3.594   1.073  -6.713  0.00  0.00     0.048 H 
ATOM     14  H   UNK d   1       3.304  -1.892  -7.401  0.00  0.00     0.048 H 
ATOM     15  H   UNK d   1       2.107  -0.594  -7.667  0.00  0.00     0.048 H 
ATOM     16  H   UNK d   1       5.851   1.168  -8.299  0.00  0.00     0.049 H 
ATOM     17  H   UNK d   1       7.012  -0.148  -7.978  0.00  0.00     0.049 H 
ATOM     18  N   GLY d   2       5.040   0.108 -11.372  0.00  0.00    -0.305 N 
ATOM     19  CA  GLY d   2       3.731   0.692 -11.090  0.00  0.00     0.088 C 
ATOM     20  C   GLY d   2       3.077  -0.024  -9.941  0.00  0.00     0.233 C 
ATOM     21  O   GLY d   2       1.871  -0.150  -9.930  0.00  0.00    -0.274 OA
ATOM     22  H   GLY d   2       5.416   0.201 -12.261  0.00  0.00     0.149 HD
ATOM     23  HA1 GLY d   2       3.101   0.606 -11.975  0.00  0.00     0.056 H 
ATOM     24  HA2 GLY d   2       3.856   1.744 -10.836  0.00  0.00     0.056 H 
ENDROOT
BRANCH   1  25
ATOM     25  C   UNK d   1       5.432  -0.776  -4.357  0.00  0.00     0.040 A 
ATOM     26  C   UNK d   1       4.895  -2.043  -4.133  0.00  0.00    -0.050 A 
ATOM     27  C   UNK d   1       4.293  -2.333  -2.925  0.00  0.00    -0.058 A 
ATOM     28  H   UNK d   1       4.951  -2.799  -4.904  0.00  0.00     0.062 H 
ATOM     29  C   UNK d   1       4.220  -1.367  -1.937  0.00  0.00    -0.026 A 
ATOM     30  H   UNK d   1       3.877  -3.314  -2.752  0.00  0.00     0.062 H 
ATOM     31  C   UNK d   1       4.747  -0.103  -2.154  0.00  0.00     0.124 A 
ATOM     32  H   UNK d   1       3.748  -1.599  -0.994  0.00  0.00     0.065 H 
ATOM     33  C   UNK d   1       5.357   0.195  -3.358  0.00  0.00    -0.014 A 
ATOM     34  F   UNK d   1       4.667   0.835  -1.187  0.00  0.00    -0.205 F 
ATOM     35  H   UNK d   1       5.770   1.178  -3.525  0.00  0.00     0.065 H 
ENDBRANCH   1  25
TORSDOF 1
ENDMDL
MODEL 4
REMARK VINA RESULT:      -6.5      4.500      5.908
REMARK  1 active torsions:
REMARK  status: ('A' for Active; 'I' for Inactive)
REMARK    1  A    between atoms: C_3  and  C_8 
REMARK       I    between atoms: C_8  and  N_10 
ROOT
ATOM      1  C   UNK d   1       6.373  -1.406  -4.891  0.00  0.00     0.247 C 
ATOM      2  O   UNK d   1       6.527  -2.230  -5.771  0.00  0.00    -0.270 OA
ATOM      3  N   UNK d   1       7.417  -0.662  -4.475  0.00  0.00    -0.294 N 
ATOM      4  C   UNK d   1       7.257   0.275  -3.355  0.00  0.00     0.031 C 
ATOM      5  C   UNK d   1       7.740   1.669  -3.788  0.00  0.00     0.031 C 
ATOM      6  N   UNK d   1       9.074   1.498  -4.391  0.00  0.00    -0.286 N 
ATOM      7  C   UNK d   1       9.167   0.620  -5.560  0.00  0.00     0.118 C 
ATOM      8  H   UNK d   1       8.457   0.976  -6.307  0.00  0.00     0.061 H 
ATOM      9  C   UNK d   1       8.727  -0.788  -5.136  0.00  0.00     0.042 C 
ATOM     10  C   UNK d   1      10.526   0.630  -6.171  0.00  0.00     0.235 C 
ATOM     11  O   UNK d   1      10.658   0.187  -7.292  0.00  0.00    -0.274 OA
ATOM     12  H   UNK d   1       6.207   0.327  -3.070  0.00  0.00     0.048 H 
ATOM     13  H   UNK d   1       7.849  -0.067  -2.506  0.00  0.00     0.048 H 
ATOM     14  H   UNK d   1       7.052   2.090  -4.522  0.00  0.00     0.048 H 
ATOM     15  H   UNK d   1       7.806   2.326  -2.921  0.00  0.00     0.048 H 
ATOM     16  H   UNK d   1       9.453  -1.210  -4.440  0.00  0.00     0.049 H 
ATOM     17  H   UNK d   1       8.639  -1.429  -6.013  0.00  0.00     0.049 H 
ATOM     18  N   GLY d   2      11.610   1.105  -5.541  0.00  0.00    -0.305 N 
ATOM     19  CA  GLY d   2      11.540   1.633  -4.182  0.00  0.00     0.088 C 
ATOM     20  C   GLY d   2      10.146   2.108  -3.877  0.00  0.00     0.233 C 
ATOM     21  O   GLY d   2       9.992   3.065  -3.147  0.00  0.00    -0.274 OA
ATOM     22  H   GLY d   2      12.463   1.097  -6.000  0.00  0.00     0.149 HD
ATOM     23  HA1 GLY d   2      12.235   2.467  -4.083  0.00  0.00     0.056 H 
ATOM     24  HA2 GLY d   2      11.816   0.849  -3.478  0.00  0.00     0.056 H 
ENDROOT
BRANCH   1  25
ATOM     25  C   UNK d   1       5.041  -1.218  -4.278  0.00  0.00     0.040 A 
ATOM     26  C   UNK d   1       4.682  -1.951  -3.146  0.00  0.00    -0.050 A 
ATOM     27  C   UNK d   1       3.437  -1.773  -2.576  0.00  0.00    -0.058 A 
ATOM     28  H   UNK d   1       5.378  -2.656  -2.714  0.00  0.00     0.062 H 
ATOM     29  C   UNK d   1       2.545  -0.871  -3.127  0.00  0.00    -0.026 A 
ATOM     30  H   UNK d   1       3.160  -2.340  -1.700  0.00  0.00     0.062 H 
ATOM     31  C   UNK d   1       2.891  -0.144  -4.255  0.00  0.00     0.124 A 
ATOM     32  H   UNK d   1       1.572  -0.736  -2.678  0.00  0.00     0.065 H 
ATOM     33  C   UNK d   1       4.137  -0.310  -4.830  0.00  0.00    -0.014 A 
ATOM     34  F   UNK d   1       2.012   0.730  -4.790  0.00  0.00    -0.205 F 
ATOM     35  H   UNK d   1       4.408   0.260  -5.706  0.00  0.00     0.065 H 
ENDBRANCH   1  25
TORSDOF 1
ENDMDL
MODEL 5
REMARK VINA RESULT:      -6.3      2.740      3.637
REMARK  1 active torsions:
REMARK  status: ('A' for Active; 'I' for Inactive)
REMARK    1  A    between atoms: C_3  and  C_8 
REMARK       I    between atoms: C_8  and  N_10 
ROOT
ATOM      1  C   UNK d   1       4.652  -2.151  -5.366  0.00  0.00     0.247 C 
ATOM      2  O   UNK d   1       4.983  -3.278  -5.054  0.00  0.00    -0.270 OA
ATOM      3  N   UNK d   1       4.498  -1.830  -6.666  0.00  0.00    -0.294 N 
ATOM      4  C   UNK d   1       4.182  -0.449  -7.054  0.00  0.00     0.031 C 
ATOM      5  C   UNK d   1       2.935  -0.448  -7.952  0.00  0.00     0.031 C 
ATOM      6  N   UNK d   1       3.159  -1.452  -9.007  0.00  0.00    -0.286 N 
ATOM      7  C   UNK d   1       3.385  -2.834  -8.572  0.00  0.00     0.118 C 
ATOM      8  H   UNK d   1       2.547  -3.130  -7.940  0.00  0.00     0.061 H 
ATOM      9  C   UNK d   1       4.652  -2.861  -7.706  0.00  0.00     0.042 C 
ATOM     10  C   UNK d   1       3.459  -3.784  -9.717  0.00  0.00     0.235 C 
ATOM     11  O   UNK d   1       3.350  -4.970  -9.490  0.00  0.00    -0.274 OA
ATOM     12  H   UNK d   1       3.988   0.144  -6.161  0.00  0.00     0.048 H 
ATOM     13  H   UNK d   1       5.024  -0.022  -7.599  0.00  0.00     0.048 H 
ATOM     14  H   UNK d   1       2.055  -0.715  -7.366  0.00  0.00     0.048 H 
ATOM     15  H   UNK d   1       2.800   0.536  -8.400  0.00  0.00     0.048 H 
ATOM     16  H   UNK d   1       5.526  -2.640  -8.320  0.00  0.00     0.049 H 
ATOM     17  H   UNK d   1       4.763  -3.841  -7.243  0.00  0.00     0.049 H 
ATOM     18  N   GLY d   2       3.641  -3.391 -10.986  0.00  0.00    -0.305 N 
ATOM     19  CA  GLY d   2       3.806  -1.984 -11.340  0.00  0.00     0.088 C 
ATOM     20  C   GLY d   2       3.171  -1.106 -10.298  0.00  0.00     0.233 C 
ATOM     21  O   GLY d   2       2.659  -0.059 -10.636  0.00  0.00    -0.274 OA
ATOM     22  H   GLY d   2       3.666  -4.060 -11.688  0.00  0.00     0.149 HD
ATOM     23  HA1 GLY d   2       3.334  -1.798 -12.305  0.00  0.00     0.056 H 
ATOM     24  HA2 GLY d   2       4.869  -1.754 -11.407  0.00  0.00     0.056 H 
ENDROOT
BRANCH   1  25
ATOM     25  C   UNK d   1       4.419  -1.132  -4.320  0.00  0.00     0.040 A 
ATOM     26  C   UNK d   1       3.193  -1.077  -3.657  0.00  0.00    -0.050 A 
ATOM     27  C   UNK d   1       2.980  -0.124  -2.681  0.00  0.00    -0.058 A 
ATOM     28  H   UNK d   1       2.411  -1.780  -3.905  0.00  0.00     0.062 H 
ATOM     29  C   UNK d   1       3.979   0.778  -2.362  0.00  0.00    -0.026 A 
ATOM     30  H   UNK d   1       2.031  -0.081  -2.168  0.00  0.00     0.062 H 
ATOM     31  C   UNK d   1       5.198   0.734  -3.021  0.00  0.00     0.124 A 
ATOM     32  H   UNK d   1       3.807   1.522  -1.598  0.00  0.00     0.065 H 
ATOM     33  C   UNK d   1       5.424  -0.221  -3.994  0.00  0.00    -0.014 A 
ATOM     34  F   UNK d   1       6.166   1.621  -2.707  0.00  0.00    -0.205 F 
ATOM     35  H   UNK d   1       6.375  -0.257  -4.505  0.00  0.00     0.065 H 
ENDBRANCH   1  25
TORSDOF 1
ENDMDL
MODEL 6
REMARK VINA RESULT:      -6.2      3.481      6.522
REMARK  1 active torsions:
REMARK  status: ('A' for Active; 'I' for Inactive)
REMARK    1  A    between atoms: C_3  and  C_8 
REMARK       I    between atoms: C_8  and  N_10 
ROOT
ATOM      1  C   UNK d   1       3.310   0.351  -7.694  0.00  0.00     0.247 C 
ATOM      2  O   UNK d   1       2.793   1.341  -7.216  0.00  0.00    -0.270 OA
ATOM      3  N   UNK d   1       4.183  -0.372  -6.966  0.00  0.00    -0.294 N 
ATOM      4  C   UNK d   1       4.875  -1.519  -7.567  0.00  0.00     0.031 C 
ATOM      5  C   UNK d   1       4.668  -2.758  -6.680  0.00  0.00     0.031 C 
ATOM      6  N   UNK d   1       5.004  -2.364  -5.300  0.00  0.00    -0.286 N 
ATOM      7  C   UNK d   1       4.226  -1.269  -4.713  0.00  0.00     0.118 C 
ATOM      8  H   UNK d   1       3.170  -1.529  -4.786  0.00  0.00     0.061 H 
ATOM      9  C   UNK d   1       4.454  -0.012  -5.564  0.00  0.00     0.042 C 
ATOM     10  C   UNK d   1       4.552  -1.049  -3.276  0.00  0.00     0.235 C 
ATOM     11  O   UNK d   1       3.789  -0.386  -2.607  0.00  0.00    -0.274 OA
ATOM     12  H   UNK d   1       4.468  -1.711  -8.560  0.00  0.00     0.048 H 
ATOM     13  H   UNK d   1       5.940  -1.302  -7.646  0.00  0.00     0.048 H 
ATOM     14  H   UNK d   1       3.628  -3.081  -6.731  0.00  0.00     0.048 H 
ATOM     15  H   UNK d   1       5.325  -3.563  -7.006  0.00  0.00     0.048 H 
ATOM     16  H   UNK d   1       5.487   0.324  -5.461  0.00  0.00     0.049 H 
ATOM     17  H   UNK d   1       3.775   0.778  -5.247  0.00  0.00     0.049 H 
ATOM     18  N   GLY d   2       5.648  -1.548  -2.687  0.00  0.00    -0.305 N 
ATOM     19  CA  GLY d   2       6.629  -2.335  -3.429  0.00  0.00     0.088 C 
ATOM     20  C   GLY d   2       5.987  -2.973  -4.630  0.00  0.00     0.233 C 
ATOM     21  O   GLY d   2       6.370  -4.063  -4.998  0.00  0.00    -0.274 OA
ATOM     22  H   GLY d   2       5.794  -1.380  -1.744  0.00  0.00     0.149 HD
ATOM     23  HA1 GLY d   2       7.031  -3.113  -2.780  0.00  0.00     0.056 H 
ATOM     24  HA2 GLY d   2       7.439  -1.683  -3.756  0.00  0.00     0.056 H 
ENDROOT
BRANCH   1  25
ATOM     25  C   UNK d   1       2.981  -0.061  -9.076  0.00  0.00     0.040 A 
ATOM     26  C   UNK d   1       1.846  -0.833  -9.325  0.00  0.00    -0.050 A 
ATOM     27  C   UNK d   1       1.542  -1.216 -10.616  0.00  0.00    -0.058 A 
ATOM     28  H   UNK d   1       1.204  -1.131  -8.508  0.00  0.00     0.062 H 
ATOM     29  C   UNK d   1       2.362  -0.835 -11.663  0.00  0.00    -0.026 A 
ATOM     30  H   UNK d   1       0.664  -1.813 -10.808  0.00  0.00     0.062 H 
ATOM     31  C   UNK d   1       3.495  -0.073 -11.423  0.00  0.00     0.124 A 
ATOM     32  H   UNK d   1       2.120  -1.137 -12.672  0.00  0.00     0.065 H 
ATOM     33  C   UNK d   1       3.804   0.321 -10.135  0.00  0.00    -0.014 A 
ATOM     34  F   UNK d   1       4.293   0.290 -12.450  0.00  0.00    -0.205 F 
ATOM     35  H   UNK d   1       4.685   0.918  -9.950  0.00  0.00     0.065 H 
ENDBRANCH   1  25
TORSDOF 1
ENDMDL
MODEL 7
REMARK VINA RESULT:      -6.0      4.071      5.110
REMARK  1 active torsions:
REMARK  status: ('A' for Active; 'I' for Inactive)
REMARK    1  A    between atoms: C_3  and  C_8 
REMARK       I    between atoms: C_8  and  N_10 
ROOT
ATOM      1  C   UNK d   1       6.447   0.762  -3.752  0.00  0.00     0.247 C 
ATOM      2  O   UNK d   1       6.743   1.739  -3.092  0.00  0.00    -0.270 OA
ATOM      3  N   UNK d   1       7.229   0.381  -4.781  0.00  0.00    -0.294 N 
ATOM      4  C   UNK d   1       6.831  -0.746  -5.634  0.00  0.00     0.031 C 
ATOM      5  C   UNK d   1       7.984  -1.760  -5.704  0.00  0.00     0.031 C 
ATOM      6  N   UNK d   1       9.205  -1.007  -6.040  0.00  0.00    -0.286 N 
ATOM      7  C   UNK d   1       9.609   0.052  -5.110  0.00  0.00     0.118 C 
ATOM      8  H   UNK d   1       9.697  -0.387  -4.116  0.00  0.00     0.061 H 
ATOM      9  C   UNK d   1       8.486   1.097  -5.060  0.00  0.00     0.042 C 
ATOM     10  C   UNK d   1      10.925   0.651  -5.470  0.00  0.00     0.235 C 
ATOM     11  O   UNK d   1      11.502   1.318  -4.638  0.00  0.00    -0.274 OA
ATOM     12  H   UNK d   1       5.948  -1.227  -5.214  0.00  0.00     0.048 H 
ATOM     13  H   UNK d   1       6.606  -0.382  -6.637  0.00  0.00     0.048 H 
ATOM     14  H   UNK d   1       8.105  -2.252  -4.738  0.00  0.00     0.048 H 
ATOM     15  H   UNK d   1       7.781  -2.501  -6.476  0.00  0.00     0.048 H 
ATOM     16  H   UNK d   1       8.413   1.611  -6.018  0.00  0.00     0.049 H 
ATOM     17  H   UNK d   1       8.685   1.817  -4.267  0.00  0.00     0.049 H 
ATOM     18  N   GLY d   2      11.502   0.489  -6.669  0.00  0.00    -0.305 N 
ATOM     19  CA  GLY d   2      10.861  -0.279  -7.734  0.00  0.00     0.088 C 
ATOM     20  C   GLY d   2       9.896  -1.274  -7.152  0.00  0.00     0.233 C 
ATOM     21  O   GLY d   2       9.741  -2.343  -7.705  0.00  0.00    -0.274 OA
ATOM     22  H   GLY d   2      12.367   0.893  -6.835  0.00  0.00     0.149 HD
ATOM     23  HA1 GLY d   2      11.624  -0.807  -8.306  0.00  0.00     0.056 H 
ATOM     24  HA2 GLY d   2      10.323   0.403  -8.393  0.00  0.00     0.056 H 
ENDROOT
BRANCH   1  25
ATOM     25  C   UNK d   1       5.226  -0.008  -3.426  0.00  0.00     0.040 A 
ATOM     26  C   UNK d   1       5.292  -1.081  -2.537  0.00  0.00    -0.050 A 
ATOM     27  C   UNK d   1       4.151  -1.797  -2.236  0.00  0.00    -0.058 A 
ATOM     28  H   UNK d   1       6.235  -1.350  -2.082  0.00  0.00     0.062 H 
ATOM     29  C   UNK d   1       2.943  -1.453  -2.816  0.00  0.00    -0.026 A 
ATOM     30  H   UNK d   1       4.202  -2.627  -1.547  0.00  0.00     0.062 H 
ATOM     31  C   UNK d   1       2.871  -0.393  -3.705  0.00  0.00     0.124 A 
ATOM     32  H   UNK d   1       2.054  -2.017  -2.577  0.00  0.00     0.065 H 
ATOM     33  C   UNK d   1       4.006   0.335  -4.009  0.00  0.00    -0.014 A 
ATOM     34  F   UNK d   1       1.689  -0.067  -4.272  0.00  0.00    -0.205 F 
ATOM     35  H   UNK d   1       3.948   1.163  -4.699  0.00  0.00     0.065 H 
ENDBRANCH   1  25
TORSDOF 1
ENDMDL
MODEL 8
REMARK VINA RESULT:      -6.0      2.628      3.408
REMARK  1 active torsions:
REMARK  status: ('A' for Active; 'I' for Inactive)
REMARK    1  A    between atoms: C_3  and  C_8 
REMARK       I    between atoms: C_8  and  N_10 
ROOT
ATOM      1  C   UNK d   1       4.555  -3.071  -6.348  0.00  0.00     0.247 C 
ATOM      2  O   UNK d   1       4.167  -4.220  -6.421  0.00  0.00    -0.270 OA
ATOM      3  N   UNK d   1       4.428  -2.248  -7.407  0.00  0.00    -0.294 N 
ATOM      4  C   UNK d   1       4.972  -0.885  -7.353  0.00  0.00     0.031 C 
ATOM      5  C   UNK d   1       3.867   0.117  -7.727  0.00  0.00     0.031 C 
ATOM      6  N   UNK d   1       3.256  -0.359  -8.980  0.00  0.00    -0.286 N 
ATOM      7  C   UNK d   1       2.649  -1.693  -8.959  0.00  0.00     0.118 C 
ATOM      8  H   UNK d   1       1.920  -1.719  -8.149  0.00  0.00     0.061 H 
ATOM      9  C   UNK d   1       3.748  -2.712  -8.628  0.00  0.00     0.042 C 
ATOM     10  C   UNK d   1       1.942  -2.014 -10.231  0.00  0.00     0.235 C 
ATOM     11  O   UNK d   1       1.164  -2.945 -10.239  0.00  0.00    -0.274 OA
ATOM     12  H   UNK d   1       5.328  -0.674  -6.345  0.00  0.00     0.048 H 
ATOM     13  H   UNK d   1       5.799  -0.794  -8.058  0.00  0.00     0.048 H 
ATOM     14  H   UNK d   1       3.115   0.152  -6.937  0.00  0.00     0.048 H 
ATOM     15  H   UNK d   1       4.297   1.107  -7.876  0.00  0.00     0.048 H 
ATOM     16  H   UNK d   1       4.463  -2.768  -9.450  0.00  0.00     0.049 H 
ATOM     17  H   UNK d   1       3.305  -3.692  -8.455  0.00  0.00     0.049 H 
ATOM     18  N   GLY d   2       2.124  -1.326 -11.366  0.00  0.00    -0.305 N 
ATOM     19  CA  GLY d   2       3.060  -0.208 -11.446  0.00  0.00     0.088 C 
ATOM     20  C   GLY d   2       3.274   0.393 -10.085  0.00  0.00     0.233 C 
ATOM     21  O   GLY d   2       3.469   1.587  -9.987  0.00  0.00    -0.274 OA
ATOM     22  H   GLY d   2       1.620  -1.577 -12.156  0.00  0.00     0.149 HD
ATOM     23  HA1 GLY d   2       2.658   0.552 -12.117  0.00  0.00     0.056 H 
ATOM     24  HA2 GLY d   2       4.013  -0.566 -11.837  0.00  0.00     0.056 H 
ENDROOT
BRANCH   1  25
ATOM     25  C   UNK d   1       5.167  -2.576  -5.096  0.00  0.00     0.040 A 
ATOM     26  C   UNK d   1       6.555  -2.523  -4.968  0.00  0.00    -0.050 A 
ATOM     27  C   UNK d   1       7.123  -2.060  -3.798  0.00  0.00    -0.058 A 
ATOM     28  H   UNK d   1       7.187  -2.843  -5.785  0.00  0.00     0.062 H 
ATOM     29  C   UNK d   1       6.317  -1.650  -2.751  0.00  0.00    -0.026 A 
ATOM     30  H   UNK d   1       8.197  -2.019  -3.700  0.00  0.00     0.062 H 
ATOM     31  C   UNK d   1       4.937  -1.706  -2.868  0.00  0.00     0.124 A 
ATOM     32  H   UNK d   1       6.766  -1.289  -1.838  0.00  0.00     0.065 H 
ATOM     33  C   UNK d   1       4.358  -2.161  -4.037  0.00  0.00    -0.014 A 
ATOM     34  F   UNK d   1       4.157  -1.309  -1.839  0.00  0.00    -0.205 F 
ATOM     35  H   UNK d   1       3.283  -2.201  -4.129  0.00  0.00     0.065 H 
ENDBRANCH   1  25
TORSDOF 1
ENDMDL
MODEL 9
REMARK VINA RESULT:      -5.9      4.973      6.329
REMARK  1 active torsions:
REMARK  status: ('A' for Active; 'I' for Inactive)
REMARK    1  A    between atoms: C_3  and  C_8 
REMARK       I    between atoms: C_8  and  N_10 
ROOT
ATOM      1  C   UNK d   1       6.148  -2.546  -4.674  0.00  0.00     0.247 C 
ATOM      2  O   UNK d   1       7.256  -2.122  -4.408  0.00  0.00    -0.270 OA
ATOM      3  N   UNK d   1       6.014  -3.639  -5.450  0.00  0.00    -0.294 N 
ATOM      4  C   UNK d   1       4.679  -4.106  -5.845  0.00  0.00     0.031 C 
ATOM      5  C   UNK d   1       4.533  -5.592  -5.480  0.00  0.00     0.031 C 
ATOM      6  N   UNK d   1       5.719  -6.288  -6.011  0.00  0.00    -0.286 N 
ATOM      7  C   UNK d   1       7.026  -5.842  -5.520  0.00  0.00     0.118 C 
ATOM      8  H   UNK d   1       7.014  -5.894  -4.431  0.00  0.00     0.061 H 
ATOM      9  C   UNK d   1       7.206  -4.369  -5.913  0.00  0.00     0.042 C 
ATOM     10  C   UNK d   1       8.140  -6.701  -6.012  0.00  0.00     0.235 C 
ATOM     11  O   UNK d   1       9.216  -6.624  -5.458  0.00  0.00    -0.274 OA
ATOM     12  H   UNK d   1       3.920  -3.526  -5.320  0.00  0.00     0.048 H 
ATOM     13  H   UNK d   1       4.553  -3.982  -6.921  0.00  0.00     0.048 H 
ATOM     14  H   UNK d   1       4.491  -5.706  -4.396  0.00  0.00     0.048 H 
ATOM     15  H   UNK d   1       3.630  -6.000  -5.932  0.00  0.00     0.048 H 
ATOM     16  H   UNK d   1       7.296  -4.282  -6.996  0.00  0.00     0.049 H 
ATOM     17  H   UNK d   1       8.097  -3.964  -5.434  0.00  0.00     0.049 H 
ATOM     18  N   GLY d   2       8.010  -7.555  -7.037  0.00  0.00    -0.305 N 
ATOM     19  CA  GLY d   2       6.755  -7.690  -7.772  0.00  0.00     0.088 C 
ATOM     20  C   GLY d   2       5.597  -7.268  -6.911  0.00  0.00     0.233 C 
ATOM     21  O   GLY d   2       4.529  -7.829  -7.037  0.00  0.00    -0.274 OA
ATOM     22  H   GLY d   2       8.770  -8.097  -7.299  0.00  0.00     0.149 HD
ATOM     23  HA1 GLY d   2       6.623  -8.730  -8.071  0.00  0.00     0.056 H 
ATOM     24  HA2 GLY d   2       6.792  -7.061  -8.661  0.00  0.00     0.056 H 
ENDROOT
BRANCH   1  25
ATOM     25  C   UNK d   1       4.948  -1.862  -4.146  0.00  0.00     0.040 A 
ATOM     26  C   UNK d   1       4.402  -2.251  -2.922  0.00  0.00    -0.050 A 
ATOM     27  C   UNK d   1       3.281  -1.611  -2.433  0.00  0.00    -0.058 A 
ATOM     28  H   UNK d   1       4.857  -3.052  -2.357  0.00  0.00     0.062 H 
ATOM     29  C   UNK d   1       2.698  -0.585  -3.155  0.00  0.00    -0.026 A 
ATOM     30  H   UNK d   1       2.859  -1.912  -1.486  0.00  0.00     0.062 H 
ATOM     31  C   UNK d   1       3.230  -0.197  -4.374  0.00  0.00     0.124 A 
ATOM     32  H   UNK d   1       1.820  -0.088  -2.768  0.00  0.00     0.065 H 
ATOM     33  C   UNK d   1       4.356  -0.827  -4.870  0.00  0.00    -0.014 A 
ATOM     34  F   UNK d   1       2.651   0.801  -5.076  0.00  0.00    -0.205 F 
ATOM     35  H   UNK d   1       4.772  -0.522  -5.819  0.00  0.00     0.065 H 
ENDBRANCH   1  25
TORSDOF 1
ENDMDL
MODEL 10
REMARK VINA RESULT:      -5.9      9.210     11.121
REMARK  1 active torsions:
REMARK  status: ('A' for Active; 'I' for Inactive)
REMARK    1  A    between atoms: C_3  and  C_8 
REMARK       I    between atoms: C_8  and  N_10 
ROOT
ATOM      1  C   UNK d   1       9.879   5.875  -3.882  0.00  0.00     0.247 C 
ATOM      2  O   UNK d   1       9.252   6.550  -4.676  0.00  0.00    -0.270 OA
ATOM      3  N   UNK d   1      10.408   6.447  -2.783  0.00  0.00    -0.294 N 
ATOM      4  C   UNK d   1      11.238   5.655  -1.865  0.00  0.00     0.031 C 
ATOM      5  C   UNK d   1      10.688   5.795  -0.436  0.00  0.00     0.031 C 
ATOM      6  N   UNK d   1      10.513   7.236  -0.178  0.00  0.00    -0.286 N 
ATOM      7  C   UNK d   1       9.607   7.965  -1.070  0.00  0.00     0.118 C 
ATOM      8  H   UNK d   1       8.642   7.459  -1.058  0.00  0.00     0.061 H 
ATOM      9  C   UNK d   1      10.164   7.870  -2.497  0.00  0.00     0.042 C 
ATOM     10  C   UNK d   1       9.397   9.375  -0.635  0.00  0.00     0.235 C 
ATOM     11  O   UNK d   1       8.463   9.989  -1.103  0.00  0.00    -0.274 OA
ATOM     12  H   UNK d   1      11.212   4.607  -2.163  0.00  0.00     0.048 H 
ATOM     13  H   UNK d   1      12.265   6.018  -1.897  0.00  0.00     0.048 H 
ATOM     14  H   UNK d   1       9.728   5.284  -0.355  0.00  0.00     0.048 H 
ATOM     15  H   UNK d   1      11.395   5.374   0.278  0.00  0.00     0.048 H 
ATOM     16  H   UNK d   1      11.098   8.428  -2.570  0.00  0.00     0.049 H 
ATOM     17  H   UNK d   1       9.438   8.270  -3.205  0.00  0.00     0.049 H 
ATOM     18  N   GLY d   2      10.191   9.996   0.248  0.00  0.00    -0.305 N 
ATOM     19  CA  GLY d   2      11.351   9.334   0.839  0.00  0.00     0.088 C 
ATOM     20  C   GLY d   2      11.169   7.842   0.816  0.00  0.00     0.233 C 
ATOM     21  O   GLY d   2      11.628   7.175   1.719  0.00  0.00    -0.274 OA
ATOM     22  H   GLY d   2       9.990  10.911   0.501  0.00  0.00     0.149 HD
ATOM     23  HA1 GLY d   2      11.469   9.668   1.871  0.00  0.00     0.056 H 
ATOM     24  HA2 GLY d   2      12.242   9.599   0.271  0.00  0.00     0.056 H 
ENDROOT
BRANCH   1  25
ATOM     25  C   UNK d   1      10.060   4.427  -4.124  0.00  0.00     0.040 A 
ATOM     26  C   UNK d   1      11.175   3.969  -4.826  0.00  0.00    -0.050 A 
ATOM     27  C   UNK d   1      11.341   2.617  -5.049  0.00  0.00    -0.058 A 
ATOM     28  H   UNK d   1      11.910   4.672  -5.194  0.00  0.00     0.062 H 
ATOM     29  C   UNK d   1      10.403   1.716  -4.579  0.00  0.00    -0.026 A 
ATOM     30  H   UNK d   1      12.204   2.263  -5.592  0.00  0.00     0.062 H 
ATOM     31  C   UNK d   1       9.289   2.164  -3.886  0.00  0.00     0.124 A 
ATOM     32  H   UNK d   1      10.537   0.659  -4.757  0.00  0.00     0.065 H 
ATOM     33  C   UNK d   1       9.117   3.515  -3.651  0.00  0.00    -0.014 A 
ATOM     34  F   UNK d   1       8.375   1.279  -3.435  0.00  0.00    -0.205 F 
ATOM     35  H   UNK d   1       8.251   3.863  -3.108  0.00  0.00     0.065 H 
ENDBRANCH   1  25
TORSDOF 1
ENDMDL
