MODEL 1
REMARK VINA RESULT:      -5.8      0.000      0.000
REMARK  13 active torsions:
REMARK  status: ('A' for Active; 'I' for Inactive)
REMARK    1  A    between atoms: C_1  and  C_2 
REMARK    2  A    between atoms: C_2  and  C_3 
REMARK    3  A    between atoms: C_3  and  O_5 
REMARK    4  A    between atoms: O_5  and  C_6 
REMARK    5  A    between atoms: C_6  and  C_7 
REMARK    6  A    between atoms: C_10  and  C_23 
REMARK    7  A    between atoms: C_14  and  C_16 
REMARK    8  A    between atoms: C_17  and  C_22 
REMARK    9  A    between atoms: C_19  and  C_21 
REMARK   10  A    between atoms: C_28  and  O_29 
REMARK   11  A    between atoms: O_29  and  C_30 
REMARK   12  A    between atoms: C_30  and  C_32 
REMARK   13  A    between atoms: C_32  and  C_33 
ROOT
ATOM      1  C   LIG d   1       3.049  -0.456  -9.277  0.00  0.00     0.037 C 
ATOM      2  C   LIG d   1       3.180  -1.858  -8.699  0.00  0.00     0.058 C 
ATOM      3  O   LIG d   1       4.261  -1.960  -7.798  0.00  0.00    -0.371 OA
ATOM      4  C   LIG d   1       4.215  -1.034  -6.707  0.00  0.00     0.094 C 
ATOM      5  H   LIG d   1       3.286  -1.165  -6.152  0.00  0.00     0.065 H 
ATOM      6  C   LIG d   1       4.276   0.387  -7.296  0.00  0.00     0.014 C 
ATOM      7  H   LIG d   1       4.323   1.132  -6.502  0.00  0.00     0.038 H 
ATOM      8  C   LIG d   1       3.017   0.587  -8.155  0.00  0.00    -0.023 C 
ATOM      9  H   LIG d   1       2.126   0.444  -7.544  0.00  0.00     0.031 H 
ATOM     10  C   LIG d   1       5.488   0.457  -8.188  0.00  0.00    -0.070 C 
ATOM     11  C   LIG d   1       5.448   0.210  -9.457  0.00  0.00    -0.081 C 
ATOM     12  C   LIG d   1       4.208  -0.149 -10.219  0.00  0.00    -0.014 C 
ATOM     13  H   LIG d   1       4.410  -1.026 -10.834  0.00  0.00     0.035 H 
ATOM     14  H   LIG d   1       2.268  -2.107  -8.155  0.00  0.00     0.057 H 
ATOM     15  H   LIG d   1       3.315  -2.570  -9.513  0.00  0.00     0.057 H 
ATOM     16  H   LIG d   1       6.374   0.269 -10.008  0.00  0.00     0.058 H 
ENDROOT
BRANCH   4  17
ATOM     17  C   LIG d   1       5.393  -1.260  -5.796  0.00  0.00     0.024 A 
ATOM     18  C   LIG d   1       5.517  -0.524  -4.627  0.00  0.00     0.137 A 
ATOM     19  C   LIG d   1       6.600  -0.738  -3.786  0.00  0.00    -0.019 A 
ATOM     20  C   LIG d   1       7.558  -1.675  -4.122  0.00  0.00    -0.058 A 
ATOM     21  H   LIG d   1       6.697  -0.170  -2.873  0.00  0.00     0.065 H 
ATOM     22  C   LIG d   1       7.435  -2.404  -5.290  0.00  0.00    -0.061 A 
ATOM     23  H   LIG d   1       8.404  -1.839  -3.471  0.00  0.00     0.062 H 
ATOM     24  C   LIG d   1       6.354  -2.197  -6.127  0.00  0.00    -0.053 A 
ATOM     25  H   LIG d   1       8.184  -3.137  -5.551  0.00  0.00     0.062 H 
ATOM     26  H   LIG d   1       6.260  -2.767  -7.038  0.00  0.00     0.062 H 
BRANCH  18  27
ATOM     27  O   LIG d   1       4.576   0.401  -4.301  0.00  0.00    -0.425 OA
BRANCH  27  28
ATOM     28  C   LIG d   1       3.875   0.188  -3.175  0.00  0.00     0.312 C 
ATOM     29  O   LIG d   1       3.970   0.961  -2.251  0.00  0.00    -0.250 OA
BRANCH  28  30
ATOM     30  C   LIG d   1       2.972  -1.012  -3.065  0.00  0.00     0.043 C 
ATOM     31  H   LIG d   1       2.056  -0.732  -2.546  0.00  0.00     0.037 H 
ATOM     32  H   LIG d   1       2.728  -1.376  -4.063  0.00  0.00     0.037 H 
BRANCH  30  33
ATOM     33  C   LIG d   1       3.685  -2.116  -2.280  0.00  0.00    -0.055 C 
ATOM     34  H   LIG d   1       3.065  -2.420  -1.437  0.00  0.00     0.024 H 
ATOM     35  H   LIG d   1       3.857  -2.972  -2.932  0.00  0.00     0.024 H 
ATOM     36  H   LIG d   1       4.641  -1.741  -1.912  0.00  0.00     0.024 H 
ENDBRANCH  30  33
ENDBRANCH  28  30
ENDBRANCH  27  28
ENDBRANCH  18  27
ENDBRANCH   4  17
BRANCH   8  37
ATOM     37  C   LIG d   1       3.017   1.994  -8.754  0.00  0.00    -0.061 C 
ATOM     38  H   LIG d   1       3.939   2.506  -8.480  0.00  0.00     0.023 H 
ATOM     39  H   LIG d   1       2.949   1.927  -9.840  0.00  0.00     0.023 H 
ATOM     40  H   LIG d   1       2.163   2.552  -8.370  0.00  0.00     0.023 H 
ENDBRANCH   8  37
BRANCH  10  41
ATOM     41  C   LIG d   1       6.812   0.832  -7.571  0.00  0.00    -0.043 C 
ATOM     42  H   LIG d   1       6.813   0.553  -6.517  0.00  0.00     0.027 H 
ATOM     43  H   LIG d   1       7.614   0.305  -8.087  0.00  0.00     0.027 H 
ATOM     44  H   LIG d   1       6.964   1.907  -7.663  0.00  0.00     0.027 H 
ENDBRANCH  10  41
BRANCH   1  45
ATOM     45  C   LIG d   1       1.741  -0.369 -10.065  0.00  0.00     0.101 C 
ATOM     46  H   LIG d   1       1.823   0.412 -10.821  0.00  0.00     0.070 H 
ATOM     47  H   LIG d   1       0.923  -0.132  -9.385  0.00  0.00     0.070 H 
BRANCH  45  48
ATOM     48  O   LIG d   1       1.479  -1.643 -10.711  0.00  0.00    -0.464 OA
BRANCH  48  49
ATOM     49  C   LIG d   1       1.222  -1.617 -12.028  0.00  0.00     0.307 C 
ATOM     50  O   LIG d   1       0.096  -1.419 -12.421  0.00  0.00    -0.251 OA
BRANCH  49  51
ATOM     51  C   LIG d   1       2.337  -1.835 -13.018  0.00  0.00     0.042 C 
ATOM     52  H   LIG d   1       2.900  -0.910 -13.141  0.00  0.00     0.037 H 
ATOM     53  H   LIG d   1       1.918  -2.137 -13.978  0.00  0.00     0.037 H 
BRANCH  51  54
ATOM     54  C   LIG d   1       3.269  -2.933 -12.501  0.00  0.00    -0.055 C 
ATOM     55  H   LIG d   1       3.165  -3.020 -11.420  0.00  0.00     0.024 H 
ATOM     56  H   LIG d   1       3.008  -3.882 -12.969  0.00  0.00     0.024 H 
ATOM     57  H   LIG d   1       4.301  -2.679 -12.747  0.00  0.00     0.024 H 
ENDBRANCH  51  54
ENDBRANCH  49  51
ENDBRANCH  48  49
ENDBRANCH  45  48
ENDBRANCH   1  45
BRANCH  12  58
ATOM     58  C   LIG d   1       3.820   1.020 -11.126  0.00  0.00    -0.058 C 
ATOM     59  H   LIG d   1       2.957   0.741 -11.730  0.00  0.00     0.024 H 
ATOM     60  H   LIG d   1       3.571   1.887 -10.514  0.00  0.00     0.024 H 
ATOM     61  H   LIG d   1       4.657   1.265 -11.780  0.00  0.00     0.024 H 
ENDBRANCH  12  58
TORSDOF 13
ENDMDL
MODEL 2
REMARK VINA RESULT:      -5.8      2.194      3.706
REMARK  13 active torsions:
REMARK  status: ('A' for Active; 'I' for Inactive)
REMARK    1  A    between atoms: C_1  and  C_2 
REMARK    2  A    between atoms: C_2  and  C_3 
REMARK    3  A    between atoms: C_3  and  O_5 
REMARK    4  A    between atoms: O_5  and  C_6 
REMARK    5  A    between atoms: C_6  and  C_7 
REMARK    6  A    between atoms: C_10  and  C_23 
REMARK    7  A    between atoms: C_14  and  C_16 
REMARK    8  A    between atoms: C_17  and  C_22 
REMARK    9  A    between atoms: C_19  and  C_21 
REMARK   10  A    between atoms: C_28  and  O_29 
REMARK   11  A    between atoms: O_29  and  C_30 
REMARK   12  A    between atoms: C_30  and  C_32 
REMARK   13  A    between atoms: C_32  and  C_33 
ROOT
ATOM      1  C   LIG d   1       4.530   0.587  -8.793  0.00  0.00     0.037 C 
ATOM      2  C   LIG d   1       5.828   0.650  -8.002  0.00  0.00     0.058 C 
ATOM      3  O   LIG d   1       5.627   0.376  -6.633  0.00  0.00    -0.371 OA
ATOM      4  C   LIG d   1       5.006  -0.886  -6.365  0.00  0.00     0.094 C 
ATOM      5  H   LIG d   1       5.602  -1.690  -6.797  0.00  0.00     0.065 H 
ATOM      6  C   LIG d   1       3.609  -0.868  -7.011  0.00  0.00     0.014 C 
ATOM      7  H   LIG d   1       3.059  -1.777  -6.770  0.00  0.00     0.038 H 
ATOM      8  C   LIG d   1       3.803  -0.735  -8.530  0.00  0.00    -0.023 C 
ATOM      9  H   LIG d   1       4.405  -1.566  -8.899  0.00  0.00     0.031 H 
ATOM     10  C   LIG d   1       2.891   0.357  -6.506  0.00  0.00    -0.070 C 
ATOM     11  C   LIG d   1       2.910   1.494  -7.124  0.00  0.00    -0.081 C 
ATOM     12  C   LIG d   1       3.614   1.749  -8.422  0.00  0.00    -0.014 C 
ATOM     13  H   LIG d   1       4.208   2.658  -8.333  0.00  0.00     0.035 H 
ATOM     14  H   LIG d   1       6.522  -0.095  -8.393  0.00  0.00     0.057 H 
ATOM     15  H   LIG d   1       6.268   1.641  -8.115  0.00  0.00     0.057 H 
ATOM     16  H   LIG d   1       2.380   2.318  -6.672  0.00  0.00     0.058 H 
ENDROOT
BRANCH   4  17
ATOM     17  C   LIG d   1       4.877  -1.086  -4.877  0.00  0.00     0.024 A 
ATOM     18  C   LIG d   1       4.405  -2.290  -4.377  0.00  0.00     0.137 A 
ATOM     19  C   LIG d   1       4.293  -2.473  -3.006  0.00  0.00    -0.019 A 
ATOM     20  C   LIG d   1       4.641  -1.452  -2.143  0.00  0.00    -0.058 A 
ATOM     21  H   LIG d   1       3.929  -3.411  -2.614  0.00  0.00     0.065 H 
ATOM     22  C   LIG d   1       5.107  -0.250  -2.645  0.00  0.00    -0.061 A 
ATOM     23  H   LIG d   1       4.549  -1.591  -1.076  0.00  0.00     0.062 H 
ATOM     24  C   LIG d   1       5.225  -0.067  -4.010  0.00  0.00    -0.053 A 
ATOM     25  H   LIG d   1       5.379   0.547  -1.969  0.00  0.00     0.062 H 
ATOM     26  H   LIG d   1       5.589   0.872  -4.399  0.00  0.00     0.062 H 
BRANCH  18  27
ATOM     27  O   LIG d   1       4.059  -3.292  -5.228  0.00  0.00    -0.425 OA
BRANCH  27  28
ATOM     28  C   LIG d   1       4.775  -4.425  -5.159  0.00  0.00     0.312 C 
ATOM     29  O   LIG d   1       4.216  -5.482  -4.985  0.00  0.00    -0.250 OA
BRANCH  28  30
ATOM     30  C   LIG d   1       6.274  -4.379  -5.300  0.00  0.00     0.043 C 
ATOM     31  H   LIG d   1       6.667  -3.533  -4.736  0.00  0.00     0.037 H 
ATOM     32  H   LIG d   1       6.704  -5.303  -4.915  0.00  0.00     0.037 H 
BRANCH  30  33
ATOM     33  C   LIG d   1       6.643  -4.221  -6.777  0.00  0.00    -0.055 C 
ATOM     34  H   LIG d   1       7.480  -3.530  -6.871  0.00  0.00     0.024 H 
ATOM     35  H   LIG d   1       6.925  -5.191  -7.186  0.00  0.00     0.024 H 
ATOM     36  H   LIG d   1       5.785  -3.831  -7.326  0.00  0.00     0.024 H 
ENDBRANCH  30  33
ENDBRANCH  28  30
ENDBRANCH  27  28
ENDBRANCH  18  27
ENDBRANCH   4  17
BRANCH   8  37
ATOM     37  C   LIG d   1       2.442  -0.728  -9.228  0.00  0.00    -0.061 C 
ATOM     38  H   LIG d   1       1.905  -1.645  -8.985  0.00  0.00     0.023 H 
ATOM     39  H   LIG d   1       1.865   0.131  -8.889  0.00  0.00     0.023 H 
ATOM     40  H   LIG d   1       2.587  -0.667 -10.306  0.00  0.00     0.023 H 
ENDBRANCH   8  37
BRANCH  10  41
ATOM     41  C   LIG d   1       2.115   0.253  -5.218  0.00  0.00    -0.043 C 
ATOM     42  H   LIG d   1       2.203  -0.759  -4.821  0.00  0.00     0.027 H 
ATOM     43  H   LIG d   1       2.516   0.963  -4.494  0.00  0.00     0.027 H 
ATOM     44  H   LIG d   1       1.066   0.480  -5.407  0.00  0.00     0.027 H 
ENDBRANCH  10  41
BRANCH   1  45
ATOM     45  C   LIG d   1       4.857   0.679 -10.285  0.00  0.00     0.101 C 
ATOM     46  H   LIG d   1       5.443   1.579 -10.474  0.00  0.00     0.070 H 
ATOM     47  H   LIG d   1       3.932   0.722 -10.858  0.00  0.00     0.070 H 
BRANCH  45  48
ATOM     48  O   LIG d   1       5.621  -0.489 -10.686  0.00  0.00    -0.464 OA
BRANCH  48  49
ATOM     49  C   LIG d   1       5.369  -0.994 -11.903  0.00  0.00     0.307 C 
ATOM     50  O   LIG d   1       5.995  -1.947 -12.304  0.00  0.00    -0.251 OA
BRANCH  49  51
ATOM     51  C   LIG d   1       4.306  -0.372 -12.772  0.00  0.00     0.042 C 
ATOM     52  H   LIG d   1       4.713  -0.184 -13.765  0.00  0.00     0.037 H 
ATOM     53  H   LIG d   1       3.979   0.569 -12.329  0.00  0.00     0.037 H 
BRANCH  51  54
ATOM     54  C   LIG d   1       3.114  -1.325 -12.880  0.00  0.00    -0.055 C 
ATOM     55  H   LIG d   1       3.431  -2.250 -13.362  0.00  0.00     0.024 H 
ATOM     56  H   LIG d   1       2.734  -1.546 -11.883  0.00  0.00     0.024 H 
ATOM     57  H   LIG d   1       2.328  -0.857 -13.473  0.00  0.00     0.024 H 
ENDBRANCH  51  54
ENDBRANCH  49  51
ENDBRANCH  48  49
ENDBRANCH  45  48
ENDBRANCH   1  45
BRANCH  12  58
ATOM     58  C   LIG d   1       2.573   1.938  -9.527  0.00  0.00    -0.058 C 
ATOM     59  H   LIG d   1       2.342   2.999  -9.631  0.00  0.00     0.024 H 
ATOM     60  H   LIG d   1       2.968   1.558 -10.469  0.00  0.00     0.024 H 
ATOM     61  H   LIG d   1       1.665   1.393  -9.268  0.00  0.00     0.024 H 
ENDBRANCH  12  58
TORSDOF 13
ENDMDL
MODEL 3
REMARK VINA RESULT:      -5.7      2.636      5.006
REMARK  13 active torsions:
REMARK  status: ('A' for Active; 'I' for Inactive)
REMARK    1  A    between atoms: C_1  and  C_2 
REMARK    2  A    between atoms: C_2  and  C_3 
REMARK    3  A    between atoms: C_3  and  O_5 
REMARK    4  A    between atoms: O_5  and  C_6 
REMARK    5  A    between atoms: C_6  and  C_7 
REMARK    6  A    between atoms: C_10  and  C_23 
REMARK    7  A    between atoms: C_14  and  C_16 
REMARK    8  A    between atoms: C_17  and  C_22 
REMARK    9  A    between atoms: C_19  and  C_21 
REMARK   10  A    between atoms: C_28  and  O_29 
REMARK   11  A    between atoms: O_29  and  C_30 
REMARK   12  A    between atoms: C_30  and  C_32 
REMARK   13  A    between atoms: C_32  and  C_33 
ROOT
ATOM      1  C   LIG d   1       5.498  -4.911  -6.414  0.00  0.00     0.037 C 
ATOM      2  C   LIG d   1       4.304  -4.952  -5.470  0.00  0.00     0.058 C 
ATOM      3  O   LIG d   1       4.360  -3.928  -4.503  0.00  0.00    -0.371 OA
ATOM      4  C   LIG d   1       4.450  -2.605  -5.042  0.00  0.00     0.094 C 
ATOM      5  H   LIG d   1       3.602  -2.416  -5.701  0.00  0.00     0.065 H 
ATOM      6  C   LIG d   1       5.762  -2.514  -5.842  0.00  0.00     0.014 C 
ATOM      7  H   LIG d   1       5.921  -1.501  -6.211  0.00  0.00     0.038 H 
ATOM      8  C   LIG d   1       5.663  -3.509  -7.009  0.00  0.00    -0.023 C 
ATOM      9  H   LIG d   1       4.799  -3.267  -7.628  0.00  0.00     0.031 H 
ATOM     10  C   LIG d   1       6.881  -2.948  -4.930  0.00  0.00    -0.070 C 
ATOM     11  C   LIG d   1       7.306  -4.168  -4.862  0.00  0.00    -0.081 C 
ATOM     12  C   LIG d   1       6.778  -5.304  -5.685  0.00  0.00    -0.014 C 
ATOM     13  H   LIG d   1       6.571  -6.150  -5.031  0.00  0.00     0.035 H 
ATOM     14  H   LIG d   1       3.388  -4.819  -6.046  0.00  0.00     0.057 H 
ATOM     15  H   LIG d   1       4.275  -5.922  -4.973  0.00  0.00     0.057 H 
ATOM     16  H   LIG d   1       8.101  -4.383  -4.164  0.00  0.00     0.058 H 
ENDROOT
BRANCH   4  17
ATOM     17  C   LIG d   1       4.464  -1.597  -3.923  0.00  0.00     0.024 A 
ATOM     18  C   LIG d   1       4.458  -0.240  -4.211  0.00  0.00     0.137 A 
ATOM     19  C   LIG d   1       4.466   0.687  -3.178  0.00  0.00    -0.019 A 
ATOM     20  C   LIG d   1       4.491   0.256  -1.866  0.00  0.00    -0.058 A 
ATOM     21  H   LIG d   1       4.457   1.744  -3.400  0.00  0.00     0.065 H 
ATOM     22  C   LIG d   1       4.501  -1.097  -1.581  0.00  0.00    -0.061 A 
ATOM     23  H   LIG d   1       4.501   0.976  -1.061  0.00  0.00     0.062 H 
ATOM     24  C   LIG d   1       4.489  -2.023  -2.609  0.00  0.00    -0.053 A 
ATOM     25  H   LIG d   1       4.519  -1.432  -0.555  0.00  0.00     0.062 H 
ATOM     26  H   LIG d   1       4.496  -3.078  -2.384  0.00  0.00     0.062 H 
BRANCH  18  27
ATOM     27  O   LIG d   1       4.439   0.182  -5.503  0.00  0.00    -0.425 OA
BRANCH  27  28
ATOM     28  C   LIG d   1       3.241   0.483  -6.029  0.00  0.00     0.312 C 
ATOM     29  O   LIG d   1       2.499   1.238  -5.447  0.00  0.00    -0.250 OA
BRANCH  28  30
ATOM     30  C   LIG d   1       2.823  -0.121  -7.344  0.00  0.00     0.043 C 
ATOM     31  H   LIG d   1       2.374  -1.099  -7.170  0.00  0.00     0.037 H 
ATOM     32  H   LIG d   1       2.097   0.531  -7.830  0.00  0.00     0.037 H 
BRANCH  30  33
ATOM     33  C   LIG d   1       4.050  -0.278  -8.246  0.00  0.00    -0.055 C 
ATOM     34  H   LIG d   1       3.745  -0.699  -9.204  0.00  0.00     0.024 H 
ATOM     35  H   LIG d   1       4.509   0.697  -8.407  0.00  0.00     0.024 H 
ATOM     36  H   LIG d   1       4.770  -0.943  -7.768  0.00  0.00     0.024 H 
ENDBRANCH  30  33
ENDBRANCH  28  30
ENDBRANCH  27  28
ENDBRANCH  18  27
ENDBRANCH   4  17
BRANCH   8  37
ATOM     37  C   LIG d   1       6.938  -3.449  -7.851  0.00  0.00    -0.061 C 
ATOM     38  H   LIG d   1       6.767  -3.947  -8.805  0.00  0.00     0.023 H 
ATOM     39  H   LIG d   1       7.209  -2.409  -8.028  0.00  0.00     0.023 H 
ATOM     40  H   LIG d   1       7.748  -3.950  -7.320  0.00  0.00     0.023 H 
ENDBRANCH   8  37
BRANCH  10  41
ATOM     41  C   LIG d   1       7.534  -1.910  -4.053  0.00  0.00    -0.043 C 
ATOM     42  H   LIG d   1       8.564  -2.205  -3.847  0.00  0.00     0.027 H 
ATOM     43  H   LIG d   1       7.527  -0.947  -4.564  0.00  0.00     0.027 H 
ATOM     44  H   LIG d   1       6.984  -1.829  -3.115  0.00  0.00     0.027 H 
ENDBRANCH  10  41
BRANCH   1  45
ATOM     45  C   LIG d   1       5.258  -5.903  -7.553  0.00  0.00     0.101 C 
ATOM     46  H   LIG d   1       5.775  -6.838  -7.336  0.00  0.00     0.070 H 
ATOM     47  H   LIG d   1       5.641  -5.485  -8.484  0.00  0.00     0.070 H 
BRANCH  45  48
ATOM     48  O   LIG d   1       3.835  -6.156  -7.685  0.00  0.00    -0.464 OA
BRANCH  48  49
ATOM     49  C   LIG d   1       3.301  -6.014  -8.908  0.00  0.00     0.307 C 
ATOM     50  O   LIG d   1       2.432  -6.768  -9.279  0.00  0.00    -0.251 OA
BRANCH  49  51
ATOM     51  C   LIG d   1       3.785  -4.916  -9.819  0.00  0.00     0.042 C 
ATOM     52  H   LIG d   1       3.645  -5.217 -10.857  0.00  0.00     0.037 H 
ATOM     53  H   LIG d   1       4.843  -4.730  -9.634  0.00  0.00     0.037 H 
BRANCH  51  54
ATOM     54  C   LIG d   1       2.988  -3.639  -9.546  0.00  0.00    -0.055 C 
ATOM     55  H   LIG d   1       3.570  -2.772  -9.859  0.00  0.00     0.024 H 
ATOM     56  H   LIG d   1       2.052  -3.668 -10.104  0.00  0.00     0.024 H 
ATOM     57  H   LIG d   1       2.773  -3.566  -8.480  0.00  0.00     0.024 H 
ENDBRANCH  51  54
ENDBRANCH  49  51
ENDBRANCH  48  49
ENDBRANCH  45  48
ENDBRANCH   1  45
BRANCH  12  58
ATOM     58  C   LIG d   1       7.835  -5.712  -6.713  0.00  0.00    -0.058 C 
ATOM     59  H   LIG d   1       8.283  -4.818  -7.148  0.00  0.00     0.024 H 
ATOM     60  H   LIG d   1       8.608  -6.304  -6.224  0.00  0.00     0.024 H 
ATOM     61  H   LIG d   1       7.366  -6.304  -7.500  0.00  0.00     0.024 H 
ENDBRANCH  12  58
TORSDOF 13
ENDMDL
MODEL 4
REMARK VINA RESULT:      -5.7      2.662      7.326
REMARK  13 active torsions:
REMARK  status: ('A' for Active; 'I' for Inactive)
REMARK    1  A    between atoms: C_1  and  C_2 
REMARK    2  A    between atoms: C_2  and  C_3 
REMARK    3  A    between atoms: C_3  and  O_5 
REMARK    4  A    between atoms: O_5  and  C_6 
REMARK    5  A    between atoms: C_6  and  C_7 
REMARK    6  A    between atoms: C_10  and  C_23 
REMARK    7  A    between atoms: C_14  and  C_16 
REMARK    8  A    between atoms: C_17  and  C_22 
REMARK    9  A    between atoms: C_19  and  C_21 
REMARK   10  A    between atoms: C_28  and  O_29 
REMARK   11  A    between atoms: O_29  and  C_30 
REMARK   12  A    between atoms: C_30  and  C_32 
REMARK   13  A    between atoms: C_32  and  C_33 
ROOT
ATOM      1  C   LIG d   1       5.738  -1.947  -4.078  0.00  0.00     0.037 C 
ATOM      2  C   LIG d   1       5.691  -2.809  -5.331  0.00  0.00     0.058 C 
ATOM      3  O   LIG d   1       4.831  -2.271  -6.311  0.00  0.00    -0.371 OA
ATOM      4  C   LIG d   1       5.146  -0.932  -6.707  0.00  0.00     0.094 C 
ATOM      5  H   LIG d   1       6.169  -0.888  -7.080  0.00  0.00     0.065 H 
ATOM      6  C   LIG d   1       5.004  -0.031  -5.467  0.00  0.00     0.014 C 
ATOM      7  H   LIG d   1       5.156   1.016  -5.729  0.00  0.00     0.038 H 
ATOM      8  C   LIG d   1       6.049  -0.491  -4.438  0.00  0.00    -0.023 C 
ATOM      9  H   LIG d   1       7.048  -0.424  -4.870  0.00  0.00     0.031 H 
ATOM     10  C   LIG d   1       3.628  -0.259  -4.895  0.00  0.00    -0.070 C 
ATOM     11  C   LIG d   1       3.381  -1.132  -3.972  0.00  0.00    -0.081 C 
ATOM     12  C   LIG d   1       4.411  -2.010  -3.329  0.00  0.00    -0.014 C 
ATOM     13  H   LIG d   1       4.051  -3.038  -3.325  0.00  0.00     0.035 H 
ATOM     14  H   LIG d   1       6.691  -2.869  -5.762  0.00  0.00     0.057 H 
ATOM     15  H   LIG d   1       5.357  -3.812  -5.064  0.00  0.00     0.057 H 
ATOM     16  H   LIG d   1       2.359  -1.234  -3.641  0.00  0.00     0.058 H 
ENDROOT
BRANCH   4  17
ATOM     17  C   LIG d   1       4.190  -0.478  -7.779  0.00  0.00     0.024 A 
ATOM     18  C   LIG d   1       4.386   0.739  -8.414  0.00  0.00     0.137 A 
ATOM     19  C   LIG d   1       3.506   1.152  -9.405  0.00  0.00    -0.019 A 
ATOM     20  C   LIG d   1       2.431   0.355  -9.748  0.00  0.00    -0.058 A 
ATOM     21  H   LIG d   1       3.659   2.098  -9.903  0.00  0.00     0.065 H 
ATOM     22  C   LIG d   1       2.236  -0.856  -9.110  0.00  0.00    -0.061 A 
ATOM     23  H   LIG d   1       1.744   0.678 -10.516  0.00  0.00     0.062 H 
ATOM     24  C   LIG d   1       3.113  -1.272  -8.126  0.00  0.00    -0.053 A 
ATOM     25  H   LIG d   1       1.395  -1.478  -9.381  0.00  0.00     0.062 H 
ATOM     26  H   LIG d   1       2.958  -2.218  -7.630  0.00  0.00     0.062 H 
BRANCH  18  27
ATOM     27  O   LIG d   1       5.441   1.524  -8.071  0.00  0.00    -0.425 OA
BRANCH  27  28
ATOM     28  C   LIG d   1       6.396   1.702  -8.997  0.00  0.00     0.312 C 
ATOM     29  O   LIG d   1       6.750   2.819  -9.291  0.00  0.00    -0.250 OA
BRANCH  28  30
ATOM     30  C   LIG d   1       7.024   0.510  -9.670  0.00  0.00     0.043 C 
ATOM     31  H   LIG d   1       6.275  -0.270  -9.803  0.00  0.00     0.037 H 
ATOM     32  H   LIG d   1       7.416   0.806 -10.643  0.00  0.00     0.037 H 
BRANCH  30  33
ATOM     33  C   LIG d   1       8.166  -0.022  -8.801  0.00  0.00    -0.055 C 
ATOM     34  H   LIG d   1       8.536  -0.957  -9.221  0.00  0.00     0.024 H 
ATOM     35  H   LIG d   1       8.974   0.709  -8.775  0.00  0.00     0.024 H 
ATOM     36  H   LIG d   1       7.802  -0.196  -7.789  0.00  0.00     0.024 H 
ENDBRANCH  30  33
ENDBRANCH  28  30
ENDBRANCH  27  28
ENDBRANCH  18  27
ENDBRANCH   4  17
BRANCH   8  37
ATOM     37  C   LIG d   1       5.964   0.383  -3.186  0.00  0.00    -0.061 C 
ATOM     38  H   LIG d   1       6.963   0.528  -2.776  0.00  0.00     0.023 H 
ATOM     39  H   LIG d   1       5.535   1.350  -3.446  0.00  0.00     0.023 H 
ATOM     40  H   LIG d   1       5.334  -0.106  -2.443  0.00  0.00     0.023 H 
ENDBRANCH   8  37
BRANCH  10  41
ATOM     41  C   LIG d   1       2.485   0.569  -5.425  0.00  0.00    -0.043 C 
ATOM     42  H   LIG d   1       1.719   0.665  -4.655  0.00  0.00     0.027 H 
ATOM     43  H   LIG d   1       2.851   1.558  -5.700  0.00  0.00     0.027 H 
ATOM     44  H   LIG d   1       2.060   0.080  -6.302  0.00  0.00     0.027 H 
ENDBRANCH  10  41
BRANCH   1  45
ATOM     45  C   LIG d   1       6.843  -2.473  -3.160  0.00  0.00     0.101 C 
ATOM     46  H   LIG d   1       6.501  -3.379  -2.659  0.00  0.00     0.070 H 
ATOM     47  H   LIG d   1       7.087  -1.716  -2.415  0.00  0.00     0.070 H 
BRANCH  45  48
ATOM     48  O   LIG d   1       8.025  -2.774  -3.948  0.00  0.00    -0.464 OA
BRANCH  48  49
ATOM     49  C   LIG d   1       8.667  -3.920  -3.673  0.00  0.00     0.307 C 
ATOM     50  O   LIG d   1       8.540  -4.874  -4.402  0.00  0.00    -0.251 OA
BRANCH  49  51
ATOM     51  C   LIG d   1       9.547  -4.016  -2.453  0.00  0.00     0.042 C 
ATOM     52  H   LIG d   1       9.054  -3.532  -1.610  0.00  0.00     0.037 H 
ATOM     53  H   LIG d   1      10.498  -3.521  -2.650  0.00  0.00     0.037 H 
BRANCH  51  54
ATOM     54  C   LIG d   1       9.798  -5.488  -2.120  0.00  0.00    -0.055 C 
ATOM     55  H   LIG d   1      10.018  -5.589  -1.057  0.00  0.00     0.024 H 
ATOM     56  H   LIG d   1       8.911  -6.072  -2.364  0.00  0.00     0.024 H 
ATOM     57  H   LIG d   1      10.644  -5.853  -2.702  0.00  0.00     0.024 H 
ENDBRANCH  51  54
ENDBRANCH  49  51
ENDBRANCH  48  49
ENDBRANCH  45  48
ENDBRANCH   1  45
BRANCH  12  58
ATOM     58  C   LIG d   1       4.629  -1.551  -1.885  0.00  0.00    -0.058 C 
ATOM     59  H   LIG d   1       4.530  -0.467  -1.829  0.00  0.00     0.024 H 
ATOM     60  H   LIG d   1       3.885  -2.018  -1.239  0.00  0.00     0.024 H 
ATOM     61  H   LIG d   1       5.627  -1.843  -1.559  0.00  0.00     0.024 H 
ENDBRANCH  12  58
TORSDOF 13
ENDMDL
MODEL 5
REMARK VINA RESULT:      -5.4      3.104      6.932
REMARK  13 active torsions:
REMARK  status: ('A' for Active; 'I' for Inactive)
REMARK    1  A    between atoms: C_1  and  C_2 
REMARK    2  A    between atoms: C_2  and  C_3 
REMARK    3  A    between atoms: C_3  and  O_5 
REMARK    4  A    between atoms: O_5  and  C_6 
REMARK    5  A    between atoms: C_6  and  C_7 
REMARK    6  A    between atoms: C_10  and  C_23 
REMARK    7  A    between atoms: C_14  and  C_16 
REMARK    8  A    between atoms: C_17  and  C_22 
REMARK    9  A    between atoms: C_19  and  C_21 
REMARK   10  A    between atoms: C_28  and  O_29 
REMARK   11  A    between atoms: O_29  and  C_30 
REMARK   12  A    between atoms: C_30  and  C_32 
REMARK   13  A    between atoms: C_32  and  C_33 
ROOT
ATOM      1  C   LIG d   1       6.110  -0.806  -4.932  0.00  0.00     0.037 C 
ATOM      2  C   LIG d   1       4.754  -0.617  -5.595  0.00  0.00     0.058 C 
ATOM      3  O   LIG d   1       4.506  -1.596  -6.580  0.00  0.00    -0.371 OA
ATOM      4  C   LIG d   1       4.583  -2.945  -6.109  0.00  0.00     0.094 C 
ATOM      5  H   LIG d   1       3.880  -3.091  -5.289  0.00  0.00     0.065 H 
ATOM      6  C   LIG d   1       6.020  -3.187  -5.613  0.00  0.00     0.014 C 
ATOM      7  H   LIG d   1       6.157  -4.227  -5.316  0.00  0.00     0.038 H 
ATOM      8  C   LIG d   1       6.265  -2.244  -4.425  0.00  0.00    -0.023 C 
ATOM      9  H   LIG d   1       5.533  -2.439  -3.641  0.00  0.00     0.031 H 
ATOM     10  C   LIG d   1       6.956  -2.809  -6.733  0.00  0.00    -0.070 C 
ATOM     11  C   LIG d   1       7.471  -1.628  -6.856  0.00  0.00    -0.081 C 
ATOM     12  C   LIG d   1       7.238  -0.491  -5.909  0.00  0.00    -0.014 C 
ATOM     13  H   LIG d   1       6.979   0.400  -6.478  0.00  0.00     0.035 H 
ATOM     14  H   LIG d   1       3.972  -0.698  -4.840  0.00  0.00     0.057 H 
ATOM     15  H   LIG d   1       4.711   0.374  -6.047  0.00  0.00     0.057 H 
ATOM     16  H   LIG d   1       8.116  -1.450  -7.703  0.00  0.00     0.058 H 
ENDROOT
BRANCH   4  17
ATOM     17  C   LIG d   1       4.264  -3.897  -7.233  0.00  0.00     0.024 A 
ATOM     18  C   LIG d   1       4.061  -5.243  -6.965  0.00  0.00     0.137 A 
ATOM     19  C   LIG d   1       3.762  -6.117  -8.002  0.00  0.00    -0.019 A 
ATOM     20  C   LIG d   1       3.680  -5.646  -9.298  0.00  0.00    -0.058 A 
ATOM     21  H   LIG d   1       3.599  -7.164  -7.795  0.00  0.00     0.065 H 
ATOM     22  C   LIG d   1       3.887  -4.304  -9.562  0.00  0.00    -0.061 A 
ATOM     23  H   LIG d   1       3.451  -6.325 -10.106  0.00  0.00     0.062 H 
ATOM     24  C   LIG d   1       4.180  -3.431  -8.531  0.00  0.00    -0.053 A 
ATOM     25  H   LIG d   1       3.821  -3.938 -10.576  0.00  0.00     0.062 H 
ATOM     26  H   LIG d   1       4.342  -2.385  -8.740  0.00  0.00     0.062 H 
BRANCH  18  27
ATOM     27  O   LIG d   1       4.148  -5.705  -5.690  0.00  0.00    -0.425 OA
BRANCH  27  28
ATOM     28  C   LIG d   1       4.945  -6.764  -5.478  0.00  0.00     0.312 C 
ATOM     29  O   LIG d   1       4.463  -7.834  -5.190  0.00  0.00    -0.250 OA
BRANCH  28  30
ATOM     30  C   LIG d   1       6.439  -6.619  -5.599  0.00  0.00     0.043 C 
ATOM     31  H   LIG d   1       6.685  -5.590  -5.860  0.00  0.00     0.037 H 
ATOM     32  H   LIG d   1       6.908  -6.874  -4.649  0.00  0.00     0.037 H 
BRANCH  30  33
ATOM     33  C   LIG d   1       6.956  -7.558  -6.692  0.00  0.00    -0.055 C 
ATOM     34  H   LIG d   1       7.020  -7.017  -7.635  0.00  0.00     0.024 H 
ATOM     35  H   LIG d   1       7.943  -7.927  -6.416  0.00  0.00     0.024 H 
ATOM     36  H   LIG d   1       6.271  -8.400  -6.801  0.00  0.00     0.024 H 
ENDBRANCH  30  33
ENDBRANCH  28  30
ENDBRANCH  27  28
ENDBRANCH  18  27
ENDBRANCH   4  17
BRANCH   8  37
ATOM     37  C   LIG d   1       7.678  -2.453  -3.879  0.00  0.00    -0.061 C 
ATOM     38  H   LIG d   1       7.698  -2.208  -2.818  0.00  0.00     0.023 H 
ATOM     39  H   LIG d   1       7.971  -3.494  -4.017  0.00  0.00     0.023 H 
ATOM     40  H   LIG d   1       8.374  -1.807  -4.415  0.00  0.00     0.023 H 
ENDBRANCH   8  37
BRANCH  10  41
ATOM     41  C   LIG d   1       7.308  -3.857  -7.758  0.00  0.00    -0.043 C 
ATOM     42  H   LIG d   1       6.434  -4.477  -7.958  0.00  0.00     0.027 H 
ATOM     43  H   LIG d   1       7.626  -3.370  -8.680  0.00  0.00     0.027 H 
ATOM     44  H   LIG d   1       8.117  -4.480  -7.378  0.00  0.00     0.027 H 
ENDBRANCH  10  41
BRANCH   1  45
ATOM     45  C   LIG d   1       6.213   0.148  -3.741  0.00  0.00     0.101 C 
ATOM     46  H   LIG d   1       7.002   0.877  -3.925  0.00  0.00     0.070 H 
ATOM     47  H   LIG d   1       6.447  -0.420  -2.840  0.00  0.00     0.070 H 
BRANCH  45  48
ATOM     48  O   LIG d   1       4.948   0.838  -3.562  0.00  0.00    -0.464 OA
BRANCH  48  49
ATOM     49  C   LIG d   1       4.259   0.570  -2.442  0.00  0.00     0.307 C 
ATOM     50  O   LIG d   1       3.474   1.379  -2.007  0.00  0.00    -0.251 OA
BRANCH  49  51
ATOM     51  C   LIG d   1       4.465  -0.741  -1.727  0.00  0.00     0.042 C 
ATOM     52  H   LIG d   1       4.243  -0.615  -0.667  0.00  0.00     0.037 H 
ATOM     53  H   LIG d   1       5.500  -1.061  -1.846  0.00  0.00     0.037 H 
BRANCH  51  54
ATOM     54  C   LIG d   1       3.533  -1.798  -2.321  0.00  0.00    -0.055 C 
ATOM     55  H   LIG d   1       3.690  -2.749  -1.812  0.00  0.00     0.024 H 
ATOM     56  H   LIG d   1       2.498  -1.484  -2.193  0.00  0.00     0.024 H 
ATOM     57  H   LIG d   1       3.748  -1.915  -3.384  0.00  0.00     0.024 H 
ENDBRANCH  51  54
ENDBRANCH  49  51
ENDBRANCH  48  49
ENDBRANCH  45  48
ENDBRANCH   1  45
BRANCH  12  58
ATOM     58  C   LIG d   1       8.523  -0.225  -5.121  0.00  0.00    -0.058 C 
ATOM     59  H   LIG d   1       9.365  -0.698  -5.628  0.00  0.00     0.024 H 
ATOM     60  H   LIG d   1       8.694   0.849  -5.057  0.00  0.00     0.024 H 
ATOM     61  H   LIG d   1       8.425  -0.638  -4.116  0.00  0.00     0.024 H 
ENDBRANCH  12  58
TORSDOF 13
ENDMDL
MODEL 6
REMARK VINA RESULT:      -5.3      1.766      6.924
REMARK  13 active torsions:
REMARK  status: ('A' for Active; 'I' for Inactive)
REMARK    1  A    between atoms: C_1  and  C_2 
REMARK    2  A    between atoms: C_2  and  C_3 
REMARK    3  A    between atoms: C_3  and  O_5 
REMARK    4  A    between atoms: O_5  and  C_6 
REMARK    5  A    between atoms: C_6  and  C_7 
REMARK    6  A    between atoms: C_10  and  C_23 
REMARK    7  A    between atoms: C_14  and  C_16 
REMARK    8  A    between atoms: C_17  and  C_22 
REMARK    9  A    between atoms: C_19  and  C_21 
REMARK   10  A    between atoms: C_28  and  O_29 
REMARK   11  A    between atoms: O_29  and  C_30 
REMARK   12  A    between atoms: C_30  and  C_32 
REMARK   13  A    between atoms: C_32  and  C_33 
ROOT
ATOM      1  C   LIG d   1       6.841  -0.906  -4.738  0.00  0.00     0.037 C 
ATOM      2  C   LIG d   1       7.207   0.350  -5.514  0.00  0.00     0.058 C 
ATOM      3  O   LIG d   1       7.136   0.150  -6.908  0.00  0.00    -0.371 OA
ATOM      4  C   LIG d   1       5.863  -0.305  -7.379  0.00  0.00     0.094 C 
ATOM      5  H   LIG d   1       5.087   0.404  -7.089  0.00  0.00     0.065 H 
ATOM      6  C   LIG d   1       5.586  -1.674  -6.732  0.00  0.00     0.014 C 
ATOM      7  H   LIG d   1       4.662  -2.105  -7.118  0.00  0.00     0.038 H 
ATOM      8  C   LIG d   1       5.493  -1.458  -5.213  0.00  0.00    -0.023 C 
ATOM      9  H   LIG d   1       4.702  -0.742  -4.989  0.00  0.00     0.031 H 
ATOM     10  C   LIG d   1       6.769  -2.562  -7.023  0.00  0.00    -0.070 C 
ATOM     11  C   LIG d   1       7.781  -2.676  -6.225  0.00  0.00    -0.081 C 
ATOM     12  C   LIG d   1       7.913  -1.978  -4.906  0.00  0.00    -0.014 C 
ATOM     13  H   LIG d   1       8.896  -1.512  -4.846  0.00  0.00     0.035 H 
ATOM     14  H   LIG d   1       6.509   1.147  -5.255  0.00  0.00     0.057 H 
ATOM     15  H   LIG d   1       8.216   0.658  -5.241  0.00  0.00     0.057 H 
ATOM     16  H   LIG d   1       8.589  -3.324  -6.532  0.00  0.00     0.058 H 
ENDROOT
BRANCH   4  17
ATOM     17  C   LIG d   1       5.893  -0.447  -8.878  0.00  0.00     0.024 A 
ATOM     18  C   LIG d   1       4.721  -0.699  -9.576  0.00  0.00     0.137 A 
ATOM     19  C   LIG d   1       4.752  -0.824 -10.958  0.00  0.00    -0.019 A 
ATOM     20  C   LIG d   1       5.951  -0.708 -11.634  0.00  0.00    -0.058 A 
ATOM     21  H   LIG d   1       3.840  -1.017 -11.503  0.00  0.00     0.065 H 
ATOM     22  C   LIG d   1       7.119  -0.460 -10.936  0.00  0.00    -0.061 A 
ATOM     23  H   LIG d   1       5.976  -0.809 -12.709  0.00  0.00     0.062 H 
ATOM     24  C   LIG d   1       7.090  -0.331  -9.560  0.00  0.00    -0.053 A 
ATOM     25  H   LIG d   1       8.055  -0.369 -11.466  0.00  0.00     0.062 H 
ATOM     26  H   LIG d   1       8.003  -0.138  -9.017  0.00  0.00     0.062 H 
BRANCH  18  27
ATOM     27  O   LIG d   1       3.544  -0.819  -8.908  0.00  0.00    -0.425 OA
BRANCH  27  28
ATOM     28  C   LIG d   1       2.626   0.139  -9.114  0.00  0.00     0.312 C 
ATOM     29  O   LIG d   1       1.666  -0.085  -9.812  0.00  0.00    -0.250 OA
BRANCH  28  30
ATOM     30  C   LIG d   1       2.793   1.492  -8.474  0.00  0.00     0.043 C 
ATOM     31  H   LIG d   1       1.814   1.900  -8.222  0.00  0.00     0.037 H 
ATOM     32  H   LIG d   1       3.390   1.395  -7.567  0.00  0.00     0.037 H 
BRANCH  30  33
ATOM     33  C   LIG d   1       3.501   2.434  -9.451  0.00  0.00    -0.055 C 
ATOM     34  H   LIG d   1       4.348   1.918  -9.903  0.00  0.00     0.024 H 
ATOM     35  H   LIG d   1       2.803   2.740 -10.231  0.00  0.00     0.024 H 
ATOM     36  H   LIG d   1       3.855   3.315  -8.915  0.00  0.00     0.024 H 
ENDBRANCH  30  33
ENDBRANCH  28  30
ENDBRANCH  27  28
ENDBRANCH  18  27
ENDBRANCH   4  17
BRANCH   8  37
ATOM     37  C   LIG d   1       5.202  -2.788  -4.517  0.00  0.00    -0.061 C 
ATOM     38  H   LIG d   1       4.866  -2.599  -3.497  0.00  0.00     0.023 H 
ATOM     39  H   LIG d   1       4.423  -3.321  -5.062  0.00  0.00     0.023 H 
ATOM     40  H   LIG d   1       6.108  -3.393  -4.495  0.00  0.00     0.023 H 
ENDBRANCH   8  37
BRANCH  10  41
ATOM     41  C   LIG d   1       6.773  -3.352  -8.307  0.00  0.00    -0.043 C 
ATOM     42  H   LIG d   1       7.538  -4.127  -8.254  0.00  0.00     0.027 H 
ATOM     43  H   LIG d   1       5.797  -3.815  -8.451  0.00  0.00     0.027 H 
ATOM     44  H   LIG d   1       6.987  -2.686  -9.143  0.00  0.00     0.027 H 
ENDBRANCH  10  41
BRANCH   1  45
ATOM     45  C   LIG d   1       6.731  -0.553  -3.253  0.00  0.00     0.101 C 
ATOM     46  H   LIG d   1       7.704  -0.674  -2.777  0.00  0.00     0.070 H 
ATOM     47  H   LIG d   1       6.008  -1.214  -2.776  0.00  0.00     0.070 H 
BRANCH  45  48
ATOM     48  O   LIG d   1       6.293   0.824  -3.114  0.00  0.00    -0.464 OA
BRANCH  48  49
ATOM     49  C   LIG d   1       5.017   1.024  -2.746  0.00  0.00     0.307 C 
ATOM     50  O   LIG d   1       4.450   2.043  -3.062  0.00  0.00    -0.251 OA
BRANCH  49  51
ATOM     51  C   LIG d   1       4.293  -0.022  -1.939  0.00  0.00     0.042 C 
ATOM     52  H   LIG d   1       4.014   0.394  -0.971  0.00  0.00     0.037 H 
ATOM     53  H   LIG d   1       4.945  -0.883  -1.790  0.00  0.00     0.037 H 
BRANCH  51  54
ATOM     54  C   LIG d   1       3.033  -0.461  -2.687  0.00  0.00    -0.055 C 
ATOM     55  H   LIG d   1       2.156  -0.263  -2.071  0.00  0.00     0.024 H 
ATOM     56  H   LIG d   1       2.953   0.094  -3.621  0.00  0.00     0.024 H 
ATOM     57  H   LIG d   1       3.092  -1.528  -2.902  0.00  0.00     0.024 H 
ENDBRANCH  51  54
ENDBRANCH  49  51
ENDBRANCH  48  49
ENDBRANCH  45  48
ENDBRANCH   1  45
BRANCH  12  58
ATOM     58  C   LIG d   1       7.776  -3.004  -3.780  0.00  0.00    -0.058 C 
ATOM     59  H   LIG d   1       6.725  -3.114  -3.514  0.00  0.00     0.024 H 
ATOM     60  H   LIG d   1       8.169  -3.965  -4.114  0.00  0.00     0.024 H 
ATOM     61  H   LIG d   1       8.338  -2.665  -2.910  0.00  0.00     0.024 H 
ENDBRANCH  12  58
TORSDOF 13
ENDMDL
MODEL 7
REMARK VINA RESULT:      -5.2      1.564      3.222
REMARK  13 active torsions:
REMARK  status: ('A' for Active; 'I' for Inactive)
REMARK    1  A    between atoms: C_1  and  C_2 
REMARK    2  A    between atoms: C_2  and  C_3 
REMARK    3  A    between atoms: C_3  and  O_5 
REMARK    4  A    between atoms: O_5  and  C_6 
REMARK    5  A    between atoms: C_6  and  C_7 
REMARK    6  A    between atoms: C_10  and  C_23 
REMARK    7  A    between atoms: C_14  and  C_16 
REMARK    8  A    between atoms: C_17  and  C_22 
REMARK    9  A    between atoms: C_19  and  C_21 
REMARK   10  A    between atoms: C_28  and  O_29 
REMARK   11  A    between atoms: O_29  and  C_30 
REMARK   12  A    between atoms: C_30  and  C_32 
REMARK   13  A    between atoms: C_32  and  C_33 
ROOT
ATOM      1  C   LIG d   1       3.821  -0.992  -8.799  0.00  0.00     0.037 C 
ATOM      2  C   LIG d   1       2.748  -0.305  -7.968  0.00  0.00     0.058 C 
ATOM      3  O   LIG d   1       2.921  -0.535  -6.587  0.00  0.00    -0.371 OA
ATOM      4  C   LIG d   1       4.198  -0.141  -6.074  0.00  0.00     0.094 C 
ATOM      5  H   LIG d   1       4.365   0.917  -6.274  0.00  0.00     0.065 H 
ATOM      6  C   LIG d   1       5.270  -0.982  -6.789  0.00  0.00     0.014 C 
ATOM      7  H   LIG d   1       6.259  -0.778  -6.379  0.00  0.00     0.038 H 
ATOM      8  C   LIG d   1       5.217  -0.627  -8.284  0.00  0.00    -0.023 C 
ATOM      9  H   LIG d   1       5.391   0.441  -8.416  0.00  0.00     0.031 H 
ATOM     10  C   LIG d   1       4.896  -2.433  -6.622  0.00  0.00    -0.070 C 
ATOM     11  C   LIG d   1       4.179  -3.082  -7.482  0.00  0.00    -0.081 C 
ATOM     12  C   LIG d   1       3.649  -2.507  -8.760  0.00  0.00    -0.014 C 
ATOM     13  H   LIG d   1       2.590  -2.748  -8.846  0.00  0.00     0.035 H 
ATOM     14  H   LIG d   1       2.800   0.771  -8.135  0.00  0.00     0.057 H 
ATOM     15  H   LIG d   1       1.768  -0.667  -8.277  0.00  0.00     0.057 H 
ATOM     16  H   LIG d   1       3.949  -4.114  -7.263  0.00  0.00     0.058 H 
ENDROOT
BRANCH   4  17
ATOM     17  C   LIG d   1       4.254  -0.398  -4.591  0.00  0.00     0.024 A 
ATOM     18  C   LIG d   1       5.268   0.162  -3.827  0.00  0.00     0.137 A 
ATOM     19  C   LIG d   1       5.314  -0.072  -2.460  0.00  0.00    -0.019 A 
ATOM     20  C   LIG d   1       4.357  -0.870  -1.865  0.00  0.00    -0.058 A 
ATOM     21  H   LIG d   1       6.101   0.365  -1.863  0.00  0.00     0.065 H 
ATOM     22  C   LIG d   1       3.349  -1.430  -2.629  0.00  0.00    -0.061 A 
ATOM     23  H   LIG d   1       4.394  -1.057  -0.802  0.00  0.00     0.062 H 
ATOM     24  C   LIG d   1       3.298  -1.195  -3.990  0.00  0.00    -0.053 A 
ATOM     25  H   LIG d   1       2.601  -2.053  -2.161  0.00  0.00     0.062 H 
ATOM     26  H   LIG d   1       2.511  -1.633  -4.584  0.00  0.00     0.062 H 
BRANCH  18  27
ATOM     27  O   LIG d   1       6.212   0.942  -4.416  0.00  0.00    -0.425 OA
BRANCH  27  28
ATOM     28  C   LIG d   1       7.496   0.635  -4.173  0.00  0.00     0.312 C 
ATOM     29  O   LIG d   1       8.214   1.434  -3.620  0.00  0.00    -0.250 OA
BRANCH  28  30
ATOM     30  C   LIG d   1       8.041  -0.706  -4.590  0.00  0.00     0.043 C 
ATOM     31  H   LIG d   1       8.727  -1.074  -3.827  0.00  0.00     0.037 H 
ATOM     32  H   LIG d   1       7.220  -1.412  -4.710  0.00  0.00     0.037 H 
BRANCH  30  33
ATOM     33  C   LIG d   1       8.788  -0.562  -5.918  0.00  0.00    -0.055 C 
ATOM     34  H   LIG d   1       9.841  -0.799  -5.770  0.00  0.00     0.024 H 
ATOM     35  H   LIG d   1       8.361  -1.248  -6.651  0.00  0.00     0.024 H 
ATOM     36  H   LIG d   1       8.692   0.461  -6.280  0.00  0.00     0.024 H 
ENDBRANCH  30  33
ENDBRANCH  28  30
ENDBRANCH  27  28
ENDBRANCH  18  27
ENDBRANCH   4  17
BRANCH   8  37
ATOM     37  C   LIG d   1       6.277  -1.425  -9.044  0.00  0.00    -0.061 C 
ATOM     38  H   LIG d   1       7.256  -1.240  -8.604  0.00  0.00     0.023 H 
ATOM     39  H   LIG d   1       6.046  -2.488  -8.981  0.00  0.00     0.023 H 
ATOM     40  H   LIG d   1       6.283  -1.116 -10.090  0.00  0.00     0.023 H 
ENDBRANCH   8  37
BRANCH  10  41
ATOM     41  C   LIG d   1       5.378  -3.161  -5.393  0.00  0.00    -0.043 C 
ATOM     42  H   LIG d   1       5.780  -2.441  -4.679  0.00  0.00     0.027 H 
ATOM     43  H   LIG d   1       4.544  -3.696  -4.939  0.00  0.00     0.027 H 
ATOM     44  H   LIG d   1       6.157  -3.870  -5.673  0.00  0.00     0.027 H 
ENDBRANCH  10  41
BRANCH   1  45
ATOM     45  C   LIG d   1       3.695  -0.523 -10.250  0.00  0.00     0.101 C 
ATOM     46  H   LIG d   1       4.150  -1.260 -10.912  0.00  0.00     0.070 H 
ATOM     47  H   LIG d   1       4.204   0.434 -10.367  0.00  0.00     0.070 H 
BRANCH  45  48
ATOM     48  O   LIG d   1       2.292  -0.369 -10.589  0.00  0.00    -0.464 OA
BRANCH  48  49
ATOM     49  C   LIG d   1       1.873  -0.945 -11.726  0.00  0.00     0.307 C 
ATOM     50  O   LIG d   1       0.696  -1.157 -11.899  0.00  0.00    -0.251 OA
BRANCH  49  51
ATOM     51  C   LIG d   1       2.871  -1.330 -12.789  0.00  0.00     0.042 C 
ATOM     52  H   LIG d   1       3.861  -1.417 -12.342  0.00  0.00     0.037 H 
ATOM     53  H   LIG d   1       2.888  -0.565 -13.565  0.00  0.00     0.037 H 
BRANCH  51  54
ATOM     54  C   LIG d   1       2.469  -2.671 -13.404  0.00  0.00    -0.055 C 
ATOM     55  H   LIG d   1       2.532  -2.607 -14.490  0.00  0.00     0.024 H 
ATOM     56  H   LIG d   1       3.140  -3.452 -13.046  0.00  0.00     0.024 H 
ATOM     57  H   LIG d   1       1.446  -2.912 -13.114  0.00  0.00     0.024 H 
ENDBRANCH  51  54
ENDBRANCH  49  51
ENDBRANCH  48  49
ENDBRANCH  45  48
ENDBRANCH   1  45
BRANCH  12  58
ATOM     58  C   LIG d   1       4.401  -3.128  -9.939  0.00  0.00    -0.058 C 
ATOM     59  H   LIG d   1       3.690  -3.616 -10.606  0.00  0.00     0.024 H 
ATOM     60  H   LIG d   1       4.932  -2.347 -10.483  0.00  0.00     0.024 H 
ATOM     61  H   LIG d   1       5.115  -3.862  -9.567  0.00  0.00     0.024 H 
ENDBRANCH  12  58
TORSDOF 13
ENDMDL
MODEL 8
REMARK VINA RESULT:      -5.2      1.750      7.082
REMARK  13 active torsions:
REMARK  status: ('A' for Active; 'I' for Inactive)
REMARK    1  A    between atoms: C_1  and  C_2 
REMARK    2  A    between atoms: C_2  and  C_3 
REMARK    3  A    between atoms: C_3  and  O_5 
REMARK    4  A    between atoms: O_5  and  C_6 
REMARK    5  A    between atoms: C_6  and  C_7 
REMARK    6  A    between atoms: C_10  and  C_23 
REMARK    7  A    between atoms: C_14  and  C_16 
REMARK    8  A    between atoms: C_17  and  C_22 
REMARK    9  A    between atoms: C_19  and  C_21 
REMARK   10  A    between atoms: C_28  and  O_29 
REMARK   11  A    between atoms: O_29  and  C_30 
REMARK   12  A    between atoms: C_30  and  C_32 
REMARK   13  A    between atoms: C_32  and  C_33 
ROOT
ATOM      1  C   LIG d   1       5.829  -1.771  -5.157  0.00  0.00     0.037 C 
ATOM      2  C   LIG d   1       5.400  -0.317  -5.294  0.00  0.00     0.058 C 
ATOM      3  O   LIG d   1       5.185   0.046  -6.640  0.00  0.00    -0.371 OA
ATOM      4  C   LIG d   1       4.225  -0.764  -7.327  0.00  0.00     0.094 C 
ATOM      5  H   LIG d   1       3.271  -0.732  -6.801  0.00  0.00     0.065 H 
ATOM      6  C   LIG d   1       4.761  -2.207  -7.350  0.00  0.00     0.014 C 
ATOM      7  H   LIG d   1       4.105  -2.854  -7.932  0.00  0.00     0.038 H 
ATOM      8  C   LIG d   1       4.851  -2.691  -5.894  0.00  0.00    -0.023 C 
ATOM      9  H   LIG d   1       3.868  -2.636  -5.426  0.00  0.00     0.031 H 
ATOM     10  C   LIG d   1       6.150  -2.166  -7.934  0.00  0.00    -0.070 C 
ATOM     11  C   LIG d   1       7.218  -2.054  -7.212  0.00  0.00    -0.081 C 
ATOM     12  C   LIG d   1       7.233  -1.976  -5.715  0.00  0.00    -0.014 C 
ATOM     13  H   LIG d   1       7.864  -1.143  -5.408  0.00  0.00     0.035 H 
ATOM     14  H   LIG d   1       4.465  -0.167  -4.754  0.00  0.00     0.057 H 
ATOM     15  H   LIG d   1       6.168   0.325  -4.862  0.00  0.00     0.057 H 
ATOM     16  H   LIG d   1       8.167  -2.015  -7.725  0.00  0.00     0.058 H 
ENDROOT
BRANCH   4  17
ATOM     17  C   LIG d   1       4.050  -0.262  -8.737  0.00  0.00     0.024 A 
ATOM     18  C   LIG d   1       3.073  -0.813  -9.553  0.00  0.00     0.137 A 
ATOM     19  C   LIG d   1       2.910  -0.345 -10.850  0.00  0.00    -0.019 A 
ATOM     20  C   LIG d   1       3.729   0.659 -11.328  0.00  0.00    -0.058 A 
ATOM     21  H   LIG d   1       2.147  -0.770 -11.485  0.00  0.00     0.065 H 
ATOM     22  C   LIG d   1       4.706   1.203 -10.514  0.00  0.00    -0.061 A 
ATOM     23  H   LIG d   1       3.606   1.021 -12.338  0.00  0.00     0.062 H 
ATOM     24  C   LIG d   1       4.867   0.742  -9.220  0.00  0.00    -0.053 A 
ATOM     25  H   LIG d   1       5.344   1.989 -10.889  0.00  0.00     0.062 H 
ATOM     26  H   LIG d   1       5.630   1.169  -8.587  0.00  0.00     0.062 H 
BRANCH  18  27
ATOM     27  O   LIG d   1       2.272  -1.804  -9.082  0.00  0.00    -0.425 OA
BRANCH  27  28
ATOM     28  C   LIG d   1       2.038  -2.842  -9.902  0.00  0.00     0.312 C 
ATOM     29  O   LIG d   1       0.936  -3.006 -10.369  0.00  0.00    -0.250 OA
BRANCH  28  30
ATOM     30  C   LIG d   1       3.150  -3.800 -10.240  0.00  0.00     0.043 C 
ATOM     31  H   LIG d   1       2.989  -4.208 -11.237  0.00  0.00     0.037 H 
ATOM     32  H   LIG d   1       4.104  -3.274 -10.213  0.00  0.00     0.037 H 
BRANCH  30  33
ATOM     33  C   LIG d   1       3.168  -4.940  -9.219  0.00  0.00    -0.055 C 
ATOM     34  H   LIG d   1       2.359  -4.799  -8.503  0.00  0.00     0.024 H 
ATOM     35  H   LIG d   1       3.034  -5.891  -9.735  0.00  0.00     0.024 H 
ATOM     36  H   LIG d   1       4.124  -4.943  -8.694  0.00  0.00     0.024 H 
ENDBRANCH  30  33
ENDBRANCH  28  30
ENDBRANCH  27  28
ENDBRANCH  18  27
ENDBRANCH   4  17
BRANCH   8  37
ATOM     37  C   LIG d   1       5.364  -4.131  -5.857  0.00  0.00    -0.061 C 
ATOM     38  H   LIG d   1       5.379  -4.485  -4.827  0.00  0.00     0.023 H 
ATOM     39  H   LIG d   1       4.706  -4.766  -6.449  0.00  0.00     0.023 H 
ATOM     40  H   LIG d   1       6.372  -4.168  -6.269  0.00  0.00     0.023 H 
ENDBRANCH   8  37
BRANCH  10  41
ATOM     41  C   LIG d   1       6.302  -2.260  -9.431  0.00  0.00    -0.043 C 
ATOM     42  H   LIG d   1       5.672  -1.507  -9.907  0.00  0.00     0.027 H 
ATOM     43  H   LIG d   1       7.343  -2.086  -9.701  0.00  0.00     0.027 H 
ATOM     44  H   LIG d   1       6.000  -3.252  -9.765  0.00  0.00     0.027 H 
ENDBRANCH  10  41
BRANCH   1  45
ATOM     45  C   LIG d   1       5.832  -2.145  -3.674  0.00  0.00     0.101 C 
ATOM     46  H   LIG d   1       6.691  -2.781  -3.461  0.00  0.00     0.070 H 
ATOM     47  H   LIG d   1       4.914  -2.681  -3.433  0.00  0.00     0.070 H 
BRANCH  45  48
ATOM     48  O   LIG d   1       5.912  -0.939  -2.870  0.00  0.00    -0.464 OA
BRANCH  48  49
ATOM     49  C   LIG d   1       4.855  -0.651  -2.094  0.00  0.00     0.307 C 
ATOM     50  O   LIG d   1       4.093  -1.528  -1.762  0.00  0.00    -0.251 OA
BRANCH  49  51
ATOM     51  C   LIG d   1       4.619   0.765  -1.636  0.00  0.00     0.042 C 
ATOM     52  H   LIG d   1       5.542   1.336  -1.731  0.00  0.00     0.037 H 
ATOM     53  H   LIG d   1       4.298   0.762  -0.595  0.00  0.00     0.037 H 
BRANCH  51  54
ATOM     54  C   LIG d   1       3.533   1.406  -2.502  0.00  0.00    -0.055 C 
ATOM     55  H   LIG d   1       2.617   0.819  -2.431  0.00  0.00     0.024 H 
ATOM     56  H   LIG d   1       3.342   2.421  -2.155  0.00  0.00     0.024 H 
ATOM     57  H   LIG d   1       3.865   1.434  -3.540  0.00  0.00     0.024 H 
ENDBRANCH  51  54
ENDBRANCH  49  51
ENDBRANCH  48  49
ENDBRANCH  45  48
ENDBRANCH   1  45
BRANCH  12  58
ATOM     58  C   LIG d   1       7.811  -3.275  -5.152  0.00  0.00    -0.058 C 
ATOM     59  H   LIG d   1       7.602  -3.333  -4.083  0.00  0.00     0.024 H 
ATOM     60  H   LIG d   1       7.354  -4.126  -5.657  0.00  0.00     0.024 H 
ATOM     61  H   LIG d   1       8.889  -3.294  -5.313  0.00  0.00     0.024 H 
ENDBRANCH  12  58
TORSDOF 13
ENDMDL
MODEL 9
REMARK VINA RESULT:      -5.2      2.050      3.477
REMARK  13 active torsions:
REMARK  status: ('A' for Active; 'I' for Inactive)
REMARK    1  A    between atoms: C_1  and  C_2 
REMARK    2  A    between atoms: C_2  and  C_3 
REMARK    3  A    between atoms: C_3  and  O_5 
REMARK    4  A    between atoms: O_5  and  C_6 
REMARK    5  A    between atoms: C_6  and  C_7 
REMARK    6  A    between atoms: C_10  and  C_23 
REMARK    7  A    between atoms: C_14  and  C_16 
REMARK    8  A    between atoms: C_17  and  C_22 
REMARK    9  A    between atoms: C_19  and  C_21 
REMARK   10  A    between atoms: C_28  and  O_29 
REMARK   11  A    between atoms: O_29  and  C_30 
REMARK   12  A    between atoms: C_30  and  C_32 
REMARK   13  A    between atoms: C_32  and  C_33 
ROOT
ATOM      1  C   LIG d   1       4.456   0.405  -8.683  0.00  0.00     0.037 C 
ATOM      2  C   LIG d   1       5.768   0.475  -7.915  0.00  0.00     0.058 C 
ATOM      3  O   LIG d   1       5.580   0.292  -6.529  0.00  0.00    -0.371 OA
ATOM      4  C   LIG d   1       4.924  -0.930  -6.174  0.00  0.00     0.094 C 
ATOM      5  H   LIG d   1       5.488  -1.777  -6.563  0.00  0.00     0.065 H 
ATOM      6  C   LIG d   1       3.519  -0.907  -6.801  0.00  0.00     0.014 C 
ATOM      7  H   LIG d   1       2.945  -1.782  -6.496  0.00  0.00     0.038 H 
ATOM      8  C   LIG d   1       3.693  -0.875  -8.328  0.00  0.00    -0.023 C 
ATOM      9  H   LIG d   1       4.262  -1.746  -8.653  0.00  0.00     0.031 H 
ATOM     10  C   LIG d   1       2.847   0.370  -6.364  0.00  0.00    -0.070 C 
ATOM     11  C   LIG d   1       2.892   1.465  -7.052  0.00  0.00    -0.081 C 
ATOM     12  C   LIG d   1       3.583   1.616  -8.373  0.00  0.00    -0.014 C 
ATOM     13  H   LIG d   1       4.206   2.509  -8.349  0.00  0.00     0.035 H 
ATOM     14  H   LIG d   1       6.432  -0.315  -8.268  0.00  0.00     0.057 H 
ATOM     15  H   LIG d   1       6.237   1.442  -8.095  0.00  0.00     0.057 H 
ATOM     16  H   LIG d   1       2.394   2.332  -6.645  0.00  0.00     0.058 H 
ENDROOT
BRANCH   4  17
ATOM     17  C   LIG d   1       4.813  -1.033  -4.675  0.00  0.00     0.024 A 
ATOM     18  C   LIG d   1       5.407  -0.075  -3.868  0.00  0.00     0.137 A 
ATOM     19  C   LIG d   1       5.298  -0.169  -2.487  0.00  0.00    -0.019 A 
ATOM     20  C   LIG d   1       4.607  -1.223  -1.921  0.00  0.00    -0.058 A 
ATOM     21  H   LIG d   1       5.757   0.578  -1.856  0.00  0.00     0.065 H 
ATOM     22  C   LIG d   1       4.019  -2.179  -2.729  0.00  0.00    -0.061 A 
ATOM     23  H   LIG d   1       4.525  -1.300  -0.847  0.00  0.00     0.062 H 
ATOM     24  C   LIG d   1       4.122  -2.085  -4.104  0.00  0.00    -0.053 A 
ATOM     25  H   LIG d   1       3.478  -3.002  -2.284  0.00  0.00     0.062 H 
ATOM     26  H   LIG d   1       3.662  -2.832  -4.732  0.00  0.00     0.062 H 
BRANCH  18  27
ATOM     27  O   LIG d   1       6.091   0.958  -4.426  0.00  0.00    -0.425 OA
BRANCH  27  28
ATOM     28  C   LIG d   1       7.391   1.072  -4.111  0.00  0.00     0.312 C 
ATOM     29  O   LIG d   1       7.774   2.015  -3.460  0.00  0.00    -0.250 OA
BRANCH  28  30
ATOM     30  C   LIG d   1       8.371   0.023  -4.568  0.00  0.00     0.043 C 
ATOM     31  H   LIG d   1       9.107  -0.154  -3.784  0.00  0.00     0.037 H 
ATOM     32  H   LIG d   1       7.839  -0.903  -4.783  0.00  0.00     0.037 H 
BRANCH  30  33
ATOM     33  C   LIG d   1       9.082   0.508  -5.834  0.00  0.00    -0.055 C 
ATOM     34  H   LIG d   1       9.866   1.214  -5.562  0.00  0.00     0.024 H 
ATOM     35  H   LIG d   1       9.524  -0.344  -6.350  0.00  0.00     0.024 H 
ATOM     36  H   LIG d   1       8.362   0.997  -6.490  0.00  0.00     0.024 H 
ENDBRANCH  30  33
ENDBRANCH  28  30
ENDBRANCH  27  28
ENDBRANCH  18  27
ENDBRANCH   4  17
BRANCH   8  37
ATOM     37  C   LIG d   1       2.322  -0.868  -9.006  0.00  0.00    -0.061 C 
ATOM     38  H   LIG d   1       2.230  -1.744  -9.648  0.00  0.00     0.023 H 
ATOM     39  H   LIG d   1       1.541  -0.890  -8.247  0.00  0.00     0.023 H 
ATOM     40  H   LIG d   1       2.219   0.036  -9.607  0.00  0.00     0.023 H 
ENDBRANCH   8  37
BRANCH  10  41
ATOM     41  C   LIG d   1       2.088   0.371  -5.061  0.00  0.00    -0.043 C 
ATOM     42  H   LIG d   1       1.076   0.739  -5.231  0.00  0.00     0.027 H 
ATOM     43  H   LIG d   1       2.045  -0.644  -4.666  0.00  0.00     0.027 H 
ATOM     44  H   LIG d   1       2.596   1.018  -4.346  0.00  0.00     0.027 H 
ENDBRANCH  10  41
BRANCH   1  45
ATOM     45  C   LIG d   1       4.764   0.393 -10.181  0.00  0.00     0.101 C 
ATOM     46  H   LIG d   1       5.434   1.219 -10.422  0.00  0.00     0.070 H 
ATOM     47  H   LIG d   1       3.836   0.504 -10.743  0.00  0.00     0.070 H 
BRANCH  45  48
ATOM     48  O   LIG d   1       5.397  -0.864 -10.537  0.00  0.00    -0.464 OA
BRANCH  48  49
ATOM     49  C   LIG d   1       5.051  -1.411 -11.712  0.00  0.00     0.307 C 
ATOM     50  O   LIG d   1       5.637  -2.385 -12.122  0.00  0.00    -0.251 OA
BRANCH  49  51
ATOM     51  C   LIG d   1       3.930  -0.810 -12.522  0.00  0.00     0.042 C 
ATOM     52  H   LIG d   1       3.658   0.158 -12.102  0.00  0.00     0.037 H 
ATOM     53  H   LIG d   1       3.065  -1.474 -12.494  0.00  0.00     0.037 H 
BRANCH  51  54
ATOM     54  C   LIG d   1       4.387  -0.629 -13.970  0.00  0.00    -0.055 C 
ATOM     55  H   LIG d   1       3.582  -0.918 -14.645  0.00  0.00     0.024 H 
ATOM     56  H   LIG d   1       4.647   0.416 -14.141  0.00  0.00     0.024 H 
ATOM     57  H   LIG d   1       5.260  -1.255 -14.156  0.00  0.00     0.024 H 
ENDBRANCH  51  54
ENDBRANCH  49  51
ENDBRANCH  48  49
ENDBRANCH  45  48
ENDBRANCH   1  45
BRANCH  12  58
ATOM     58  C   LIG d   1       2.531   1.770  -9.473  0.00  0.00    -0.058 C 
ATOM     59  H   LIG d   1       1.718   1.065  -9.300  0.00  0.00     0.024 H 
ATOM     60  H   LIG d   1       2.139   2.787  -9.462  0.00  0.00     0.024 H 
ATOM     61  H   LIG d   1       2.987   1.567 -10.442  0.00  0.00     0.024 H 
ENDBRANCH  12  58
TORSDOF 13
ENDMDL
