MODEL 1
REMARK VINA RESULT:      -6.9      0.000      0.000
REMARK  14 active torsions:
REMARK  status: ('A' for Active; 'I' for Inactive)
REMARK    1  A    between atoms: C_1  and  C_2 
REMARK    2  A    between atoms: C_4  and  C_26 
REMARK    3  A    between atoms: C_6  and  C_23 
REMARK    4  A    between atoms: C_9  and  C_11 
REMARK    5  A    between atoms: C_11  and  C_12 
REMARK       I    between atoms: C_12  and  N_14 
REMARK    6  A    between atoms: N_14  and  C_15 
REMARK    7  A    between atoms: C_15  and  C_16 
REMARK    8  A    between atoms: C_16  and  N_17 
REMARK    9  A    between atoms: C_23  and  C_24 
REMARK   10  A    between atoms: C_23  and  C_25 
REMARK   11  A    between atoms: C_26  and  N_27 
REMARK       I    between atoms: N_27  and  C_28 
REMARK       I    between atoms: C_28  and  N_30 
REMARK   12  A    between atoms: N_30  and  C_31 
REMARK   13  A    between atoms: C_34  and  O_37 
REMARK   14  A    between atoms: O_37  and  C_38 
ROOT
ATOM      1  C   LIG d   1       6.854  -3.193  -4.198  0.00  0.00    -0.073 C 
ATOM      2  C   LIG d   1       7.275  -1.998  -3.931  0.00  0.00    -0.080 C 
ATOM      3  C   LIG d   1       6.379  -0.861  -3.538  0.00  0.00    -0.004 C 
ATOM      4  H   LIG d   1       6.463  -0.723  -2.449  0.00  0.00     0.036 H 
ATOM      5  C   LIG d   1       4.929  -1.179  -3.905  0.00  0.00    -0.030 C 
ATOM      6  H   LIG d   1       4.799  -1.144  -4.997  0.00  0.00     0.031 H 
ATOM      7  C   LIG d   1       4.591  -2.579  -3.375  0.00  0.00    -0.042 C 
ATOM      8  C   LIG d   1       5.411  -3.604  -4.162  0.00  0.00    -0.012 C 
ATOM      9  H   LIG d   1       5.349  -4.584  -3.666  0.00  0.00     0.035 H 
ATOM     10  H   LIG d   1       8.349  -1.769  -3.986  0.00  0.00     0.058 H 
ATOM     11  H   LIG d   1       4.841  -2.637  -2.307  0.00  0.00     0.027 H 
ATOM     12  H   LIG d   1       3.516  -2.772  -3.512  0.00  0.00     0.027 H 
ENDROOT
BRANCH   8  13
ATOM     13  C   LIG d   1       4.873  -3.695  -5.591  0.00  0.00     0.030 C 
ATOM     14  H   LIG d   1       4.014  -3.017  -5.704  0.00  0.00     0.036 H 
ATOM     15  H   LIG d   1       5.663  -3.407  -6.300  0.00  0.00     0.036 H 
BRANCH  13  16
ATOM     16  C   LIG d   1       4.437  -5.110  -5.874  0.00  0.00     0.214 C 
ATOM     17  O   LIG d   1       3.323  -5.328  -6.299  0.00  0.00    -0.276 OA
ATOM     18  N   LIG d   1       5.287  -6.134  -5.656  0.00  0.00    -0.310 N 
ATOM     19  H   LIG d   1       6.299  -5.936  -5.272  0.00  0.00     0.149 HD
BRANCH  18  20
ATOM     20  C   LIG d   1       4.864  -7.509  -5.932  0.00  0.00     0.052 C 
ATOM     21  H   LIG d   1       3.864  -7.676  -5.507  0.00  0.00     0.051 H 
ATOM     22  H   LIG d   1       4.832  -7.672  -7.020  0.00  0.00     0.051 H 
BRANCH  20  23
ATOM     23  C   LIG d   1       5.858  -8.485  -5.300  0.00  0.00    -0.016 C 
ATOM     24  H   LIG d   1       6.679  -8.680  -6.004  0.00  0.00     0.083 H 
ATOM     25  H   LIG d   1       6.263  -8.048  -4.375  0.00  0.00     0.083 H 
BRANCH  23  26
ATOM     26  N   LIG d   1       5.173  -9.746  -4.987  0.00  0.00     0.240 N 
ATOM     27  C   LIG d   1       4.162  -9.550  -3.937  0.00  0.00    -0.008 C 
ATOM     28  C   LIG d   1       3.516 -10.897  -3.601  0.00  0.00     0.088 C 
ATOM     29  H   LIG d   1       4.642  -9.137  -3.039  0.00  0.00     0.084 H 
ATOM     30  H   LIG d   1       3.392  -8.851  -4.295  0.00  0.00     0.084 H 
ATOM     31  O   LIG d   1       2.958 -11.463  -4.790  0.00  0.00    -0.369 OA
ATOM     32  H   LIG d   1       2.719 -10.748  -2.857  0.00  0.00     0.061 H 
ATOM     33  H   LIG d   1       4.276 -11.579  -3.192  0.00  0.00     0.061 H 
ATOM     34  C   LIG d   1       3.914 -11.668  -5.833  0.00  0.00     0.088 C 
ATOM     35  C   LIG d   1       4.565 -10.328  -6.192  0.00  0.00    -0.008 C 
ATOM     36  H   LIG d   1       3.410 -12.080  -6.720  0.00  0.00     0.061 H 
ATOM     37  H   LIG d   1       4.688 -12.371  -5.491  0.00  0.00     0.061 H 
ATOM     38  H   LIG d   1       3.801  -9.642  -6.587  0.00  0.00     0.084 H 
ATOM     39  H   LIG d   1       5.342 -10.489  -6.954  0.00  0.00     0.084 H 
ATOM     40  H   LIG d   1       5.926 -10.452  -4.609  0.00  0.00     0.204 HD
ENDBRANCH  23  26
ENDBRANCH  20  23
ENDBRANCH  18  20
ENDBRANCH  13  16
ENDBRANCH   8  13
BRANCH   1  41
ATOM     41  C   LIG d   1       7.876  -4.236  -4.571  0.00  0.00    -0.043 C 
ATOM     42  H   LIG d   1       8.839  -3.748  -4.777  0.00  0.00     0.027 H 
ATOM     43  H   LIG d   1       7.539  -4.776  -5.467  0.00  0.00     0.027 H 
ATOM     44  H   LIG d   1       7.996  -4.946  -3.739  0.00  0.00     0.027 H 
ENDBRANCH   1  41
BRANCH   5  45
ATOM     45  C   LIG d   1       3.997  -0.149  -3.264  0.00  0.00    -0.043 C 
ATOM     46  H   LIG d   1       4.072   0.804  -3.811  0.00  0.00     0.030 H 
BRANCH  45  47
ATOM     47  C   LIG d   1       2.556  -0.658  -3.320  0.00  0.00    -0.062 C 
ATOM     48  H   LIG d   1       1.906   0.123  -3.741  0.00  0.00     0.023 H 
ATOM     49  H   LIG d   1       2.217  -0.911  -2.306  0.00  0.00     0.023 H 
ATOM     50  H   LIG d   1       2.509  -1.555  -3.957  0.00  0.00     0.023 H 
ENDBRANCH  45  47
BRANCH  45  51
ATOM     51  C   LIG d   1       4.404   0.069  -1.805  0.00  0.00    -0.062 C 
ATOM     52  H   LIG d   1       5.497  -0.012  -1.713  0.00  0.00     0.023 H 
ATOM     53  H   LIG d   1       3.925  -0.693  -1.173  0.00  0.00     0.023 H 
ATOM     54  H   LIG d   1       4.084   1.070  -1.481  0.00  0.00     0.023 H 
ENDBRANCH  45  51
ENDBRANCH   5  45
BRANCH   3  55
ATOM     55  C   LIG d   1       6.821   0.408  -4.269  0.00  0.00     0.020 C 
ATOM     56  H   LIG d   1       6.863   0.211  -5.351  0.00  0.00     0.047 H 
ATOM     57  H   LIG d   1       6.101   1.215  -4.071  0.00  0.00     0.047 H 
BRANCH  55  58
ATOM     58  N   LIG d   1       8.148   0.810  -3.794  0.00  0.00    -0.299 N 
ATOM     59  C   LIG d   1       8.583   2.068  -3.996  0.00  0.00     0.304 C 
ATOM     60  O   LIG d   1       7.876   2.873  -4.571  0.00  0.00    -0.253 OA
ATOM     61  N   LIG d   1       9.803   2.438  -3.558  0.00  0.00    -0.270 N 
ATOM     62  H   LIG d   1      10.476   1.691  -3.111  0.00  0.00     0.156 HD
ATOM     63  H   LIG d   1       8.788   0.083  -3.273  0.00  0.00     0.150 HD
BRANCH  61  64
ATOM     64  C   LIG d   1      10.215   3.773  -3.673  0.00  0.00     0.035 A 
ATOM     65  C   LIG d   1      10.905   4.193  -4.803  0.00  0.00    -0.037 A 
ATOM     66  C   LIG d   1      11.307   5.509  -4.917  0.00  0.00    -0.018 A 
ATOM     67  H   LIG d   1      11.123   3.490  -5.593  0.00  0.00     0.064 H 
ATOM     68  C   LIG d   1      11.030   6.409  -3.898  0.00  0.00     0.120 A 
ATOM     69  H   LIG d   1      11.839   5.836  -5.797  0.00  0.00     0.066 H 
ATOM     70  C   LIG d   1      10.341   5.991  -2.769  0.00  0.00    -0.018 A 
ATOM     71  C   LIG d   1       9.934   4.676  -2.656  0.00  0.00    -0.037 A 
ATOM     72  H   LIG d   1      10.122   6.694  -1.979  0.00  0.00     0.066 H 
ATOM     73  H   LIG d   1       9.399   4.350  -1.777  0.00  0.00     0.064 H 
BRANCH  68  74
ATOM     74  O   LIG d   1      11.430   7.704  -4.010  0.00  0.00    -0.495 OA
BRANCH  74  75
ATOM     75  C   LIG d   1      11.203   8.552  -2.883  0.00  0.00     0.079 C 
ATOM     76  H   LIG d   1      10.731   7.973  -2.076  0.00  0.00     0.066 H 
ATOM     77  H   LIG d   1      10.540   9.380  -3.175  0.00  0.00     0.066 H 
ATOM     78  H   LIG d   1      12.162   8.959  -2.530  0.00  0.00     0.066 H 
ENDBRANCH  74  75
ENDBRANCH  68  74
ENDBRANCH  61  64
ENDBRANCH  55  58
ENDBRANCH   3  55
TORSDOF 14
ENDMDL
MODEL 2
REMARK VINA RESULT:      -6.5      3.319     13.841
REMARK  14 active torsions:
REMARK  status: ('A' for Active; 'I' for Inactive)
REMARK    1  A    between atoms: C_1  and  C_2 
REMARK    2  A    between atoms: C_4  and  C_26 
REMARK    3  A    between atoms: C_6  and  C_23 
REMARK    4  A    between atoms: C_9  and  C_11 
REMARK    5  A    between atoms: C_11  and  C_12 
REMARK       I    between atoms: C_12  and  N_14 
REMARK    6  A    between atoms: N_14  and  C_15 
REMARK    7  A    between atoms: C_15  and  C_16 
REMARK    8  A    between atoms: C_16  and  N_17 
REMARK    9  A    between atoms: C_23  and  C_24 
REMARK   10  A    between atoms: C_23  and  C_25 
REMARK   11  A    between atoms: C_26  and  N_27 
REMARK       I    between atoms: N_27  and  C_28 
REMARK       I    between atoms: C_28  and  N_30 
REMARK   12  A    between atoms: N_30  and  C_31 
REMARK   13  A    between atoms: C_34  and  O_37 
REMARK   14  A    between atoms: O_37  and  C_38 
ROOT
ATOM      1  C   LIG d   1       9.997   5.650  -3.123  0.00  0.00    -0.073 C 
ATOM      2  C   LIG d   1       9.548   4.437  -3.133  0.00  0.00    -0.080 C 
ATOM      3  C   LIG d   1       9.613   3.526  -4.324  0.00  0.00    -0.004 C 
ATOM      4  H   LIG d   1      10.438   2.816  -4.164  0.00  0.00     0.036 H 
ATOM      5  C   LIG d   1       9.872   4.338  -5.595  0.00  0.00    -0.030 C 
ATOM      6  H   LIG d   1       8.978   4.921  -5.859  0.00  0.00     0.031 H 
ATOM      7  C   LIG d   1      11.060   5.274  -5.338  0.00  0.00    -0.042 C 
ATOM      8  C   LIG d   1      10.636   6.320  -4.305  0.00  0.00    -0.012 C 
ATOM      9  H   LIG d   1      11.522   6.867  -3.948  0.00  0.00     0.035 H 
ATOM     10  H   LIG d   1       9.085   4.015  -2.229  0.00  0.00     0.058 H 
ATOM     11  H   LIG d   1      11.910   4.691  -4.956  0.00  0.00     0.027 H 
ATOM     12  H   LIG d   1      11.346   5.768  -6.278  0.00  0.00     0.027 H 
ENDROOT
BRANCH   8  13
ATOM     13  C   LIG d   1       9.635   7.287  -4.942  0.00  0.00     0.030 C 
ATOM     14  H   LIG d   1       9.667   7.178  -6.036  0.00  0.00     0.036 H 
ATOM     15  H   LIG d   1       8.623   7.058  -4.580  0.00  0.00     0.036 H 
BRANCH  13  16
ATOM     16  C   LIG d   1       9.995   8.701  -4.566  0.00  0.00     0.214 C 
ATOM     17  O   LIG d   1      11.089   8.948  -4.106  0.00  0.00    -0.276 OA
ATOM     18  N   LIG d   1       9.100   9.693  -4.743  0.00  0.00    -0.310 N 
ATOM     19  H   LIG d   1       8.107   9.471  -5.162  0.00  0.00     0.149 HD
BRANCH  18  20
ATOM     20  C   LIG d   1       9.449  11.069  -4.379  0.00  0.00     0.052 C 
ATOM     21  H   LIG d   1      10.494  11.102  -4.036  0.00  0.00     0.051 H 
ATOM     22  H   LIG d   1       9.331  11.722  -5.257  0.00  0.00     0.051 H 
BRANCH  20  23
ATOM     23  C   LIG d   1       8.527  11.550  -3.258  0.00  0.00    -0.016 C 
ATOM     24  H   LIG d   1       8.180  12.569  -3.480  0.00  0.00     0.083 H 
ATOM     25  H   LIG d   1       7.661  10.875  -3.180  0.00  0.00     0.083 H 
BRANCH  23  26
ATOM     26  N   LIG d   1       9.263  11.551  -1.986  0.00  0.00     0.240 N 
ATOM     27  C   LIG d   1       9.129  10.257  -1.298  0.00  0.00    -0.008 C 
ATOM     28  C   LIG d   1       9.860  10.322   0.045  0.00  0.00     0.088 C 
ATOM     29  H   LIG d   1       8.064  10.041  -1.130  0.00  0.00     0.084 H 
ATOM     30  H   LIG d   1       9.570   9.464  -1.920  0.00  0.00     0.084 H 
ATOM     31  O   LIG d   1      11.227  10.677  -0.177  0.00  0.00    -0.369 OA
ATOM     32  H   LIG d   1       9.811   9.340   0.539  0.00  0.00     0.061 H 
ATOM     33  H   LIG d   1       9.384  11.078   0.687  0.00  0.00     0.061 H 
ATOM     34  C   LIG d   1      11.394  11.931  -0.844  0.00  0.00     0.088 C 
ATOM     35  C   LIG d   1      10.679  11.883  -2.197  0.00  0.00    -0.008 C 
ATOM     36  H   LIG d   1      12.466  12.125  -1.001  0.00  0.00     0.061 H 
ATOM     37  H   LIG d   1      10.963  12.736  -0.230  0.00  0.00     0.061 H 
ATOM     38  H   LIG d   1      11.146  11.116  -2.833  0.00  0.00     0.084 H 
ATOM     39  H   LIG d   1      10.756  12.864  -2.689  0.00  0.00     0.084 H 
ATOM     40  H   LIG d   1       8.822  12.326  -1.344  0.00  0.00     0.204 HD
ENDBRANCH  23  26
ENDBRANCH  20  23
ENDBRANCH  18  20
ENDBRANCH  13  16
ENDBRANCH   8  13
BRANCH   1  41
ATOM     41  C   LIG d   1       9.870   6.442  -1.847  0.00  0.00    -0.043 C 
ATOM     42  H   LIG d   1       9.102   7.219  -1.973  0.00  0.00     0.027 H 
ATOM     43  H   LIG d   1      10.834   6.915  -1.611  0.00  0.00     0.027 H 
ATOM     44  H   LIG d   1       9.580   5.770  -1.026  0.00  0.00     0.027 H 
ENDBRANCH   1  41
BRANCH   5  45
ATOM     45  C   LIG d   1      10.204   3.392  -6.750  0.00  0.00    -0.043 C 
ATOM     46  H   LIG d   1       9.795   2.393  -6.536  0.00  0.00     0.030 H 
BRANCH  45  47
ATOM     47  C   LIG d   1       9.587   3.929  -8.043  0.00  0.00    -0.062 C 
ATOM     48  H   LIG d   1       8.887   3.186  -8.452  0.00  0.00     0.023 H 
ATOM     49  H   LIG d   1      10.384   4.126  -8.775  0.00  0.00     0.023 H 
ATOM     50  H   LIG d   1       9.046   4.864  -7.830  0.00  0.00     0.023 H 
ENDBRANCH  45  47
BRANCH  45  51
ATOM     51  C   LIG d   1      11.722   3.296  -6.911  0.00  0.00    -0.062 C 
ATOM     52  H   LIG d   1      11.981   2.342  -7.393  0.00  0.00     0.023 H 
ATOM     53  H   LIG d   1      12.200   3.349  -5.922  0.00  0.00     0.023 H 
ATOM     54  H   LIG d   1      12.078   4.129  -7.536  0.00  0.00     0.023 H 
ENDBRANCH  45  51
ENDBRANCH   5  45
BRANCH   3  55
ATOM     55  C   LIG d   1       8.286   2.777  -4.462  0.00  0.00     0.020 C 
ATOM     56  H   LIG d   1       7.485   3.359  -3.979  0.00  0.00     0.047 H 
ATOM     57  H   LIG d   1       8.049   2.643  -5.527  0.00  0.00     0.047 H 
BRANCH  55  58
ATOM     58  N   LIG d   1       8.395   1.466  -3.816  0.00  0.00    -0.299 N 
ATOM     59  C   LIG d   1       7.502   0.499  -4.102  0.00  0.00     0.304 C 
ATOM     60  O   LIG d   1       6.606   0.712  -4.896  0.00  0.00    -0.253 OA
ATOM     61  N   LIG d   1       7.603  -0.707  -3.508  0.00  0.00    -0.270 N 
ATOM     62  H   LIG d   1       8.361  -0.875  -2.730  0.00  0.00     0.156 HD
ATOM     63  H   LIG d   1       9.205   1.273  -3.098  0.00  0.00     0.150 HD
BRANCH  61  64
ATOM     64  C   LIG d   1       6.741  -1.747  -3.883  0.00  0.00     0.035 A 
ATOM     65  C   LIG d   1       7.157  -2.697  -4.806  0.00  0.00    -0.037 A 
ATOM     66  C   LIG d   1       6.308  -3.723  -5.171  0.00  0.00    -0.018 A 
ATOM     67  H   LIG d   1       8.146  -2.635  -5.235  0.00  0.00     0.064 H 
ATOM     68  C   LIG d   1       5.035  -3.799  -4.624  0.00  0.00     0.120 A 
ATOM     69  H   LIG d   1       6.633  -4.464  -5.885  0.00  0.00     0.066 H 
ATOM     70  C   LIG d   1       4.618  -2.850  -3.701  0.00  0.00    -0.018 A 
ATOM     71  C   LIG d   1       5.469  -1.826  -3.332  0.00  0.00    -0.037 A 
ATOM     72  H   LIG d   1       3.629  -2.912  -3.272  0.00  0.00     0.066 H 
ATOM     73  H   LIG d   1       5.144  -1.087  -2.615  0.00  0.00     0.064 H 
BRANCH  68  74
ATOM     74  O   LIG d   1       4.198  -4.807  -4.987  0.00  0.00    -0.495 OA
BRANCH  74  75
ATOM     75  C   LIG d   1       4.161  -5.152  -6.372  0.00  0.00     0.079 C 
ATOM     76  H   LIG d   1       5.181  -5.364  -6.725  0.00  0.00     0.066 H 
ATOM     77  H   LIG d   1       3.740  -4.315  -6.948  0.00  0.00     0.066 H 
ATOM     78  H   LIG d   1       3.532  -6.044  -6.511  0.00  0.00     0.066 H 
ENDBRANCH  74  75
ENDBRANCH  68  74
ENDBRANCH  61  64
ENDBRANCH  55  58
ENDBRANCH   3  55
TORSDOF 14
ENDMDL
MODEL 3
REMARK VINA RESULT:      -6.4      5.858     12.730
REMARK  14 active torsions:
REMARK  status: ('A' for Active; 'I' for Inactive)
REMARK    1  A    between atoms: C_1  and  C_2 
REMARK    2  A    between atoms: C_4  and  C_26 
REMARK    3  A    between atoms: C_6  and  C_23 
REMARK    4  A    between atoms: C_9  and  C_11 
REMARK    5  A    between atoms: C_11  and  C_12 
REMARK       I    between atoms: C_12  and  N_14 
REMARK    6  A    between atoms: N_14  and  C_15 
REMARK    7  A    between atoms: C_15  and  C_16 
REMARK    8  A    between atoms: C_16  and  N_17 
REMARK    9  A    between atoms: C_23  and  C_24 
REMARK   10  A    between atoms: C_23  and  C_25 
REMARK   11  A    between atoms: C_26  and  N_27 
REMARK       I    between atoms: N_27  and  C_28 
REMARK       I    between atoms: C_28  and  N_30 
REMARK   12  A    between atoms: N_30  and  C_31 
REMARK   13  A    between atoms: C_34  and  O_37 
REMARK   14  A    between atoms: O_37  and  C_38 
ROOT
ATOM      1  C   LIG d   1       4.107  -4.272 -10.103  0.00  0.00    -0.073 C 
ATOM      2  C   LIG d   1       3.224  -3.844 -10.947  0.00  0.00    -0.080 C 
ATOM      3  C   LIG d   1       2.568  -2.497 -10.865  0.00  0.00    -0.004 C 
ATOM      4  H   LIG d   1       3.043  -1.842 -11.611  0.00  0.00     0.036 H 
ATOM      5  C   LIG d   1       2.754  -1.903  -9.467  0.00  0.00    -0.030 C 
ATOM      6  H   LIG d   1       2.137  -2.451  -8.740  0.00  0.00     0.031 H 
ATOM      7  C   LIG d   1       4.237  -2.007  -9.091  0.00  0.00    -0.042 C 
ATOM      8  C   LIG d   1       4.591  -3.486  -8.920  0.00  0.00    -0.012 C 
ATOM      9  H   LIG d   1       5.683  -3.600  -8.860  0.00  0.00     0.035 H 
ATOM     10  H   LIG d   1       2.912  -4.481 -11.787  0.00  0.00     0.058 H 
ATOM     11  H   LIG d   1       4.850  -1.563  -9.888  0.00  0.00     0.027 H 
ATOM     12  H   LIG d   1       4.414  -1.467  -8.148  0.00  0.00     0.027 H 
ENDROOT
BRANCH   8  13
ATOM     13  C   LIG d   1       3.929  -4.023  -7.649  0.00  0.00     0.030 C 
ATOM     14  H   LIG d   1       2.922  -3.591  -7.550  0.00  0.00     0.036 H 
ATOM     15  H   LIG d   1       3.854  -5.118  -7.709  0.00  0.00     0.036 H 
BRANCH  13  16
ATOM     16  C   LIG d   1       4.760  -3.641  -6.451  0.00  0.00     0.214 C 
ATOM     17  O   LIG d   1       5.969  -3.707  -6.505  0.00  0.00    -0.276 OA
ATOM     18  N   LIG d   1       4.158  -3.226  -5.319  0.00  0.00    -0.310 N 
ATOM     19  H   LIG d   1       3.060  -3.165  -5.269  0.00  0.00     0.149 HD
BRANCH  18  20
ATOM     20  C   LIG d   1       4.965  -2.854  -4.154  0.00  0.00     0.052 C 
ATOM     21  H   LIG d   1       5.538  -3.728  -3.811  0.00  0.00     0.051 H 
ATOM     22  H   LIG d   1       5.660  -2.047  -4.431  0.00  0.00     0.051 H 
BRANCH  20  23
ATOM     23  C   LIG d   1       4.047  -2.373  -3.030  0.00  0.00    -0.016 C 
ATOM     24  H   LIG d   1       3.001  -2.417  -3.365  0.00  0.00     0.083 H 
ATOM     25  H   LIG d   1       4.177  -3.018  -2.148  0.00  0.00     0.083 H 
BRANCH  23  26
ATOM     26  N   LIG d   1       4.388  -0.988  -2.677  0.00  0.00     0.240 N 
ATOM     27  C   LIG d   1       5.540  -0.514  -3.458  0.00  0.00    -0.008 C 
ATOM     28  C   LIG d   1       5.897   0.909  -3.019  0.00  0.00     0.088 C 
ATOM     29  H   LIG d   1       6.398  -1.179  -3.285  0.00  0.00     0.084 H 
ATOM     30  H   LIG d   1       5.285  -0.516  -4.528  0.00  0.00     0.084 H 
ATOM     31  O   LIG d   1       4.753   1.753  -3.176  0.00  0.00    -0.369 OA
ATOM     32  H   LIG d   1       6.723   1.290  -3.638  0.00  0.00     0.061 H 
ATOM     33  H   LIG d   1       6.205   0.902  -1.963  0.00  0.00     0.061 H 
ATOM     34  C   LIG d   1       3.613   1.321  -2.429  0.00  0.00     0.088 C 
ATOM     35  C   LIG d   1       3.233  -0.098  -2.863  0.00  0.00    -0.008 C 
ATOM     36  H   LIG d   1       2.769   2.001  -2.618  0.00  0.00     0.061 H 
ATOM     37  H   LIG d   1       3.852   1.324  -1.356  0.00  0.00     0.061 H 
ATOM     38  H   LIG d   1       2.939  -0.092  -3.923  0.00  0.00     0.084 H 
ATOM     39  H   LIG d   1       2.391  -0.456  -2.251  0.00  0.00     0.084 H 
ATOM     40  H   LIG d   1       4.665  -0.970  -1.614  0.00  0.00     0.204 HD
ENDBRANCH  23  26
ENDBRANCH  20  23
ENDBRANCH  18  20
ENDBRANCH  13  16
ENDBRANCH   8  13
BRANCH   1  41
ATOM     41  C   LIG d   1       4.685  -5.647 -10.321  0.00  0.00    -0.043 C 
ATOM     42  H   LIG d   1       3.931  -6.406 -10.067  0.00  0.00     0.027 H 
ATOM     43  H   LIG d   1       5.569  -5.779  -9.680  0.00  0.00     0.027 H 
ATOM     44  H   LIG d   1       4.977  -5.760 -11.375  0.00  0.00     0.027 H 
ENDBRANCH   1  41
BRANCH   5  45
ATOM     45  C   LIG d   1       2.326  -0.435  -9.471  0.00  0.00    -0.043 C 
ATOM     46  H   LIG d   1       1.261  -0.364  -9.742  0.00  0.00     0.030 H 
BRANCH  45  47
ATOM     47  C   LIG d   1       2.539   0.163  -8.079  0.00  0.00    -0.062 C 
ATOM     48  H   LIG d   1       3.209  -0.489  -7.499  0.00  0.00     0.023 H 
ATOM     49  H   LIG d   1       1.571   0.247  -7.564  0.00  0.00     0.023 H 
ATOM     50  H   LIG d   1       2.992   1.162  -8.175  0.00  0.00     0.023 H 
ENDBRANCH  45  47
BRANCH  45  51
ATOM     51  C   LIG d   1       3.163   0.338 -10.492  0.00  0.00    -0.062 C 
ATOM     52  H   LIG d   1       3.087   1.416 -10.288  0.00  0.00     0.023 H 
ATOM     53  H   LIG d   1       2.792   0.129 -11.506  0.00  0.00     0.023 H 
ATOM     54  H   LIG d   1       4.216   0.026 -10.414  0.00  0.00     0.023 H 
ENDBRANCH  45  51
ENDBRANCH   5  45
BRANCH   3  55
ATOM     55  C   LIG d   1       1.074  -2.642 -11.160  0.00  0.00     0.020 C 
ATOM     56  H   LIG d   1       0.590  -1.656 -11.092  0.00  0.00     0.047 H 
ATOM     57  H   LIG d   1       0.937  -3.048 -12.173  0.00  0.00     0.047 H 
BRANCH  55  58
ATOM     58  N   LIG d   1       0.468  -3.552 -10.183  0.00  0.00    -0.299 N 
ATOM     59  C   LIG d   1      -0.410  -4.489 -10.589  0.00  0.00     0.304 C 
ATOM     60  O   LIG d   1      -0.701  -4.581 -11.767  0.00  0.00    -0.253 OA
ATOM     61  N   LIG d   1      -0.966  -5.325  -9.691  0.00  0.00    -0.270 N 
ATOM     62  H   LIG d   1      -0.768  -5.190  -8.618  0.00  0.00     0.156 HD
ATOM     63  H   LIG d   1       0.732  -3.469  -9.119  0.00  0.00     0.150 HD
BRANCH  61  64
ATOM     64  C   LIG d   1      -1.798  -6.367 -10.124  0.00  0.00     0.035 A 
ATOM     65  C   LIG d   1      -1.251  -7.596 -10.469  0.00  0.00    -0.037 A 
ATOM     66  C   LIG d   1      -2.072  -8.623 -10.892  0.00  0.00    -0.018 A 
ATOM     67  H   LIG d   1      -0.184  -7.750 -10.401  0.00  0.00     0.064 H 
ATOM     68  C   LIG d   1      -3.441  -8.423 -10.983  0.00  0.00     0.120 A 
ATOM     69  H   LIG d   1      -1.647  -9.580 -11.155  0.00  0.00     0.066 H 
ATOM     70  C   LIG d   1      -3.989  -7.195 -10.640  0.00  0.00    -0.018 A 
ATOM     71  C   LIG d   1      -3.169  -6.170 -10.211  0.00  0.00    -0.037 A 
ATOM     72  H   LIG d   1      -5.056  -7.042 -10.707  0.00  0.00     0.066 H 
ATOM     73  H   LIG d   1      -3.595  -5.214  -9.945  0.00  0.00     0.064 H 
BRANCH  68  74
ATOM     74  O   LIG d   1      -4.248  -9.433 -11.404  0.00  0.00    -0.495 OA
BRANCH  74  75
ATOM     75  C   LIG d   1      -4.167 -10.669 -10.691  0.00  0.00     0.079 C 
ATOM     76  H   LIG d   1      -3.363 -11.286 -11.118  0.00  0.00     0.066 H 
ATOM     77  H   LIG d   1      -5.124 -11.204 -10.775  0.00  0.00     0.066 H 
ATOM     78  H   LIG d   1      -3.952 -10.468  -9.631  0.00  0.00     0.066 H 
ENDBRANCH  74  75
ENDBRANCH  68  74
ENDBRANCH  61  64
ENDBRANCH  55  58
ENDBRANCH   3  55
TORSDOF 14
ENDMDL
MODEL 4
REMARK VINA RESULT:      -6.4      5.431     12.354
REMARK  14 active torsions:
REMARK  status: ('A' for Active; 'I' for Inactive)
REMARK    1  A    between atoms: C_1  and  C_2 
REMARK    2  A    between atoms: C_4  and  C_26 
REMARK    3  A    between atoms: C_6  and  C_23 
REMARK    4  A    between atoms: C_9  and  C_11 
REMARK    5  A    between atoms: C_11  and  C_12 
REMARK       I    between atoms: C_12  and  N_14 
REMARK    6  A    between atoms: N_14  and  C_15 
REMARK    7  A    between atoms: C_15  and  C_16 
REMARK    8  A    between atoms: C_16  and  N_17 
REMARK    9  A    between atoms: C_23  and  C_24 
REMARK   10  A    between atoms: C_23  and  C_25 
REMARK   11  A    between atoms: C_26  and  N_27 
REMARK       I    between atoms: N_27  and  C_28 
REMARK       I    between atoms: C_28  and  N_30 
REMARK   12  A    between atoms: N_30  and  C_31 
REMARK   13  A    between atoms: C_34  and  O_37 
REMARK   14  A    between atoms: O_37  and  C_38 
ROOT
ATOM      1  C   LIG d   1       3.058   0.548  -8.463  0.00  0.00    -0.073 C 
ATOM      2  C   LIG d   1       2.276  -0.244  -9.124  0.00  0.00    -0.080 C 
ATOM      3  C   LIG d   1       2.388  -1.740  -9.110  0.00  0.00    -0.004 C 
ATOM      4  H   LIG d   1       1.601  -2.133  -8.450  0.00  0.00     0.036 H 
ATOM      5  C   LIG d   1       3.760  -2.161  -8.581  0.00  0.00    -0.030 C 
ATOM      6  H   LIG d   1       4.539  -1.927  -9.322  0.00  0.00     0.031 H 
ATOM      7  C   LIG d   1       4.028  -1.406  -7.273  0.00  0.00    -0.042 C 
ATOM      8  C   LIG d   1       4.191   0.080  -7.598  0.00  0.00    -0.012 C 
ATOM      9  H   LIG d   1       4.172   0.666  -6.666  0.00  0.00     0.035 H 
ATOM     10  H   LIG d   1       1.469   0.173  -9.745  0.00  0.00     0.058 H 
ATOM     11  H   LIG d   1       3.181  -1.550  -6.586  0.00  0.00     0.027 H 
ATOM     12  H   LIG d   1       4.947  -1.793  -6.808  0.00  0.00     0.027 H 
ENDROOT
BRANCH   8  13
ATOM     13  C   LIG d   1       5.514   0.296  -8.335  0.00  0.00     0.030 C 
ATOM     14  H   LIG d   1       5.610  -0.445  -9.142  0.00  0.00     0.036 H 
ATOM     15  H   LIG d   1       5.535   1.309  -8.763  0.00  0.00     0.036 H 
BRANCH  13  16
ATOM     16  C   LIG d   1       6.660   0.137  -7.368  0.00  0.00     0.214 C 
ATOM     17  O   LIG d   1       7.497  -0.720  -7.555  0.00  0.00    -0.276 OA
ATOM     18  N   LIG d   1       6.754   0.948  -6.296  0.00  0.00    -0.310 N 
ATOM     19  H   LIG d   1       5.995   1.726  -6.125  0.00  0.00     0.149 HD
BRANCH  18  20
ATOM     20  C   LIG d   1       7.868   0.794  -5.357  0.00  0.00     0.052 C 
ATOM     21  H   LIG d   1       8.210  -0.252  -5.363  0.00  0.00     0.051 H 
ATOM     22  H   LIG d   1       8.697   1.452  -5.658  0.00  0.00     0.051 H 
BRANCH  20  23
ATOM     23  C   LIG d   1       7.404   1.171  -3.949  0.00  0.00    -0.016 C 
ATOM     24  H   LIG d   1       8.194   0.925  -3.224  0.00  0.00     0.083 H 
ATOM     25  H   LIG d   1       7.193   2.250  -3.909  0.00  0.00     0.083 H 
BRANCH  23  26
ATOM     26  N   LIG d   1       6.186   0.420  -3.617  0.00  0.00     0.240 N 
ATOM     27  C   LIG d   1       6.512  -0.939  -3.159  0.00  0.00    -0.008 C 
ATOM     28  C   LIG d   1       5.214  -1.702  -2.881  0.00  0.00     0.088 C 
ATOM     29  H   LIG d   1       7.087  -1.459  -3.937  0.00  0.00     0.084 H 
ATOM     30  H   LIG d   1       7.110  -0.881  -2.237  0.00  0.00     0.084 H 
ATOM     31  O   LIG d   1       4.437  -0.980  -1.922  0.00  0.00    -0.369 OA
ATOM     32  H   LIG d   1       5.452  -2.701  -2.483  0.00  0.00     0.061 H 
ATOM     33  H   LIG d   1       4.641  -1.807  -3.814  0.00  0.00     0.061 H 
ATOM     34  C   LIG d   1       4.101   0.346  -2.337  0.00  0.00     0.088 C 
ATOM     35  C   LIG d   1       5.387   1.132  -2.609  0.00  0.00    -0.008 C 
ATOM     36  H   LIG d   1       3.526   0.846  -1.542  0.00  0.00     0.061 H 
ATOM     37  H   LIG d   1       3.496   0.304  -3.255  0.00  0.00     0.061 H 
ATOM     38  H   LIG d   1       5.967   1.223  -1.678  0.00  0.00     0.084 H 
ATOM     39  H   LIG d   1       5.134   2.135  -2.982  0.00  0.00     0.084 H 
ATOM     40  H   LIG d   1       5.583   0.336  -4.533  0.00  0.00     0.204 HD
ENDBRANCH  23  26
ENDBRANCH  20  23
ENDBRANCH  18  20
ENDBRANCH  13  16
ENDBRANCH   8  13
BRANCH   1  41
ATOM     41  C   LIG d   1       2.816   2.032  -8.568  0.00  0.00    -0.043 C 
ATOM     42  H   LIG d   1       2.986   2.357  -9.605  0.00  0.00     0.027 H 
ATOM     43  H   LIG d   1       3.506   2.565  -7.899  0.00  0.00     0.027 H 
ATOM     44  H   LIG d   1       1.779   2.256  -8.280  0.00  0.00     0.027 H 
ENDBRANCH   1  41
BRANCH   5  45
ATOM     45  C   LIG d   1       3.769  -3.668  -8.316  0.00  0.00    -0.043 C 
ATOM     46  H   LIG d   1       2.762  -4.077  -8.491  0.00  0.00     0.030 H 
BRANCH  45  47
ATOM     47  C   LIG d   1       4.766  -4.346  -9.257  0.00  0.00    -0.062 C 
ATOM     48  H   LIG d   1       5.084  -3.633 -10.031  0.00  0.00     0.023 H 
ATOM     49  H   LIG d   1       4.289  -5.215  -9.732  0.00  0.00     0.023 H 
ATOM     50  H   LIG d   1       5.644  -4.679  -8.682  0.00  0.00     0.023 H 
ENDBRANCH  45  47
BRANCH  45  51
ATOM     51  C   LIG d   1       4.179  -3.929  -6.865  0.00  0.00    -0.062 C 
ATOM     52  H   LIG d   1       4.029  -4.991  -6.627  0.00  0.00     0.023 H 
ATOM     53  H   LIG d   1       3.564  -3.311  -6.193  0.00  0.00     0.023 H 
ATOM     54  H   LIG d   1       5.240  -3.670  -6.732  0.00  0.00     0.023 H 
ENDBRANCH  45  51
ENDBRANCH   5  45
BRANCH   3  55
ATOM     55  C   LIG d   1       2.206  -2.275 -10.532  0.00  0.00     0.020 C 
ATOM     56  H   LIG d   1       2.525  -1.509 -11.255  0.00  0.00     0.047 H 
ATOM     57  H   LIG d   1       2.817  -3.180 -10.664  0.00  0.00     0.047 H 
BRANCH  55  58
ATOM     58  N   LIG d   1       0.795  -2.601 -10.755  0.00  0.00    -0.299 N 
ATOM     59  C   LIG d   1       0.370  -3.873 -10.630  0.00  0.00     0.304 C 
ATOM     60  O   LIG d   1       1.156  -4.751 -10.331  0.00  0.00    -0.253 OA
ATOM     61  N   LIG d   1      -0.928  -4.173 -10.834  0.00  0.00    -0.270 N 
ATOM     62  H   LIG d   1      -1.623  -3.396 -11.184  0.00  0.00     0.156 HD
ATOM     63  H   LIG d   1       0.083  -1.807 -11.024  0.00  0.00     0.150 HD
BRANCH  61  64
ATOM     64  C   LIG d   1      -1.392  -5.475 -10.602  0.00  0.00     0.035 A 
ATOM     65  C   LIG d   1      -1.471  -6.382 -11.650  0.00  0.00    -0.037 A 
ATOM     66  C   LIG d   1      -1.925  -7.666 -11.419  0.00  0.00    -0.018 A 
ATOM     67  H   LIG d   1      -1.174  -6.084 -12.644  0.00  0.00     0.064 H 
ATOM     68  C   LIG d   1      -2.311  -8.046 -10.143  0.00  0.00     0.120 A 
ATOM     69  H   LIG d   1      -1.981  -8.372 -12.234  0.00  0.00     0.066 H 
ATOM     70  C   LIG d   1      -2.233  -7.140  -9.094  0.00  0.00    -0.018 A 
ATOM     71  C   LIG d   1      -1.775  -5.858  -9.323  0.00  0.00    -0.037 A 
ATOM     72  H   LIG d   1      -2.530  -7.438  -8.100  0.00  0.00     0.066 H 
ATOM     73  H   LIG d   1      -1.715  -5.153  -8.507  0.00  0.00     0.064 H 
BRANCH  68  74
ATOM     74  O   LIG d   1      -2.762  -9.309  -9.917  0.00  0.00    -0.495 OA
BRANCH  74  75
ATOM     75  C   LIG d   1      -3.609  -9.883 -10.913  0.00  0.00     0.079 C 
ATOM     76  H   LIG d   1      -4.620 -10.019 -10.501  0.00  0.00     0.066 H 
ATOM     77  H   LIG d   1      -3.204 -10.858 -11.221  0.00  0.00     0.066 H 
ATOM     78  H   LIG d   1      -3.655  -9.215 -11.786  0.00  0.00     0.066 H 
ENDBRANCH  74  75
ENDBRANCH  68  74
ENDBRANCH  61  64
ENDBRANCH  55  58
ENDBRANCH   3  55
TORSDOF 14
ENDMDL
MODEL 5
REMARK VINA RESULT:      -6.3      3.847     10.732
REMARK  14 active torsions:
REMARK  status: ('A' for Active; 'I' for Inactive)
REMARK    1  A    between atoms: C_1  and  C_2 
REMARK    2  A    between atoms: C_4  and  C_26 
REMARK    3  A    between atoms: C_6  and  C_23 
REMARK    4  A    between atoms: C_9  and  C_11 
REMARK    5  A    between atoms: C_11  and  C_12 
REMARK       I    between atoms: C_12  and  N_14 
REMARK    6  A    between atoms: N_14  and  C_15 
REMARK    7  A    between atoms: C_15  and  C_16 
REMARK    8  A    between atoms: C_16  and  N_17 
REMARK    9  A    between atoms: C_23  and  C_24 
REMARK   10  A    between atoms: C_23  and  C_25 
REMARK   11  A    between atoms: C_26  and  N_27 
REMARK       I    between atoms: N_27  and  C_28 
REMARK       I    between atoms: C_28  and  N_30 
REMARK   12  A    between atoms: N_30  and  C_31 
REMARK   13  A    between atoms: C_34  and  O_37 
REMARK   14  A    between atoms: O_37  and  C_38 
ROOT
ATOM      1  C   LIG d   1       5.384  -0.377  -2.691  0.00  0.00    -0.073 C 
ATOM      2  C   LIG d   1       4.855  -1.507  -3.038  0.00  0.00    -0.080 C 
ATOM      3  C   LIG d   1       5.569  -2.559  -3.835  0.00  0.00    -0.004 C 
ATOM      4  H   LIG d   1       5.885  -3.353  -3.142  0.00  0.00     0.036 H 
ATOM      5  C   LIG d   1       6.797  -1.958  -4.522  0.00  0.00    -0.030 C 
ATOM      6  H   LIG d   1       6.485  -1.292  -5.339  0.00  0.00     0.031 H 
ATOM      7  C   LIG d   1       7.602  -1.175  -3.476  0.00  0.00    -0.042 C 
ATOM      8  C   LIG d   1       6.780   0.042  -3.046  0.00  0.00    -0.012 C 
ATOM      9  H   LIG d   1       7.236   0.498  -2.154  0.00  0.00     0.035 H 
ATOM     10  H   LIG d   1       3.821  -1.742  -2.748  0.00  0.00     0.058 H 
ATOM     11  H   LIG d   1       7.802  -1.820  -2.609  0.00  0.00     0.027 H 
ATOM     12  H   LIG d   1       8.555  -0.848  -3.918  0.00  0.00     0.027 H 
ENDROOT
BRANCH   8  13
ATOM     13  C   LIG d   1       6.731   1.053  -4.193  0.00  0.00     0.030 C 
ATOM     14  H   LIG d   1       6.344   0.561  -5.098  0.00  0.00     0.036 H 
ATOM     15  H   LIG d   1       6.070   1.888  -3.919  0.00  0.00     0.036 H 
BRANCH  13  16
ATOM     16  C   LIG d   1       8.119   1.578  -4.460  0.00  0.00     0.214 C 
ATOM     17  O   LIG d   1       8.464   1.828  -5.595  0.00  0.00    -0.276 OA
ATOM     18  N   LIG d   1       8.975   1.770  -3.438  0.00  0.00    -0.310 N 
ATOM     19  H   LIG d   1       8.661   1.544  -2.407  0.00  0.00     0.149 HD
BRANCH  18  20
ATOM     20  C   LIG d   1      10.323   2.281  -3.697  0.00  0.00     0.052 C 
ATOM     21  H   LIG d   1      11.038   1.445  -3.696  0.00  0.00     0.051 H 
ATOM     22  H   LIG d   1      10.345   2.780  -4.677  0.00  0.00     0.051 H 
BRANCH  20  23
ATOM     23  C   LIG d   1      10.707   3.282  -2.606  0.00  0.00    -0.016 C 
ATOM     24  H   LIG d   1      10.465   2.861  -1.620  0.00  0.00     0.083 H 
ATOM     25  H   LIG d   1      11.787   3.489  -2.662  0.00  0.00     0.083 H 
BRANCH  23  26
ATOM     26  N   LIG d   1       9.958   4.531  -2.802  0.00  0.00     0.240 N 
ATOM     27  C   LIG d   1      10.370   5.551  -1.825  0.00  0.00    -0.008 C 
ATOM     28  C   LIG d   1       9.526   6.812  -2.027  0.00  0.00     0.088 C 
ATOM     29  H   LIG d   1      10.220   5.165  -0.807  0.00  0.00     0.084 H 
ATOM     30  H   LIG d   1      11.433   5.792  -1.973  0.00  0.00     0.084 H 
ATOM     31  O   LIG d   1       9.669   7.266  -3.376  0.00  0.00    -0.369 OA
ATOM     32  H   LIG d   1       9.868   7.599  -1.337  0.00  0.00     0.061 H 
ATOM     33  H   LIG d   1       8.469   6.584  -1.826  0.00  0.00     0.061 H 
ATOM     34  C   LIG d   1       9.276   6.298  -4.352  0.00  0.00     0.088 C 
ATOM     35  C   LIG d   1      10.118   5.031  -4.175  0.00  0.00    -0.008 C 
ATOM     36  H   LIG d   1       9.436   6.707  -5.361  0.00  0.00     0.061 H 
ATOM     37  H   LIG d   1       8.212   6.052  -4.221  0.00  0.00     0.061 H 
ATOM     38  H   LIG d   1      11.177   5.263  -4.361  0.00  0.00     0.084 H 
ATOM     39  H   LIG d   1       9.781   4.263  -4.887  0.00  0.00     0.084 H 
ATOM     40  H   LIG d   1       8.893   4.313  -2.639  0.00  0.00     0.204 HD
ENDBRANCH  23  26
ENDBRANCH  20  23
ENDBRANCH  18  20
ENDBRANCH  13  16
ENDBRANCH   8  13
BRANCH   1  41
ATOM     41  C   LIG d   1       4.544   0.578  -1.882  0.00  0.00    -0.043 C 
ATOM     42  H   LIG d   1       5.039   0.775  -0.920  0.00  0.00     0.027 H 
ATOM     43  H   LIG d   1       3.555   0.134  -1.701  0.00  0.00     0.027 H 
ATOM     44  H   LIG d   1       4.428   1.522  -2.434  0.00  0.00     0.027 H 
ENDBRANCH   1  41
BRANCH   5  45
ATOM     45  C   LIG d   1       7.662  -3.079  -5.102  0.00  0.00    -0.043 C 
ATOM     46  H   LIG d   1       7.013  -3.868  -5.511  0.00  0.00     0.030 H 
BRANCH  45  47
ATOM     47  C   LIG d   1       8.546  -2.517  -6.216  0.00  0.00    -0.062 C 
ATOM     48  H   LIG d   1       8.150  -2.831  -7.193  0.00  0.00     0.023 H 
ATOM     49  H   LIG d   1       9.572  -2.895  -6.097  0.00  0.00     0.023 H 
ATOM     50  H   LIG d   1       8.551  -1.417  -6.160  0.00  0.00     0.023 H 
ENDBRANCH  45  47
BRANCH  45  51
ATOM     51  C   LIG d   1       8.544  -3.666  -3.999  0.00  0.00    -0.062 C 
ATOM     52  H   LIG d   1       9.563  -3.265  -4.091  0.00  0.00     0.023 H 
ATOM     53  H   LIG d   1       8.571  -4.762  -4.095  0.00  0.00     0.023 H 
ATOM     54  H   LIG d   1       8.132  -3.394  -3.015  0.00  0.00     0.023 H 
ENDBRANCH  45  51
ENDBRANCH   5  45
BRANCH   3  55
ATOM     55  C   LIG d   1       4.621  -3.123  -4.894  0.00  0.00     0.020 C 
ATOM     56  H   LIG d   1       5.197  -3.708  -5.627  0.00  0.00     0.047 H 
ATOM     57  H   LIG d   1       3.876  -3.773  -4.412  0.00  0.00     0.047 H 
BRANCH  55  58
ATOM     58  N   LIG d   1       3.938  -2.021  -5.577  0.00  0.00    -0.299 N 
ATOM     59  C   LIG d   1       4.161  -1.800  -6.887  0.00  0.00     0.304 C 
ATOM     60  O   LIG d   1       4.927  -2.515  -7.504  0.00  0.00    -0.253 OA
ATOM     61  N   LIG d   1       3.533  -0.787  -7.516  0.00  0.00    -0.270 N 
ATOM     62  H   LIG d   1       2.904  -0.089  -6.943  0.00  0.00     0.156 HD
ATOM     63  H   LIG d   1       3.245  -1.374  -5.020  0.00  0.00     0.150 HD
BRANCH  61  64
ATOM     64  C   LIG d   1       3.681  -0.620  -8.899  0.00  0.00     0.035 A 
ATOM     65  C   LIG d   1       4.637   0.257  -9.396  0.00  0.00    -0.037 A 
ATOM     66  C   LIG d   1       4.785   0.417 -10.759  0.00  0.00    -0.018 A 
ATOM     67  H   LIG d   1       5.266   0.810  -8.715  0.00  0.00     0.064 H 
ATOM     68  C   LIG d   1       3.973  -0.290 -11.633  0.00  0.00     0.120 A 
ATOM     69  H   LIG d   1       5.531   1.096 -11.145  0.00  0.00     0.066 H 
ATOM     70  C   LIG d   1       3.018  -1.167 -11.139  0.00  0.00    -0.018 A 
ATOM     71  C   LIG d   1       2.872  -1.331  -9.776  0.00  0.00    -0.037 A 
ATOM     72  H   LIG d   1       2.388  -1.720 -11.820  0.00  0.00     0.066 H 
ATOM     73  H   LIG d   1       2.128  -2.013  -9.391  0.00  0.00     0.064 H 
BRANCH  68  74
ATOM     74  O   LIG d   1       4.116  -0.129 -12.976  0.00  0.00    -0.495 OA
BRANCH  74  75
ATOM     75  C   LIG d   1       3.643  -1.186 -13.811  0.00  0.00     0.079 C 
ATOM     76  H   LIG d   1       2.864  -0.801 -14.485  0.00  0.00     0.066 H 
ATOM     77  H   LIG d   1       3.223  -1.988 -13.185  0.00  0.00     0.066 H 
ATOM     78  H   LIG d   1       4.478  -1.586 -14.406  0.00  0.00     0.066 H 
ENDBRANCH  74  75
ENDBRANCH  68  74
ENDBRANCH  61  64
ENDBRANCH  55  58
ENDBRANCH   3  55
TORSDOF 14
ENDMDL
MODEL 6
REMARK VINA RESULT:      -6.2      3.738     10.857
REMARK  14 active torsions:
REMARK  status: ('A' for Active; 'I' for Inactive)
REMARK    1  A    between atoms: C_1  and  C_2 
REMARK    2  A    between atoms: C_4  and  C_26 
REMARK    3  A    between atoms: C_6  and  C_23 
REMARK    4  A    between atoms: C_9  and  C_11 
REMARK    5  A    between atoms: C_11  and  C_12 
REMARK       I    between atoms: C_12  and  N_14 
REMARK    6  A    between atoms: N_14  and  C_15 
REMARK    7  A    between atoms: C_15  and  C_16 
REMARK    8  A    between atoms: C_16  and  N_17 
REMARK    9  A    between atoms: C_23  and  C_24 
REMARK   10  A    between atoms: C_23  and  C_25 
REMARK   11  A    between atoms: C_26  and  N_27 
REMARK       I    between atoms: N_27  and  C_28 
REMARK       I    between atoms: C_28  and  N_30 
REMARK   12  A    between atoms: N_30  and  C_31 
REMARK   13  A    between atoms: C_34  and  O_37 
REMARK   14  A    between atoms: O_37  and  C_38 
ROOT
ATOM      1  C   LIG d   1       5.269  -1.581  -3.327  0.00  0.00    -0.073 C 
ATOM      2  C   LIG d   1       4.756  -2.666  -3.811  0.00  0.00    -0.080 C 
ATOM      3  C   LIG d   1       5.546  -3.724  -4.523  0.00  0.00    -0.004 C 
ATOM      4  H   LIG d   1       5.700  -4.561  -3.824  0.00  0.00     0.036 H 
ATOM      5  C   LIG d   1       6.902  -3.165  -4.961  0.00  0.00    -0.030 C 
ATOM      6  H   LIG d   1       6.766  -2.453  -5.787  0.00  0.00     0.031 H 
ATOM      7  C   LIG d   1       7.550  -2.468  -3.758  0.00  0.00    -0.042 C 
ATOM      8  C   LIG d   1       6.723  -1.226  -3.418  0.00  0.00    -0.012 C 
ATOM      9  H   LIG d   1       7.039  -0.829  -2.441  0.00  0.00     0.035 H 
ATOM     10  H   LIG d   1       3.677  -2.856  -3.713  0.00  0.00     0.058 H 
ATOM     11  H   LIG d   1       7.566  -3.155  -2.900  0.00  0.00     0.027 H 
ATOM     12  H   LIG d   1       8.579  -2.176  -4.015  0.00  0.00     0.027 H 
ENDROOT
BRANCH   8  13
ATOM     13  C   LIG d   1       6.920  -0.170  -4.508  0.00  0.00     0.030 C 
ATOM     14  H   LIG d   1       7.616  -0.554  -5.268  0.00  0.00     0.036 H 
ATOM     15  H   LIG d   1       5.953   0.057  -4.978  0.00  0.00     0.036 H 
BRANCH  13  16
ATOM     16  C   LIG d   1       7.488   1.085  -3.895  0.00  0.00     0.214 C 
ATOM     17  O   LIG d   1       6.755   1.868  -3.329  0.00  0.00    -0.276 OA
ATOM     18  N   LIG d   1       8.809   1.336  -3.976  0.00  0.00    -0.310 N 
ATOM     19  H   LIG d   1       9.474   0.625  -4.489  0.00  0.00     0.149 HD
BRANCH  18  20
ATOM     20  C   LIG d   1       9.361   2.555  -3.380  0.00  0.00     0.052 C 
ATOM     21  H   LIG d   1       9.173   3.408  -4.050  0.00  0.00     0.051 H 
ATOM     22  H   LIG d   1       8.879   2.740  -2.408  0.00  0.00     0.051 H 
BRANCH  20  23
ATOM     23  C   LIG d   1      10.868   2.388  -3.179  0.00  0.00    -0.016 C 
ATOM     24  H   LIG d   1      11.060   1.492  -2.571  0.00  0.00     0.083 H 
ATOM     25  H   LIG d   1      11.359   2.280  -4.158  0.00  0.00     0.083 H 
BRANCH  23  26
ATOM     26  N   LIG d   1      11.404   3.569  -2.489  0.00  0.00     0.240 N 
ATOM     27  C   LIG d   1      12.543   4.137  -3.225  0.00  0.00    -0.008 C 
ATOM     28  C   LIG d   1      13.106   5.327  -2.444  0.00  0.00     0.088 C 
ATOM     29  H   LIG d   1      13.322   3.371  -3.342  0.00  0.00     0.084 H 
ATOM     30  H   LIG d   1      12.208   4.474  -4.218  0.00  0.00     0.084 H 
ATOM     31  O   LIG d   1      12.067   6.287  -2.231  0.00  0.00    -0.369 OA
ATOM     32  H   LIG d   1      13.923   5.792  -3.017  0.00  0.00     0.061 H 
ATOM     33  H   LIG d   1      13.491   4.982  -1.473  0.00  0.00     0.061 H 
ATOM     34  C   LIG d   1      10.943   5.768  -1.517  0.00  0.00     0.088 C 
ATOM     35  C   LIG d   1      10.357   4.582  -2.289  0.00  0.00    -0.008 C 
ATOM     36  H   LIG d   1      10.178   6.552  -1.413  0.00  0.00     0.061 H 
ATOM     37  H   LIG d   1      11.262   5.433  -0.519  0.00  0.00     0.061 H 
ATOM     38  H   LIG d   1       9.986   4.926  -3.266  0.00  0.00     0.084 H 
ATOM     39  H   LIG d   1       9.527   4.143  -1.716  0.00  0.00     0.084 H 
ATOM     40  H   LIG d   1      11.762   3.248  -1.501  0.00  0.00     0.204 HD
ENDBRANCH  23  26
ENDBRANCH  20  23
ENDBRANCH  18  20
ENDBRANCH  13  16
ENDBRANCH   8  13
BRANCH   1  41
ATOM     41  C   LIG d   1       4.348  -0.614  -2.629  0.00  0.00    -0.043 C 
ATOM     42  H   LIG d   1       4.572   0.410  -2.962  0.00  0.00     0.027 H 
ATOM     43  H   LIG d   1       4.495  -0.686  -1.542  0.00  0.00     0.027 H 
ATOM     44  H   LIG d   1       3.304  -0.858  -2.874  0.00  0.00     0.027 H 
ENDBRANCH   1  41
BRANCH   5  45
ATOM     45  C   LIG d   1       7.800  -4.309  -5.437  0.00  0.00    -0.043 C 
ATOM     46  H   LIG d   1       7.183  -5.193  -5.656  0.00  0.00     0.030 H 
BRANCH  45  47
ATOM     47  C   LIG d   1       8.543  -3.880  -6.704  0.00  0.00    -0.062 C 
ATOM     48  H   LIG d   1       8.105  -4.385  -7.576  0.00  0.00     0.023 H 
ATOM     49  H   LIG d   1       9.605  -4.153  -6.616  0.00  0.00     0.023 H 
ATOM     50  H   LIG d   1       8.455  -2.790  -6.829  0.00  0.00     0.023 H 
ENDBRANCH  45  47
BRANCH  45  51
ATOM     51  C   LIG d   1       8.813  -4.652  -4.343  0.00  0.00    -0.062 C 
ATOM     52  H   LIG d   1       8.851  -3.834  -3.609  0.00  0.00     0.023 H 
ATOM     53  H   LIG d   1       9.807  -4.787  -4.793  0.00  0.00     0.023 H 
ATOM     54  H   LIG d   1       8.508  -5.581  -3.839  0.00  0.00     0.023 H 
ENDBRANCH  45  51
ENDBRANCH   5  45
BRANCH   3  55
ATOM     55  C   LIG d   1       4.770  -4.196  -5.754  0.00  0.00     0.020 C 
ATOM     56  H   LIG d   1       5.476  -4.567  -6.512  0.00  0.00     0.047 H 
ATOM     57  H   LIG d   1       4.083  -5.005  -5.467  0.00  0.00     0.047 H 
BRANCH  55  58
ATOM     58  N   LIG d   1       4.003  -3.076  -6.307  0.00  0.00    -0.299 N 
ATOM     59  C   LIG d   1       4.240  -2.654  -7.563  0.00  0.00     0.304 C 
ATOM     60  O   LIG d   1       5.089  -3.201  -8.240  0.00  0.00    -0.253 OA
ATOM     61  N   LIG d   1       3.534  -1.625  -8.072  0.00  0.00    -0.270 N 
ATOM     62  H   LIG d   1       2.824  -1.076  -7.435  0.00  0.00     0.156 HD
ATOM     63  H   LIG d   1       3.234  -2.582  -5.696  0.00  0.00     0.150 HD
BRANCH  61  64
ATOM     64  C   LIG d   1       3.704  -1.252  -9.413  0.00  0.00     0.035 A 
ATOM     65  C   LIG d   1       4.673  -0.318  -9.757  0.00  0.00    -0.037 A 
ATOM     66  C   LIG d   1       4.843   0.045 -11.078  0.00  0.00    -0.018 A 
ATOM     67  H   LIG d   1       5.295   0.121  -8.991  0.00  0.00     0.064 H 
ATOM     68  C   LIG d   1       4.040  -0.515 -12.061  0.00  0.00     0.120 A 
ATOM     69  H   LIG d   1       5.599   0.768 -11.346  0.00  0.00     0.066 H 
ATOM     70  C   LIG d   1       3.071  -1.448 -11.718  0.00  0.00    -0.018 A 
ATOM     71  C   LIG d   1       2.904  -1.816 -10.398  0.00  0.00    -0.037 A 
ATOM     72  H   LIG d   1       2.449  -1.886 -12.484  0.00  0.00     0.066 H 
ATOM     73  H   LIG d   1       2.150  -2.541 -10.131  0.00  0.00     0.064 H 
BRANCH  68  74
ATOM     74  O   LIG d   1       4.205  -0.153 -13.361  0.00  0.00    -0.495 OA
BRANCH  74  75
ATOM     75  C   LIG d   1       3.818  -1.105 -14.353  0.00  0.00     0.079 C 
ATOM     76  H   LIG d   1       4.338  -0.883 -15.297  0.00  0.00     0.066 H 
ATOM     77  H   LIG d   1       2.731  -1.049 -14.511  0.00  0.00     0.066 H 
ATOM     78  H   LIG d   1       4.086  -2.117 -14.015  0.00  0.00     0.066 H 
ENDBRANCH  74  75
ENDBRANCH  68  74
ENDBRANCH  61  64
ENDBRANCH  55  58
ENDBRANCH   3  55
TORSDOF 14
ENDMDL
MODEL 7
REMARK VINA RESULT:      -6.2      2.497      3.979
REMARK  14 active torsions:
REMARK  status: ('A' for Active; 'I' for Inactive)
REMARK    1  A    between atoms: C_1  and  C_2 
REMARK    2  A    between atoms: C_4  and  C_26 
REMARK    3  A    between atoms: C_6  and  C_23 
REMARK    4  A    between atoms: C_9  and  C_11 
REMARK    5  A    between atoms: C_11  and  C_12 
REMARK       I    between atoms: C_12  and  N_14 
REMARK    6  A    between atoms: N_14  and  C_15 
REMARK    7  A    between atoms: C_15  and  C_16 
REMARK    8  A    between atoms: C_16  and  N_17 
REMARK    9  A    between atoms: C_23  and  C_24 
REMARK   10  A    between atoms: C_23  and  C_25 
REMARK   11  A    between atoms: C_26  and  N_27 
REMARK       I    between atoms: N_27  and  C_28 
REMARK       I    between atoms: C_28  and  N_30 
REMARK   12  A    between atoms: N_30  and  C_31 
REMARK   13  A    between atoms: C_34  and  O_37 
REMARK   14  A    between atoms: O_37  and  C_38 
ROOT
ATOM      1  C   LIG d   1       6.679  -3.241  -4.595  0.00  0.00    -0.073 C 
ATOM      2  C   LIG d   1       7.167  -2.115  -4.181  0.00  0.00    -0.080 C 
ATOM      3  C   LIG d   1       6.340  -0.996  -3.621  0.00  0.00    -0.004 C 
ATOM      4  H   LIG d   1       6.446  -1.009  -2.526  0.00  0.00     0.036 H 
ATOM      5  C   LIG d   1       4.869  -1.189  -3.997  0.00  0.00    -0.030 C 
ATOM      6  H   LIG d   1       4.726  -1.001  -5.071  0.00  0.00     0.031 H 
ATOM      7  C   LIG d   1       4.464  -2.627  -3.650  0.00  0.00    -0.042 C 
ATOM      8  C   LIG d   1       5.217  -3.579  -4.582  0.00  0.00    -0.012 C 
ATOM      9  H   LIG d   1       5.110  -4.612  -4.220  0.00  0.00     0.035 H 
ATOM     10  H   LIG d   1       8.251  -1.936  -4.227  0.00  0.00     0.058 H 
ATOM     11  H   LIG d   1       4.727  -2.840  -2.604  0.00  0.00     0.027 H 
ATOM     12  H   LIG d   1       3.379  -2.746  -3.788  0.00  0.00     0.027 H 
ENDROOT
BRANCH   8  13
ATOM     13  C   LIG d   1       4.656  -3.452  -6.000  0.00  0.00     0.030 C 
ATOM     14  H   LIG d   1       3.801  -2.758  -5.994  0.00  0.00     0.036 H 
ATOM     15  H   LIG d   1       5.436  -3.066  -6.671  0.00  0.00     0.036 H 
BRANCH  13  16
ATOM     16  C   LIG d   1       4.202  -4.805  -6.483  0.00  0.00     0.214 C 
ATOM     17  O   LIG d   1       3.477  -5.486  -5.790  0.00  0.00    -0.276 OA
ATOM     18  N   LIG d   1       4.601  -5.259  -7.688  0.00  0.00    -0.310 N 
ATOM     19  H   LIG d   1       5.259  -4.641  -8.319  0.00  0.00     0.149 HD
BRANCH  18  20
ATOM     20  C   LIG d   1       4.160  -6.574  -8.159  0.00  0.00     0.052 C 
ATOM     21  H   LIG d   1       4.958  -7.311  -7.988  0.00  0.00     0.051 H 
ATOM     22  H   LIG d   1       3.257  -6.877  -7.609  0.00  0.00     0.051 H 
BRANCH  20  23
ATOM     23  C   LIG d   1       3.846  -6.501  -9.654  0.00  0.00    -0.016 C 
ATOM     24  H   LIG d   1       4.749  -6.745 -10.232  0.00  0.00     0.083 H 
ATOM     25  H   LIG d   1       3.049  -7.220  -9.897  0.00  0.00     0.083 H 
BRANCH  23  26
ATOM     26  N   LIG d   1       3.400  -5.143  -9.995  0.00  0.00     0.240 N 
ATOM     27  C   LIG d   1       4.081  -4.653 -11.203  0.00  0.00    -0.008 C 
ATOM     28  C   LIG d   1       3.632  -3.217 -11.488  0.00  0.00     0.088 C 
ATOM     29  H   LIG d   1       5.168  -4.675 -11.045  0.00  0.00     0.084 H 
ATOM     30  H   LIG d   1       3.821  -5.296 -12.057  0.00  0.00     0.084 H 
ATOM     31  O   LIG d   1       2.208  -3.184 -11.619  0.00  0.00    -0.369 OA
ATOM     32  H   LIG d   1       4.094  -2.865 -12.423  0.00  0.00     0.061 H 
ATOM     33  H   LIG d   1       3.940  -2.564 -10.659  0.00  0.00     0.061 H 
ATOM     34  C   LIG d   1       1.514  -3.654 -10.461  0.00  0.00     0.088 C 
ATOM     35  C   LIG d   1       1.941  -5.095 -10.165  0.00  0.00    -0.008 C 
ATOM     36  H   LIG d   1       0.429  -3.623 -10.643  0.00  0.00     0.061 H 
ATOM     37  H   LIG d   1       1.759  -3.015  -9.599  0.00  0.00     0.061 H 
ATOM     38  H   LIG d   1       1.646  -5.745 -11.002  0.00  0.00     0.084 H 
ATOM     39  H   LIG d   1       1.452  -5.441  -9.242  0.00  0.00     0.084 H 
ATOM     40  H   LIG d   1       3.669  -4.481  -9.160  0.00  0.00     0.204 HD
ENDBRANCH  23  26
ENDBRANCH  20  23
ENDBRANCH  18  20
ENDBRANCH  13  16
ENDBRANCH   8  13
BRANCH   1  41
ATOM     41  C   LIG d   1       7.639  -4.276  -5.123  0.00  0.00    -0.043 C 
ATOM     42  H   LIG d   1       8.668  -3.987  -4.865  0.00  0.00     0.027 H 
ATOM     43  H   LIG d   1       7.541  -4.343  -6.216  0.00  0.00     0.027 H 
ATOM     44  H   LIG d   1       7.409  -5.253  -4.673  0.00  0.00     0.027 H 
ENDBRANCH   1  41
BRANCH   5  45
ATOM     45  C   LIG d   1       4.003  -0.206  -3.206  0.00  0.00    -0.043 C 
ATOM     46  H   LIG d   1       4.111   0.803  -3.631  0.00  0.00     0.030 H 
BRANCH  45  47
ATOM     47  C   LIG d   1       2.538  -0.639  -3.284  0.00  0.00    -0.062 C 
ATOM     48  H   LIG d   1       1.973  -0.172  -2.464  0.00  0.00     0.023 H 
ATOM     49  H   LIG d   1       2.474  -1.734  -3.198  0.00  0.00     0.023 H 
ATOM     50  H   LIG d   1       2.113  -0.322  -4.249  0.00  0.00     0.023 H 
ENDBRANCH  45  47
BRANCH  45  51
ATOM     51  C   LIG d   1       4.453  -0.193  -1.744  0.00  0.00    -0.062 C 
ATOM     52  H   LIG d   1       3.759  -0.796  -1.141  0.00  0.00     0.023 H 
ATOM     53  H   LIG d   1       4.459   0.842  -1.371  0.00  0.00     0.023 H 
ATOM     54  H   LIG d   1       5.466  -0.616  -1.667  0.00  0.00     0.023 H 
ENDBRANCH  45  51
ENDBRANCH   5  45
BRANCH   3  55
ATOM     55  C   LIG d   1       6.838   0.335  -4.187  0.00  0.00     0.020 C 
ATOM     56  H   LIG d   1       6.942   0.252  -5.280  0.00  0.00     0.047 H 
ATOM     57  H   LIG d   1       6.116   1.129  -3.948  0.00  0.00     0.047 H 
BRANCH  55  58
ATOM     58  N   LIG d   1       8.139   0.661  -3.596  0.00  0.00    -0.299 N 
ATOM     59  C   LIG d   1       8.708   1.857  -3.841  0.00  0.00     0.304 C 
ATOM     60  O   LIG d   1       8.144   2.667  -4.552  0.00  0.00    -0.253 OA
ATOM     61  N   LIG d   1       9.904   2.158  -3.296  0.00  0.00    -0.270 N 
ATOM     62  H   LIG d   1      10.453   1.398  -2.722  0.00  0.00     0.156 HD
ATOM     63  H   LIG d   1       8.649  -0.070  -2.953  0.00  0.00     0.150 HD
BRANCH  61  64
ATOM     64  C   LIG d   1      10.448   3.439  -3.464  0.00  0.00     0.035 A 
ATOM     65  C   LIG d   1      11.345   3.684  -4.495  0.00  0.00    -0.037 A 
ATOM     66  C   LIG d   1      11.878   4.947  -4.661  0.00  0.00    -0.018 A 
ATOM     67  H   LIG d   1      11.623   2.887  -5.169  0.00  0.00     0.064 H 
ATOM     68  C   LIG d   1      11.525   5.968  -3.792  0.00  0.00     0.120 A 
ATOM     69  H   LIG d   1      12.572   5.138  -5.466  0.00  0.00     0.066 H 
ATOM     70  C   LIG d   1      10.629   5.725  -2.761  0.00  0.00    -0.018 A 
ATOM     71  C   LIG d   1      10.092   4.464  -2.597  0.00  0.00    -0.037 A 
ATOM     72  H   LIG d   1      10.351   6.522  -2.087  0.00  0.00     0.066 H 
ATOM     73  H   LIG d   1       9.395   4.274  -1.794  0.00  0.00     0.064 H 
BRANCH  68  74
ATOM     74  O   LIG d   1      12.053   7.211  -3.954  0.00  0.00    -0.495 OA
BRANCH  74  75
ATOM     75  C   LIG d   1      13.270   7.494  -3.261  0.00  0.00     0.079 C 
ATOM     76  H   LIG d   1      14.072   7.681  -3.990  0.00  0.00     0.066 H 
ATOM     77  H   LIG d   1      13.541   6.635  -2.630  0.00  0.00     0.066 H 
ATOM     78  H   LIG d   1      13.134   8.384  -2.628  0.00  0.00     0.066 H 
ENDBRANCH  74  75
ENDBRANCH  68  74
ENDBRANCH  61  64
ENDBRANCH  55  58
ENDBRANCH   3  55
TORSDOF 14
ENDMDL
MODEL 8
REMARK VINA RESULT:      -6.2      4.336      5.466
REMARK  14 active torsions:
REMARK  status: ('A' for Active; 'I' for Inactive)
REMARK    1  A    between atoms: C_1  and  C_2 
REMARK    2  A    between atoms: C_4  and  C_26 
REMARK    3  A    between atoms: C_6  and  C_23 
REMARK    4  A    between atoms: C_9  and  C_11 
REMARK    5  A    between atoms: C_11  and  C_12 
REMARK       I    between atoms: C_12  and  N_14 
REMARK    6  A    between atoms: N_14  and  C_15 
REMARK    7  A    between atoms: C_15  and  C_16 
REMARK    8  A    between atoms: C_16  and  N_17 
REMARK    9  A    between atoms: C_23  and  C_24 
REMARK   10  A    between atoms: C_23  and  C_25 
REMARK   11  A    between atoms: C_26  and  N_27 
REMARK       I    between atoms: N_27  and  C_28 
REMARK       I    between atoms: C_28  and  N_30 
REMARK   12  A    between atoms: N_30  and  C_31 
REMARK   13  A    between atoms: C_34  and  O_37 
REMARK   14  A    between atoms: O_37  and  C_38 
ROOT
ATOM      1  C   LIG d   1       6.629  -3.532  -4.772  0.00  0.00    -0.073 C 
ATOM      2  C   LIG d   1       7.196  -2.542  -4.161  0.00  0.00    -0.080 C 
ATOM      3  C   LIG d   1       6.448  -1.445  -3.463  0.00  0.00    -0.004 C 
ATOM      4  H   LIG d   1       6.487  -1.641  -2.381  0.00  0.00     0.036 H 
ATOM      5  C   LIG d   1       4.990  -1.422  -3.928  0.00  0.00    -0.030 C 
ATOM      6  H   LIG d   1       4.930  -1.055  -4.963  0.00  0.00     0.031 H 
ATOM      7  C   LIG d   1       4.430  -2.848  -3.837  0.00  0.00    -0.042 C 
ATOM      8  C   LIG d   1       5.143  -3.714  -4.877  0.00  0.00    -0.012 C 
ATOM      9  H   LIG d   1       4.916  -4.775  -4.692  0.00  0.00     0.035 H 
ATOM     10  H   LIG d   1       8.293  -2.471  -4.131  0.00  0.00     0.058 H 
ATOM     11  H   LIG d   1       4.609  -3.248  -2.828  0.00  0.00     0.027 H 
ATOM     12  H   LIG d   1       3.349  -2.830  -4.039  0.00  0.00     0.027 H 
ENDROOT
BRANCH   8  13
ATOM     13  C   LIG d   1       4.680  -3.309  -6.278  0.00  0.00     0.030 C 
ATOM     14  H   LIG d   1       3.998  -2.448  -6.204  0.00  0.00     0.036 H 
ATOM     15  H   LIG d   1       5.553  -3.033  -6.888  0.00  0.00     0.036 H 
BRANCH  13  16
ATOM     16  C   LIG d   1       3.962  -4.466  -6.925  0.00  0.00     0.214 C 
ATOM     17  O   LIG d   1       3.469  -5.334  -6.237  0.00  0.00    -0.276 OA
ATOM     18  N   LIG d   1       3.867  -4.534  -8.268  0.00  0.00    -0.310 N 
ATOM     19  H   LIG d   1       4.313  -3.745  -8.892  0.00  0.00     0.149 HD
BRANCH  18  20
ATOM     20  C   LIG d   1       3.168  -5.657  -8.896  0.00  0.00     0.052 C 
ATOM     21  H   LIG d   1       3.905  -6.389  -9.260  0.00  0.00     0.051 H 
ATOM     22  H   LIG d   1       2.508  -6.138  -8.159  0.00  0.00     0.051 H 
BRANCH  20  23
ATOM     23  C   LIG d   1       2.333  -5.146 -10.071  0.00  0.00    -0.016 C 
ATOM     24  H   LIG d   1       2.404  -4.050 -10.122  0.00  0.00     0.083 H 
ATOM     25  H   LIG d   1       2.712  -5.582 -11.008  0.00  0.00     0.083 H 
BRANCH  23  26
ATOM     26  N   LIG d   1       0.930  -5.536  -9.881  0.00  0.00     0.240 N 
ATOM     27  C   LIG d   1       0.026  -4.613 -10.584  0.00  0.00    -0.008 C 
ATOM     28  C   LIG d   1      -1.424  -5.022 -10.312  0.00  0.00     0.088 C 
ATOM     29  H   LIG d   1       0.195  -3.589 -10.222  0.00  0.00     0.084 H 
ATOM     30  H   LIG d   1       0.224  -4.657 -11.665  0.00  0.00     0.084 H 
ATOM     31  O   LIG d   1      -1.616  -6.380 -10.717  0.00  0.00    -0.369 OA
ATOM     32  H   LIG d   1      -2.104  -4.370 -10.881  0.00  0.00     0.061 H 
ATOM     33  H   LIG d   1      -1.639  -4.925  -9.237  0.00  0.00     0.061 H 
ATOM     34  C   LIG d   1      -0.753  -7.306 -10.052  0.00  0.00     0.088 C 
ATOM     35  C   LIG d   1       0.704  -6.921 -10.322  0.00  0.00    -0.008 C 
ATOM     36  H   LIG d   1      -0.941  -8.322 -10.431  0.00  0.00     0.061 H 
ATOM     37  H   LIG d   1      -0.945  -7.277  -8.970  0.00  0.00     0.061 H 
ATOM     38  H   LIG d   1       0.914  -7.003 -11.398  0.00  0.00     0.084 H 
ATOM     39  H   LIG d   1       1.372  -7.596  -9.766  0.00  0.00     0.084 H 
ATOM     40  H   LIG d   1       0.708  -5.480  -8.806  0.00  0.00     0.204 HD
ENDBRANCH  23  26
ENDBRANCH  20  23
ENDBRANCH  18  20
ENDBRANCH  13  16
ENDBRANCH   8  13
BRANCH   1  41
ATOM     41  C   LIG d   1       7.514  -4.565  -5.420  0.00  0.00    -0.043 C 
ATOM     42  H   LIG d   1       8.429  -4.690  -4.821  0.00  0.00     0.027 H 
ATOM     43  H   LIG d   1       7.783  -4.235  -6.433  0.00  0.00     0.027 H 
ATOM     44  H   LIG d   1       6.979  -5.524  -5.476  0.00  0.00     0.027 H 
ENDBRANCH   1  41
BRANCH   5  45
ATOM     45  C   LIG d   1       4.177  -0.492  -3.026  0.00  0.00    -0.043 C 
ATOM     46  H   LIG d   1       4.427   0.554  -3.257  0.00  0.00     0.030 H 
BRANCH  45  47
ATOM     47  C   LIG d   1       2.684  -0.725  -3.266  0.00  0.00    -0.062 C 
ATOM     48  H   LIG d   1       2.278  -1.362  -2.466  0.00  0.00     0.023 H 
ATOM     49  H   LIG d   1       2.542  -1.220  -4.237  0.00  0.00     0.023 H 
ATOM     50  H   LIG d   1       2.158   0.242  -3.267  0.00  0.00     0.023 H 
ENDBRANCH  45  47
BRANCH  45  51
ATOM     51  C   LIG d   1       4.508  -0.783  -1.561  0.00  0.00    -0.062 C 
ATOM     52  H   LIG d   1       5.592  -0.681  -1.403  0.00  0.00     0.023 H 
ATOM     53  H   LIG d   1       4.196  -1.808  -1.311  0.00  0.00     0.023 H 
ATOM     54  H   LIG d   1       3.976  -0.069  -0.915  0.00  0.00     0.023 H 
ENDBRANCH  45  51
ENDBRANCH   5  45
BRANCH   3  55
ATOM     55  C   LIG d   1       7.103  -0.100  -3.784  0.00  0.00     0.020 C 
ATOM     56  H   LIG d   1       6.884   0.615  -2.977  0.00  0.00     0.047 H 
ATOM     57  H   LIG d   1       8.191  -0.234  -3.870  0.00  0.00     0.047 H 
BRANCH  55  58
ATOM     58  N   LIG d   1       6.572   0.413  -5.050  0.00  0.00    -0.299 N 
ATOM     59  C   LIG d   1       7.413   0.731  -6.053  0.00  0.00     0.304 C 
ATOM     60  O   LIG d   1       8.612   0.591  -5.910  0.00  0.00    -0.253 OA
ATOM     61  N   LIG d   1       6.924   1.201  -7.218  0.00  0.00    -0.270 N 
ATOM     62  H   LIG d   1       5.848   1.406  -7.320  0.00  0.00     0.156 HD
ATOM     63  H   LIG d   1       5.488   0.538  -5.180  0.00  0.00     0.150 HD
BRANCH  61  64
ATOM     64  C   LIG d   1       7.787   1.433  -8.298  0.00  0.00     0.035 A 
ATOM     65  C   LIG d   1       8.058   0.414  -9.202  0.00  0.00    -0.037 A 
ATOM     66  C   LIG d   1       8.905   0.644 -10.268  0.00  0.00    -0.018 A 
ATOM     67  H   LIG d   1       7.602  -0.557  -9.073  0.00  0.00     0.064 H 
ATOM     68  C   LIG d   1       9.495   1.889 -10.429  0.00  0.00     0.120 A 
ATOM     69  H   LIG d   1       9.111  -0.147 -10.973  0.00  0.00     0.066 H 
ATOM     70  C   LIG d   1       9.226   2.908  -9.526  0.00  0.00    -0.018 A 
ATOM     71  C   LIG d   1       8.374   2.680  -8.463  0.00  0.00    -0.037 A 
ATOM     72  H   LIG d   1       9.681   3.878  -9.655  0.00  0.00     0.066 H 
ATOM     73  H   LIG d   1       8.166   3.472  -7.760  0.00  0.00     0.064 H 
BRANCH  68  74
ATOM     74  O   LIG d   1      10.332   2.113 -11.477  0.00  0.00    -0.495 OA
BRANCH  74  75
ATOM     75  C   LIG d   1      10.521   3.472 -11.877  0.00  0.00     0.079 C 
ATOM     76  H   LIG d   1      11.572   3.756 -11.726  0.00  0.00     0.066 H 
ATOM     77  H   LIG d   1       9.873   4.125 -11.275  0.00  0.00     0.066 H 
ATOM     78  H   LIG d   1      10.261   3.580 -12.941  0.00  0.00     0.066 H 
ENDBRANCH  74  75
ENDBRANCH  68  74
ENDBRANCH  61  64
ENDBRANCH  55  58
ENDBRANCH   3  55
TORSDOF 14
ENDMDL
MODEL 9
REMARK VINA RESULT:      -6.2      3.233      4.132
REMARK  14 active torsions:
REMARK  status: ('A' for Active; 'I' for Inactive)
REMARK    1  A    between atoms: C_1  and  C_2 
REMARK    2  A    between atoms: C_4  and  C_26 
REMARK    3  A    between atoms: C_6  and  C_23 
REMARK    4  A    between atoms: C_9  and  C_11 
REMARK    5  A    between atoms: C_11  and  C_12 
REMARK       I    between atoms: C_12  and  N_14 
REMARK    6  A    between atoms: N_14  and  C_15 
REMARK    7  A    between atoms: C_15  and  C_16 
REMARK    8  A    between atoms: C_16  and  N_17 
REMARK    9  A    between atoms: C_23  and  C_24 
REMARK   10  A    between atoms: C_23  and  C_25 
REMARK   11  A    between atoms: C_26  and  N_27 
REMARK       I    between atoms: N_27  and  C_28 
REMARK       I    between atoms: C_28  and  N_30 
REMARK   12  A    between atoms: N_30  and  C_31 
REMARK   13  A    between atoms: C_34  and  O_37 
REMARK   14  A    between atoms: O_37  and  C_38 
ROOT
ATOM      1  C   LIG d   1       6.739  -3.338  -5.339  0.00  0.00    -0.073 C 
ATOM      2  C   LIG d   1       7.019  -2.379  -4.516  0.00  0.00    -0.080 C 
ATOM      3  C   LIG d   1       6.041  -1.799  -3.538  0.00  0.00    -0.004 C 
ATOM      4  H   LIG d   1       6.270  -2.209  -2.543  0.00  0.00     0.036 H 
ATOM      5  C   LIG d   1       4.612  -2.178  -3.934  0.00  0.00    -0.030 C 
ATOM      6  H   LIG d   1       4.313  -1.630  -4.839  0.00  0.00     0.031 H 
ATOM      7  C   LIG d   1       4.565  -3.690  -4.188  0.00  0.00    -0.042 C 
ATOM      8  C   LIG d   1       5.394  -3.995  -5.438  0.00  0.00    -0.012 C 
ATOM      9  H   LIG d   1       5.551  -5.081  -5.521  0.00  0.00     0.035 H 
ATOM     10  H   LIG d   1       8.028  -1.941  -4.505  0.00  0.00     0.058 H 
ATOM     11  H   LIG d   1       4.983  -4.221  -3.321  0.00  0.00     0.027 H 
ATOM     12  H   LIG d   1       3.522  -4.003  -4.344  0.00  0.00     0.027 H 
ENDROOT
BRANCH   8  13
ATOM     13  C   LIG d   1       4.662  -3.468  -6.674  0.00  0.00     0.030 C 
ATOM     14  H   LIG d   1       3.992  -2.646  -6.381  0.00  0.00     0.036 H 
ATOM     15  H   LIG d   1       5.395  -3.101  -7.406  0.00  0.00     0.036 H 
BRANCH  13  16
ATOM     16  C   LIG d   1       3.852  -4.581  -7.290  0.00  0.00     0.214 C 
ATOM     17  O   LIG d   1       3.345  -5.425  -6.584  0.00  0.00    -0.276 OA
ATOM     18  N   LIG d   1       3.691  -4.635  -8.627  0.00  0.00    -0.310 N 
ATOM     19  H   LIG d   1       4.151  -3.869  -9.269  0.00  0.00     0.149 HD
BRANCH  18  20
ATOM     20  C   LIG d   1       2.903  -5.715  -9.227  0.00  0.00     0.052 C 
ATOM     21  H   LIG d   1       3.576  -6.414  -9.747  0.00  0.00     0.051 H 
ATOM     22  H   LIG d   1       2.356  -6.253  -8.438  0.00  0.00     0.051 H 
BRANCH  20  23
ATOM     23  C   LIG d   1       1.908  -5.126 -10.227  0.00  0.00    -0.016 C 
ATOM     24  H   LIG d   1       1.933  -4.028 -10.167  0.00  0.00     0.083 H 
ATOM     25  H   LIG d   1       2.179  -5.444 -11.245  0.00  0.00     0.083 H 
BRANCH  23  26
ATOM     26  N   LIG d   1       0.555  -5.602  -9.909  0.00  0.00     0.240 N 
ATOM     27  C   LIG d   1      -0.465  -4.747 -10.536  0.00  0.00    -0.008 C 
ATOM     28  C   LIG d   1      -1.856  -5.243 -10.132  0.00  0.00     0.088 C 
ATOM     29  H   LIG d   1      -0.331  -3.710 -10.199  0.00  0.00     0.084 H 
ATOM     30  H   LIG d   1      -0.361  -4.794 -11.630  0.00  0.00     0.084 H 
ATOM     31  O   LIG d   1      -1.996  -6.616 -10.506  0.00  0.00    -0.369 OA
ATOM     32  H   LIG d   1      -2.624  -4.643 -10.643  0.00  0.00     0.061 H 
ATOM     33  H   LIG d   1      -1.980  -5.145  -9.043  0.00  0.00     0.061 H 
ATOM     34  C   LIG d   1      -1.020  -7.476  -9.914  0.00  0.00     0.088 C 
ATOM     35  C   LIG d   1       0.380  -7.003 -10.316  0.00  0.00    -0.008 C 
ATOM     36  H   LIG d   1      -1.175  -8.507 -10.266  0.00  0.00     0.061 H 
ATOM     37  H   LIG d   1      -1.117  -7.444  -8.819  0.00  0.00     0.061 H 
ATOM     38  H   LIG d   1       0.498  -7.087 -11.406  0.00  0.00     0.084 H 
ATOM     39  H   LIG d   1       1.137  -7.627  -9.817  0.00  0.00     0.084 H 
ATOM     40  H   LIG d   1       0.426  -5.544  -8.819  0.00  0.00     0.204 HD
ENDBRANCH  23  26
ENDBRANCH  20  23
ENDBRANCH  18  20
ENDBRANCH  13  16
ENDBRANCH   8  13
BRANCH   1  41
ATOM     41  C   LIG d   1       7.832  -3.824  -6.257  0.00  0.00    -0.043 C 
ATOM     42  H   LIG d   1       7.382  -4.320  -7.130  0.00  0.00     0.027 H 
ATOM     43  H   LIG d   1       8.472  -4.538  -5.719  0.00  0.00     0.027 H 
ATOM     44  H   LIG d   1       8.436  -2.970  -6.593  0.00  0.00     0.027 H 
ENDBRANCH   1  41
BRANCH   5  45
ATOM     45  C   LIG d   1       3.651  -1.818  -2.799  0.00  0.00    -0.043 C 
ATOM     46  H   LIG d   1       3.088  -2.714  -2.497  0.00  0.00     0.030 H 
BRANCH  45  47
ATOM     47  C   LIG d   1       4.448  -1.289  -1.605  0.00  0.00    -0.062 C 
ATOM     48  H   LIG d   1       5.037  -2.107  -1.165  0.00  0.00     0.023 H 
ATOM     49  H   LIG d   1       3.755  -0.888  -0.850  0.00  0.00     0.023 H 
ATOM     50  H   LIG d   1       5.126  -0.489  -1.941  0.00  0.00     0.023 H 
ENDBRANCH  45  47
BRANCH  45  51
ATOM     51  C   LIG d   1       2.676  -0.741  -3.278  0.00  0.00    -0.062 C 
ATOM     52  H   LIG d   1       1.786  -0.738  -2.633  0.00  0.00     0.023 H 
ATOM     53  H   LIG d   1       2.377  -0.952  -4.316  0.00  0.00     0.023 H 
ATOM     54  H   LIG d   1       3.165   0.244  -3.231  0.00  0.00     0.023 H 
ENDBRANCH  45  51
ENDBRANCH   5  45
BRANCH   3  55
ATOM     55  C   LIG d   1       6.177  -0.275  -3.529  0.00  0.00     0.020 C 
ATOM     56  H   LIG d   1       5.720   0.139  -4.441  0.00  0.00     0.047 H 
ATOM     57  H   LIG d   1       5.666   0.134  -2.646  0.00  0.00     0.047 H 
BRANCH  55  58
ATOM     58  N   LIG d   1       7.596   0.089  -3.486  0.00  0.00    -0.299 N 
ATOM     59  C   LIG d   1       7.981   1.337  -3.813  0.00  0.00     0.304 C 
ATOM     60  O   LIG d   1       7.152   2.163  -4.145  0.00  0.00    -0.253 OA
ATOM     61  N   LIG d   1       9.286   1.672  -3.772  0.00  0.00    -0.270 N 
ATOM     62  H   LIG d   1      10.044   0.906  -3.553  0.00  0.00     0.156 HD
ATOM     63  H   LIG d   1       8.346  -0.657  -3.185  0.00  0.00     0.150 HD
BRANCH  61  64
ATOM     64  C   LIG d   1       9.678   2.997  -4.010  0.00  0.00     0.035 A 
ATOM     65  C   LIG d   1       9.854   3.872  -2.946  0.00  0.00    -0.037 A 
ATOM     66  C   LIG d   1      10.243   5.176  -3.182  0.00  0.00    -0.018 A 
ATOM     67  H   LIG d   1       9.689   3.531  -1.935  0.00  0.00     0.064 H 
ATOM     68  C   LIG d   1      10.449   5.614  -4.482  0.00  0.00     0.120 A 
ATOM     69  H   LIG d   1      10.385   5.854  -2.354  0.00  0.00     0.066 H 
ATOM     70  C   LIG d   1      10.273   4.741  -5.546  0.00  0.00    -0.018 A 
ATOM     71  C   LIG d   1       9.888   3.436  -5.311  0.00  0.00    -0.037 A 
ATOM     72  H   LIG d   1      10.437   5.082  -6.557  0.00  0.00     0.066 H 
ATOM     73  H   LIG d   1       9.750   2.757  -6.139  0.00  0.00     0.064 H 
BRANCH  68  74
ATOM     74  O   LIG d   1      10.828   6.899  -4.713  0.00  0.00    -0.495 OA
BRANCH  74  75
ATOM     75  C   LIG d   1      12.064   7.097  -5.403  0.00  0.00     0.079 C 
ATOM     76  H   LIG d   1      12.444   6.129  -5.759  0.00  0.00     0.066 H 
ATOM     77  H   LIG d   1      12.796   7.550  -4.719  0.00  0.00     0.066 H 
ATOM     78  H   LIG d   1      11.902   7.766  -6.261  0.00  0.00     0.066 H 
ENDBRANCH  74  75
ENDBRANCH  68  74
ENDBRANCH  61  64
ENDBRANCH  55  58
ENDBRANCH   3  55
TORSDOF 14
ENDMDL
